data_crystal

_cell_length_a 32.76260
_cell_length_b 34.95000
_cell_length_c 5.77210
_cell_angle_alpha 90.00000
_cell_angle_beta  90.00000
_cell_angle_gamma 90.00000

_symmetry_space_group_name_	'P 1'
_symmetry_space_group_name_H-M	'P 1'

loop_
_symmetry_equiv_pos_as_xyz
  x,y,z

loop_
_atom_site_label
_atom_site_type_symbol
_atom_site_fract_x
_atom_site_fract_y
_atom_site_fract_z
_atom_site_charge
O 	O 	0.35210 0.70040 0.28900 -0.47900
O 	O 	0.19200 0.29580 0.23760 -0.40000
O 	O 	0.23530 0.29530 0.95600 -0.40300
O 	O 	0.40550 0.70960 0.06700 -0.47800
C 	C 	0.36500 0.58220 0.22200 -0.21700
H 	H 	0.35430 0.56520 0.33000 0.10300
C 	C 	0.36340 0.62120 0.26900 0.13400
H 	H 	0.35070 0.63010 0.40240 -0.00500
O 	O 	0.51810 0.29330 0.16600 -0.39500
C 	C 	0.29490 0.44690 0.52500 -0.15900
H 	H 	0.29770 0.44260 0.69050 0.05800
H 	H 	0.27560 0.46770 0.50430 0.05800
C 	C 	0.38070 0.64660 0.11500 -0.21800
C 	C 	0.38160 0.56800 0.02400 0.15100
C 	C 	0.33650 0.45970 0.43000 -0.16600
C 	C 	0.40890 0.46190 0.46500 -0.17400
C 	C 	0.41200 0.48700 0.28400 0.22400
C 	C 	0.33800 0.48490 0.25000 0.20300
C 	C 	0.27730 0.41160 0.41800 0.13200
C 	C 	0.22210 0.31090 0.13200 0.35900
C 	C 	0.37200 0.44680 0.54000 0.26200
C 	C 	0.39830 0.63240 0.91500 0.14500
H 	H 	0.40930 0.64940 0.80810 -0.00600
C 	C 	0.39970 0.59360 0.87100 -0.21900
H 	H 	0.41290 0.58460 0.73940 0.09900
C 	C 	0.38000 0.52510 0.96500 -0.16700
H 	H 	0.35700 0.52080 0.86220 0.06500
H 	H 	0.40460 0.51850 0.88070 0.06400
C 	C 	0.44670 0.44980 0.60800 -0.16000
H 	H 	0.46670 0.47030 0.60000 0.05400
H 	H 	0.43850 0.44720 0.76860 0.06300
C 	C 	0.24110 0.34620 0.23200 -0.16000
C 	C 	0.37620 0.49880 0.16500 -0.13800
C 	C 	0.45330 0.50280 0.21800 -0.70000
H 	H 	0.45900 0.52530 0.30820 0.22600
H 	H 	0.45330 0.50930 0.05640 0.22300
H 	H 	0.47390 0.48390 0.24720 0.22400
C 	C 	0.38040 0.68850 0.16600 0.47400
C 	C 	0.24490 0.39350 0.53300 -0.18400
H 	H 	0.23510 0.40350 0.67100 0.08400
C 	C 	0.45780 0.39410 0.34000 -0.20000
H 	H 	0.43820 0.40380 0.24030 0.09200
C 	C 	0.29050 0.39570 0.22100 -0.20400
H 	H 	0.31280 0.40680 0.14620 0.08900
C 	C 	0.46650 0.41370 0.53300 0.12700
C 	C 	0.27280 0.36370 0.12200 0.11100
H 	H 	0.28240 0.35410 0.98150 -0.00800
C 	C 	0.50520 0.34330 0.42700 -0.16400
C 	C 	0.22740 0.36050 0.44100 0.09100
H 	H 	0.20650 0.34810 0.52030 0.02000
C 	C 	0.29890 0.49870 0.13000 -0.66900
H 	H 	0.28120 0.47730 0.10310 0.21700
H 	H 	0.30580 0.51040 0.98490 0.21700
H 	H 	0.28530 0.51700 0.22710 0.21400
C 	C 	0.36990 0.41770 0.72900 -0.78100
H 	H 	0.37200 0.43020 0.87630 0.25300
H 	H 	0.39190 0.39980 0.71140 0.25900
H 	H 	0.34430 0.40430 0.72000 0.25700
C 	C 	0.49560 0.39690 0.67900 -0.19100
H 	H 	0.50230 0.40890 0.81830 0.08100
C 	C 	0.47700 0.35970 0.28200 0.09300
H 	H 	0.47050 0.34770 0.14260 0.00100
C 	C 	0.51450 0.36270 0.62000 0.08700
H 	H 	0.53450 0.35290 0.71850 0.00300
C 	C 	0.52740 0.30500 0.38600 0.36700
O 	O 	0.54500 0.29130 0.54900 -0.44100
O 	O 	0.14790 0.29960 0.78900 -0.47900
O 	O 	0.30800 0.70420 0.73760 -0.39800
O 	O 	0.26470 0.70470 0.45600 -0.39600
O 	O 	0.09450 0.29040 0.56700 -0.47400
C 	C 	0.13500 0.41780 0.72200 -0.21300
H 	H 	0.14570 0.43480 0.83000 0.09900
C 	C 	0.13660 0.37880 0.76900 0.12700
H 	H 	0.14930 0.36990 0.90240 -0.00600
O 	O 	0.98190 0.70670 0.66600 -0.40100
C 	C 	0.20510 0.55310 0.02500 -0.15300
H 	H 	0.20230 0.55740 0.19050 0.05600
H 	H 	0.22440 0.53230 0.00430 0.05600
C 	C 	0.11930 0.35340 0.61500 -0.20700
C 	C 	0.11840 0.43200 0.52400 0.14900
C 	C 	0.16350 0.54030 0.93000 -0.17400
C 	C 	0.09110 0.53810 0.96500 -0.17900
C 	C 	0.08800 0.51300 0.78400 0.22800
C 	C 	0.16200 0.51510 0.75000 0.21000
C 	C 	0.22270 0.58840 0.91800 0.12400
C 	C 	0.27790 0.68910 0.63200 0.34600
C 	C 	0.12800 0.55320 0.04000 0.26900
C 	C 	0.10170 0.36760 0.41500 0.13200
H 	H 	0.09070 0.35060 0.30810 -0.00300
C 	C 	0.10030 0.40640 0.37100 -0.21400
H 	H 	0.08710 0.41540 0.23940 0.09800
C 	C 	0.12000 0.47490 0.46500 -0.16200
H 	H 	0.14300 0.47920 0.36220 0.06300
H 	H 	0.09540 0.48150 0.38070 0.06200
C 	C 	0.05330 0.55020 0.10800 -0.15500
H 	H 	0.03330 0.52970 0.10000 0.05200
H 	H 	0.06150 0.55280 0.26860 0.06200
C 	C 	0.25890 0.65380 0.73200 -0.15000
C 	C 	0.12380 0.50120 0.66500 -0.14500
C 	C 	0.04670 0.49720 0.71800 -0.70500
H 	H 	0.04100 0.47470 0.80820 0.22800
H 	H 	0.04670 0.49070 0.55640 0.22400
H 	H 	0.02610 0.51610 0.74720 0.22500
C 	C 	0.11960 0.31150 0.66600 0.47000
C 	C 	0.25510 0.60650 0.03300 -0.18300
H 	H 	0.26490 0.59650 0.17100 0.08500
C 	C 	0.04220 0.60590 0.84000 -0.19400
H 	H 	0.06180 0.59620 0.74030 0.08800
C 	C 	0.20950 0.60430 0.72100 -0.18900
H 	H 	0.18720 0.59320 0.64620 0.08200
C 	C 	0.03350 0.58630 0.03300 0.12000
C 	C 	0.22720 0.63630 0.62200 0.08500
H 	H 	0.21760 0.64590 0.48150 0.00600
C 	C 	0.99480 0.65670 0.92700 -0.15900
C 	C 	0.27260 0.63950 0.94100 0.09100
H 	H 	0.29350 0.65190 0.02030 0.01800
C 	C 	0.20110 0.50130 0.63000 -0.68500
H 	H 	0.21880 0.52270 0.60310 0.22000
H 	H 	0.19420 0.48960 0.48490 0.22400
H 	H 	0.21470 0.48300 0.72710 0.21800
C 	C 	0.13010 0.58230 0.22900 -0.79300
H 	H 	0.12800 0.56980 0.37630 0.25900
H 	H 	0.10810 0.60020 0.21140 0.26300
H 	H 	0.15570 0.59570 0.22000 0.26100
C 	C 	0.00440 0.60310 0.17900 -0.18500
H 	H 	0.99770 0.59110 0.31830 0.08000
C 	C 	0.02300 0.64030 0.78200 0.08800
H 	H 	0.02950 0.65230 0.64260 -0.00000
C 	C 	0.98550 0.63730 0.12000 0.08000
H 	H 	0.96550 0.64710 0.21850 0.00700
C 	C 	0.97260 0.69500 0.88600 0.37000
O 	O 	0.95500 0.70870 0.04900 -0.44400
O 	O 	0.64790 0.20040 0.71100 -0.48000
O 	O 	0.80800 0.79580 0.76240 -0.40100
O 	O 	0.76470 0.79530 0.04400 -0.40400
O 	O 	0.59450 0.20960 0.93300 -0.47900
C 	C 	0.63500 0.08220 0.77800 -0.21800
H 	H 	0.64570 0.06520 0.67000 0.10200
C 	C 	0.63660 0.12120 0.73100 0.13300
H 	H 	0.64930 0.13010 0.59760 -0.00600
O 	O 	0.48190 0.79330 0.83400 -0.39600
C 	C 	0.70510 0.94690 0.47500 -0.16000
H 	H 	0.70230 0.94260 0.30950 0.05700
H 	H 	0.72440 0.96770 0.49570 0.05700
C 	C 	0.61930 0.14660 0.88500 -0.21800
C 	C 	0.61840 0.06800 0.97600 0.15100
C 	C 	0.66350 0.95970 0.57000 -0.16700
C 	C 	0.59110 0.96190 0.53500 -0.17400
C 	C 	0.58800 0.98700 0.71600 0.22400
C 	C 	0.66200 0.98490 0.75000 0.20300
C 	C 	0.72270 0.91160 0.58200 0.13200
C 	C 	0.77790 0.81090 0.86800 0.35900
C 	C 	0.62800 0.94680 0.46000 0.26200
C 	C 	0.60170 0.13240 0.08500 0.14500
H 	H 	0.59070 0.14940 0.19190 -0.00600
C 	C 	0.60030 0.09360 0.12900 -0.21900
H 	H 	0.58710 0.08460 0.26060 0.09900
C 	C 	0.62000 0.02510 0.03500 -0.16700
H 	H 	0.64300 0.02080 0.13780 0.06400
H 	H 	0.59540 0.01850 0.11930 0.06400
C 	C 	0.55330 0.94980 0.39200 -0.16000
H 	H 	0.53330 0.97030 0.40000 0.05400
H 	H 	0.56150 0.94720 0.23140 0.06200
C 	C 	0.75890 0.84620 0.76800 -0.16000
C 	C 	0.62380 0.99880 0.83500 -0.13900
C 	C 	0.54670 0.00280 0.78200 -0.70100
H 	H 	0.54100 0.02530 0.69180 0.22600
H 	H 	0.54670 0.00930 0.94360 0.22300
H 	H 	0.52610 0.98390 0.75280 0.22400
C 	C 	0.61960 0.18850 0.83400 0.47400
C 	C 	0.75510 0.89350 0.46700 -0.18400
H 	H 	0.76490 0.90350 0.32900 0.08400
C 	C 	0.54220 0.89410 0.66000 -0.20000
H 	H 	0.56180 0.90380 0.75970 0.09200
C 	C 	0.70950 0.89570 0.77900 -0.20400
H 	H 	0.68720 0.90680 0.85380 0.08900
C 	C 	0.53350 0.91370 0.46700 0.12700
C 	C 	0.72720 0.86370 0.87800 0.11100
H 	H 	0.71760 0.85410 0.01850 -0.00800
C 	C 	0.49480 0.84330 0.57300 -0.16400
C 	C 	0.77260 0.86050 0.55900 0.09100
H 	H 	0.79350 0.84810 0.47970 0.02000
C 	C 	0.70110 0.99870 0.87000 -0.66900
H 	H 	0.71880 0.97730 0.89690 0.21700
H 	H 	0.69420 0.01040 0.01510 0.21700
H 	H 	0.71470 0.01700 0.77290 0.21400
C 	C 	0.63010 0.91770 0.27100 -0.78100
H 	H 	0.62800 0.93020 0.12370 0.25300
H 	H 	0.60810 0.89980 0.28860 0.25900
H 	H 	0.65570 0.90430 0.28000 0.25700
C 	C 	0.50440 0.89690 0.32100 -0.19100
H 	H 	0.49770 0.90890 0.18170 0.08100
C 	C 	0.52300 0.85970 0.71800 0.09300
H 	H 	0.52950 0.84770 0.85740 0.00100
C 	C 	0.48550 0.86270 0.38000 0.08700
H 	H 	0.46550 0.85290 0.28150 0.00300
C 	C 	0.47260 0.80500 0.61400 0.36700
O 	O 	0.45500 0.79130 0.45100 -0.44100
O 	O 	0.85210 0.79960 0.21100 -0.47900
O 	O 	0.69200 0.20420 0.26240 -0.39800
O 	O 	0.73530 0.20470 0.54400 -0.39600
O 	O 	0.90550 0.79040 0.43300 -0.47400
C 	C 	0.86500 0.91780 0.27800 -0.21300
H 	H 	0.85430 0.93480 0.17000 0.09900
C 	C 	0.86340 0.87880 0.23100 0.12700
H 	H 	0.85070 0.86990 0.09760 -0.00600
O 	O 	0.01810 0.20670 0.33400 -0.40100
C 	C 	0.79490 0.05310 0.97500 -0.15300
H 	H 	0.79770 0.05740 0.80950 0.05600
H 	H 	0.77560 0.03230 0.99570 0.05600
C 	C 	0.88070 0.85340 0.38500 -0.20700
C 	C 	0.88160 0.93200 0.47600 0.14900
C 	C 	0.83650 0.04030 0.07000 -0.17400
C 	C 	0.90890 0.03810 0.03500 -0.17900
C 	C 	0.91200 0.01300 0.21600 0.22800
C 	C 	0.83800 0.01510 0.25000 0.21000
C 	C 	0.77730 0.08840 0.08200 0.12400
C 	C 	0.72210 0.18910 0.36800 0.34600
C 	C 	0.87200 0.05320 0.96000 0.26900
C 	C 	0.89830 0.86760 0.58500 0.13200
H 	H 	0.90930 0.85060 0.69190 -0.00300
C 	C 	0.89970 0.90640 0.62900 -0.21400
H 	H 	0.91290 0.91540 0.76060 0.09800
C 	C 	0.88000 0.97490 0.53500 -0.16200
H 	H 	0.85700 0.97920 0.63780 0.06300
H 	H 	0.90460 0.98150 0.61930 0.06200
C 	C 	0.94670 0.05020 0.89200 -0.15500
H 	H 	0.96670 0.02970 0.90000 0.05200
H 	H 	0.93850 0.05280 0.73140 0.06200
C 	C 	0.74110 0.15380 0.26800 -0.15000
C 	C 	0.87620 0.00120 0.33500 -0.14500
C 	C 	0.95330 0.99720 0.28200 -0.70500
H 	H 	0.95900 0.97470 0.19180 0.22800
H 	H 	0.95330 0.99070 0.44360 0.22400
H 	H 	0.97390 0.01610 0.25280 0.22500
C 	C 	0.88040 0.81150 0.33400 0.47000
C 	C 	0.74490 0.10650 0.96700 -0.18400
H 	H 	0.73510 0.09650 0.82900 0.08500
C 	C 	0.95780 0.10590 0.16000 -0.19400
H 	H 	0.93820 0.09620 0.25970 0.08800
C 	C 	0.79050 0.10430 0.27900 -0.18900
H 	H 	0.81280 0.09320 0.35380 0.08200
C 	C 	0.96650 0.08630 0.96700 0.12000
C 	C 	0.77280 0.13630 0.37800 0.08500
H 	H 	0.78240 0.14590 0.51850 0.00600
C 	C 	0.00520 0.15670 0.07300 -0.15900
C 	C 	0.72740 0.13950 0.05900 0.09100
H 	H 	0.70650 0.15190 0.97970 0.01800
C 	C 	0.79890 0.00130 0.37000 -0.68500
H 	H 	0.78120 0.02270 0.39690 0.22000
H 	H 	0.80580 0.98960 0.51510 0.22400
H 	H 	0.78530 0.98300 0.27290 0.21800
C 	C 	0.86990 0.08230 0.77100 -0.79300
H 	H 	0.87200 0.06980 0.62370 0.25900
H 	H 	0.89190 0.10020 0.78860 0.26300
H 	H 	0.84430 0.09570 0.78000 0.26100
C 	C 	0.99560 0.10310 0.82100 -0.18500
H 	H 	0.00230 0.09110 0.68170 0.08000
C 	C 	0.97700 0.14030 0.21800 0.08800
H 	H 	0.97050 0.15230 0.35740 -0.00000
C 	C 	0.01450 0.13730 0.88000 0.08000
H 	H 	0.03450 0.14710 0.78150 0.00700
C 	C 	0.02740 0.19500 0.11400 0.37000
O 	O 	0.04500 0.20870 0.95100 -0.44400
O 	O 	0.64790 0.29960 0.71100 -0.48000
O 	O 	0.80800 0.70420 0.76240 -0.40100
O 	O 	0.76470 0.70470 0.04400 -0.40400
O 	O 	0.59450 0.29040 0.93300 -0.47900
C 	C 	0.63500 0.41780 0.77800 -0.21800
H 	H 	0.64570 0.43480 0.67000 0.10200
C 	C 	0.63660 0.37880 0.73100 0.13300
H 	H 	0.64930 0.36990 0.59760 -0.00600
O 	O 	0.48190 0.70670 0.83400 -0.39600
C 	C 	0.70510 0.55310 0.47500 -0.16000
H 	H 	0.70230 0.55740 0.30950 0.05700
H 	H 	0.72440 0.53230 0.49570 0.05700
C 	C 	0.61930 0.35340 0.88500 -0.21800
C 	C 	0.61840 0.43200 0.97600 0.15100
C 	C 	0.66350 0.54030 0.57000 -0.16600
C 	C 	0.59110 0.53810 0.53500 -0.17400
C 	C 	0.58800 0.51300 0.71600 0.22400
C 	C 	0.66200 0.51510 0.75000 0.20300
C 	C 	0.72270 0.58840 0.58200 0.13200
C 	C 	0.77790 0.68910 0.86800 0.35900
C 	C 	0.62800 0.55320 0.46000 0.26200
C 	C 	0.60170 0.36760 0.08500 0.14500
H 	H 	0.59070 0.35060 0.19190 -0.00600
C 	C 	0.60030 0.40640 0.12900 -0.21900
H 	H 	0.58710 0.41540 0.26060 0.09900
C 	C 	0.62000 0.47490 0.03500 -0.16700
H 	H 	0.64300 0.47920 0.13780 0.06500
H 	H 	0.59540 0.48150 0.11930 0.06400
C 	C 	0.55330 0.55020 0.39200 -0.16000
H 	H 	0.53330 0.52970 0.40000 0.05400
H 	H 	0.56150 0.55280 0.23140 0.06300
C 	C 	0.75890 0.65380 0.76800 -0.16000
C 	C 	0.62380 0.50120 0.83500 -0.13800
C 	C 	0.54670 0.49720 0.78200 -0.70000
H 	H 	0.54100 0.47470 0.69180 0.22600
H 	H 	0.54670 0.49070 0.94360 0.22300
H 	H 	0.52610 0.51610 0.75280 0.22400
C 	C 	0.61960 0.31150 0.83400 0.47400
C 	C 	0.75510 0.60650 0.46700 -0.18400
H 	H 	0.76490 0.59650 0.32900 0.08400
C 	C 	0.54220 0.60590 0.66000 -0.20000
H 	H 	0.56180 0.59620 0.75970 0.09200
C 	C 	0.70950 0.60430 0.77900 -0.20400
H 	H 	0.68720 0.59320 0.85380 0.08900
C 	C 	0.53350 0.58630 0.46700 0.12700
C 	C 	0.72720 0.63630 0.87800 0.11100
H 	H 	0.71760 0.64590 0.01850 -0.00800
C 	C 	0.49480 0.65670 0.57300 -0.16400
C 	C 	0.77260 0.63950 0.55900 0.09100
H 	H 	0.79350 0.65190 0.47970 0.02000
C 	C 	0.70110 0.50130 0.87000 -0.66900
H 	H 	0.71880 0.52270 0.89690 0.21700
H 	H 	0.69420 0.48960 0.01510 0.21700
H 	H 	0.71470 0.48300 0.77290 0.21400
C 	C 	0.63010 0.58230 0.27100 -0.78100
H 	H 	0.62800 0.56980 0.12370 0.25300
H 	H 	0.60810 0.60020 0.28860 0.25900
H 	H 	0.65570 0.59570 0.28000 0.25700
C 	C 	0.50440 0.60310 0.32100 -0.19100
H 	H 	0.49770 0.59110 0.18170 0.08100
C 	C 	0.52300 0.64030 0.71800 0.09300
H 	H 	0.52950 0.65230 0.85740 0.00100
C 	C 	0.48550 0.63730 0.38000 0.08700
H 	H 	0.46550 0.64710 0.28150 0.00300
C 	C 	0.47260 0.69500 0.61400 0.36700
O 	O 	0.45500 0.70870 0.45100 -0.44100
O 	O 	0.85210 0.70040 0.21100 -0.47900
O 	O 	0.69200 0.29580 0.26240 -0.39800
O 	O 	0.73530 0.29530 0.54400 -0.39600
O 	O 	0.90550 0.70960 0.43300 -0.47400
C 	C 	0.86500 0.58220 0.27800 -0.21300
H 	H 	0.85430 0.56520 0.17000 0.09900
C 	C 	0.86340 0.62120 0.23100 0.12700
H 	H 	0.85070 0.63010 0.09760 -0.00600
O 	O 	0.01810 0.29330 0.33400 -0.40100
C 	C 	0.79490 0.44690 0.97500 -0.15300
H 	H 	0.79770 0.44260 0.80950 0.05600
H 	H 	0.77560 0.46770 0.99570 0.05600
C 	C 	0.88070 0.64660 0.38500 -0.20700
C 	C 	0.88160 0.56800 0.47600 0.14900
C 	C 	0.83650 0.45970 0.07000 -0.17400
C 	C 	0.90890 0.46190 0.03500 -0.17900
C 	C 	0.91200 0.48700 0.21600 0.22800
C 	C 	0.83800 0.48490 0.25000 0.21000
C 	C 	0.77730 0.41160 0.08200 0.12400
C 	C 	0.72210 0.31090 0.36800 0.34600
C 	C 	0.87200 0.44680 0.96000 0.26900
C 	C 	0.89830 0.63240 0.58500 0.13200
H 	H 	0.90930 0.64940 0.69190 -0.00300
C 	C 	0.89970 0.59360 0.62900 -0.21400
H 	H 	0.91290 0.58460 0.76060 0.09800
C 	C 	0.88000 0.52510 0.53500 -0.16200
H 	H 	0.85700 0.52080 0.63780 0.06300
H 	H 	0.90460 0.51850 0.61930 0.06200
C 	C 	0.94670 0.44980 0.89200 -0.15500
H 	H 	0.96670 0.47030 0.90000 0.05200
H 	H 	0.93850 0.44720 0.73140 0.06200
C 	C 	0.74110 0.34620 0.26800 -0.15000
C 	C 	0.87620 0.49880 0.33500 -0.14500
C 	C 	0.95330 0.50280 0.28200 -0.70500
H 	H 	0.95900 0.52530 0.19180 0.22800
H 	H 	0.95330 0.50930 0.44360 0.22400
H 	H 	0.97390 0.48390 0.25280 0.22500
C 	C 	0.88040 0.68850 0.33400 0.47000
C 	C 	0.74490 0.39350 0.96700 -0.18300
H 	H 	0.73510 0.40350 0.82900 0.08500
C 	C 	0.95780 0.39410 0.16000 -0.19400
H 	H 	0.93820 0.40380 0.25970 0.08800
C 	C 	0.79050 0.39570 0.27900 -0.18900
H 	H 	0.81280 0.40680 0.35380 0.08200
C 	C 	0.96650 0.41370 0.96700 0.12000
C 	C 	0.77280 0.36370 0.37800 0.08500
H 	H 	0.78240 0.35410 0.51850 0.00600
C 	C 	0.00520 0.34330 0.07300 -0.15900
C 	C 	0.72740 0.36050 0.05900 0.09100
H 	H 	0.70650 0.34810 0.97970 0.01800
C 	C 	0.79890 0.49870 0.37000 -0.68500
H 	H 	0.78120 0.47730 0.39690 0.22000
H 	H 	0.80580 0.51040 0.51510 0.22400
H 	H 	0.78530 0.51700 0.27290 0.21800
C 	C 	0.86990 0.41770 0.77100 -0.79300
H 	H 	0.87200 0.43020 0.62370 0.25900
H 	H 	0.89190 0.39980 0.78860 0.26300
H 	H 	0.84430 0.40430 0.78000 0.26100
C 	C 	0.99560 0.39690 0.82100 -0.18500
H 	H 	0.00230 0.40890 0.68170 0.08000
C 	C 	0.97700 0.35970 0.21800 0.08800
H 	H 	0.97050 0.34770 0.35740 -0.00000
C 	C 	0.01450 0.36270 0.88000 0.08000
H 	H 	0.03450 0.35290 0.78150 0.00700
C 	C 	0.02740 0.30500 0.11400 0.37000
O 	O 	0.04500 0.29130 0.95100 -0.44400
O 	O 	0.35210 0.79960 0.28900 -0.48000
O 	O 	0.19200 0.20420 0.23760 -0.40100
O 	O 	0.23530 0.20470 0.95600 -0.40400
O 	O 	0.40550 0.79040 0.06700 -0.47900
C 	C 	0.36500 0.91780 0.22200 -0.21800
H 	H 	0.35430 0.93480 0.33000 0.10200
C 	C 	0.36340 0.87880 0.26900 0.13300
H 	H 	0.35070 0.86990 0.40240 -0.00600
O 	O 	0.51810 0.20670 0.16600 -0.39600
C 	C 	0.29490 0.05310 0.52500 -0.16000
H 	H 	0.29770 0.05740 0.69050 0.05700
H 	H 	0.27560 0.03230 0.50430 0.05700
C 	C 	0.38070 0.85340 0.11500 -0.21800
C 	C 	0.38160 0.93200 0.02400 0.15100
C 	C 	0.33650 0.04030 0.43000 -0.16700
C 	C 	0.40890 0.03810 0.46500 -0.17400
C 	C 	0.41200 0.01300 0.28400 0.22400
C 	C 	0.33800 0.01510 0.25000 0.20300
C 	C 	0.27730 0.08840 0.41800 0.13200
C 	C 	0.22210 0.18910 0.13200 0.35900
C 	C 	0.37200 0.05320 0.54000 0.26200
C 	C 	0.39830 0.86760 0.91500 0.14500
H 	H 	0.40930 0.85060 0.80810 -0.00600
C 	C 	0.39970 0.90640 0.87100 -0.21900
H 	H 	0.41290 0.91540 0.73940 0.09900
C 	C 	0.38000 0.97490 0.96500 -0.16700
H 	H 	0.35700 0.97920 0.86220 0.06400
H 	H 	0.40460 0.98150 0.88070 0.06400
C 	C 	0.44670 0.05020 0.60800 -0.16000
H 	H 	0.46670 0.02970 0.60000 0.05400
H 	H 	0.43850 0.05280 0.76860 0.06200
C 	C 	0.24110 0.15380 0.23200 -0.16000
C 	C 	0.37620 0.00120 0.16500 -0.13900
C 	C 	0.45330 0.99720 0.21800 -0.70100
H 	H 	0.45900 0.97470 0.30820 0.22600
H 	H 	0.45330 0.99070 0.05640 0.22300
H 	H 	0.47390 0.01610 0.24720 0.22400
C 	C 	0.38040 0.81150 0.16600 0.47400
C 	C 	0.24490 0.10650 0.53300 -0.18400
H 	H 	0.23510 0.09650 0.67100 0.08400
C 	C 	0.45780 0.10590 0.34000 -0.20000
H 	H 	0.43820 0.09620 0.24030 0.09200
C 	C 	0.29050 0.10430 0.22100 -0.20400
H 	H 	0.31280 0.09320 0.14620 0.08900
C 	C 	0.46650 0.08630 0.53300 0.12700
C 	C 	0.27280 0.13630 0.12200 0.11100
H 	H 	0.28240 0.14590 0.98150 -0.00800
C 	C 	0.50520 0.15670 0.42700 -0.16400
C 	C 	0.22740 0.13950 0.44100 0.09100
H 	H 	0.20650 0.15190 0.52030 0.02000
C 	C 	0.29890 0.00130 0.13000 -0.66900
H 	H 	0.28120 0.02270 0.10310 0.21700
H 	H 	0.30580 0.98960 0.98490 0.21700
H 	H 	0.28530 0.98300 0.22710 0.21400
C 	C 	0.36990 0.08230 0.72900 -0.78100
H 	H 	0.37200 0.06980 0.87630 0.25300
H 	H 	0.39190 0.10020 0.71140 0.25900
H 	H 	0.34430 0.09570 0.72000 0.25700
C 	C 	0.49560 0.10310 0.67900 -0.19100
H 	H 	0.50230 0.09110 0.81830 0.08100
C 	C 	0.47700 0.14030 0.28200 0.09300
H 	H 	0.47050 0.15230 0.14260 0.00100
C 	C 	0.51450 0.13730 0.62000 0.08700
H 	H 	0.53450 0.14710 0.71850 0.00300
C 	C 	0.52740 0.19500 0.38600 0.36700
O 	O 	0.54500 0.20870 0.54900 -0.44100
O 	O 	0.14790 0.20040 0.78900 -0.47900
O 	O 	0.30800 0.79580 0.73760 -0.39800
O 	O 	0.26470 0.79530 0.45600 -0.39600
O 	O 	0.09450 0.20960 0.56700 -0.47400
C 	C 	0.13500 0.08220 0.72200 -0.21300
H 	H 	0.14570 0.06520 0.83000 0.09900
C 	C 	0.13660 0.12120 0.76900 0.12700
H 	H 	0.14930 0.13010 0.90240 -0.00600
O 	O 	0.98190 0.79330 0.66600 -0.40100
C 	C 	0.20510 0.94690 0.02500 -0.15300
H 	H 	0.20230 0.94260 0.19050 0.05600
H 	H 	0.22440 0.96770 0.00430 0.05600
C 	C 	0.11930 0.14660 0.61500 -0.20700
C 	C 	0.11840 0.06800 0.52400 0.14900
C 	C 	0.16350 0.95970 0.93000 -0.17400
C 	C 	0.09110 0.96190 0.96500 -0.17900
C 	C 	0.08800 0.98700 0.78400 0.22800
C 	C 	0.16200 0.98490 0.75000 0.21000
C 	C 	0.22270 0.91160 0.91800 0.12400
C 	C 	0.27790 0.81090 0.63200 0.34600
C 	C 	0.12800 0.94680 0.04000 0.26900
C 	C 	0.10170 0.13240 0.41500 0.13200
H 	H 	0.09070 0.14940 0.30810 -0.00300
C 	C 	0.10030 0.09360 0.37100 -0.21400
H 	H 	0.08710 0.08460 0.23940 0.09800
C 	C 	0.12000 0.02510 0.46500 -0.16200
H 	H 	0.14300 0.02080 0.36220 0.06300
H 	H 	0.09540 0.01850 0.38070 0.06200
C 	C 	0.05330 0.94980 0.10800 -0.15500
H 	H 	0.03330 0.97030 0.10000 0.05200
H 	H 	0.06150 0.94720 0.26860 0.06200
C 	C 	0.25890 0.84620 0.73200 -0.15000
C 	C 	0.12380 0.99880 0.66500 -0.14500
C 	C 	0.04670 0.00280 0.71800 -0.70500
H 	H 	0.04100 0.02530 0.80820 0.22800
H 	H 	0.04670 0.00930 0.55640 0.22400
H 	H 	0.02610 0.98390 0.74720 0.22500
C 	C 	0.11960 0.18850 0.66600 0.47000
C 	C 	0.25510 0.89350 0.03300 -0.18400
H 	H 	0.26490 0.90350 0.17100 0.08500
C 	C 	0.04220 0.89410 0.84000 -0.19400
H 	H 	0.06180 0.90380 0.74030 0.08800
C 	C 	0.20950 0.89570 0.72100 -0.18900
H 	H 	0.18720 0.90680 0.64620 0.08200
C 	C 	0.03350 0.91370 0.03300 0.12000
C 	C 	0.22720 0.86370 0.62200 0.08500
H 	H 	0.21760 0.85410 0.48150 0.00600
C 	C 	0.99480 0.84330 0.92700 -0.15900
C 	C 	0.27260 0.86050 0.94100 0.09100
H 	H 	0.29350 0.84810 0.02030 0.01800
C 	C 	0.20110 0.99870 0.63000 -0.68500
H 	H 	0.21880 0.97730 0.60310 0.22000
H 	H 	0.19420 0.01040 0.48490 0.22400
H 	H 	0.21470 0.01700 0.72710 0.21800
C 	C 	0.13010 0.91770 0.22900 -0.79300
H 	H 	0.12800 0.93020 0.37630 0.25900
H 	H 	0.10810 0.89980 0.21140 0.26300
H 	H 	0.15570 0.90430 0.22000 0.26100
C 	C 	0.00440 0.89690 0.17900 -0.18500
H 	H 	0.99770 0.90890 0.31830 0.08000
C 	C 	0.02300 0.85970 0.78200 0.08800
H 	H 	0.02950 0.84770 0.64260 -0.00000
C 	C 	0.98550 0.86270 0.12000 0.08000
H 	H 	0.96550 0.85290 0.21850 0.00700
C 	C 	0.97260 0.80500 0.88600 0.37000
O 	O 	0.95500 0.79130 0.04900 -0.44400
Yb	Yb	0.54371 0.25000 0.88010 1.51600
Yb	Yb	0.95629 0.75000 0.38010 1.52000
Yb	Yb	0.45629 0.75000 0.11990 1.51600
Yb	Yb	0.04371 0.25000 0.61990 1.52000
Yb	Yb	0.31885 0.75000 0.44630 1.51800
Yb	Yb	0.18115 0.25000 0.94630 1.51600
Yb	Yb	0.68115 0.25000 0.55370 1.51800
Yb	Yb	0.81885 0.75000 0.05370 1.51600
