data_crystal

_cell_length_a 35.27210
_cell_length_b 14.64270
_cell_length_c 31.60370
_cell_angle_alpha 90.00000
_cell_angle_beta  102.02900
_cell_angle_gamma 90.00000

_symmetry_space_group_name_	'P 1'
_symmetry_space_group_name_H-M	'P 1'

loop_
_symmetry_equiv_pos_as_xyz
  x,y,z

loop_
_atom_site_label
_atom_site_type_symbol
_atom_site_fract_x
_atom_site_fract_y
_atom_site_fract_z
_atom_site_charge
Zn	Zn	0.66972 0.13331 0.52110 1.15800
Zn	Zn	0.37862 0.88658 0.68180 1.16300
Zn	Zn	0.08263 0.12215 0.84166 1.15800
I 	I 	0.72620 0.21740 0.54060 -0.09200
I 	I 	0.62479 0.14420 0.44520 -0.23000
I 	I 	0.35476 0.87880 0.75048 -0.12500
I 	I 	0.40215 0.75577 0.64188 -0.42500
Zn	Zn	0.08190 0.86230 0.34170 0.61400
I 	I 	0.02597 0.84610 0.37809 -0.38800
I 	I 	0.11771 0.75080 0.30630 -0.04500
Zn	Zn	0.18010 0.35040 0.03380 0.66700
I 	I 	0.24250 0.26950 0.05890 -0.51500
I 	I 	0.13150 0.31260 0.96350 0.10600
I 	I 	0.01910 0.14710 0.87390 -0.33600
I 	I 	0.11264 0.23650 0.79980 -0.16200
Zn	Zn	0.37650 0.08680 0.18410 0.63200
I 	I 	0.35170 0.08850 0.25030 -0.08500
I 	I 	0.39535 0.23830 0.14640 -0.34200
C 	C 	0.64990 0.19800 0.60570 0.10700
H 	H 	0.67580 0.22100 0.61160 -0.02400
C 	C 	0.62870 0.21470 0.63490 -0.17500
H 	H 	0.63900 0.24990 0.65990 0.10200
C 	C 	0.59350 0.18150 0.62900 0.10700
C 	C 	0.58020 0.12900 0.59400 -0.17000
H 	H 	0.55490 0.10360 0.58850 0.09700
C 	C 	0.60610 0.11400 0.56610 0.12100
H 	H 	0.59870 0.06970 0.54380 -0.04400
C 	C 	0.43740 0.02610 0.72040 0.08900
H 	H 	0.42510 0.02220 0.74440 -0.02600
C 	C 	0.46930 0.08770 0.72360 -0.16800
H 	H 	0.47790 0.12320 0.74900 0.07800
C 	C 	0.48620 0.09390 0.69090 0.09400
C 	C 	0.46960 0.04400 0.65390 -0.21000
H 	H 	0.47710 0.05460 0.62710 0.10800
C 	C 	0.44280 0.98200 0.65760 0.16600
H 	H 	0.43690 0.93830 0.63520 -0.04000
C 	C 	0.59730 0.48660 0.77690 0.05700
H 	H 	0.62010 0.52250 0.77930 -0.01100
C 	C 	0.59320 0.41010 0.75020 -0.11100
H 	H 	0.61350 0.39260 0.73620 0.07300
C 	C 	0.56020 0.36120 0.74430 0.04100
C 	C 	0.53230 0.38660 0.76880 -0.11000
H 	H 	0.50950 0.35110 0.76680 0.06200
C 	C 	0.53800 0.46100 0.79500 0.05900
H 	H 	0.51850 0.47740 0.81030 -0.01100
C 	C 	0.56880 0.19730 0.66300 0.10200
C 	C 	0.52040 0.15200 0.69330 0.06800
C 	C 	0.55490 0.27610 0.71710 0.09600
C 	C 	0.31570 0.90920 0.60210 0.05100
H 	H 	0.32190 0.84810 0.59610 0.00000
C 	C 	0.28710 0.95060 0.57650 -0.08300
H 	H 	0.27320 0.91760 0.55230 0.08000
C 	C 	0.27560 0.04040 0.58220 0.00400
C 	C 	0.29630 0.08270 0.61890 -0.09000
H 	H 	0.28980 0.14330 0.62540 0.07100
C 	C 	0.32500 0.04020 0.64480 0.02500
H 	H 	0.33840 0.07130 0.66990 0.00500
C 	C 	0.15290 0.89230 0.41730 0.07400
H 	H 	0.15650 0.82870 0.41360 -0.02300
C 	C 	0.17650 0.93420 0.45090 -0.10100
H 	H 	0.19690 0.90130 0.46880 0.07200
C 	C 	0.17030 0.02830 0.45900 0.02500
C 	C 	0.14260 0.06940 0.42840 -0.11000
H 	H 	0.13870 0.13330 0.43020 0.08900
C 	C 	0.12160 0.02450 0.39740 0.04300
H 	H 	0.10170 0.05690 0.37840 -0.00100
C 	C 	0.21510 0.45880 0.55370 0.09300
H 	H 	0.23290 0.49880 0.57130 -0.01900
C 	C 	0.22330 0.36940 0.55490 -0.14100
H 	H 	0.24760 0.34830 0.57080 0.08300
C 	C 	0.19720 0.30950 0.53360 0.06100
C 	C 	0.16290 0.34370 0.50800 -0.10700
H 	H 	0.14450 0.30280 0.49180 0.07800
C 	C 	0.15570 0.43730 0.50600 0.03900
H 	H 	0.13240 0.46120 0.48910 -0.00900
C 	C 	0.24360 0.08510 0.55340 0.09300
C 	C 	0.19300 0.07900 0.49510 0.10700
C 	C 	0.20660 0.20790 0.53130 0.10100
C 	C 	0.09300 0.99100 0.27160 0.16100
H 	H 	0.11200 0.94720 0.26830 -0.05600
C 	C 	0.09010 0.07200 0.24720 -0.20800
H 	H 	0.10920 0.08790 0.23130 0.08900
C 	C 	0.05850 0.12700 0.24720 0.09100
C 	C 	0.03460 0.10450 0.27180 -0.16400
H 	H 	0.01260 0.14120 0.27270 0.08500
C 	C 	0.04200 0.02680 0.29660 0.08400
H 	H 	0.02440 0.00960 0.31430 -0.02600
C 	C 	0.11050 0.38700 0.07420 0.12100
H 	H 	0.10320 0.43230 0.05240 -0.04000
C 	C 	0.08850 0.37600 0.10470 -0.16400
H 	H 	0.06730 0.41650 0.10420 0.09200
C 	C 	0.09500 0.31180 0.13470 0.07800
C 	C 	0.12930 0.26140 0.13700 -0.15100
H 	H 	0.13810 0.21800 0.15930 0.07900
C 	C 	0.15020 0.28020 0.10330 0.08800
H 	H 	0.17300 0.24560 0.10310 -0.05200
C 	C 	0.93680 0.45980 0.22570 0.06100
H 	H 	0.92530 0.46530 0.25020 -0.00700
C 	C 	0.96800 0.40520 0.22750 -0.11800
H 	H 	0.97770 0.37190 0.25330 0.07400
C 	C 	0.98640 0.39630 0.19320 0.04400
C 	C 	0.97070 0.43790 0.15590 -0.11900
H 	H 	0.98150 0.43090 0.13090 0.08200
C 	C 	0.93710 0.49290 0.15480 0.06900
H 	H 	0.92520 0.52090 0.12830 -0.01600
C 	C 	0.05310 0.20850 0.21760 0.07000
C 	C 	0.07050 0.29410 0.16450 0.08200
C 	C 	0.01970 0.33330 0.19370 0.10400
C 	C 	0.21420 0.52210 0.05120 0.06800
H 	H 	0.23200 0.48000 0.06730 -0.03100
C 	C 	0.22300 0.61850 0.05450 -0.11800
H 	H 	0.24550 0.64020 0.07400 0.08300
C 	C 	0.19800 0.67860 0.02860 0.06400
C 	C 	0.16410 0.64450 0.00420 -0.13400
H 	H 	0.14550 0.68340 0.98700 0.08900
C 	C 	0.15820 0.55160 0.00560 0.09000
H 	H 	0.13420 0.52900 0.98980 -0.02200
C 	C 	0.11720 0.96960 0.89610 0.10400
H 	H 	0.09720 0.93920 0.87640 -0.02100
C 	C 	0.13880 0.91930 0.93080 -0.31800
H 	H 	0.13270 0.85770 0.93590 0.15600
C 	C 	0.16970 0.96430 0.95730 0.16000
C 	C 	0.17510 0.05470 0.95080 -0.21900
H 	H 	0.19520 0.08690 0.96960 0.09600
C 	C 	0.15160 0.09960 0.91710 0.09800
H 	H 	0.15540 0.16310 0.91330 -0.02800
C 	C 	0.31340 0.07430 0.10460 0.10300
H 	H 	0.31840 0.13740 0.10140 -0.02800
C 	C 	0.28370 0.03500 0.07480 -0.19600
H 	H 	0.26880 0.06960 0.05190 0.10900
C 	C 	0.27680 0.94500 0.07960 0.10000
C 	C 	0.30060 0.89630 0.11360 -0.17100
H 	H 	0.29730 0.83270 0.11750 0.10000
C 	C 	0.32920 0.94600 0.14120 0.13600
H 	H 	0.34520 0.91450 0.16450 -0.03200
C 	C 	0.20620 0.77710 0.02790 0.10500
C 	C 	0.19370 0.91250 0.99250 0.06300
C 	C 	0.24350 0.89880 0.04860 0.07600
N 	N 	0.63800 0.15260 0.56830 -0.30200
N 	N 	0.42440 0.97640 0.68780 -0.29600
N 	N 	0.57070 0.51280 0.79990 -0.27000
N 	N 	0.54140 0.13800 0.66150 -0.13400
N 	N 	0.52590 0.22170 0.72050 -0.15100
N 	N 	0.57720 0.26710 0.68910 -0.14000
N 	N 	0.33660 0.95250 0.63720 -0.25500
N 	N 	0.12560 0.93330 0.38960 -0.28800
N 	N 	0.18360 0.49410 0.52940 -0.26800
N 	N 	0.22520 0.03590 0.51950 -0.14700
N 	N 	0.18360 0.16190 0.49910 -0.14100
N 	N 	0.23620 0.17420 0.56000 -0.14200
N 	N 	0.07220 0.97620 0.29660 -0.30400
N 	N 	0.14040 0.33920 0.07420 -0.32200
N 	N 	0.92190 0.50690 0.18880 -0.27900
N 	N 	0.07580 0.21790 0.18930 -0.13900
N 	N 	0.04030 0.35220 0.16570 -0.13700
N 	N 	0.02570 0.26880 0.22290 -0.15000
N 	N 	0.18250 0.49120 0.02670 -0.30800
N 	N 	0.12330 0.05600 0.88940 -0.29600
N 	N 	0.33510 0.03070 0.13700 -0.31500
N 	N 	0.18260 0.82410 0.99720 -0.12700
N 	N 	0.22300 0.95350 0.01810 -0.12900
N 	N 	0.23700 0.81200 0.05550 -0.13700
C 	C 	0.23890 0.65400 0.16100 0.08600
N 	N 	0.21450 0.58530 0.17020 -0.11500
N 	N 	0.27270 0.62200 0.15450 -0.10300
C 	C 	0.23650 0.49700 0.17170 0.05100
C 	C 	0.27130 0.52900 0.16150 -0.09000
C 	C 	0.29740 0.46800 0.15870 -0.04600
H 	H 	0.32140 0.48400 0.15160 -0.02100
C 	C 	0.28940 0.38200 0.16610 -0.15300
H 	H 	0.30870 0.33870 0.16320 0.10500
C 	C 	0.25580 0.34600 0.17770 -0.04400
H 	H 	0.25240 0.28360 0.18470 0.02300
C 	C 	0.22750 0.41600 0.17750 -0.11100
H 	H 	0.20230 0.40180 0.18180 0.07800
C 	C 	0.22650 0.74700 0.15620 0.07200
N 	N 	0.25270 0.81900 0.18060 -0.10800
N 	N 	0.19390 0.77000 0.12910 -0.11500
C 	C 	0.22940 0.89900 0.16350 -0.04500
C 	C 	0.19730 0.86900 0.13330 0.09300
C 	C 	0.17150 0.93200 0.11050 -0.03500
H 	H 	0.14950 0.91210 0.08980 -0.08000
C 	C 	0.17790 0.02510 0.11790 0.16200
H 	H 	0.16020 0.06840 0.10230 -0.02900
C 	C 	0.21000 0.05470 0.14810 -0.24500
H 	H 	0.21430 0.11820 0.15310 0.17800
C 	C 	0.23580 0.99100 0.17090 0.16300
H 	H 	0.25770 0.01160 0.19160 -0.02700
C 	C 	0.17720 0.59900 0.18560 -0.02800
H 	H 	0.16150 0.54260 0.18040 0.04800
H 	H 	0.16220 0.64900 0.16880 0.05100
C 	C 	0.18500 0.62300 0.23390 -0.13900
H 	H 	0.15990 0.62850 0.24300 0.07800
H 	H 	0.19950 0.57180 0.25050 0.07900
C 	C 	0.20550 0.70100 0.24390 -0.00300
H 	H 	0.19060 0.75590 0.24150 0.04600
C 	C 	0.24810 0.71300 0.25800 -0.01900
H 	H 	0.26300 0.66200 0.27020 0.04200
C 	C 	0.26870 0.80000 0.25430 -0.14700
H 	H 	0.29150 0.80330 0.27850 0.07600
H 	H 	0.25130 0.85120 0.25730 0.08300
C 	C 	0.28190 0.81000 0.21270 0.01100
H 	H 	0.29900 0.86360 0.21430 0.03600
H 	H 	0.29710 0.75500 0.20800 0.04700
C 	C 	0.04200 0.01200 0.99600 0.26100
H 	H 	0.01790 0.04690 0.99590 -0.07000
H 	H 	0.03920 0.97800 0.96900 -0.03500
C 	C 	0.07700 0.08000 0.00060 -1.29300
H 	H 	0.10120 0.04580 0.00340 0.21000
H 	H 	0.07320 0.11940 0.97470 0.40100
C 	C 	0.07700 0.13700 0.04100 0.90500
H 	H 	0.05200 0.17000 0.03840 -0.20400
H 	H 	0.09800 0.18320 0.04450 0.12900
C 	C 	0.08300 0.07400 0.08070 -0.28900
H 	H 	0.10970 0.04710 0.08470 0.09900
H 	H 	0.08240 0.11070 0.10670 0.04900
C 	C 	0.05400 0.99600 0.07800 -0.06800
H 	H 	0.06270 0.95310 0.10180 -0.06100
H 	H 	0.02870 0.02170 0.08050 0.01600
C 	C 	0.04900 0.94500 0.03500 -0.17200
H 	H 	0.02680 0.90260 0.03210 0.08600
H 	H 	0.07260 0.90830 0.03470 0.11600
C 	C 	0.94700 0.79800 0.79100 -0.10600
H 	H 	0.95480 0.83210 0.76710 0.03500
H 	H 	0.91830 0.79140 0.78410 0.06300
C 	C 	0.96700 0.70400 0.79700 -0.05900
H 	H 	0.99510 0.71040 0.80410 0.04400
H 	H 	0.95920 0.66700 0.77030 0.03100
C 	C 	0.95200 0.65800 0.83500 -0.10400
H 	H 	0.92410 0.67190 0.83340 0.06200
H 	H 	0.95540 0.59120 0.83490 0.05900
C 	C 	0.97700 0.70200 0.87500 -0.06100
H 	H 	0.99910 0.66070 0.88740 0.04200
H 	H 	0.96200 0.71330 0.89740 0.04900
C 	C 	0.99310 0.79300 0.86100 -0.11000
H 	H 	0.01300 0.78010 0.84400 0.06800
H 	H 	0.00550 0.82790 0.88720 0.05700
C 	C 	0.96000 0.84900 0.83400 -0.03800
H 	H 	0.93820 0.85440 0.84920 0.04100
H 	H 	0.96910 0.91110 0.82880 -0.00400
I 	I 	0.73082 0.22770 0.54360 -0.27700
I 	I 	0.62630 0.15440 0.44970 -0.14300
I 	I 	0.35580 0.90130 0.75430 -0.22100
I 	I 	0.39020 0.72900 0.65850 0.03200
Zn	Zn	0.09260 0.87600 0.34270 0.64800
I 	I 	0.03320 0.81980 0.37040 0.03300
I 	I 	0.13300 0.76100 0.30660 -0.34900
Zn	Zn	0.16830 0.35520 0.02210 0.66600
I 	I 	0.22887 0.26010 0.04379 0.05100
I 	I 	0.11930 0.33270 0.95207 -0.53600
I 	I 	0.03050 0.14550 0.87610 -0.04600
I 	I 	0.12250 0.23320 0.80760 -0.19500
Zn	Zn	0.37490 0.11420 0.18340 0.61300
I 	I 	0.35010 0.09840 0.25770 -0.28800
I 	I 	0.39470 0.23140 0.15620 -0.08800
C 	C 	0.14990 0.95200 0.09400 0.24700
N 	N 	0.13850 0.94100 0.13560 -0.18500
N 	N 	0.17850 0.99800 0.09600 -0.24100
C 	C 	0.16880 0.99700 0.16340 0.02400
C 	C 	0.19430 0.02500 0.13790 0.11700
C 	C 	0.22710 0.07600 0.15600 -0.17800
H 	H 	0.24450 0.09490 0.13850 0.08100
C 	C 	0.23430 0.09800 0.20000 -0.03200
H 	H 	0.25670 0.13250 0.21210 0.02900
C 	C 	0.20890 0.07000 0.22530 -0.03800
H 	H 	0.21380 0.08520 0.25510 0.03600
C 	C 	0.17610 0.02000 0.20710 -0.08800
H 	H 	0.15870 0.00030 0.22460 0.04800
C 	C 	0.12240 0.91000 0.05900 0.07100
N 	N 	0.10770 0.95700 0.02120 -0.16000
N 	N 	0.11440 0.82300 0.05760 -0.11100
C 	C 	0.08150 0.88600 0.98820 0.03100
C 	C 	0.08650 0.80800 0.01380 0.03200
C 	C 	0.06780 0.72800 0.99830 -0.06800
H 	H 	0.07120 0.67440 0.01580 0.05600
C 	C 	0.04420 0.72500 0.95720 -0.04100
H 	H 	0.03140 0.67010 0.94660 0.04000
C 	C 	0.03920 0.80300 0.93160 -0.00800
H 	H 	0.02310 0.80140 0.90350 0.01600
C 	C 	0.05790 0.88400 0.94710 -0.08200
H 	H 	0.05450 0.93710 0.92960 0.06400
C 	C 	0.10090 0.90900 0.14400 0.35400
H 	H 	0.08990 0.86180 0.12310 -0.06500
H 	H 	0.10510 0.88200 0.17370 -0.06900
C 	C 	0.07400 0.98300 0.14200 -0.84300
H 	H 	0.05140 0.96260 0.15250 0.29200
H 	H 	0.08670 0.03340 0.16040 0.25200
C 	C 	0.06400 0.01200 0.10300 0.70200
H 	H 	0.04180 0.97500 0.09120 -0.10100
C 	C 	0.06700 0.06300 0.07200 -0.43800
H 	H 	0.05820 0.11790 0.08260 0.14100
C 	C 	0.07500 0.10400 0.02600 0.36700
H 	H 	0.05010 0.10270 0.00410 0.19000
H 	H 	0.08260 0.16880 0.03050 -0.65300
C 	C 	0.10500 0.05500 0.00800 0.26300
H 	H 	0.09840 0.05850 0.97560 0.03700
H 	H 	0.13040 0.08490 0.01770 -0.09400
C 	C 	0.29300 0.35000 0.17150 0.07200
H 	H 	0.27890 0.32590 0.19280 0.03500
H 	H 	0.32020 0.32660 0.17910 -0.07400
C 	C 	0.27370 0.31700 0.12540 -0.13600
H 	H 	0.27670 0.25010 0.12350 0.07800
H 	H 	0.24570 0.33120 0.11980 0.07800
C 	C 	0.29200 0.36400 0.09100 0.04100
H 	H 	0.27530 0.41350 0.07610 0.02300
H 	H 	0.29740 0.31990 0.06930 0.05800
C 	C 	0.33100 0.40400 0.11800 -0.29200
H 	H 	0.34430 0.35810 0.13880 0.12500
H 	H 	0.34830 0.42300 0.09890 0.19600
C 	C 	0.31900 0.48800 0.14300 0.10600
H 	H 	0.34250 0.51930 0.15910 -0.01500
H 	H 	0.30420 0.53230 0.12190 0.01900
C 	C 	0.29400 0.45500 0.17400 -0.00000
H 	H 	0.30530 0.47500 0.20370 0.04000
H 	H 	0.26740 0.47930 0.16530 0.11000
Zn	Zn	0.16972 0.63331 0.52110 1.16000
Zn	Zn	0.87862 0.38658 0.68180 1.16100
Zn	Zn	0.58263 0.62215 0.84166 1.15800
I 	I 	0.22620 0.71740 0.54060 -0.08900
I 	I 	0.12479 0.64420 0.44520 -0.22700
I 	I 	0.85476 0.37880 0.75048 -0.13400
I 	I 	0.90215 0.25577 0.64188 -0.41900
Zn	Zn	0.58190 0.36230 0.34170 0.61400
I 	I 	0.52597 0.34610 0.37809 -0.38700
I 	I 	0.61771 0.25080 0.30630 -0.04900
Zn	Zn	0.68010 0.85040 0.03380 0.66800
I 	I 	0.74250 0.76950 0.05890 -0.51200
I 	I 	0.63150 0.81260 0.96350 0.11400
I 	I 	0.51910 0.64710 0.87390 -0.32400
I 	I 	0.61264 0.73650 0.79980 -0.16100
Zn	Zn	0.87650 0.58680 0.18410 0.63400
I 	I 	0.85170 0.58850 0.25030 -0.08100
I 	I 	0.89535 0.73830 0.14640 -0.34100
C 	C 	0.14990 0.69800 0.60570 0.10900
H 	H 	0.17580 0.72100 0.61160 -0.02200
C 	C 	0.12870 0.71470 0.63490 -0.17400
H 	H 	0.13900 0.74990 0.65990 0.10300
C 	C 	0.09350 0.68150 0.62900 0.10900
C 	C 	0.08020 0.62900 0.59400 -0.16800
H 	H 	0.05490 0.60360 0.58850 0.09900
C 	C 	0.10610 0.61400 0.56610 0.12300
H 	H 	0.09870 0.56970 0.54380 -0.04000
C 	C 	0.93740 0.52610 0.72040 0.10700
H 	H 	0.92510 0.52220 0.74440 -0.02600
C 	C 	0.96930 0.58770 0.72360 -0.16400
H 	H 	0.97790 0.62320 0.74900 0.07900
C 	C 	0.98620 0.59390 0.69090 0.08300
C 	C 	0.96960 0.54400 0.65390 -0.17100
H 	H 	0.97710 0.55460 0.62710 0.09900
C 	C 	0.94280 0.48200 0.65760 0.12600
H 	H 	0.93690 0.43830 0.63520 -0.03100
C 	C 	0.09730 0.98660 0.77690 0.12400
H 	H 	0.12010 0.02250 0.77930 -0.04600
C 	C 	0.09320 0.91010 0.75020 -0.15000
H 	H 	0.11350 0.89260 0.73620 0.08900
C 	C 	0.06020 0.86120 0.74430 0.06500
C 	C 	0.03230 0.88660 0.76880 -0.13300
H 	H 	0.00950 0.85110 0.76680 0.07100
C 	C 	0.03800 0.96100 0.79500 0.09100
H 	H 	0.01850 0.97740 0.81030 -0.01800
C 	C 	0.06880 0.69730 0.66300 0.10300
C 	C 	0.02040 0.65200 0.69330 0.07400
C 	C 	0.05490 0.77610 0.71710 0.09000
C 	C 	0.81570 0.40920 0.60210 0.07400
H 	H 	0.82190 0.34810 0.59610 -0.00900
C 	C 	0.78710 0.45060 0.57650 -0.13200
H 	H 	0.77320 0.41760 0.55230 0.09300
C 	C 	0.77560 0.54040 0.58220 0.04700
C 	C 	0.79630 0.58270 0.61890 -0.12200
H 	H 	0.78980 0.64330 0.62540 0.08300
C 	C 	0.82500 0.54020 0.64480 0.06300
H 	H 	0.83840 0.57130 0.66990 -0.00400
C 	C 	0.65290 0.39230 0.41730 0.09400
H 	H 	0.65650 0.32870 0.41360 -0.03000
C 	C 	0.67650 0.43420 0.45090 -0.14600
H 	H 	0.69690 0.40130 0.46880 0.08300
C 	C 	0.67030 0.52830 0.45900 0.06800
C 	C 	0.64260 0.56940 0.42840 -0.14700
H 	H 	0.63870 0.63330 0.43020 0.10200
C 	C 	0.62160 0.52450 0.39740 0.08600
H 	H 	0.60170 0.55690 0.37840 -0.01100
C 	C 	0.71510 0.95880 0.55370 0.09500
H 	H 	0.73290 0.99880 0.57130 -0.01300
C 	C 	0.72330 0.86940 0.55490 -0.13800
H 	H 	0.74760 0.84830 0.57080 0.08300
C 	C 	0.69720 0.80950 0.53360 0.06200
C 	C 	0.66290 0.84370 0.50800 -0.10500
H 	H 	0.64450 0.80280 0.49180 0.08000
C 	C 	0.65570 0.93730 0.50600 0.04100
H 	H 	0.63240 0.96120 0.48910 -0.00300
C 	C 	0.74360 0.58510 0.55340 0.08300
C 	C 	0.69300 0.57900 0.49510 0.09800
C 	C 	0.70660 0.70790 0.53130 0.10300
C 	C 	0.59300 0.49100 0.27160 0.12700
H 	H 	0.61200 0.44720 0.26830 -0.05000
C 	C 	0.59010 0.57200 0.24720 -0.17300
H 	H 	0.60920 0.58790 0.23130 0.08800
C 	C 	0.55850 0.62700 0.24720 0.08600
C 	C 	0.53460 0.60450 0.27180 -0.16300
H 	H 	0.51260 0.64120 0.27270 0.08700
C 	C 	0.54200 0.52680 0.29660 0.10300
H 	H 	0.52440 0.50960 0.31430 -0.02400
C 	C 	0.61050 0.88700 0.07420 0.12000
H 	H 	0.60320 0.93230 0.05240 -0.03800
C 	C 	0.58850 0.87600 0.10470 -0.16400
H 	H 	0.56730 0.91650 0.10420 0.09400
C 	C 	0.59500 0.81180 0.13470 0.08300
C 	C 	0.62930 0.76140 0.13700 -0.14300
H 	H 	0.63810 0.71800 0.15930 0.08300
C 	C 	0.65020 0.78020 0.10330 0.09500
H 	H 	0.67300 0.74560 0.10310 -0.05000
C 	C 	0.43680 0.95980 0.22570 0.09500
H 	H 	0.42530 0.96530 0.25020 -0.01100
C 	C 	0.46800 0.90520 0.22750 -0.14200
H 	H 	0.47770 0.87190 0.25330 0.08500
C 	C 	0.48640 0.89630 0.19320 0.06900
C 	C 	0.47070 0.93790 0.15590 -0.15500
H 	H 	0.48150 0.93090 0.13090 0.09700
C 	C 	0.43710 0.99290 0.15480 0.13600
H 	H 	0.42520 0.02090 0.12830 -0.05000
C 	C 	0.55310 0.70850 0.21760 0.07600
C 	C 	0.57050 0.79410 0.16450 0.08600
C 	C 	0.51970 0.83330 0.19370 0.09900
C 	C 	0.71420 0.02210 0.05120 0.00300
H 	H 	0.73200 0.98000 0.06730 0.00200
C 	C 	0.72300 0.11850 0.05450 -0.08500
H 	H 	0.74550 0.14020 0.07400 0.07100
C 	C 	0.69800 0.17860 0.02860 0.04300
C 	C 	0.66410 0.14450 0.00420 -0.11100
H 	H 	0.64550 0.18340 0.98700 0.08100
C 	C 	0.65820 0.05160 0.00560 0.05800
H 	H 	0.63420 0.02900 0.98980 -0.01800
C 	C 	0.61720 0.46960 0.89610 0.07000
H 	H 	0.59720 0.43920 0.87640 -0.01200
C 	C 	0.63880 0.41930 0.93080 -0.28200
H 	H 	0.63270 0.35770 0.93590 0.14500
C 	C 	0.66970 0.46430 0.95730 0.11900
C 	C 	0.67510 0.55470 0.95080 -0.17000
H 	H 	0.69520 0.58690 0.96960 0.08300
C 	C 	0.65160 0.59960 0.91710 0.08100
H 	H 	0.65540 0.66310 0.91330 -0.02100
C 	C 	0.81340 0.57430 0.10460 0.08400
H 	H 	0.81840 0.63740 0.10140 -0.02100
C 	C 	0.78370 0.53500 0.07480 -0.14800
H 	H 	0.76880 0.56960 0.05190 0.09700
C 	C 	0.77680 0.44500 0.07960 0.06000
C 	C 	0.80060 0.39630 0.11360 -0.14200
H 	H 	0.79730 0.33270 0.11750 0.09000
C 	C 	0.82920 0.44600 0.14120 0.09800
H 	H 	0.84520 0.41450 0.16450 -0.02300
C 	C 	0.70620 0.27710 0.02790 0.11100
C 	C 	0.69370 0.41250 0.99250 0.07600
C 	C 	0.74350 0.39880 0.04860 0.08500
N 	N 	0.13800 0.65260 0.56830 -0.30000
N 	N 	0.92440 0.47640 0.68780 -0.30000
N 	N 	0.07070 0.01280 0.79990 -0.30100
N 	N 	0.04140 0.63800 0.66150 -0.13300
N 	N 	0.02590 0.72170 0.72050 -0.15000
N 	N 	0.07720 0.76710 0.68910 -0.13800
N 	N 	0.83660 0.45250 0.63720 -0.27300
N 	N 	0.62560 0.43330 0.38960 -0.30700
N 	N 	0.68360 0.99410 0.52940 -0.26200
N 	N 	0.72520 0.53590 0.51950 -0.13800
N 	N 	0.68360 0.66190 0.49910 -0.13800
N 	N 	0.73620 0.67420 0.56000 -0.13900
N 	N 	0.57220 0.47620 0.29660 -0.30900
N 	N 	0.64040 0.83920 0.07420 -0.32100
N 	N 	0.42190 0.00690 0.18880 -0.31000
N 	N 	0.57580 0.71790 0.18930 -0.13300
N 	N 	0.54030 0.85220 0.16570 -0.13500
N 	N 	0.52570 0.76880 0.22290 -0.14900
N 	N 	0.68250 0.99120 0.02670 -0.27700
N 	N 	0.62330 0.55600 0.88940 -0.27600
N 	N 	0.83510 0.53070 0.13700 -0.29500
N 	N 	0.68260 0.32410 0.99720 -0.13000
N 	N 	0.72300 0.45350 0.01810 -0.13800
N 	N 	0.73700 0.31200 0.05550 -0.14000
C 	C 	0.73890 0.15400 0.16100 0.08500
N 	N 	0.71450 0.08530 0.17020 -0.12600
N 	N 	0.77270 0.12200 0.15450 -0.08900
C 	C 	0.73650 0.99700 0.17170 0.10300
C 	C 	0.77130 0.02900 0.16150 -0.18000
C 	C 	0.79740 0.96800 0.15870 -0.04600
H 	H 	0.82140 0.98400 0.15160 0.00300
C 	C 	0.78940 0.88200 0.16610 -0.17400
H 	H 	0.80870 0.83870 0.16320 0.13300
C 	C 	0.75580 0.84600 0.17770 -0.00800
H 	H 	0.75240 0.78360 0.18470 0.01200
C 	C 	0.72750 0.91600 0.17750 -0.15800
H 	H 	0.70230 0.90180 0.18180 0.09600
C 	C 	0.72650 0.24700 0.15620 0.07200
N 	N 	0.75270 0.31900 0.18060 -0.11200
N 	N 	0.69390 0.27000 0.12910 -0.11400
C 	C 	0.72940 0.39900 0.16350 -0.03000
C 	C 	0.69730 0.36900 0.13330 0.08800
C 	C 	0.67150 0.43200 0.11050 -0.04300
H 	H 	0.64950 0.41210 0.08980 -0.06400
C 	C 	0.67790 0.52510 0.11790 0.17000
H 	H 	0.66020 0.56840 0.10230 -0.01100
C 	C 	0.71000 0.55470 0.14810 -0.22600
H 	H 	0.71430 0.61820 0.15310 0.18200
C 	C 	0.73580 0.49100 0.17090 0.10700
H 	H 	0.75770 0.51160 0.19160 0.00200
C 	C 	0.67720 0.09900 0.18560 -0.02600
H 	H 	0.66150 0.04260 0.18040 0.04100
H 	H 	0.66220 0.14900 0.16880 0.05000
C 	C 	0.68500 0.12300 0.23390 -0.13900
H 	H 	0.65990 0.12850 0.24300 0.07500
H 	H 	0.69950 0.07180 0.25050 0.07400
C 	C 	0.70550 0.20100 0.24390 -0.00400
H 	H 	0.69060 0.25590 0.24150 0.04500
C 	C 	0.74810 0.21300 0.25800 -0.02000
H 	H 	0.76300 0.16200 0.27020 0.04000
C 	C 	0.76870 0.30000 0.25430 -0.14600
H 	H 	0.79150 0.30330 0.27850 0.07300
H 	H 	0.75130 0.35120 0.25730 0.07900
C 	C 	0.78190 0.31000 0.21270 0.01200
H 	H 	0.79900 0.36360 0.21430 0.03200
H 	H 	0.79710 0.25500 0.20800 0.04700
C 	C 	0.54200 0.51200 0.99600 -0.09900
H 	H 	0.51790 0.54690 0.99590 0.04200
H 	H 	0.53920 0.47800 0.96900 0.06100
C 	C 	0.57700 0.58000 0.00060 0.01900
H 	H 	0.60120 0.54580 0.00340 -0.02900
H 	H 	0.57320 0.61940 0.97470 0.00900
C 	C 	0.57700 0.63700 0.04100 -0.00200
H 	H 	0.55200 0.67000 0.03840 0.02100
H 	H 	0.59800 0.68320 0.04450 -0.04700
C 	C 	0.58300 0.57400 0.08070 0.03200
H 	H 	0.60970 0.54710 0.08470 0.03000
H 	H 	0.58240 0.61070 0.10670 0.02500
C 	C 	0.55400 0.49600 0.07800 0.08300
H 	H 	0.56270 0.45310 0.10180 0.08000
H 	H 	0.52870 0.52170 0.08050 0.03700
C 	C 	0.54900 0.44500 0.03500 -0.15400
H 	H 	0.52680 0.40260 0.03210 0.07100
H 	H 	0.57260 0.40830 0.03470 0.10000
C 	C 	0.44700 0.29800 0.79100 -0.08000
H 	H 	0.45480 0.33210 0.76710 0.02600
H 	H 	0.41830 0.29140 0.78410 0.05000
C 	C 	0.46700 0.20400 0.79700 -0.07900
H 	H 	0.49510 0.21040 0.80410 0.05000
H 	H 	0.45920 0.16700 0.77030 0.03700
C 	C 	0.45200 0.15800 0.83500 -0.08800
H 	H 	0.42410 0.17190 0.83340 0.05400
H 	H 	0.45540 0.09120 0.83490 0.04900
C 	C 	0.47700 0.20200 0.87500 -0.08000
H 	H 	0.49910 0.16070 0.88740 0.04500
H 	H 	0.46200 0.21330 0.89740 0.04900
C 	C 	0.49310 0.29300 0.86100 -0.08500
H 	H 	0.51300 0.28010 0.84400 0.06000
H 	H 	0.50550 0.32790 0.88720 0.04300
C 	C 	0.46000 0.34900 0.83400 -0.08100
H 	H 	0.43820 0.35440 0.84920 0.04700
H 	H 	0.46910 0.41110 0.82880 0.04000
I 	I 	0.23082 0.72770 0.54360 -0.27300
I 	I 	0.12630 0.65440 0.44970 -0.13800
I 	I 	0.85580 0.40130 0.75430 -0.22200
I 	I 	0.89020 0.22900 0.65850 0.02100
Zn	Zn	0.59260 0.37600 0.34270 0.64800
I 	I 	0.53320 0.31980 0.37040 0.02400
I 	I 	0.63300 0.26100 0.30660 -0.35000
Zn	Zn	0.66830 0.85520 0.02210 0.66600
I 	I 	0.72887 0.76010 0.04379 0.05000
I 	I 	0.61930 0.83270 0.95207 -0.54100
I 	I 	0.53050 0.64550 0.87610 -0.02900
I 	I 	0.62250 0.73320 0.80760 -0.19100
Zn	Zn	0.87490 0.61420 0.18340 0.61200
I 	I 	0.85010 0.59840 0.25770 -0.28200
I 	I 	0.89470 0.73140 0.15620 -0.08800
C 	C 	0.64990 0.45200 0.09400 0.23100
N 	N 	0.63850 0.44100 0.13560 -0.12700
N 	N 	0.67850 0.49800 0.09600 -0.25600
C 	C 	0.66880 0.49700 0.16340 -0.03700
C 	C 	0.69430 0.52500 0.13790 0.16000
C 	C 	0.72710 0.57600 0.15600 -0.21000
H 	H 	0.74450 0.59490 0.13850 0.09400
C 	C 	0.73430 0.59800 0.20000 0.00500
H 	H 	0.75670 0.63250 0.21210 0.01700
C 	C 	0.70890 0.57000 0.22530 -0.07800
H 	H 	0.71380 0.58520 0.25510 0.05300
C 	C 	0.67610 0.52000 0.20710 -0.02100
H 	H 	0.65870 0.50030 0.22460 0.03500
C 	C 	0.62240 0.41000 0.05900 0.06300
N 	N 	0.60770 0.45700 0.02120 -0.12700
N 	N 	0.61440 0.32300 0.05760 -0.11300
C 	C 	0.58150 0.38600 0.98820 0.03300
C 	C 	0.58650 0.30800 0.01380 0.03000
C 	C 	0.56780 0.22800 0.99830 -0.06800
H 	H 	0.57120 0.17440 0.01580 0.05200
C 	C 	0.54420 0.22500 0.95720 -0.03900
H 	H 	0.53140 0.17010 0.94660 0.03600
C 	C 	0.53920 0.30300 0.93160 -0.01200
H 	H 	0.52310 0.30140 0.90350 0.02100
C 	C 	0.55790 0.38400 0.94710 -0.08700
H 	H 	0.55450 0.43710 0.92960 0.05300
C 	C 	0.60090 0.40900 0.14400 -0.02800
H 	H 	0.58990 0.36180 0.12310 0.03700
H 	H 	0.60510 0.38200 0.17370 0.03800
C 	C 	0.57400 0.48300 0.14200 -0.12500
H 	H 	0.55140 0.46260 0.15250 0.06000
H 	H 	0.58670 0.53340 0.16040 0.07700
C 	C 	0.56400 0.51200 0.10300 -0.11500
H 	H 	0.54180 0.47500 0.09120 -0.02400
C 	C 	0.56700 0.56300 0.07200 -0.08200
H 	H 	0.55820 0.61790 0.08260 0.05400
C 	C 	0.57500 0.60400 0.02600 -0.20800
H 	H 	0.55010 0.60270 0.00410 0.09100
H 	H 	0.58260 0.66880 0.03050 0.10900
C 	C 	0.60500 0.55500 0.00800 0.10100
H 	H 	0.59840 0.55850 0.97560 0.00700
H 	H 	0.63040 0.58490 0.01770 -0.00400
C 	C 	0.79300 0.85000 0.17150 0.04600
H 	H 	0.77890 0.82590 0.19280 0.03600
H 	H 	0.82020 0.82660 0.17910 -0.08300
C 	C 	0.77370 0.81700 0.12540 -0.12800
H 	H 	0.77670 0.75010 0.12350 0.07500
H 	H 	0.74570 0.83120 0.11980 0.07500
C 	C 	0.79200 0.86400 0.09100 0.03500
H 	H 	0.77530 0.91350 0.07610 0.02700
H 	H 	0.79740 0.81990 0.06930 0.05900
C 	C 	0.83100 0.90400 0.11800 -0.28900
H 	H 	0.84430 0.85810 0.13880 0.12300
H 	H 	0.84830 0.92300 0.09890 0.20000
C 	C 	0.81900 0.98800 0.14300 0.09500
H 	H 	0.84250 0.01930 0.15910 -0.02800
H 	H 	0.80420 0.03230 0.12190 0.01600
C 	C 	0.79400 0.95500 0.17400 0.02900
H 	H 	0.80530 0.97500 0.20370 0.04100
H 	H 	0.76740 0.97930 0.16530 0.14600
Zn	Zn	0.33028 0.13331 0.47890 1.15700
Zn	Zn	0.62138 0.88658 0.31820 1.16200
Zn	Zn	0.91737 0.12215 0.15834 1.15700
I 	I 	0.27380 0.21740 0.45940 -0.09300
I 	I 	0.37521 0.14420 0.55480 -0.23000
I 	I 	0.64524 0.87880 0.24952 -0.12500
I 	I 	0.59785 0.75577 0.35812 -0.42500
Zn	Zn	0.91810 0.86230 0.65830 0.61400
I 	I 	0.97403 0.84610 0.62191 -0.38800
I 	I 	0.88229 0.75080 0.69370 -0.04500
Zn	Zn	0.81990 0.35040 0.96620 0.66700
I 	I 	0.75750 0.26950 0.94110 -0.51500
I 	I 	0.86850 0.31260 0.03650 0.10600
I 	I 	0.98090 0.14710 0.12610 -0.33600
I 	I 	0.88736 0.23650 0.20020 -0.16200
Zn	Zn	0.62350 0.08680 0.81590 0.63200
I 	I 	0.64830 0.08850 0.74970 -0.08500
I 	I 	0.60465 0.23830 0.85360 -0.34200
C 	C 	0.35010 0.19800 0.39430 0.10700
H 	H 	0.32420 0.22100 0.38840 -0.02400
C 	C 	0.37130 0.21470 0.36510 -0.17500
H 	H 	0.36100 0.24990 0.34010 0.10200
C 	C 	0.40650 0.18150 0.37100 0.10700
C 	C 	0.41980 0.12900 0.40600 -0.17000
H 	H 	0.44510 0.10360 0.41150 0.09700
C 	C 	0.39390 0.11400 0.43390 0.12100
H 	H 	0.40130 0.06970 0.45620 -0.04400
C 	C 	0.56260 0.02610 0.27960 0.08900
H 	H 	0.57490 0.02220 0.25560 -0.02600
C 	C 	0.53070 0.08770 0.27640 -0.16800
H 	H 	0.52210 0.12320 0.25100 0.07800
C 	C 	0.51380 0.09390 0.30910 0.09400
C 	C 	0.53040 0.04400 0.34610 -0.21000
H 	H 	0.52290 0.05460 0.37290 0.10800
C 	C 	0.55720 0.98200 0.34240 0.16600
H 	H 	0.56310 0.93830 0.36480 -0.04000
C 	C 	0.40270 0.48660 0.22310 0.05700
H 	H 	0.37990 0.52250 0.22070 -0.01100
C 	C 	0.40680 0.41010 0.24980 -0.11100
H 	H 	0.38650 0.39260 0.26380 0.07300
C 	C 	0.43980 0.36120 0.25570 0.04100
C 	C 	0.46770 0.38660 0.23120 -0.11000
H 	H 	0.49050 0.35110 0.23320 0.06200
C 	C 	0.46200 0.46100 0.20500 0.05900
H 	H 	0.48150 0.47740 0.18970 -0.01100
C 	C 	0.43120 0.19730 0.33700 0.10200
C 	C 	0.47960 0.15200 0.30670 0.06800
C 	C 	0.44510 0.27610 0.28290 0.09600
C 	C 	0.68430 0.90920 0.39790 0.05100
H 	H 	0.67810 0.84810 0.40390 0.00000
C 	C 	0.71290 0.95060 0.42350 -0.08300
H 	H 	0.72680 0.91760 0.44770 0.08000
C 	C 	0.72440 0.04040 0.41780 0.00400
C 	C 	0.70370 0.08270 0.38110 -0.09000
H 	H 	0.71020 0.14330 0.37460 0.07100
C 	C 	0.67500 0.04020 0.35520 0.02500
H 	H 	0.66160 0.07130 0.33010 0.00500
C 	C 	0.84710 0.89230 0.58270 0.07400
H 	H 	0.84350 0.82870 0.58640 -0.02300
C 	C 	0.82350 0.93420 0.54910 -0.10100
H 	H 	0.80310 0.90130 0.53120 0.07200
C 	C 	0.82970 0.02830 0.54100 0.02500
C 	C 	0.85740 0.06940 0.57160 -0.11000
H 	H 	0.86130 0.13330 0.56980 0.08900
C 	C 	0.87840 0.02450 0.60260 0.04300
H 	H 	0.89830 0.05690 0.62160 -0.00100
C 	C 	0.78490 0.45880 0.44630 0.09300
H 	H 	0.76710 0.49880 0.42870 -0.01900
C 	C 	0.77670 0.36940 0.44510 -0.14100
H 	H 	0.75240 0.34830 0.42920 0.08300
C 	C 	0.80280 0.30950 0.46640 0.06100
C 	C 	0.83710 0.34370 0.49200 -0.10700
H 	H 	0.85550 0.30280 0.50820 0.07800
C 	C 	0.84430 0.43730 0.49400 0.03900
H 	H 	0.86760 0.46120 0.51090 -0.00900
C 	C 	0.75640 0.08510 0.44660 0.09300
C 	C 	0.80700 0.07900 0.50490 0.10700
C 	C 	0.79340 0.20790 0.46870 0.10100
C 	C 	0.90700 0.99100 0.72840 0.16100
H 	H 	0.88800 0.94720 0.73170 -0.05600
C 	C 	0.90990 0.07200 0.75280 -0.20800
H 	H 	0.89080 0.08790 0.76870 0.08900
C 	C 	0.94150 0.12700 0.75280 0.09100
C 	C 	0.96540 0.10450 0.72820 -0.16400
H 	H 	0.98740 0.14120 0.72730 0.08500
C 	C 	0.95800 0.02680 0.70340 0.08400
H 	H 	0.97560 0.00960 0.68570 -0.02600
C 	C 	0.88950 0.38700 0.92580 0.12100
H 	H 	0.89680 0.43230 0.94760 -0.04000
C 	C 	0.91150 0.37600 0.89530 -0.16400
H 	H 	0.93270 0.41650 0.89580 0.09200
C 	C 	0.90500 0.31180 0.86530 0.07800
C 	C 	0.87070 0.26140 0.86300 -0.15100
H 	H 	0.86190 0.21800 0.84070 0.07900
C 	C 	0.84980 0.28020 0.89670 0.08800
H 	H 	0.82700 0.24560 0.89690 -0.05200
C 	C 	0.06320 0.45980 0.77430 0.06100
H 	H 	0.07470 0.46530 0.74980 -0.00700
C 	C 	0.03200 0.40520 0.77250 -0.11800
H 	H 	0.02230 0.37190 0.74670 0.07400
C 	C 	0.01360 0.39630 0.80680 0.04400
C 	C 	0.02930 0.43790 0.84410 -0.11900
H 	H 	0.01850 0.43090 0.86910 0.08200
C 	C 	0.06290 0.49290 0.84520 0.06900
H 	H 	0.07480 0.52090 0.87170 -0.01600
C 	C 	0.94690 0.20850 0.78240 0.07000
C 	C 	0.92950 0.29410 0.83550 0.08200
C 	C 	0.98030 0.33330 0.80630 0.10400
C 	C 	0.78580 0.52210 0.94880 0.06800
H 	H 	0.76800 0.48000 0.93270 -0.03100
C 	C 	0.77700 0.61850 0.94550 -0.11800
H 	H 	0.75450 0.64020 0.92600 0.08300
C 	C 	0.80200 0.67860 0.97140 0.06400
C 	C 	0.83590 0.64450 0.99580 -0.13400
H 	H 	0.85450 0.68340 0.01300 0.08900
C 	C 	0.84180 0.55160 0.99440 0.09000
H 	H 	0.86580 0.52900 0.01020 -0.02200
C 	C 	0.88280 0.96960 0.10390 0.10400
H 	H 	0.90280 0.93920 0.12360 -0.02100
C 	C 	0.86120 0.91930 0.06920 -0.31800
H 	H 	0.86730 0.85770 0.06410 0.15600
C 	C 	0.83030 0.96430 0.04270 0.16000
C 	C 	0.82490 0.05470 0.04920 -0.21900
H 	H 	0.80480 0.08690 0.03040 0.09600
C 	C 	0.84840 0.09960 0.08290 0.09800
H 	H 	0.84460 0.16310 0.08670 -0.02800
C 	C 	0.68660 0.07430 0.89540 0.10300
H 	H 	0.68160 0.13740 0.89860 -0.02800
C 	C 	0.71630 0.03500 0.92520 -0.19600
H 	H 	0.73120 0.06960 0.94810 0.10900
C 	C 	0.72320 0.94500 0.92040 0.10000
C 	C 	0.69940 0.89630 0.88640 -0.17100
H 	H 	0.70270 0.83270 0.88250 0.10000
C 	C 	0.67080 0.94600 0.85880 0.13600
H 	H 	0.65480 0.91450 0.83550 -0.03200
C 	C 	0.79380 0.77710 0.97210 0.10500
C 	C 	0.80630 0.91250 0.00750 0.06300
C 	C 	0.75650 0.89880 0.95140 0.07600
N 	N 	0.36200 0.15260 0.43170 -0.30200
N 	N 	0.57560 0.97640 0.31220 -0.29600
N 	N 	0.42930 0.51280 0.20010 -0.27000
N 	N 	0.45860 0.13800 0.33850 -0.13400
N 	N 	0.47410 0.22170 0.27950 -0.15100
N 	N 	0.42280 0.26710 0.31090 -0.14000
N 	N 	0.66340 0.95250 0.36280 -0.25500
N 	N 	0.87440 0.93330 0.61040 -0.28800
N 	N 	0.81640 0.49410 0.47060 -0.26800
N 	N 	0.77480 0.03590 0.48050 -0.14700
N 	N 	0.81640 0.16190 0.50090 -0.14100
N 	N 	0.76380 0.17420 0.44000 -0.14200
N 	N 	0.92780 0.97620 0.70340 -0.30400
N 	N 	0.85960 0.33920 0.92580 -0.32200
N 	N 	0.07810 0.50690 0.81120 -0.27900
N 	N 	0.92420 0.21790 0.81070 -0.13900
N 	N 	0.95970 0.35220 0.83430 -0.13700
N 	N 	0.97430 0.26880 0.77710 -0.15000
N 	N 	0.81750 0.49120 0.97330 -0.30800
N 	N 	0.87670 0.05600 0.11060 -0.29600
N 	N 	0.66490 0.03070 0.86300 -0.31500
N 	N 	0.81740 0.82410 0.00280 -0.12700
N 	N 	0.77700 0.95350 0.98190 -0.12900
N 	N 	0.76300 0.81200 0.94450 -0.13700
C 	C 	0.76110 0.65400 0.83900 0.08600
N 	N 	0.78550 0.58530 0.82980 -0.11500
N 	N 	0.72730 0.62200 0.84550 -0.10300
C 	C 	0.76350 0.49700 0.82830 0.05100
C 	C 	0.72870 0.52900 0.83850 -0.09000
C 	C 	0.70260 0.46800 0.84130 -0.04600
H 	H 	0.67860 0.48400 0.84840 -0.02100
C 	C 	0.71060 0.38200 0.83390 -0.15300
H 	H 	0.69130 0.33870 0.83680 0.10500
C 	C 	0.74420 0.34600 0.82230 -0.04400
H 	H 	0.74760 0.28360 0.81530 0.02300
C 	C 	0.77250 0.41600 0.82250 -0.11100
H 	H 	0.79770 0.40180 0.81820 0.07800
C 	C 	0.77350 0.74700 0.84380 0.07200
N 	N 	0.74730 0.81900 0.81940 -0.10800
N 	N 	0.80610 0.77000 0.87090 -0.11500
C 	C 	0.77060 0.89900 0.83650 -0.04500
C 	C 	0.80270 0.86900 0.86670 0.09300
C 	C 	0.82850 0.93200 0.88950 -0.03500
H 	H 	0.85050 0.91210 0.91020 -0.08000
C 	C 	0.82210 0.02510 0.88210 0.16200
H 	H 	0.83980 0.06840 0.89770 -0.02900
C 	C 	0.79000 0.05470 0.85190 -0.24500
H 	H 	0.78570 0.11820 0.84690 0.17800
C 	C 	0.76420 0.99100 0.82910 0.16300
H 	H 	0.74230 0.01160 0.80840 -0.02700
C 	C 	0.82280 0.59900 0.81440 -0.02800
H 	H 	0.83850 0.54260 0.81960 0.04800
H 	H 	0.83780 0.64900 0.83120 0.05100
C 	C 	0.81500 0.62300 0.76610 -0.13900
H 	H 	0.84010 0.62850 0.75700 0.07800
H 	H 	0.80050 0.57180 0.74950 0.07900
C 	C 	0.79450 0.70100 0.75610 -0.00300
H 	H 	0.80940 0.75590 0.75850 0.04600
C 	C 	0.75190 0.71300 0.74200 -0.01900
H 	H 	0.73700 0.66200 0.72980 0.04200
C 	C 	0.73130 0.80000 0.74570 -0.14700
H 	H 	0.70850 0.80330 0.72150 0.07600
H 	H 	0.74870 0.85120 0.74270 0.08300
C 	C 	0.71810 0.81000 0.78730 0.01100
H 	H 	0.70100 0.86360 0.78570 0.03600
H 	H 	0.70290 0.75500 0.79200 0.04700
C 	C 	0.95800 0.01200 0.00400 0.26100
H 	H 	0.98210 0.04690 0.00410 -0.07000
H 	H 	0.96080 0.97800 0.03100 -0.03500
C 	C 	0.92300 0.08000 0.99940 -1.29300
H 	H 	0.89880 0.04580 0.99660 0.21000
H 	H 	0.92680 0.11940 0.02530 0.40100
C 	C 	0.92300 0.13700 0.95900 0.90500
H 	H 	0.94800 0.17000 0.96160 -0.20400
H 	H 	0.90200 0.18320 0.95550 0.12900
C 	C 	0.91700 0.07400 0.91930 -0.28900
H 	H 	0.89030 0.04710 0.91530 0.09900
H 	H 	0.91760 0.11070 0.89330 0.04900
C 	C 	0.94600 0.99600 0.92200 -0.06800
H 	H 	0.93730 0.95310 0.89820 -0.06100
H 	H 	0.97130 0.02170 0.91950 0.01600
C 	C 	0.95100 0.94500 0.96500 -0.17200
H 	H 	0.97320 0.90260 0.96790 0.08600
H 	H 	0.92740 0.90830 0.96530 0.11600
C 	C 	0.05300 0.79800 0.20900 -0.10600
H 	H 	0.04520 0.83210 0.23290 0.03500
H 	H 	0.08170 0.79140 0.21590 0.06300
C 	C 	0.03300 0.70400 0.20300 -0.05900
H 	H 	0.00490 0.71040 0.19590 0.04400
H 	H 	0.04080 0.66700 0.22970 0.03100
C 	C 	0.04800 0.65800 0.16500 -0.10400
H 	H 	0.07590 0.67190 0.16660 0.06200
H 	H 	0.04460 0.59120 0.16510 0.05900
C 	C 	0.02300 0.70200 0.12500 -0.06100
H 	H 	0.00090 0.66070 0.11260 0.04200
H 	H 	0.03800 0.71330 0.10260 0.04900
C 	C 	0.00690 0.79300 0.13900 -0.11000
H 	H 	0.98700 0.78010 0.15600 0.06800
H 	H 	0.99450 0.82790 0.11280 0.05700
C 	C 	0.04000 0.84900 0.16600 -0.03800
H 	H 	0.06180 0.85440 0.15080 0.04100
H 	H 	0.03090 0.91110 0.17120 -0.00400
I 	I 	0.26918 0.22770 0.45640 -0.27700
I 	I 	0.37370 0.15440 0.55030 -0.14300
I 	I 	0.64420 0.90130 0.24570 -0.22100
I 	I 	0.60980 0.72900 0.34150 0.03200
Zn	Zn	0.90740 0.87600 0.65730 0.64800
I 	I 	0.96680 0.81980 0.62960 0.03300
I 	I 	0.86700 0.76100 0.69340 -0.34900
Zn	Zn	0.83170 0.35520 0.97790 0.66600
I 	I 	0.77113 0.26010 0.95621 0.05100
I 	I 	0.88070 0.33270 0.04793 -0.53600
I 	I 	0.96950 0.14550 0.12390 -0.04600
I 	I 	0.87750 0.23320 0.19240 -0.19500
Zn	Zn	0.62510 0.11420 0.81660 0.61300
I 	I 	0.64990 0.09840 0.74230 -0.28800
I 	I 	0.60530 0.23140 0.84380 -0.08800
C 	C 	0.85010 0.95200 0.90600 0.24700
N 	N 	0.86150 0.94100 0.86440 -0.18500
N 	N 	0.82150 0.99800 0.90400 -0.24100
C 	C 	0.83120 0.99700 0.83660 0.02400
C 	C 	0.80570 0.02500 0.86210 0.11700
C 	C 	0.77290 0.07600 0.84400 -0.17800
H 	H 	0.75550 0.09490 0.86150 0.08100
C 	C 	0.76570 0.09800 0.80000 -0.03200
H 	H 	0.74330 0.13250 0.78790 0.02900
C 	C 	0.79110 0.07000 0.77470 -0.03800
H 	H 	0.78620 0.08520 0.74490 0.03600
C 	C 	0.82390 0.02000 0.79290 -0.08800
H 	H 	0.84130 0.00030 0.77540 0.04800
C 	C 	0.87760 0.91000 0.94100 0.07100
N 	N 	0.89230 0.95700 0.97880 -0.16000
N 	N 	0.88560 0.82300 0.94240 -0.11100
C 	C 	0.91850 0.88600 0.01180 0.03100
C 	C 	0.91350 0.80800 0.98620 0.03200
C 	C 	0.93220 0.72800 0.00170 -0.06800
H 	H 	0.92880 0.67440 0.98420 0.05600
C 	C 	0.95580 0.72500 0.04280 -0.04100
H 	H 	0.96860 0.67010 0.05340 0.04000
C 	C 	0.96080 0.80300 0.06840 -0.00800
H 	H 	0.97690 0.80140 0.09650 0.01600
C 	C 	0.94210 0.88400 0.05290 -0.08200
H 	H 	0.94550 0.93710 0.07040 0.06400
C 	C 	0.89910 0.90900 0.85600 0.35400
H 	H 	0.91010 0.86180 0.87690 -0.06500
H 	H 	0.89490 0.88200 0.82630 -0.06900
C 	C 	0.92600 0.98300 0.85800 -0.84300
H 	H 	0.94860 0.96260 0.84750 0.29200
H 	H 	0.91330 0.03340 0.83960 0.25200
C 	C 	0.93600 0.01200 0.89700 0.70200
H 	H 	0.95820 0.97500 0.90880 -0.10100
C 	C 	0.93300 0.06300 0.92800 -0.43800
H 	H 	0.94180 0.11790 0.91740 0.14100
C 	C 	0.92500 0.10400 0.97400 0.36700
H 	H 	0.94990 0.10270 0.99590 0.19000
H 	H 	0.91740 0.16880 0.96950 -0.65300
C 	C 	0.89500 0.05500 0.99200 0.26300
H 	H 	0.90160 0.05850 0.02440 0.03700
H 	H 	0.86960 0.08490 0.98230 -0.09400
C 	C 	0.70700 0.35000 0.82850 0.07200
H 	H 	0.72110 0.32590 0.80720 0.03500
H 	H 	0.67980 0.32660 0.82090 -0.07400
C 	C 	0.72630 0.31700 0.87460 -0.13600
H 	H 	0.72330 0.25010 0.87650 0.07800
H 	H 	0.75430 0.33120 0.88020 0.07800
C 	C 	0.70800 0.36400 0.90900 0.04100
H 	H 	0.72470 0.41350 0.92390 0.02300
H 	H 	0.70260 0.31990 0.93070 0.05800
C 	C 	0.66900 0.40400 0.88200 -0.29200
H 	H 	0.65570 0.35810 0.86120 0.12500
H 	H 	0.65170 0.42300 0.90110 0.19600
C 	C 	0.68100 0.48800 0.85700 0.10600
H 	H 	0.65750 0.51930 0.84090 -0.01500
H 	H 	0.69580 0.53230 0.87810 0.01900
C 	C 	0.70600 0.45500 0.82600 -0.00000
H 	H 	0.69470 0.47500 0.79630 0.04000
H 	H 	0.73260 0.47930 0.83470 0.11000
Zn	Zn	0.83028 0.63331 0.47890 1.16000
Zn	Zn	0.12138 0.38658 0.31820 1.16100
Zn	Zn	0.41737 0.62215 0.15834 1.15800
I 	I 	0.77380 0.71740 0.45940 -0.08900
I 	I 	0.87521 0.64420 0.55480 -0.22700
I 	I 	0.14524 0.37880 0.24952 -0.13400
I 	I 	0.09785 0.25577 0.35812 -0.41900
Zn	Zn	0.41810 0.36230 0.65830 0.61400
I 	I 	0.47403 0.34610 0.62191 -0.38700
I 	I 	0.38229 0.25080 0.69370 -0.04900
Zn	Zn	0.31990 0.85040 0.96620 0.66800
I 	I 	0.25750 0.76950 0.94110 -0.51200
I 	I 	0.36850 0.81260 0.03650 0.11400
I 	I 	0.48090 0.64710 0.12610 -0.32400
I 	I 	0.38736 0.73650 0.20020 -0.16100
Zn	Zn	0.12350 0.58680 0.81590 0.63400
I 	I 	0.14830 0.58850 0.74970 -0.08100
I 	I 	0.10465 0.73830 0.85360 -0.34100
C 	C 	0.85010 0.69800 0.39430 0.10900
H 	H 	0.82420 0.72100 0.38840 -0.02200
C 	C 	0.87130 0.71470 0.36510 -0.17400
H 	H 	0.86100 0.74990 0.34010 0.10300
C 	C 	0.90650 0.68150 0.37100 0.10900
C 	C 	0.91980 0.62900 0.40600 -0.16800
H 	H 	0.94510 0.60360 0.41150 0.09900
C 	C 	0.89390 0.61400 0.43390 0.12300
H 	H 	0.90130 0.56970 0.45620 -0.04000
C 	C 	0.06260 0.52610 0.27960 0.10700
H 	H 	0.07490 0.52220 0.25560 -0.02600
C 	C 	0.03070 0.58770 0.27640 -0.16400
H 	H 	0.02210 0.62320 0.25100 0.07900
C 	C 	0.01380 0.59390 0.30910 0.08300
C 	C 	0.03040 0.54400 0.34610 -0.17100
H 	H 	0.02290 0.55460 0.37290 0.09900
C 	C 	0.05720 0.48200 0.34240 0.12600
H 	H 	0.06310 0.43830 0.36480 -0.03100
C 	C 	0.90270 0.98660 0.22310 0.12400
H 	H 	0.87990 0.02250 0.22070 -0.04600
C 	C 	0.90680 0.91010 0.24980 -0.15000
H 	H 	0.88650 0.89260 0.26380 0.08900
C 	C 	0.93980 0.86120 0.25570 0.06500
C 	C 	0.96770 0.88660 0.23120 -0.13300
H 	H 	0.99050 0.85110 0.23320 0.07100
C 	C 	0.96200 0.96100 0.20500 0.09100
H 	H 	0.98150 0.97740 0.18970 -0.01800
C 	C 	0.93120 0.69730 0.33700 0.10300
C 	C 	0.97960 0.65200 0.30670 0.07400
C 	C 	0.94510 0.77610 0.28290 0.09000
C 	C 	0.18430 0.40920 0.39790 0.07400
H 	H 	0.17810 0.34810 0.40390 -0.00900
C 	C 	0.21290 0.45060 0.42350 -0.13200
H 	H 	0.22680 0.41760 0.44770 0.09300
C 	C 	0.22440 0.54040 0.41780 0.04700
C 	C 	0.20370 0.58270 0.38110 -0.12200
H 	H 	0.21020 0.64330 0.37460 0.08300
C 	C 	0.17500 0.54020 0.35520 0.06300
H 	H 	0.16160 0.57130 0.33010 -0.00400
C 	C 	0.34710 0.39230 0.58270 0.09400
H 	H 	0.34350 0.32870 0.58640 -0.03000
C 	C 	0.32350 0.43420 0.54910 -0.14600
H 	H 	0.30310 0.40130 0.53120 0.08300
C 	C 	0.32970 0.52830 0.54100 0.06800
C 	C 	0.35740 0.56940 0.57160 -0.14700
H 	H 	0.36130 0.63330 0.56980 0.10200
C 	C 	0.37840 0.52450 0.60260 0.08600
H 	H 	0.39830 0.55690 0.62160 -0.01100
C 	C 	0.28490 0.95880 0.44630 0.09500
H 	H 	0.26710 0.99880 0.42870 -0.01300
C 	C 	0.27670 0.86940 0.44510 -0.13800
H 	H 	0.25240 0.84830 0.42920 0.08300
C 	C 	0.30280 0.80950 0.46640 0.06200
C 	C 	0.33710 0.84370 0.49200 -0.10500
H 	H 	0.35550 0.80280 0.50820 0.08000
C 	C 	0.34430 0.93730 0.49400 0.04100
H 	H 	0.36760 0.96120 0.51090 -0.00300
C 	C 	0.25640 0.58510 0.44660 0.08300
C 	C 	0.30700 0.57900 0.50490 0.09800
C 	C 	0.29340 0.70790 0.46870 0.10300
C 	C 	0.40700 0.49100 0.72840 0.12700
H 	H 	0.38800 0.44720 0.73170 -0.05000
C 	C 	0.40990 0.57200 0.75280 -0.17300
H 	H 	0.39080 0.58790 0.76870 0.08800
C 	C 	0.44150 0.62700 0.75280 0.08600
C 	C 	0.46540 0.60450 0.72820 -0.16300
H 	H 	0.48740 0.64120 0.72730 0.08700
C 	C 	0.45800 0.52680 0.70340 0.10300
H 	H 	0.47560 0.50960 0.68570 -0.02400
C 	C 	0.38950 0.88700 0.92580 0.12000
H 	H 	0.39680 0.93230 0.94760 -0.03800
C 	C 	0.41150 0.87600 0.89530 -0.16400
H 	H 	0.43270 0.91650 0.89580 0.09400
C 	C 	0.40500 0.81180 0.86530 0.08300
C 	C 	0.37070 0.76140 0.86300 -0.14300
H 	H 	0.36190 0.71800 0.84070 0.08300
C 	C 	0.34980 0.78020 0.89670 0.09500
H 	H 	0.32700 0.74560 0.89690 -0.05000
C 	C 	0.56320 0.95980 0.77430 0.09500
H 	H 	0.57470 0.96530 0.74980 -0.01100
C 	C 	0.53200 0.90520 0.77250 -0.14200
H 	H 	0.52230 0.87190 0.74670 0.08500
C 	C 	0.51360 0.89630 0.80680 0.06900
C 	C 	0.52930 0.93790 0.84410 -0.15500
H 	H 	0.51850 0.93090 0.86910 0.09700
C 	C 	0.56290 0.99290 0.84520 0.13600
H 	H 	0.57480 0.02090 0.87170 -0.05000
C 	C 	0.44690 0.70850 0.78240 0.07600
C 	C 	0.42950 0.79410 0.83550 0.08600
C 	C 	0.48030 0.83330 0.80630 0.09900
C 	C 	0.28580 0.02210 0.94880 0.00300
H 	H 	0.26800 0.98000 0.93270 0.00200
C 	C 	0.27700 0.11850 0.94550 -0.08500
H 	H 	0.25450 0.14020 0.92600 0.07100
C 	C 	0.30200 0.17860 0.97140 0.04300
C 	C 	0.33590 0.14450 0.99580 -0.11100
H 	H 	0.35450 0.18340 0.01300 0.08100
C 	C 	0.34180 0.05160 0.99440 0.05800
H 	H 	0.36580 0.02900 0.01020 -0.01800
C 	C 	0.38280 0.46960 0.10390 0.07000
H 	H 	0.40280 0.43920 0.12360 -0.01200
C 	C 	0.36120 0.41930 0.06920 -0.28200
H 	H 	0.36730 0.35770 0.06410 0.14500
C 	C 	0.33030 0.46430 0.04270 0.11900
C 	C 	0.32490 0.55470 0.04920 -0.17000
H 	H 	0.30480 0.58690 0.03040 0.08300
C 	C 	0.34840 0.59960 0.08290 0.08100
H 	H 	0.34460 0.66310 0.08670 -0.02100
C 	C 	0.18660 0.57430 0.89540 0.08400
H 	H 	0.18160 0.63740 0.89860 -0.02100
C 	C 	0.21630 0.53500 0.92520 -0.14800
H 	H 	0.23120 0.56960 0.94810 0.09700
C 	C 	0.22320 0.44500 0.92040 0.06000
C 	C 	0.19940 0.39630 0.88640 -0.14200
H 	H 	0.20270 0.33270 0.88250 0.09000
C 	C 	0.17080 0.44600 0.85880 0.09800
H 	H 	0.15480 0.41450 0.83550 -0.02300
C 	C 	0.29380 0.27710 0.97210 0.11100
C 	C 	0.30630 0.41250 0.00750 0.07600
C 	C 	0.25650 0.39880 0.95140 0.08500
N 	N 	0.86200 0.65260 0.43170 -0.30000
N 	N 	0.07560 0.47640 0.31220 -0.30000
N 	N 	0.92930 0.01280 0.20010 -0.30100
N 	N 	0.95860 0.63800 0.33850 -0.13300
N 	N 	0.97410 0.72170 0.27950 -0.15000
N 	N 	0.92280 0.76710 0.31090 -0.13800
N 	N 	0.16340 0.45250 0.36280 -0.27300
N 	N 	0.37440 0.43330 0.61040 -0.30700
N 	N 	0.31640 0.99410 0.47060 -0.26200
N 	N 	0.27480 0.53590 0.48050 -0.13800
N 	N 	0.31640 0.66190 0.50090 -0.13800
N 	N 	0.26380 0.67420 0.44000 -0.13900
N 	N 	0.42780 0.47620 0.70340 -0.30900
N 	N 	0.35960 0.83920 0.92580 -0.32100
N 	N 	0.57810 0.00690 0.81120 -0.31000
N 	N 	0.42420 0.71790 0.81070 -0.13300
N 	N 	0.45970 0.85220 0.83430 -0.13500
N 	N 	0.47430 0.76880 0.77710 -0.14900
N 	N 	0.31750 0.99120 0.97330 -0.27700
N 	N 	0.37670 0.55600 0.11060 -0.27600
N 	N 	0.16490 0.53070 0.86300 -0.29500
N 	N 	0.31740 0.32410 0.00280 -0.13000
N 	N 	0.27700 0.45350 0.98190 -0.13800
N 	N 	0.26300 0.31200 0.94450 -0.14000
C 	C 	0.26110 0.15400 0.83900 0.08500
N 	N 	0.28550 0.08530 0.82980 -0.12600
N 	N 	0.22730 0.12200 0.84550 -0.08900
C 	C 	0.26350 0.99700 0.82830 0.10300
C 	C 	0.22870 0.02900 0.83850 -0.18000
C 	C 	0.20260 0.96800 0.84130 -0.04600
H 	H 	0.17860 0.98400 0.84840 0.00300
C 	C 	0.21060 0.88200 0.83390 -0.17400
H 	H 	0.19130 0.83870 0.83680 0.13300
C 	C 	0.24420 0.84600 0.82230 -0.00800
H 	H 	0.24760 0.78360 0.81530 0.01200
C 	C 	0.27250 0.91600 0.82250 -0.15800
H 	H 	0.29770 0.90180 0.81820 0.09600
C 	C 	0.27350 0.24700 0.84380 0.07200
N 	N 	0.24730 0.31900 0.81940 -0.11200
N 	N 	0.30610 0.27000 0.87090 -0.11400
C 	C 	0.27060 0.39900 0.83650 -0.03000
C 	C 	0.30270 0.36900 0.86670 0.08800
C 	C 	0.32850 0.43200 0.88950 -0.04300
H 	H 	0.35050 0.41210 0.91020 -0.06400
C 	C 	0.32210 0.52510 0.88210 0.17000
H 	H 	0.33980 0.56840 0.89770 -0.01100
C 	C 	0.29000 0.55470 0.85190 -0.22600
H 	H 	0.28570 0.61820 0.84690 0.18200
C 	C 	0.26420 0.49100 0.82910 0.10700
H 	H 	0.24230 0.51160 0.80840 0.00200
C 	C 	0.32280 0.09900 0.81440 -0.02600
H 	H 	0.33850 0.04260 0.81960 0.04100
H 	H 	0.33780 0.14900 0.83120 0.05000
C 	C 	0.31500 0.12300 0.76610 -0.13900
H 	H 	0.34010 0.12850 0.75700 0.07500
H 	H 	0.30050 0.07180 0.74950 0.07400
C 	C 	0.29450 0.20100 0.75610 -0.00400
H 	H 	0.30940 0.25590 0.75850 0.04500
C 	C 	0.25190 0.21300 0.74200 -0.02000
H 	H 	0.23700 0.16200 0.72980 0.04000
C 	C 	0.23130 0.30000 0.74570 -0.14600
H 	H 	0.20850 0.30330 0.72150 0.07300
H 	H 	0.24870 0.35120 0.74270 0.07900
C 	C 	0.21810 0.31000 0.78730 0.01200
H 	H 	0.20100 0.36360 0.78570 0.03200
H 	H 	0.20290 0.25500 0.79200 0.04700
C 	C 	0.45800 0.51200 0.00400 -0.09900
H 	H 	0.48210 0.54690 0.00410 0.04200
H 	H 	0.46080 0.47800 0.03100 0.06100
C 	C 	0.42300 0.58000 0.99940 0.01900
H 	H 	0.39880 0.54580 0.99660 -0.02900
H 	H 	0.42680 0.61940 0.02530 0.00900
C 	C 	0.42300 0.63700 0.95900 -0.00200
H 	H 	0.44800 0.67000 0.96160 0.02100
H 	H 	0.40200 0.68320 0.95550 -0.04700
C 	C 	0.41700 0.57400 0.91930 0.03200
H 	H 	0.39030 0.54710 0.91530 0.03000
H 	H 	0.41760 0.61070 0.89330 0.02500
C 	C 	0.44600 0.49600 0.92200 0.08300
H 	H 	0.43730 0.45310 0.89820 0.08000
H 	H 	0.47130 0.52170 0.91950 0.03700
C 	C 	0.45100 0.44500 0.96500 -0.15400
H 	H 	0.47320 0.40260 0.96790 0.07100
H 	H 	0.42740 0.40830 0.96530 0.10000
C 	C 	0.55300 0.29800 0.20900 -0.08000
H 	H 	0.54520 0.33210 0.23290 0.02600
H 	H 	0.58170 0.29140 0.21590 0.05000
C 	C 	0.53300 0.20400 0.20300 -0.07900
H 	H 	0.50490 0.21040 0.19590 0.05000
H 	H 	0.54080 0.16700 0.22970 0.03700
C 	C 	0.54800 0.15800 0.16500 -0.08800
H 	H 	0.57590 0.17190 0.16660 0.05400
H 	H 	0.54460 0.09120 0.16510 0.04900
C 	C 	0.52300 0.20200 0.12500 -0.08000
H 	H 	0.50090 0.16070 0.11260 0.04500
H 	H 	0.53800 0.21330 0.10260 0.04900
C 	C 	0.50690 0.29300 0.13900 -0.08500
H 	H 	0.48700 0.28010 0.15600 0.06000
H 	H 	0.49450 0.32790 0.11280 0.04300
C 	C 	0.54000 0.34900 0.16600 -0.08100
H 	H 	0.56180 0.35440 0.15080 0.04700
H 	H 	0.53090 0.41110 0.17120 0.04000
I 	I 	0.76918 0.72770 0.45640 -0.27300
I 	I 	0.87370 0.65440 0.55030 -0.13800
I 	I 	0.14420 0.40130 0.24570 -0.22200
I 	I 	0.10980 0.22900 0.34150 0.02100
Zn	Zn	0.40740 0.37600 0.65730 0.64800
I 	I 	0.46680 0.31980 0.62960 0.02400
I 	I 	0.36700 0.26100 0.69340 -0.35000
Zn	Zn	0.33170 0.85520 0.97790 0.66600
I 	I 	0.27113 0.76010 0.95621 0.05000
I 	I 	0.38070 0.83270 0.04793 -0.54100
I 	I 	0.46950 0.64550 0.12390 -0.02900
I 	I 	0.37750 0.73320 0.19240 -0.19100
Zn	Zn	0.12510 0.61420 0.81660 0.61200
I 	I 	0.14990 0.59840 0.74230 -0.28200
I 	I 	0.10530 0.73140 0.84380 -0.08800
C 	C 	0.35010 0.45200 0.90600 0.23100
N 	N 	0.36150 0.44100 0.86440 -0.12700
N 	N 	0.32150 0.49800 0.90400 -0.25600
C 	C 	0.33120 0.49700 0.83660 -0.03700
C 	C 	0.30570 0.52500 0.86210 0.16000
C 	C 	0.27290 0.57600 0.84400 -0.21000
H 	H 	0.25550 0.59490 0.86150 0.09400
C 	C 	0.26570 0.59800 0.80000 0.00500
H 	H 	0.24330 0.63250 0.78790 0.01700
C 	C 	0.29110 0.57000 0.77470 -0.07800
H 	H 	0.28620 0.58520 0.74490 0.05300
C 	C 	0.32390 0.52000 0.79290 -0.02100
H 	H 	0.34130 0.50030 0.77540 0.03500
C 	C 	0.37760 0.41000 0.94100 0.06300
N 	N 	0.39230 0.45700 0.97880 -0.12700
N 	N 	0.38560 0.32300 0.94240 -0.11300
C 	C 	0.41850 0.38600 0.01180 0.03300
C 	C 	0.41350 0.30800 0.98620 0.03000
C 	C 	0.43220 0.22800 0.00170 -0.06800
H 	H 	0.42880 0.17440 0.98420 0.05200
C 	C 	0.45580 0.22500 0.04280 -0.03900
H 	H 	0.46860 0.17010 0.05340 0.03600
C 	C 	0.46080 0.30300 0.06840 -0.01200
H 	H 	0.47690 0.30140 0.09650 0.02100
C 	C 	0.44210 0.38400 0.05290 -0.08700
H 	H 	0.44550 0.43710 0.07040 0.05300
C 	C 	0.39910 0.40900 0.85600 -0.02800
H 	H 	0.41010 0.36180 0.87690 0.03700
H 	H 	0.39490 0.38200 0.82630 0.03800
C 	C 	0.42600 0.48300 0.85800 -0.12500
H 	H 	0.44860 0.46260 0.84750 0.06000
H 	H 	0.41330 0.53340 0.83960 0.07700
C 	C 	0.43600 0.51200 0.89700 -0.11500
H 	H 	0.45820 0.47500 0.90880 -0.02400
C 	C 	0.43300 0.56300 0.92800 -0.08200
H 	H 	0.44180 0.61790 0.91740 0.05400
C 	C 	0.42500 0.60400 0.97400 -0.20800
H 	H 	0.44990 0.60270 0.99590 0.09100
H 	H 	0.41740 0.66880 0.96950 0.10900
C 	C 	0.39500 0.55500 0.99200 0.10100
H 	H 	0.40160 0.55850 0.02440 0.00700
H 	H 	0.36960 0.58490 0.98230 -0.00400
C 	C 	0.20700 0.85000 0.82850 0.04600
H 	H 	0.22110 0.82590 0.80720 0.03600
H 	H 	0.17980 0.82660 0.82090 -0.08300
C 	C 	0.22630 0.81700 0.87460 -0.12800
H 	H 	0.22330 0.75010 0.87650 0.07500
H 	H 	0.25430 0.83120 0.88020 0.07500
C 	C 	0.20800 0.86400 0.90900 0.03500
H 	H 	0.22470 0.91350 0.92390 0.02700
H 	H 	0.20260 0.81990 0.93070 0.05900
C 	C 	0.16900 0.90400 0.88200 -0.28900
H 	H 	0.15570 0.85810 0.86120 0.12300
H 	H 	0.15170 0.92300 0.90110 0.20000
C 	C 	0.18100 0.98800 0.85700 0.09500
H 	H 	0.15750 0.01930 0.84090 -0.02800
H 	H 	0.19580 0.03230 0.87810 0.01600
C 	C 	0.20600 0.95500 0.82600 0.02900
H 	H 	0.19470 0.97500 0.79630 0.04100
H 	H 	0.23260 0.97930 0.83470 0.14600
