data_crystal

_cell_length_a 34.82990
_cell_length_b 14.91330
_cell_length_c 31.53870
_cell_angle_alpha 90.00000
_cell_angle_beta  102.40300
_cell_angle_gamma 90.00000

_symmetry_space_group_name_	'P 1'
_symmetry_space_group_name_H-M	'P 1'

loop_
_symmetry_equiv_pos_as_xyz
  x,y,z

loop_
_atom_site_label
_atom_site_type_symbol
_atom_site_fract_x
_atom_site_fract_y
_atom_site_fract_z
_atom_site_charge
Zn	Zn	0.17160 0.37650 0.52205 0.71200
I 	I 	0.23359 0.46690 0.54588 1.10700
I 	I 	0.12596 0.39640 0.44794 -1.01900
I 	I 	0.85760 0.14430 0.75810 -0.08200
I 	I 	0.89370 0.98980 0.65160 -0.28500
Zn	Zn	0.07920 0.61700 0.34610 0.60000
I 	I 	0.11320 0.49210 0.31650 -0.09300
I 	I 	0.01770 0.59920 0.37872 -0.36300
Zn	Zn	0.16950 0.08780 0.01850 0.58900
I 	I 	0.12250 0.06750 0.94641 -0.50200
I 	I 	0.23040 0.99290 0.04302 -0.48300
I 	I 	0.35130 0.81420 0.25950 -0.25200
I 	I 	0.39286 0.97370 0.14814 -0.90500
Zn	Zn	0.07682 0.84700 0.84698 1.02200
I 	I 	0.11039 0.96853 0.81301 -18.94400
I 	I 	0.01679 0.86460 0.87962 1.34000
Zn	Zn	0.87479 0.13859 0.69006 1.14500
Zn	Zn	0.37369 0.82400 0.18948 1.15000
N 	N 	0.14180 0.39150 0.57120 -0.33400
C 	C 	0.10870 0.35300 0.56720 0.08400
H 	H 	0.10100 0.31230 0.54360 -0.03900
C 	C 	0.08220 0.36600 0.59570 -0.13800
H 	H 	0.05690 0.33930 0.59010 0.07700
C 	C 	0.09510 0.41930 0.63130 0.04700
C 	C 	0.13240 0.46070 0.63750 -0.11900
H 	H 	0.14220 0.49820 0.66170 0.05000
C 	C 	0.15320 0.44370 0.60680 0.04000
H 	H 	0.17830 0.47120 0.61050 -0.04000
N 	N 	0.92240 0.22010 0.69260 -0.28400
C 	C 	0.93990 0.22600 0.65960 0.08800
H 	H 	0.93010 0.18910 0.63520 -0.02900
C 	C 	0.97060 0.28000 0.65740 -0.13000
H 	H 	0.98060 0.28300 0.63170 0.08200
C 	C 	0.98710 0.33100 0.69310 0.04100
C 	C 	0.96810 0.32900 0.72760 -0.11600
H 	H 	0.97740 0.36630 0.75210 0.06400
C 	C 	0.93550 0.27330 0.72730 0.04900
H 	H 	0.92290 0.27320 0.75110 -0.01400
N 	N 	0.06910 0.74420 0.79920 -0.31900
C 	C 	0.03910 0.69310 0.79440 0.17200
H 	H 	0.01960 0.70830 0.81010 -0.03500
C 	C 	0.03230 0.61740 0.76830 -0.22500
H 	H 	0.00930 0.58200 0.76680 0.10100
C 	C 	0.05900 0.59580 0.74550 0.15100
C 	C 	0.09120 0.65050 0.74850 -0.33000
H 	H 	0.11050 0.63980 0.73190 0.06700
C 	C 	0.06980 0.43430 0.66200 0.09800
C 	C 	0.09400 0.72310 0.77720 0.29700
H 	H 	0.11670 0.75970 0.78050 -0.45600
N 	N 	0.04110 0.37600 0.66230 -0.14200
C 	C 	0.02030 0.39240 0.69220 0.08800
N 	N 	0.02600 0.45840 0.72120 -0.14600
C 	C 	0.05430 0.51570 0.71650 0.04600
N 	N 	0.07760 0.50610 0.68820 -0.14100
N 	N 	0.33240 0.70390 0.64510 -0.26900
C 	C 	0.31200 0.66070 0.60860 0.03700
H 	H 	0.31880 0.60060 0.60330 0.02900
C 	C 	0.28260 0.70160 0.58010 -0.10500
H 	H 	0.26790 0.66930 0.55610 0.06800
C 	C 	0.27420 0.78950 0.58610 0.02000
C 	C 	0.29510 0.83440 0.62190 -0.12400
H 	H 	0.28960 0.89540 0.62670 0.05700
C 	C 	0.32440 0.78900 0.65080 0.05700
H 	H 	0.33900 0.82010 0.67530 -0.01300
N 	N 	0.12100 0.68260 0.39260 -0.27200
C 	C 	0.14930 0.64250 0.41960 0.06900
H 	H 	0.15340 0.58030 0.41580 -0.03600
C 	C 	0.17420 0.68810 0.45430 -0.13700
H 	H 	0.19540 0.65780 0.47270 0.04700
C 	C 	0.16720 0.77540 0.46060 0.07100
C 	C 	0.13710 0.81850 0.43250 -0.12100
H 	H 	0.13370 0.88160 0.43400 0.11000
C 	C 	0.11190 0.76710 0.40190 0.07100
H 	H 	0.08760 0.79210 0.38720 -0.00700
N 	N 	0.18570 0.23970 0.52790 -0.31700
C 	C 	0.16170 0.18410 0.50420 0.04500
H 	H 	0.13920 0.20770 0.48480 -0.01100
C 	C 	0.16680 0.09410 0.50560 -0.08400
H 	H 	0.14790 0.05710 0.48750 0.04200
C 	C 	0.19820 0.05560 0.53220 -0.06500
C 	C 	0.22520 0.11470 0.55810 -0.09100
H 	H 	0.24850 0.09340 0.57680 0.01800
C 	C 	0.21560 0.20930 0.55460 0.02100
H 	H 	0.23220 0.25030 0.57310 -0.02500
C 	C 	0.24220 0.83540 0.55480 0.04900
N 	N 	0.22170 0.78370 0.52220 -0.15200
C 	C 	0.19170 0.82730 0.49660 0.08800
N 	N 	0.18220 0.91350 0.50000 -0.12800
C 	C 	0.20660 0.95720 0.53220 0.14600
N 	N 	0.23590 0.92350 0.56130 -0.16700
N 	N 	0.07020 0.71940 0.29940 -0.27200
C 	C 	0.09730 0.73980 0.27630 0.06200
H 	H 	0.11980 0.70240 0.27900 -0.03100
C 	C 	0.09360 0.81470 0.24840 -0.12300
H 	H 	0.11330 0.82870 0.23280 0.06400
C 	C 	0.06000 0.86750 0.24470 0.06500
C 	C 	0.03090 0.84390 0.26840 -0.13200
H 	H 	0.00760 0.87880 0.26530 0.19300
C 	C 	0.03620 0.77150 0.29550 0.07300
H 	H 	0.01700 0.75670 0.31160 -0.01000
N 	N 	0.14090 0.06710 0.06990 -0.32500
C 	C 	0.10510 0.09940 0.06330 0.11400
H 	H 	0.09560 0.13380 0.03790 -0.03500
C 	C 	0.08070 0.08520 0.09190 -0.21300
H 	H 	0.05460 0.10740 0.08520 0.11400
C 	C 	0.09390 0.04010 0.12910 0.16000
C 	C 	0.13170 0.01070 0.13740 -0.33400
H 	H 	0.14250 0.98020 0.16380 0.18300
C 	C 	0.15480 0.02600 0.10660 0.15100
H 	H 	0.18130 0.00580 0.11260 -0.09000
N 	N 	0.92310 0.24320 0.19260 -0.25900
C 	C 	0.93830 0.19380 0.22520 0.28000
H 	H 	0.92740 0.19810 0.25030 -0.06700
C 	C 	0.96870 0.13540 0.22660 0.01800
H 	H 	0.97710 0.09710 0.25090 0.18600
C 	C 	0.98650 0.13340 0.19300 0.24300
C 	C 	0.97040 0.18400 0.15720 -0.03400
H 	H 	0.97990 0.17990 0.13120 0.12200
C 	C 	0.94000 0.24220 0.16010 0.21900
H 	H 	0.93110 0.28320 0.13700 -0.02200
C 	C 	0.05440 0.94970 0.21670 0.17500
N 	N 	0.07710 0.95720 0.18940 -0.11900
C 	C 	0.06900 0.02640 0.16160 0.01000
N 	N 	0.03980 0.08470 0.16080 -0.12500
C 	C 	0.01990 0.07190 0.19170 0.17900
N 	N 	0.02620 0.00600 0.22090 -0.10300
N 	N 	0.33260 0.75830 0.14290 -0.27400
C 	C 	0.31200 0.80080 0.10800 0.05300
H 	H 	0.31800 0.86180 0.10350 -0.00200
C 	C 	0.28250 0.75920 0.07810 -0.10700
H 	H 	0.26830 0.79130 0.05370 0.08400
C 	C 	0.27370 0.66950 0.08430 -0.00700
C 	C 	0.29580 0.62640 0.11960 -0.09900
H 	H 	0.29200 0.56450 0.12440 -0.21100
C 	C 	0.32400 0.67600 0.14810 0.12300
H 	H 	0.33800 0.64650 0.17350 -0.22000
N 	N 	0.18570 0.22120 0.02860 -0.27900
C 	C 	0.21590 0.25880 0.05560 0.03300
H 	H 	0.23460 0.22100 0.07350 -0.06700
C 	C 	0.22130 0.34860 0.05860 -0.09000
H 	H 	0.24200 0.37190 0.08050 -0.05600
C 	C 	0.19830 0.40560 0.03200 0.00400
C 	C 	0.16640 0.36840 0.00250 -0.08600
H 	H 	0.14870 0.40620 0.98330 0.07600
N 	N 	0.12080 0.78040 0.89170 -0.27700
C 	C 	0.16080 0.27750 0.00130 0.02600
H 	H 	0.13920 0.25290 0.98100 0.01200
C 	C 	0.15270 0.81860 0.91640 0.03300
H 	H 	0.15980 0.87720 0.90920 -0.01800
C 	C 	0.17510 0.77690 0.95110 -0.13800
H 	H 	0.19640 0.80780 0.96910 0.07400
C 	C 	0.16670 0.68760 0.96040 0.04500
C 	C 	0.13530 0.64880 0.93250 -0.12100
H 	H 	0.12760 0.58910 0.93730 0.09800
C 	C 	0.24110 0.62460 0.05370 0.08300
C 	C 	0.11510 0.69630 0.89780 0.03500
H 	H 	0.09580 0.66580 0.87700 -0.01100
N 	N 	0.23470 0.53910 0.05900 -0.18700
C 	C 	0.20460 0.50320 0.03030 0.09700
N 	N 	0.18080 0.55090 0.00040 -0.14000
C 	C 	0.19060 0.63490 0.99690 0.09800
N 	N 	0.22100 0.67610 0.02240 -0.14700
Zn	Zn	0.18730 0.37620 0.53640 0.70900
I 	I 	0.25030 0.45210 0.56680 -1.60400
I 	I 	0.14430 0.41870 0.45880 0.53100
I 	I 	0.85050 0.16320 0.76550 -0.38500
I 	I 	0.88530 0.99560 0.66110 0.00400
Zn	Zn	0.08510 0.61550 0.34100 0.54800
I 	I 	0.12490 0.50230 0.30720 -0.31000
I 	I 	0.02640 0.58330 0.37090 0.02200
Zn	Zn	0.17800 0.08280 0.02800 0.62000
I 	I 	0.13770 0.04940 0.95230 0.40400
I 	I 	0.24350 0.00550 0.05760 0.06800
I 	I 	0.37991 0.97242 0.16537 0.54200
I 	I 	0.35370 0.80200 0.26210 -0.25700
Zn	Zn	0.09200 0.85230 0.83730 1.28400
I 	I 	0.13270 0.95900 0.80332 18.19500
I 	I 	0.03230 0.89020 0.86750 -1.24500
Zn	Zn	0.67160 0.87650 0.52205 0.71200
I 	I 	0.73359 0.96690 0.54588 1.10900
I 	I 	0.62596 0.89640 0.44794 -0.99300
I 	I 	0.35760 0.64430 0.75810 -0.07000
I 	I 	0.39370 0.48980 0.65160 -0.32500
Zn	Zn	0.57920 0.11700 0.34610 0.59400
I 	I 	0.61320 0.99210 0.31650 -0.54700
I 	I 	0.51770 0.09920 0.37872 -0.38100
Zn	Zn	0.66950 0.58780 0.01850 0.58900
I 	I 	0.62250 0.56750 0.94641 -0.48600
I 	I 	0.73040 0.49290 0.04302 0.01400
I 	I 	0.85130 0.31420 0.25950 -0.26400
I 	I 	0.89286 0.47370 0.14814 -0.91300
Zn	Zn	0.57682 0.34700 0.84698 1.02400
I 	I 	0.61039 0.46853 0.81301 -19.10200
I 	I 	0.51679 0.36460 0.87962 1.34300
Zn	Zn	0.37479 0.63859 0.69006 1.15600
Zn	Zn	0.87369 0.32400 0.18948 1.14900
N 	N 	0.64180 0.89150 0.57120 -0.33000
C 	C 	0.60870 0.85300 0.56720 0.08600
H 	H 	0.60100 0.81230 0.54360 -0.03400
C 	C 	0.58220 0.86600 0.59570 -0.12500
H 	H 	0.55690 0.83930 0.59010 0.08100
C 	C 	0.59510 0.91930 0.63130 0.03800
C 	C 	0.63240 0.96070 0.63750 -0.10400
H 	H 	0.64220 0.99820 0.66170 0.06200
C 	C 	0.65320 0.94370 0.60680 0.04200
H 	H 	0.67830 0.97120 0.61050 -0.03000
N 	N 	0.42240 0.72010 0.69260 -0.27900
C 	C 	0.43990 0.72600 0.65960 0.09400
H 	H 	0.43010 0.68910 0.63520 -0.01800
C 	C 	0.47060 0.78000 0.65740 -0.12400
H 	H 	0.48060 0.78300 0.63170 0.09000
C 	C 	0.48710 0.83100 0.69310 0.04900
C 	C 	0.46810 0.82900 0.72760 -0.11100
H 	H 	0.47740 0.86630 0.75210 0.07400
C 	C 	0.43550 0.77330 0.72730 0.05700
H 	H 	0.42290 0.77320 0.75110 -0.01100
N 	N 	0.56910 0.24420 0.79920 -0.32100
C 	C 	0.53910 0.19310 0.79440 0.17000
H 	H 	0.51960 0.20830 0.81010 -0.04100
C 	C 	0.53230 0.11740 0.76830 -0.24000
H 	H 	0.50930 0.08200 0.76680 0.08900
C 	C 	0.55900 0.09580 0.74550 0.15700
C 	C 	0.59120 0.15050 0.74850 -0.34400
H 	H 	0.61050 0.13980 0.73190 0.05600
C 	C 	0.56980 0.93430 0.66200 0.15500
C 	C 	0.59400 0.22310 0.77720 0.29400
H 	H 	0.61670 0.25970 0.78050 -0.46500
N 	N 	0.54110 0.87600 0.66230 -0.14500
C 	C 	0.52030 0.89240 0.69220 0.10100
N 	N 	0.52600 0.95840 0.72120 -0.10200
C 	C 	0.55430 0.01570 0.71650 -0.01800
N 	N 	0.57760 0.00610 0.68820 -0.17900
N 	N 	0.83240 0.20390 0.64510 -0.27600
C 	C 	0.81200 0.16070 0.60860 0.03100
H 	H 	0.81880 0.10060 0.60330 0.00800
C 	C 	0.78260 0.20160 0.58010 -0.10700
H 	H 	0.76790 0.16930 0.55610 0.05700
C 	C 	0.77420 0.28950 0.58610 0.01300
C 	C 	0.79510 0.33440 0.62190 -0.12500
H 	H 	0.78960 0.39540 0.62670 0.04500
C 	C 	0.82440 0.28900 0.65080 0.04900
H 	H 	0.83900 0.32010 0.67530 -0.01800
N 	N 	0.62100 0.18260 0.39260 -0.27500
C 	C 	0.64930 0.14250 0.41960 0.06200
H 	H 	0.65340 0.08030 0.41580 -0.05200
C 	C 	0.67420 0.18810 0.45430 -0.13900
H 	H 	0.69540 0.15780 0.47270 0.03600
C 	C 	0.66720 0.27540 0.46060 0.06300
C 	C 	0.63710 0.31850 0.43250 -0.12100
H 	H 	0.63370 0.38160 0.43400 0.09800
C 	C 	0.61190 0.26710 0.40190 0.06300
H 	H 	0.58760 0.29210 0.38720 -0.01000
N 	N 	0.68570 0.73970 0.52790 -0.32900
C 	C 	0.66170 0.68410 0.50420 0.08200
H 	H 	0.63920 0.70770 0.48480 -0.01800
C 	C 	0.66680 0.59410 0.50560 -0.14000
H 	H 	0.64790 0.55710 0.48750 0.08300
C 	C 	0.69820 0.55560 0.53220 0.03900
C 	C 	0.72520 0.61470 0.55810 -0.13400
H 	H 	0.74850 0.59340 0.57680 0.05100
C 	C 	0.71560 0.70930 0.55460 0.04900
H 	H 	0.73220 0.75030 0.57310 -0.03100
C 	C 	0.74220 0.33540 0.55480 0.04400
N 	N 	0.72170 0.28370 0.52220 -0.15400
C 	C 	0.69170 0.32730 0.49660 0.08300
N 	N 	0.68220 0.41350 0.50000 -0.13000
C 	C 	0.70660 0.45720 0.53220 0.06700
N 	N 	0.73590 0.42350 0.56130 -0.16700
N 	N 	0.57020 0.21940 0.29940 -0.27700
C 	C 	0.59730 0.23980 0.27630 0.06500
H 	H 	0.61980 0.20240 0.27900 -0.05000
C 	C 	0.59360 0.31470 0.24840 -0.13800
H 	H 	0.61330 0.32870 0.23280 0.06000
C 	C 	0.56000 0.36750 0.24470 0.07800
C 	C 	0.53090 0.34390 0.26840 -0.14400
H 	H 	0.50760 0.37880 0.26530 0.18600
C 	C 	0.53620 0.27150 0.29550 0.07600
H 	H 	0.51700 0.25670 0.31160 -0.01500
N 	N 	0.64090 0.56710 0.06990 -0.29800
C 	C 	0.60510 0.59940 0.06330 0.07900
H 	H 	0.59560 0.63380 0.03790 -0.01800
C 	C 	0.58070 0.58520 0.09190 -0.14200
H 	H 	0.55460 0.60740 0.08520 0.09800
C 	C 	0.59390 0.54010 0.12910 0.06400
C 	C 	0.63170 0.51070 0.13740 -0.13600
H 	H 	0.64250 0.48020 0.16380 0.06700
C 	C 	0.65480 0.52600 0.10660 0.06500
H 	H 	0.68130 0.50580 0.11260 -0.03900
N 	N 	0.42310 0.74320 0.19260 -0.25700
C 	C 	0.43830 0.69380 0.22520 0.29000
H 	H 	0.42740 0.69810 0.25030 -0.06300
C 	C 	0.46870 0.63540 0.22660 0.01900
H 	H 	0.47710 0.59710 0.25090 0.20100
C 	C 	0.48650 0.63340 0.19300 0.25300
C 	C 	0.47040 0.68400 0.15720 -0.03100
H 	H 	0.47990 0.67990 0.13120 0.13000
C 	C 	0.44000 0.74220 0.16010 0.22500
H 	H 	0.43110 0.78320 0.13700 -0.01800
C 	C 	0.55440 0.44970 0.21670 0.11300
N 	N 	0.57710 0.45720 0.18940 -0.15600
C 	C 	0.56900 0.52640 0.16160 0.10000
N 	N 	0.53980 0.58470 0.16080 -0.13200
C 	C 	0.51990 0.57190 0.19170 0.19300
N 	N 	0.52620 0.50600 0.22090 -0.05500
N 	N 	0.83260 0.25830 0.14290 -0.27400
C 	C 	0.81200 0.30080 0.10800 0.04500
H 	H 	0.81800 0.36180 0.10350 -0.00100
C 	C 	0.78250 0.25920 0.07810 -0.10200
H 	H 	0.76830 0.29130 0.05370 0.07400
C 	C 	0.77370 0.16950 0.08430 -0.01600
C 	C 	0.79580 0.12640 0.11960 -0.09800
H 	H 	0.79200 0.06450 0.12440 -0.22800
C 	C 	0.82400 0.17600 0.14810 0.11600
H 	H 	0.83800 0.14650 0.17350 -0.23100
N 	N 	0.68570 0.72120 0.02860 -0.28800
C 	C 	0.71590 0.75880 0.05560 0.06800
H 	H 	0.73460 0.72100 0.07350 -0.06400
C 	C 	0.72130 0.84860 0.05860 -0.15000
H 	H 	0.74200 0.87190 0.08050 -0.01700
C 	C 	0.69830 0.90560 0.03200 0.11400
C 	C 	0.66640 0.86840 0.00250 -0.13900
H 	H 	0.64870 0.90620 0.98330 0.11000
N 	N 	0.62080 0.28040 0.89170 -0.27800
C 	C 	0.66080 0.77750 0.00130 0.05800
H 	H 	0.63920 0.75290 0.98100 0.00400
C 	C 	0.65270 0.31860 0.91640 0.02100
H 	H 	0.65980 0.37720 0.90920 -0.03300
C 	C 	0.67510 0.27690 0.95110 -0.13800
H 	H 	0.69640 0.30780 0.96910 0.05600
C 	C 	0.66670 0.18760 0.96040 0.02900
C 	C 	0.63530 0.14880 0.93250 -0.12300
H 	H 	0.62760 0.08910 0.93730 0.07600
C 	C 	0.74110 0.12460 0.05370 0.07800
C 	C 	0.61510 0.19630 0.89780 0.02300
H 	H 	0.59580 0.16580 0.87700 -0.02000
N 	N 	0.73470 0.03910 0.05900 -0.18600
C 	C 	0.70460 0.00320 0.03030 0.01000
N 	N 	0.68080 0.05090 0.00040 -0.14400
C 	C 	0.69060 0.13490 0.99690 0.08700
N 	N 	0.72100 0.17610 0.02240 -0.15000
Zn	Zn	0.68730 0.87620 0.53640 0.70900
I 	I 	0.75030 0.95210 0.56680 -1.56100
I 	I 	0.64430 0.91870 0.45880 0.55300
I 	I 	0.35050 0.66320 0.76550 -0.35800
I 	I 	0.38530 0.49560 0.66110 -0.02200
Zn	Zn	0.58510 0.11550 0.34100 0.55300
I 	I 	0.62490 0.00230 0.30720 0.13900
I 	I 	0.52640 0.08330 0.37090 -0.00400
Zn	Zn	0.67800 0.58280 0.02800 0.61600
I 	I 	0.63770 0.54940 0.95230 0.42600
I 	I 	0.74350 0.50550 0.05760 -0.44300
I 	I 	0.87991 0.47242 0.16537 0.49400
I 	I 	0.85370 0.30200 0.26210 -0.26900
Zn	Zn	0.59200 0.35230 0.83730 1.28600
I 	I 	0.63270 0.45900 0.80332 18.28100
I 	I 	0.53230 0.39020 0.86750 -1.30200
Zn	Zn	0.82840 0.37650 0.47795 0.71100
I 	I 	0.76641 0.46690 0.45412 1.10600
I 	I 	0.87404 0.39640 0.55206 -1.02000
I 	I 	0.14240 0.14430 0.24190 -0.08300
I 	I 	0.10630 0.98980 0.34840 -0.28600
Zn	Zn	0.92080 0.61700 0.65390 0.59900
I 	I 	0.88680 0.49210 0.68350 -0.09300
I 	I 	0.98230 0.59920 0.62128 -0.36300
Zn	Zn	0.83050 0.08780 0.98150 0.58900
I 	I 	0.87750 0.06750 0.05359 -0.50200
I 	I 	0.76960 0.99290 0.95698 -0.48300
I 	I 	0.64870 0.81420 0.74050 -0.25200
I 	I 	0.60714 0.97370 0.85186 -0.90500
Zn	Zn	0.92318 0.84700 0.15302 1.02200
I 	I 	0.88961 0.96853 0.18699 -18.94400
I 	I 	0.98321 0.86460 0.12038 1.34000
Zn	Zn	0.12521 0.13859 0.30994 1.14500
Zn	Zn	0.62631 0.82400 0.81052 1.15000
N 	N 	0.85820 0.39150 0.42880 -0.33400
C 	C 	0.89130 0.35300 0.43280 0.08400
H 	H 	0.89900 0.31230 0.45640 -0.03900
C 	C 	0.91780 0.36600 0.40430 -0.13800
H 	H 	0.94310 0.33930 0.40990 0.07700
C 	C 	0.90490 0.41930 0.36870 0.04700
C 	C 	0.86760 0.46070 0.36250 -0.11900
H 	H 	0.85780 0.49820 0.33830 0.05000
C 	C 	0.84680 0.44370 0.39320 0.04000
H 	H 	0.82170 0.47120 0.38950 -0.04000
N 	N 	0.07760 0.22010 0.30740 -0.28400
C 	C 	0.06010 0.22600 0.34040 0.08800
H 	H 	0.06990 0.18910 0.36480 -0.02900
C 	C 	0.02940 0.28000 0.34260 -0.13000
H 	H 	0.01940 0.28300 0.36830 0.08200
C 	C 	0.01290 0.33100 0.30690 0.04100
C 	C 	0.03190 0.32900 0.27240 -0.11600
H 	H 	0.02260 0.36630 0.24790 0.06400
C 	C 	0.06450 0.27330 0.27270 0.04900
H 	H 	0.07710 0.27320 0.24890 -0.01400
N 	N 	0.93090 0.74420 0.20080 -0.31900
C 	C 	0.96090 0.69310 0.20560 0.17200
H 	H 	0.98040 0.70830 0.18990 -0.03500
C 	C 	0.96770 0.61740 0.23170 -0.22500
H 	H 	0.99070 0.58200 0.23320 0.10100
C 	C 	0.94100 0.59580 0.25450 0.15100
C 	C 	0.90880 0.65050 0.25150 -0.33000
H 	H 	0.88950 0.63980 0.26810 0.06700
C 	C 	0.93020 0.43430 0.33800 0.09800
C 	C 	0.90600 0.72310 0.22280 0.29700
H 	H 	0.88330 0.75970 0.21950 -0.45600
N 	N 	0.95890 0.37600 0.33770 -0.14200
C 	C 	0.97970 0.39240 0.30780 0.08800
N 	N 	0.97400 0.45840 0.27880 -0.14600
C 	C 	0.94570 0.51570 0.28350 0.04600
N 	N 	0.92240 0.50610 0.31180 -0.14100
N 	N 	0.66760 0.70390 0.35490 -0.26900
C 	C 	0.68800 0.66070 0.39140 0.03700
H 	H 	0.68120 0.60060 0.39670 0.02900
C 	C 	0.71740 0.70160 0.41990 -0.10500
H 	H 	0.73210 0.66930 0.44390 0.06800
C 	C 	0.72580 0.78950 0.41390 0.02000
C 	C 	0.70490 0.83440 0.37810 -0.12400
H 	H 	0.71040 0.89540 0.37330 0.05700
C 	C 	0.67560 0.78900 0.34920 0.05700
H 	H 	0.66100 0.82010 0.32470 -0.01300
N 	N 	0.87900 0.68260 0.60740 -0.27200
C 	C 	0.85070 0.64250 0.58040 0.06900
H 	H 	0.84660 0.58030 0.58420 -0.03600
C 	C 	0.82580 0.68810 0.54570 -0.13700
H 	H 	0.80460 0.65780 0.52730 0.04700
C 	C 	0.83280 0.77540 0.53940 0.07100
C 	C 	0.86290 0.81850 0.56750 -0.12100
H 	H 	0.86630 0.88160 0.56600 0.11000
C 	C 	0.88810 0.76710 0.59810 0.07100
H 	H 	0.91240 0.79210 0.61280 -0.00700
N 	N 	0.81430 0.23970 0.47210 -0.31700
C 	C 	0.83830 0.18410 0.49580 0.04500
H 	H 	0.86080 0.20770 0.51520 -0.01100
C 	C 	0.83320 0.09410 0.49440 -0.08400
H 	H 	0.85210 0.05710 0.51250 0.04200
C 	C 	0.80180 0.05560 0.46780 -0.06500
C 	C 	0.77480 0.11470 0.44190 -0.09100
H 	H 	0.75150 0.09340 0.42320 0.01800
C 	C 	0.78440 0.20930 0.44540 0.02100
H 	H 	0.76780 0.25030 0.42690 -0.02500
C 	C 	0.75780 0.83540 0.44520 0.04900
N 	N 	0.77830 0.78370 0.47780 -0.15200
C 	C 	0.80830 0.82730 0.50340 0.08800
N 	N 	0.81780 0.91350 0.50000 -0.12800
C 	C 	0.79340 0.95720 0.46780 0.14600
N 	N 	0.76410 0.92350 0.43870 -0.16700
N 	N 	0.92980 0.71940 0.70060 -0.27200
C 	C 	0.90270 0.73980 0.72370 0.06200
H 	H 	0.88020 0.70240 0.72100 -0.03100
C 	C 	0.90640 0.81470 0.75160 -0.12300
H 	H 	0.88670 0.82870 0.76720 0.06400
C 	C 	0.94000 0.86750 0.75530 0.06500
C 	C 	0.96910 0.84390 0.73160 -0.13200
H 	H 	0.99240 0.87880 0.73470 0.19300
C 	C 	0.96380 0.77150 0.70450 0.07300
H 	H 	0.98300 0.75670 0.68840 -0.01000
N 	N 	0.85910 0.06710 0.93010 -0.32500
C 	C 	0.89490 0.09940 0.93670 0.11400
H 	H 	0.90440 0.13380 0.96210 -0.03500
C 	C 	0.91930 0.08520 0.90810 -0.21300
H 	H 	0.94540 0.10740 0.91480 0.11400
C 	C 	0.90610 0.04010 0.87090 0.16000
C 	C 	0.86830 0.01070 0.86260 -0.33400
H 	H 	0.85750 0.98020 0.83620 0.18300
C 	C 	0.84520 0.02600 0.89340 0.15100
H 	H 	0.81870 0.00580 0.88740 -0.09000
N 	N 	0.07690 0.24320 0.80740 -0.25900
C 	C 	0.06170 0.19380 0.77480 0.28000
H 	H 	0.07260 0.19810 0.74970 -0.06700
C 	C 	0.03130 0.13540 0.77340 0.01800
H 	H 	0.02290 0.09710 0.74910 0.18600
C 	C 	0.01350 0.13340 0.80700 0.24300
C 	C 	0.02960 0.18400 0.84280 -0.03400
H 	H 	0.02010 0.17990 0.86880 0.12200
C 	C 	0.06000 0.24220 0.83990 0.21900
H 	H 	0.06890 0.28320 0.86300 -0.02200
C 	C 	0.94560 0.94970 0.78330 0.17500
N 	N 	0.92290 0.95720 0.81060 -0.11900
C 	C 	0.93100 0.02640 0.83840 0.01000
N 	N 	0.96020 0.08470 0.83920 -0.12500
C 	C 	0.98010 0.07190 0.80830 0.17900
N 	N 	0.97380 0.00600 0.77910 -0.10300
N 	N 	0.66740 0.75830 0.85710 -0.27400
C 	C 	0.68800 0.80080 0.89200 0.05300
H 	H 	0.68200 0.86180 0.89650 -0.00200
C 	C 	0.71750 0.75920 0.92190 -0.10700
H 	H 	0.73170 0.79130 0.94630 0.08400
C 	C 	0.72630 0.66950 0.91570 -0.00700
C 	C 	0.70420 0.62640 0.88040 -0.09900
H 	H 	0.70800 0.56450 0.87560 -0.21100
C 	C 	0.67600 0.67600 0.85190 0.12300
H 	H 	0.66200 0.64650 0.82650 -0.22000
N 	N 	0.81430 0.22120 0.97140 -0.27900
C 	C 	0.78410 0.25880 0.94440 0.03300
H 	H 	0.76540 0.22100 0.92650 -0.06700
C 	C 	0.77870 0.34860 0.94140 -0.09000
H 	H 	0.75800 0.37190 0.91950 -0.05600
C 	C 	0.80170 0.40560 0.96800 0.00400
C 	C 	0.83360 0.36840 0.99750 -0.08600
H 	H 	0.85130 0.40620 0.01670 0.07600
N 	N 	0.87920 0.78040 0.10830 -0.27700
C 	C 	0.83920 0.27750 0.99870 0.02600
H 	H 	0.86080 0.25290 0.01900 0.01200
C 	C 	0.84730 0.81860 0.08360 0.03300
H 	H 	0.84020 0.87720 0.09080 -0.01800
C 	C 	0.82490 0.77690 0.04890 -0.13800
H 	H 	0.80360 0.80780 0.03090 0.07400
C 	C 	0.83330 0.68760 0.03960 0.04500
C 	C 	0.86470 0.64880 0.06750 -0.12100
H 	H 	0.87240 0.58910 0.06270 0.09800
C 	C 	0.75890 0.62460 0.94630 0.08300
C 	C 	0.88490 0.69630 0.10220 0.03500
H 	H 	0.90420 0.66580 0.12300 -0.01100
N 	N 	0.76530 0.53910 0.94100 -0.18700
C 	C 	0.79540 0.50320 0.96970 0.09700
N 	N 	0.81920 0.55090 0.99960 -0.14000
C 	C 	0.80940 0.63490 0.00310 0.09800
N 	N 	0.77900 0.67610 0.97760 -0.14700
Zn	Zn	0.81270 0.37620 0.46360 0.70900
I 	I 	0.74970 0.45210 0.43320 -1.60400
I 	I 	0.85570 0.41870 0.54120 0.53100
I 	I 	0.14950 0.16320 0.23450 -0.38500
I 	I 	0.11470 0.99560 0.33890 0.00400
Zn	Zn	0.91490 0.61550 0.65900 0.54800
I 	I 	0.87510 0.50230 0.69280 -0.31000
I 	I 	0.97360 0.58330 0.62910 0.02200
Zn	Zn	0.82200 0.08280 0.97200 0.62000
I 	I 	0.86230 0.04940 0.04770 0.40400
I 	I 	0.75650 0.00550 0.94240 0.06800
I 	I 	0.62009 0.97242 0.83463 0.54200
I 	I 	0.64630 0.80200 0.73790 -0.25700
Zn	Zn	0.90800 0.85230 0.16270 1.28400
I 	I 	0.86730 0.95900 0.19668 18.19500
I 	I 	0.96770 0.89020 0.13250 -1.24500
Zn	Zn	0.32840 0.87650 0.47795 0.71200
I 	I 	0.26641 0.96690 0.45412 1.10900
I 	I 	0.37404 0.89640 0.55206 -0.99300
I 	I 	0.64240 0.64430 0.24190 -0.07000
I 	I 	0.60630 0.48980 0.34840 -0.32500
Zn	Zn	0.42080 0.11700 0.65390 0.59400
I 	I 	0.38680 0.99210 0.68350 -0.54700
I 	I 	0.48230 0.09920 0.62128 -0.38100
Zn	Zn	0.33050 0.58780 0.98150 0.58900
I 	I 	0.37750 0.56750 0.05359 -0.48600
I 	I 	0.26960 0.49290 0.95698 0.01400
I 	I 	0.14870 0.31420 0.74050 -0.26400
I 	I 	0.10714 0.47370 0.85186 -0.91300
Zn	Zn	0.42318 0.34700 0.15302 1.02400
I 	I 	0.38961 0.46853 0.18699 -19.10200
I 	I 	0.48321 0.36460 0.12038 1.34300
Zn	Zn	0.62521 0.63859 0.30994 1.15600
Zn	Zn	0.12631 0.32400 0.81052 1.14900
N 	N 	0.35820 0.89150 0.42880 -0.33000
C 	C 	0.39130 0.85300 0.43280 0.08600
H 	H 	0.39900 0.81230 0.45640 -0.03400
C 	C 	0.41780 0.86600 0.40430 -0.12500
H 	H 	0.44310 0.83930 0.40990 0.08100
C 	C 	0.40490 0.91930 0.36870 0.03800
C 	C 	0.36760 0.96070 0.36250 -0.10400
H 	H 	0.35780 0.99820 0.33830 0.06200
C 	C 	0.34680 0.94370 0.39320 0.04200
H 	H 	0.32170 0.97120 0.38950 -0.03000
N 	N 	0.57760 0.72010 0.30740 -0.27900
C 	C 	0.56010 0.72600 0.34040 0.09400
H 	H 	0.56990 0.68910 0.36480 -0.01800
C 	C 	0.52940 0.78000 0.34260 -0.12400
H 	H 	0.51940 0.78300 0.36830 0.09000
C 	C 	0.51290 0.83100 0.30690 0.04900
C 	C 	0.53190 0.82900 0.27240 -0.11100
H 	H 	0.52260 0.86630 0.24790 0.07400
C 	C 	0.56450 0.77330 0.27270 0.05700
H 	H 	0.57710 0.77320 0.24890 -0.01100
N 	N 	0.43090 0.24420 0.20080 -0.32100
C 	C 	0.46090 0.19310 0.20560 0.17000
H 	H 	0.48040 0.20830 0.18990 -0.04100
C 	C 	0.46770 0.11740 0.23170 -0.24000
H 	H 	0.49070 0.08200 0.23320 0.08900
C 	C 	0.44100 0.09580 0.25450 0.15700
C 	C 	0.40880 0.15050 0.25150 -0.34400
H 	H 	0.38950 0.13980 0.26810 0.05600
C 	C 	0.43020 0.93430 0.33800 0.15500
C 	C 	0.40600 0.22310 0.22280 0.29400
H 	H 	0.38330 0.25970 0.21950 -0.46500
N 	N 	0.45890 0.87600 0.33770 -0.14500
C 	C 	0.47970 0.89240 0.30780 0.10100
N 	N 	0.47400 0.95840 0.27880 -0.10200
C 	C 	0.44570 0.01570 0.28350 -0.01800
N 	N 	0.42240 0.00610 0.31180 -0.17900
N 	N 	0.16760 0.20390 0.35490 -0.27600
C 	C 	0.18800 0.16070 0.39140 0.03100
H 	H 	0.18120 0.10060 0.39670 0.00800
C 	C 	0.21740 0.20160 0.41990 -0.10700
H 	H 	0.23210 0.16930 0.44390 0.05700
C 	C 	0.22580 0.28950 0.41390 0.01300
C 	C 	0.20490 0.33440 0.37810 -0.12500
H 	H 	0.21040 0.39540 0.37330 0.04500
C 	C 	0.17560 0.28900 0.34920 0.04900
H 	H 	0.16100 0.32010 0.32470 -0.01800
N 	N 	0.37900 0.18260 0.60740 -0.27500
C 	C 	0.35070 0.14250 0.58040 0.06200
H 	H 	0.34660 0.08030 0.58420 -0.05200
C 	C 	0.32580 0.18810 0.54570 -0.13900
H 	H 	0.30460 0.15780 0.52730 0.03600
C 	C 	0.33280 0.27540 0.53940 0.06300
C 	C 	0.36290 0.31850 0.56750 -0.12100
H 	H 	0.36630 0.38160 0.56600 0.09800
C 	C 	0.38810 0.26710 0.59810 0.06300
H 	H 	0.41240 0.29210 0.61280 -0.01000
N 	N 	0.31430 0.73970 0.47210 -0.32900
C 	C 	0.33830 0.68410 0.49580 0.08200
H 	H 	0.36080 0.70770 0.51520 -0.01800
C 	C 	0.33320 0.59410 0.49440 -0.14000
H 	H 	0.35210 0.55710 0.51250 0.08300
C 	C 	0.30180 0.55560 0.46780 0.03900
C 	C 	0.27480 0.61470 0.44190 -0.13400
H 	H 	0.25150 0.59340 0.42320 0.05100
C 	C 	0.28440 0.70930 0.44540 0.04900
H 	H 	0.26780 0.75030 0.42690 -0.03100
C 	C 	0.25780 0.33540 0.44520 0.04400
N 	N 	0.27830 0.28370 0.47780 -0.15400
C 	C 	0.30830 0.32730 0.50340 0.08300
N 	N 	0.31780 0.41350 0.50000 -0.13000
C 	C 	0.29340 0.45720 0.46780 0.06700
N 	N 	0.26410 0.42350 0.43870 -0.16700
N 	N 	0.42980 0.21940 0.70060 -0.27700
C 	C 	0.40270 0.23980 0.72370 0.06500
H 	H 	0.38020 0.20240 0.72100 -0.05000
C 	C 	0.40640 0.31470 0.75160 -0.13800
H 	H 	0.38670 0.32870 0.76720 0.06000
C 	C 	0.44000 0.36750 0.75530 0.07800
C 	C 	0.46910 0.34390 0.73160 -0.14400
H 	H 	0.49240 0.37880 0.73470 0.18600
C 	C 	0.46380 0.27150 0.70450 0.07600
H 	H 	0.48300 0.25670 0.68840 -0.01500
N 	N 	0.35910 0.56710 0.93010 -0.29800
C 	C 	0.39490 0.59940 0.93670 0.07900
H 	H 	0.40440 0.63380 0.96210 -0.01800
C 	C 	0.41930 0.58520 0.90810 -0.14200
H 	H 	0.44540 0.60740 0.91480 0.09800
C 	C 	0.40610 0.54010 0.87090 0.06400
C 	C 	0.36830 0.51070 0.86260 -0.13600
H 	H 	0.35750 0.48020 0.83620 0.06700
C 	C 	0.34520 0.52600 0.89340 0.06500
H 	H 	0.31870 0.50580 0.88740 -0.03900
N 	N 	0.57690 0.74320 0.80740 -0.25700
C 	C 	0.56170 0.69380 0.77480 0.29000
H 	H 	0.57260 0.69810 0.74970 -0.06300
C 	C 	0.53130 0.63540 0.77340 0.01900
H 	H 	0.52290 0.59710 0.74910 0.20100
C 	C 	0.51350 0.63340 0.80700 0.25300
C 	C 	0.52960 0.68400 0.84280 -0.03100
H 	H 	0.52010 0.67990 0.86880 0.13000
C 	C 	0.56000 0.74220 0.83990 0.22500
H 	H 	0.56890 0.78320 0.86300 -0.01800
C 	C 	0.44560 0.44970 0.78330 0.11300
N 	N 	0.42290 0.45720 0.81060 -0.15600
C 	C 	0.43100 0.52640 0.83840 0.10000
N 	N 	0.46020 0.58470 0.83920 -0.13200
C 	C 	0.48010 0.57190 0.80830 0.19300
N 	N 	0.47380 0.50600 0.77910 -0.05500
N 	N 	0.16740 0.25830 0.85710 -0.27400
C 	C 	0.18800 0.30080 0.89200 0.04500
H 	H 	0.18200 0.36180 0.89650 -0.00100
C 	C 	0.21750 0.25920 0.92190 -0.10200
H 	H 	0.23170 0.29130 0.94630 0.07400
C 	C 	0.22630 0.16950 0.91570 -0.01600
C 	C 	0.20420 0.12640 0.88040 -0.09800
H 	H 	0.20800 0.06450 0.87560 -0.22800
C 	C 	0.17600 0.17600 0.85190 0.11600
H 	H 	0.16200 0.14650 0.82650 -0.23100
N 	N 	0.31430 0.72120 0.97140 -0.28800
C 	C 	0.28410 0.75880 0.94440 0.06800
H 	H 	0.26540 0.72100 0.92650 -0.06400
C 	C 	0.27870 0.84860 0.94140 -0.15000
H 	H 	0.25800 0.87190 0.91950 -0.01700
C 	C 	0.30170 0.90560 0.96800 0.11400
C 	C 	0.33360 0.86840 0.99750 -0.13900
H 	H 	0.35130 0.90620 0.01670 0.11000
N 	N 	0.37920 0.28040 0.10830 -0.27800
C 	C 	0.33920 0.77750 0.99870 0.05800
H 	H 	0.36080 0.75290 0.01900 0.00400
C 	C 	0.34730 0.31860 0.08360 0.02100
H 	H 	0.34020 0.37720 0.09080 -0.03300
C 	C 	0.32490 0.27690 0.04890 -0.13800
H 	H 	0.30360 0.30780 0.03090 0.05600
C 	C 	0.33330 0.18760 0.03960 0.02900
C 	C 	0.36470 0.14880 0.06750 -0.12300
H 	H 	0.37240 0.08910 0.06270 0.07600
C 	C 	0.25890 0.12460 0.94630 0.07800
C 	C 	0.38490 0.19630 0.10220 0.02300
H 	H 	0.40420 0.16580 0.12300 -0.02000
N 	N 	0.26530 0.03910 0.94100 -0.18600
C 	C 	0.29540 0.00320 0.96970 0.01000
N 	N 	0.31920 0.05090 0.99960 -0.14400
C 	C 	0.30940 0.13490 0.00310 0.08700
N 	N 	0.27900 0.17610 0.97760 -0.15000
Zn	Zn	0.31270 0.87620 0.46360 0.70900
I 	I 	0.24970 0.95210 0.43320 -1.56100
I 	I 	0.35570 0.91870 0.54120 0.55300
I 	I 	0.64950 0.66320 0.23450 -0.35800
I 	I 	0.61470 0.49560 0.33890 -0.02200
Zn	Zn	0.41490 0.11550 0.65900 0.55300
I 	I 	0.37510 0.00230 0.69280 0.13900
I 	I 	0.47360 0.08330 0.62910 -0.00400
Zn	Zn	0.32200 0.58280 0.97200 0.61600
I 	I 	0.36230 0.54940 0.04770 0.42600
I 	I 	0.25650 0.50550 0.94240 -0.44300
I 	I 	0.12009 0.47242 0.83463 0.49400
I 	I 	0.14630 0.30200 0.73790 -0.26900
Zn	Zn	0.40800 0.35230 0.16270 1.28600
I 	I 	0.36730 0.45900 0.19668 18.28100
I 	I 	0.46770 0.39020 0.13250 -1.30200
