data_crystal

_cell_length_a 34.43910
_cell_length_b 15.09590
_cell_length_c 29.95560
_cell_angle_alpha 90.00000
_cell_angle_beta  101.45400
_cell_angle_gamma 90.00000

_symmetry_space_group_name_	'P 1'
_symmetry_space_group_name_H-M	'P 1'

loop_
_symmetry_equiv_pos_as_xyz
  x,y,z

loop_
_atom_site_label
_atom_site_type_symbol
_atom_site_fract_x
_atom_site_fract_y
_atom_site_fract_z
_atom_site_charge
Zn	Zn	0.57772 0.26620 0.84554 1.16600
Zn	Zn	0.36566 0.97270 0.70934 1.15600
Zn	Zn	0.08164 0.00737 0.34312 1.15900
Zn	Zn	0.86840 0.29290 0.20486 1.15500
Zn	Zn	0.17805 0.52810 0.02680 1.05600
Zn	Zn	0.16970 0.24520 0.51820 0.61400
I 	I 	0.61283 0.15120 0.80330 -0.20700
I 	I 	0.52420 0.23770 0.88990 -0.16600
I 	I 	0.34110 0.91370 0.78700 -0.79800
I 	I 	0.36810 0.12750 0.69430 -0.59900
I 	I 	0.22940 0.15140 0.54750 0.22300
I 	I 	0.12680 0.23480 0.43943 -0.51800
I 	I 	0.02972 0.03830 0.39060 -0.13700
I 	I 	0.11980 0.11760 0.30260 -0.23500
I 	I 	0.83880 0.33900 0.28500 -0.42700
I 	I 	0.88740 0.15170 0.16680 -0.15700
I 	I 	0.14750 0.57050 0.95450 1.38400
I 	I 	0.25000 0.60390 0.07030 -2.44900
N 	N 	0.56110 0.36470 0.79830 -0.26900
C 	C 	0.52940 0.41980 0.80030 0.04700
H 	H 	0.51180 0.40650 0.82020 -0.00100
C 	C 	0.52330 0.49580 0.77260 -0.10700
H 	H 	0.50170 0.53430 0.77400 0.06700
C 	C 	0.54850 0.51480 0.74340 0.05500
C 	C 	0.57840 0.45960 0.74170 -0.12400
H 	H 	0.59530 0.47040 0.72070 0.08400
C 	C 	0.58490 0.38910 0.76920 0.07500
H 	H 	0.60760 0.35390 0.76840 -0.00900
N 	N 	0.41720 0.89990 0.70740 -0.26700
C 	C 	0.43460 0.89800 0.66690 0.07500
H 	H 	0.42440 0.93370 0.64130 -0.01500
C 	C 	0.46240 0.84920 0.66680 -0.13500
H 	H 	0.47380 0.85260 0.64050 0.08600
C 	C 	0.47960 0.79050 0.69890 0.05900
C 	C 	0.43150 0.84310 0.74070 0.07100
H 	H 	0.41950 0.83910 0.76670 -0.00100
C 	C 	0.46300 0.79080 0.73790 -0.11900
H 	H 	0.47400 0.75380 0.76290 0.08000
N 	N 	0.63550 0.72790 0.56620 -0.28800
C 	C 	0.64100 0.65900 0.59410 0.05000
H 	H 	0.65870 0.61440 0.58820 -0.01900
C 	C 	0.62120 0.64600 0.63530 -0.09100
H 	H 	0.63020 0.60780 0.66060 0.07100
C 	C 	0.58580 0.70190 0.62810 0.04700
C 	C 	0.57750 0.76210 0.59460 -0.11800
H 	H 	0.55310 0.79350 0.59020 0.08100
C 	C 	0.60350 0.77870 0.56670 0.07800
H 	H 	0.59880 0.82830 0.54680 -0.01500
C 	C 	0.54380 0.59810 0.71500 0.08200
N 	N 	0.51510 0.65710 0.72350 -0.14700
C 	C 	0.51180 0.72650 0.69580 0.08000
N 	N 	0.53280 0.74380 0.66300 -0.14000
C 	C 	0.55890 0.68290 0.65930 0.10000
N 	N 	0.56630 0.60990 0.68570 -0.14100
N 	N 	0.32640 0.91200 0.65800 -0.27000
C 	C 	0.31990 0.82300 0.66280 0.04800
H 	H 	0.33310 0.79220 0.68920 0.01400
C 	C 	0.29380 0.77810 0.62840 -0.09500
H 	H 	0.29210 0.71530 0.62930 0.07700
C 	C 	0.27030 0.82440 0.59280 0.04100
C 	C 	0.27650 0.91390 0.59170 -0.12400
H 	H 	0.26190 0.94810 0.56740 0.08900
C 	C 	0.30280 0.95390 0.62420 0.08000
H 	H 	0.30490 0.01660 0.62300 0.00200
N 	N 	0.18560 0.37990 0.52670 -0.27700
C 	C 	0.16550 0.43350 0.49800 0.08700
H 	H 	0.14460 0.40930 0.47590 -0.02000
C 	C 	0.17190 0.52260 0.49660 -0.12600
H 	H 	0.15700 0.55720 0.47270 0.08300
C 	C 	0.19950 0.56210 0.52960 0.05000
C 	C 	0.22220 0.50640 0.56290 -0.09700
H 	H 	0.24370 0.52950 0.58450 0.07200
C 	C 	0.21170 0.41250 0.56340 0.04000
H 	H 	0.22270 0.37550 0.58840 0.00300
N 	N 	0.12350 0.93710 0.38860 -0.28800
C 	C 	0.12280 0.84910 0.38750 0.06300
H 	H 	0.10480 0.82070 0.36360 -0.00600
C 	C 	0.14780 0.79520 0.42080 -0.10500
H 	H 	0.14950 0.73290 0.41690 0.08400
C 	C 	0.17040 0.83870 0.46000 0.05100
C 	C 	0.17520 0.92950 0.45430 -0.14100
H 	H 	0.19490 0.96230 0.47440 0.07400
C 	C 	0.14970 0.97070 0.41750 0.11500
H 	H 	0.15320 0.03270 0.41470 -0.04300
C 	C 	0.24060 0.77810 0.55860 0.08500
N 	N 	0.23590 0.69240 0.56330 -0.14600
C 	C 	0.20690 0.65870 0.53060 0.09900
N 	N 	0.18440 0.70180 0.49690 -0.13500
C 	C 	0.19350 0.78770 0.49460 0.09800
N 	N 	0.22150 0.82940 0.52440 -0.14400
N 	N 	0.06210 0.90410 0.29720 -0.28500
C 	C 	0.03570 0.84850 0.30070 0.11900
H 	H 	0.02040 0.86070 0.32310 -0.02800
C 	C 	0.02640 0.77310 0.27610 -0.15300
H 	H 	0.00520 0.73560 0.28040 0.08100
C 	C 	0.04970 0.75390 0.24410 0.06000
C 	C 	0.07780 0.81650 0.23720 -0.11400
H 	H 	0.09310 0.80860 0.21430 0.08600
C 	C 	0.08270 0.89200 0.26560 0.07200
H 	H 	0.10170 0.93550 0.26150 -0.01600
N 	N 	0.91870 0.36830 0.20550 -0.30100
C 	C 	0.93360 0.36750 0.17300 0.14000
H 	H 	0.92320 0.32590 0.14990 -0.03100
C 	C 	0.96700 0.42500 0.16420 -0.13200
H 	H 	0.97800 0.42330 0.13760 0.10800
C 	C 	0.97930 0.48310 0.20210 0.08100
C 	C 	0.96400 0.48120 0.23750 -0.15200
H 	H 	0.97370 0.51920 0.26250 0.08800
C 	C 	0.93300 0.42270 0.23910 0.10100
H 	H 	0.92180 0.42200 0.26560 -0.02100
N 	N 	0.14120 0.54200 0.07320 -0.29500
C 	C 	0.10730 0.50450 0.06670 0.10200
H 	H 	0.09950 0.46930 0.04010 -0.00900
C 	C 	0.08100 0.51240 0.09640 -0.13100
H 	H 	0.05840 0.47530 0.09370 0.09600
C 	C 	0.08910 0.57570 0.12950 0.07500
C 	C 	0.12480 0.61480 0.13480 -0.12800
H 	H 	0.13100 0.65820 0.15820 0.08100
C 	C 	0.15130 0.59870 0.11120 0.05100
H 	H 	0.17690 0.62430 0.11900 0.00100
C 	C 	0.04440 0.67010 0.21830 0.09500
N 	N 	0.01720 0.61480 0.22370 -0.15300
C 	C 	0.01230 0.54600 0.19560 0.09300
N 	N 	0.03330 0.52700 0.16570 -0.13300
C 	C 	0.06380 0.58780 0.16490 0.07900
N 	N 	0.06900 0.66160 0.18900 -0.13500
N 	N 	0.19050 0.39420 0.03080 -0.30700
C 	C 	0.21790 0.35700 0.05610 0.14400
H 	H 	0.23830 0.39340 0.07240 -0.00400
C 	C 	0.22190 0.27010 0.06290 -0.18700
H 	H 	0.24040 0.24930 0.08860 0.09700
C 	C 	0.20100 0.21160 0.03520 0.07400
C 	C 	0.17260 0.25030 0.99960 -0.12300
H 	H 	0.15640 0.21530 0.97690 0.10000
C 	C 	0.16990 0.34270 0.99980 0.06400
H 	H 	0.15180 0.37000 0.97560 0.00900
N 	N 	0.12000 0.83770 0.88920 -0.27400
C 	C 	0.11330 0.92310 0.90150 0.10600
H 	H 	0.09030 0.95180 0.88520 -0.01300
C 	C 	0.13570 0.96780 0.93340 -0.15400
H 	H 	0.12960 0.02800 0.93810 0.11500
C 	C 	0.16630 0.93180 0.95930 0.10500
C 	C 	0.17210 0.84330 0.95420 -0.14000
H 	H 	0.19220 0.81360 0.97530 0.03000
C 	C 	0.14950 0.79630 0.91930 0.06700
H 	H 	0.15440 0.73500 0.91590 -0.05600
N 	N 	0.32800 0.85950 0.15640 -0.27000
C 	C 	0.30700 0.81570 0.12070 0.04400
H 	H 	0.31210 0.75440 0.11730 0.05300
C 	C 	0.27760 0.85720 0.08800 -0.08400
H 	H 	0.26310 0.82580 0.06250 0.06200
C 	C 	0.27080 0.94610 0.09470 0.02700
C 	C 	0.29240 0.99070 0.13180 -0.12400
H 	H 	0.28730 0.05080 0.13810 0.08000
C 	C 	0.32210 0.94190 0.15940 0.10600
H 	H 	0.33960 0.97320 0.18260 -0.00800
C 	C 	0.20630 0.11520 0.03320 0.07200
N 	N 	0.18180 0.06840 0.00370 -0.12100
C 	C 	0.19070 0.98290 0.99990 0.09900
N 	N 	0.22050 0.94150 0.02630 -0.15400
C 	C 	0.24060 0.99100 0.05980 0.06000
N 	N 	0.23530 0.07930 0.06500 -0.16000
Zn	Zn	0.17830 0.24120 0.52860 0.60700
I 	I 	0.61530 0.15240 0.81430 -0.10800
I 	I 	0.51850 0.24420 0.88070 -0.14000
I 	I 	0.34690 0.95650 0.77770 0.47500
I 	I 	0.38260 0.12330 0.66570 0.19400
I 	I 	0.24240 0.15750 0.56700 -0.60000
I 	I 	0.13950 0.20350 0.44850 0.10700
I 	I 	0.02230 0.02380 0.38370 -0.18000
I 	I 	0.10960 0.12520 0.30410 -0.10300
I 	I 	0.84990 0.31560 0.27830 0.11300
I 	I 	0.87730 0.14030 0.17400 -0.14200
I 	I 	0.12750 0.54420 0.94170 -1.82800
I 	I 	0.23190 0.61500 0.04770 2.04700
Zn	Zn	0.07772 0.76620 0.84554 1.16500
Zn	Zn	0.86566 0.47270 0.70934 1.15500
Zn	Zn	0.58164 0.50737 0.34312 1.15900
Zn	Zn	0.36840 0.79290 0.20486 1.15500
Zn	Zn	0.67805 0.02810 0.02680 1.05600
Zn	Zn	0.66970 0.74520 0.51820 0.61400
I 	I 	0.11283 0.65120 0.80330 -0.20600
I 	I 	0.02420 0.73770 0.88990 -0.16600
I 	I 	0.84110 0.41370 0.78700 -0.79800
I 	I 	0.86810 0.62750 0.69430 -0.59900
I 	I 	0.72940 0.65140 0.54750 0.22300
I 	I 	0.62680 0.73480 0.43943 -0.51800
I 	I 	0.52972 0.53830 0.39060 -0.13600
I 	I 	0.61980 0.61760 0.30260 -0.23500
I 	I 	0.33880 0.83900 0.28500 -0.42700
I 	I 	0.38740 0.65170 0.16680 -0.15600
I 	I 	0.64750 0.07050 0.95450 1.38300
I 	I 	0.75000 0.10390 0.07030 -2.44700
N 	N 	0.06110 0.86470 0.79830 -0.26800
C 	C 	0.02940 0.91980 0.80030 0.04400
H 	H 	0.01180 0.90650 0.82020 0.00000
C 	C 	0.02330 0.99580 0.77260 -0.10000
H 	H 	0.00170 0.03430 0.77400 0.06300
C 	C 	0.04850 0.01480 0.74340 0.04800
C 	C 	0.07840 0.95960 0.74170 -0.11800
H 	H 	0.09530 0.97040 0.72070 0.08300
C 	C 	0.08490 0.88910 0.76920 0.07200
H 	H 	0.10760 0.85390 0.76840 -0.00800
N 	N 	0.91720 0.39990 0.70740 -0.26700
C 	C 	0.93460 0.39800 0.66690 0.07500
H 	H 	0.92440 0.43370 0.64130 -0.01600
C 	C 	0.96240 0.34920 0.66680 -0.13500
H 	H 	0.97380 0.35260 0.64050 0.08600
C 	C 	0.97960 0.29050 0.69890 0.05900
C 	C 	0.93150 0.34310 0.74070 0.07100
H 	H 	0.91950 0.33910 0.76670 -0.00100
C 	C 	0.96300 0.29080 0.73790 -0.11900
H 	H 	0.97400 0.25380 0.76290 0.08000
N 	N 	0.13550 0.22790 0.56620 -0.28800
C 	C 	0.14100 0.15900 0.59410 0.05000
H 	H 	0.15870 0.11440 0.58820 -0.01900
C 	C 	0.12120 0.14600 0.63530 -0.09100
H 	H 	0.13020 0.10780 0.66060 0.07100
C 	C 	0.08580 0.20190 0.62810 0.04700
C 	C 	0.07750 0.26210 0.59460 -0.11800
H 	H 	0.05310 0.29350 0.59020 0.08100
C 	C 	0.10350 0.27870 0.56670 0.07800
H 	H 	0.09880 0.32830 0.54680 -0.01500
C 	C 	0.04380 0.09810 0.71500 0.08400
N 	N 	0.01510 0.15710 0.72350 -0.14700
C 	C 	0.01180 0.22650 0.69580 0.08000
N 	N 	0.03280 0.24380 0.66300 -0.14000
C 	C 	0.05890 0.18290 0.65930 0.10000
N 	N 	0.06630 0.10990 0.68570 -0.14200
N 	N 	0.82640 0.41200 0.65800 -0.27000
C 	C 	0.81990 0.32300 0.66280 0.04700
H 	H 	0.83310 0.29220 0.68920 0.01400
C 	C 	0.79380 0.27810 0.62840 -0.09500
H 	H 	0.79210 0.21530 0.62930 0.07700
C 	C 	0.77030 0.32440 0.59280 0.04000
C 	C 	0.77650 0.41390 0.59170 -0.12300
H 	H 	0.76190 0.44810 0.56740 0.08800
C 	C 	0.80280 0.45390 0.62420 0.07800
H 	H 	0.80490 0.51660 0.62300 0.00300
N 	N 	0.68560 0.87990 0.52670 -0.27800
C 	C 	0.66550 0.93350 0.49800 0.08800
H 	H 	0.64460 0.90930 0.47590 -0.02000
C 	C 	0.67190 0.02260 0.49660 -0.12800
H 	H 	0.65700 0.05720 0.47270 0.08300
C 	C 	0.69950 0.06210 0.52960 0.05100
C 	C 	0.72220 0.00640 0.56290 -0.09900
H 	H 	0.74370 0.02950 0.58450 0.07200
C 	C 	0.71170 0.91250 0.56340 0.04100
H 	H 	0.72270 0.87550 0.58840 0.00300
N 	N 	0.62350 0.43710 0.38860 -0.28800
C 	C 	0.62280 0.34910 0.38750 0.06200
H 	H 	0.60480 0.32070 0.36360 -0.00600
C 	C 	0.64780 0.29520 0.42080 -0.10500
H 	H 	0.64950 0.23290 0.41690 0.08400
C 	C 	0.67040 0.33870 0.46000 0.05000
C 	C 	0.67520 0.42950 0.45430 -0.14000
H 	H 	0.69490 0.46230 0.47440 0.07300
C 	C 	0.64970 0.47070 0.41750 0.11200
H 	H 	0.65320 0.53270 0.41470 -0.04100
C 	C 	0.74060 0.27810 0.55860 0.08500
N 	N 	0.73590 0.19240 0.56330 -0.14600
C 	C 	0.70690 0.15870 0.53060 0.09800
N 	N 	0.68440 0.20180 0.49690 -0.13500
C 	C 	0.69350 0.28770 0.49460 0.09800
N 	N 	0.72150 0.32940 0.52440 -0.14500
N 	N 	0.56210 0.40410 0.29720 -0.28500
C 	C 	0.53570 0.34850 0.30070 0.11900
H 	H 	0.52040 0.36070 0.32310 -0.02900
C 	C 	0.52640 0.27310 0.27610 -0.15300
H 	H 	0.50520 0.23560 0.28040 0.08100
C 	C 	0.54970 0.25390 0.24410 0.06000
C 	C 	0.57780 0.31650 0.23720 -0.11400
H 	H 	0.59310 0.30860 0.21430 0.08600
C 	C 	0.58270 0.39200 0.26560 0.07200
H 	H 	0.60170 0.43550 0.26150 -0.01700
N 	N 	0.41870 0.86830 0.20550 -0.30100
C 	C 	0.43360 0.86750 0.17300 0.14000
H 	H 	0.42320 0.82590 0.14990 -0.03100
C 	C 	0.46700 0.92500 0.16420 -0.13200
H 	H 	0.47800 0.92330 0.13760 0.10800
C 	C 	0.47930 0.98310 0.20210 0.08100
C 	C 	0.46400 0.98120 0.23750 -0.15100
H 	H 	0.47370 0.01920 0.26250 0.08800
C 	C 	0.43300 0.92270 0.23910 0.10000
H 	H 	0.42180 0.92200 0.26560 -0.02100
N 	N 	0.64120 0.04200 0.07320 -0.29500
C 	C 	0.60730 0.00450 0.06670 0.10200
H 	H 	0.59950 0.96930 0.04010 -0.00900
C 	C 	0.58100 0.01240 0.09640 -0.13200
H 	H 	0.55840 0.97530 0.09370 0.09700
C 	C 	0.58910 0.07570 0.12950 0.07500
C 	C 	0.62480 0.11480 0.13480 -0.12800
H 	H 	0.63100 0.15820 0.15820 0.08100
C 	C 	0.65130 0.09870 0.11120 0.05100
H 	H 	0.67690 0.12430 0.11900 0.00100
C 	C 	0.54440 0.17010 0.21830 0.09500
N 	N 	0.51720 0.11480 0.22370 -0.15300
C 	C 	0.51230 0.04600 0.19560 0.09200
N 	N 	0.53330 0.02700 0.16570 -0.13300
C 	C 	0.56380 0.08780 0.16490 0.07900
N 	N 	0.56900 0.16160 0.18900 -0.13500
N 	N 	0.69050 0.89420 0.03080 -0.30700
C 	C 	0.71790 0.85700 0.05610 0.14400
H 	H 	0.73830 0.89340 0.07240 -0.00400
C 	C 	0.72190 0.77010 0.06290 -0.18700
H 	H 	0.74040 0.74930 0.08860 0.09700
C 	C 	0.70100 0.71160 0.03520 0.07400
C 	C 	0.67260 0.75030 0.99960 -0.12300
H 	H 	0.65640 0.71530 0.97690 0.10000
C 	C 	0.66990 0.84270 0.99980 0.06400
H 	H 	0.65180 0.87000 0.97560 0.00900
N 	N 	0.62000 0.33770 0.88920 -0.27400
C 	C 	0.61330 0.42310 0.90150 0.10900
H 	H 	0.59030 0.45180 0.88520 -0.01400
C 	C 	0.63570 0.46780 0.93340 -0.15900
H 	H 	0.62960 0.52800 0.93810 0.11700
C 	C 	0.66630 0.43180 0.95930 0.10800
C 	C 	0.67210 0.34330 0.95420 -0.14100
H 	H 	0.69220 0.31360 0.97530 0.03100
C 	C 	0.64950 0.29630 0.91930 0.06800
H 	H 	0.65440 0.23500 0.91590 -0.05600
N 	N 	0.82800 0.35950 0.15640 -0.27000
C 	C 	0.80700 0.31570 0.12070 0.04400
H 	H 	0.81210 0.25440 0.11730 0.05200
C 	C 	0.77760 0.35720 0.08800 -0.08500
H 	H 	0.76310 0.32580 0.06250 0.06200
C 	C 	0.77080 0.44610 0.09470 0.02800
C 	C 	0.79240 0.49070 0.13180 -0.12700
H 	H 	0.78730 0.55080 0.13810 0.08100
C 	C 	0.82210 0.44190 0.15940 0.10700
H 	H 	0.83960 0.47320 0.18260 -0.00900
C 	C 	0.70630 0.61520 0.03320 0.07200
N 	N 	0.68180 0.56840 0.00370 -0.12000
C 	C 	0.69070 0.48290 0.99990 0.09700
N 	N 	0.72050 0.44150 0.02630 -0.15400
C 	C 	0.74060 0.49100 0.05980 0.05800
N 	N 	0.73530 0.57930 0.06500 -0.15900
Zn	Zn	0.67830 0.74120 0.52860 0.60700
I 	I 	0.11530 0.65240 0.81430 -0.10800
I 	I 	0.01850 0.74420 0.88070 -0.14000
I 	I 	0.84690 0.45650 0.77770 0.47500
I 	I 	0.88260 0.62330 0.66570 0.19400
I 	I 	0.74240 0.65750 0.56700 -0.60000
I 	I 	0.63950 0.70350 0.44850 0.10700
I 	I 	0.52230 0.52380 0.38370 -0.18000
I 	I 	0.60960 0.62520 0.30410 -0.10300
I 	I 	0.34990 0.81560 0.27830 0.11300
I 	I 	0.37730 0.64030 0.17400 -0.14200
I 	I 	0.62750 0.04420 0.94170 -1.82800
I 	I 	0.73190 0.11500 0.04770 2.04500
Zn	Zn	0.42228 0.26620 0.15446 1.16500
Zn	Zn	0.63434 0.97270 0.29066 1.15500
Zn	Zn	0.91836 0.00737 0.65688 1.15900
Zn	Zn	0.13160 0.29290 0.79514 1.15500
Zn	Zn	0.82195 0.52810 0.97320 1.05600
Zn	Zn	0.83030 0.24520 0.48180 0.61400
I 	I 	0.38717 0.15120 0.19670 -0.20700
I 	I 	0.47580 0.23770 0.11010 -0.16600
I 	I 	0.65890 0.91370 0.21300 -0.79800
I 	I 	0.63190 0.12750 0.30570 -0.59900
I 	I 	0.77060 0.15140 0.45250 0.22300
I 	I 	0.87320 0.23480 0.56057 -0.51800
I 	I 	0.97028 0.03830 0.60940 -0.13700
I 	I 	0.88020 0.11760 0.69740 -0.23500
I 	I 	0.16120 0.33900 0.71500 -0.42700
I 	I 	0.11260 0.15170 0.83320 -0.15700
I 	I 	0.85250 0.57050 0.04550 1.38400
I 	I 	0.75000 0.60390 0.92970 -2.44900
N 	N 	0.43890 0.36470 0.20170 -0.26900
C 	C 	0.47060 0.41980 0.19970 0.04700
H 	H 	0.48820 0.40650 0.17980 -0.00100
C 	C 	0.47670 0.49580 0.22740 -0.10700
H 	H 	0.49830 0.53430 0.22600 0.06700
C 	C 	0.45150 0.51480 0.25660 0.05500
C 	C 	0.42160 0.45960 0.25830 -0.12400
H 	H 	0.40470 0.47040 0.27930 0.08400
C 	C 	0.41510 0.38910 0.23080 0.07500
H 	H 	0.39240 0.35390 0.23160 -0.00900
N 	N 	0.58280 0.89990 0.29260 -0.26700
C 	C 	0.56540 0.89800 0.33310 0.07500
H 	H 	0.57560 0.93370 0.35870 -0.01500
C 	C 	0.53760 0.84920 0.33320 -0.13500
H 	H 	0.52620 0.85260 0.35950 0.08600
C 	C 	0.52040 0.79050 0.30110 0.05900
C 	C 	0.56850 0.84310 0.25930 0.07100
H 	H 	0.58050 0.83910 0.23330 -0.00100
C 	C 	0.53700 0.79080 0.26210 -0.11900
H 	H 	0.52600 0.75380 0.23710 0.08000
N 	N 	0.36450 0.72790 0.43380 -0.28800
C 	C 	0.35900 0.65900 0.40590 0.05000
H 	H 	0.34130 0.61440 0.41180 -0.01900
C 	C 	0.37880 0.64600 0.36470 -0.09100
H 	H 	0.36980 0.60780 0.33940 0.07100
C 	C 	0.41420 0.70190 0.37190 0.04700
C 	C 	0.42250 0.76210 0.40540 -0.11800
H 	H 	0.44690 0.79350 0.40980 0.08100
C 	C 	0.39650 0.77870 0.43330 0.07800
H 	H 	0.40120 0.82830 0.45320 -0.01500
C 	C 	0.45620 0.59810 0.28500 0.08200
N 	N 	0.48490 0.65710 0.27650 -0.14700
C 	C 	0.48820 0.72650 0.30420 0.08000
N 	N 	0.46720 0.74380 0.33700 -0.14000
C 	C 	0.44110 0.68290 0.34070 0.10000
N 	N 	0.43370 0.60990 0.31430 -0.14100
N 	N 	0.67360 0.91200 0.34200 -0.27000
C 	C 	0.68010 0.82300 0.33720 0.04800
H 	H 	0.66690 0.79220 0.31080 0.01400
C 	C 	0.70620 0.77810 0.37160 -0.09500
H 	H 	0.70790 0.71530 0.37070 0.07700
C 	C 	0.72970 0.82440 0.40720 0.04100
C 	C 	0.72350 0.91390 0.40830 -0.12400
H 	H 	0.73810 0.94810 0.43260 0.08900
C 	C 	0.69720 0.95390 0.37580 0.08000
H 	H 	0.69510 0.01660 0.37700 0.00200
N 	N 	0.81440 0.37990 0.47330 -0.27700
C 	C 	0.83450 0.43350 0.50200 0.08700
H 	H 	0.85540 0.40930 0.52410 -0.02000
C 	C 	0.82810 0.52260 0.50340 -0.12600
H 	H 	0.84300 0.55720 0.52730 0.08300
C 	C 	0.80050 0.56210 0.47040 0.05000
C 	C 	0.77780 0.50640 0.43710 -0.09700
H 	H 	0.75630 0.52950 0.41550 0.07200
C 	C 	0.78830 0.41250 0.43660 0.04000
H 	H 	0.77730 0.37550 0.41160 0.00300
N 	N 	0.87650 0.93710 0.61140 -0.28800
C 	C 	0.87720 0.84910 0.61250 0.06300
H 	H 	0.89520 0.82070 0.63640 -0.00600
C 	C 	0.85220 0.79520 0.57920 -0.10500
H 	H 	0.85050 0.73290 0.58310 0.08400
C 	C 	0.82960 0.83870 0.54000 0.05100
C 	C 	0.82480 0.92950 0.54570 -0.14100
H 	H 	0.80510 0.96230 0.52560 0.07400
C 	C 	0.85030 0.97070 0.58250 0.11500
H 	H 	0.84680 0.03270 0.58530 -0.04300
C 	C 	0.75940 0.77810 0.44140 0.08500
N 	N 	0.76410 0.69240 0.43670 -0.14600
C 	C 	0.79310 0.65870 0.46940 0.09900
N 	N 	0.81560 0.70180 0.50310 -0.13500
C 	C 	0.80650 0.78770 0.50540 0.09800
N 	N 	0.77850 0.82940 0.47560 -0.14400
N 	N 	0.93790 0.90410 0.70280 -0.28500
C 	C 	0.96430 0.84850 0.69930 0.11900
H 	H 	0.97960 0.86070 0.67690 -0.02800
C 	C 	0.97360 0.77310 0.72390 -0.15300
H 	H 	0.99480 0.73560 0.71960 0.08100
C 	C 	0.95030 0.75390 0.75590 0.06000
C 	C 	0.92220 0.81650 0.76280 -0.11400
H 	H 	0.90690 0.80860 0.78570 0.08600
C 	C 	0.91730 0.89200 0.73440 0.07200
H 	H 	0.89830 0.93550 0.73850 -0.01600
N 	N 	0.08130 0.36830 0.79450 -0.30100
C 	C 	0.06640 0.36750 0.82700 0.14000
H 	H 	0.07680 0.32590 0.85010 -0.03100
C 	C 	0.03300 0.42500 0.83580 -0.13200
H 	H 	0.02200 0.42330 0.86240 0.10800
C 	C 	0.02070 0.48310 0.79790 0.08100
C 	C 	0.03600 0.48120 0.76250 -0.15200
H 	H 	0.02630 0.51920 0.73750 0.08800
C 	C 	0.06700 0.42270 0.76090 0.10100
H 	H 	0.07820 0.42200 0.73440 -0.02100
N 	N 	0.85880 0.54200 0.92680 -0.29500
C 	C 	0.89270 0.50450 0.93330 0.10200
H 	H 	0.90050 0.46930 0.95990 -0.00900
C 	C 	0.91900 0.51240 0.90360 -0.13100
H 	H 	0.94160 0.47530 0.90630 0.09600
C 	C 	0.91090 0.57570 0.87050 0.07500
C 	C 	0.87520 0.61480 0.86520 -0.12800
H 	H 	0.86900 0.65820 0.84180 0.08100
C 	C 	0.84870 0.59870 0.88880 0.05100
H 	H 	0.82310 0.62430 0.88100 0.00100
C 	C 	0.95560 0.67010 0.78170 0.09500
N 	N 	0.98280 0.61480 0.77630 -0.15300
C 	C 	0.98770 0.54600 0.80440 0.09300
N 	N 	0.96670 0.52700 0.83430 -0.13300
C 	C 	0.93620 0.58780 0.83510 0.07900
N 	N 	0.93100 0.66160 0.81100 -0.13500
N 	N 	0.80950 0.39420 0.96920 -0.30700
C 	C 	0.78210 0.35700 0.94390 0.14400
H 	H 	0.76170 0.39340 0.92760 -0.00400
C 	C 	0.77810 0.27010 0.93710 -0.18700
H 	H 	0.75960 0.24930 0.91140 0.09700
C 	C 	0.79900 0.21160 0.96480 0.07400
C 	C 	0.82740 0.25030 0.00040 -0.12300
H 	H 	0.84360 0.21530 0.02310 0.10000
C 	C 	0.83010 0.34270 0.00020 0.06400
H 	H 	0.84820 0.37000 0.02440 0.00900
N 	N 	0.88000 0.83770 0.11080 -0.27400
C 	C 	0.88670 0.92310 0.09850 0.10600
H 	H 	0.90970 0.95180 0.11480 -0.01300
C 	C 	0.86430 0.96780 0.06660 -0.15400
H 	H 	0.87040 0.02800 0.06190 0.11500
C 	C 	0.83370 0.93180 0.04070 0.10500
C 	C 	0.82790 0.84330 0.04580 -0.14000
H 	H 	0.80780 0.81360 0.02470 0.03000
C 	C 	0.85050 0.79630 0.08070 0.06700
H 	H 	0.84560 0.73500 0.08410 -0.05600
N 	N 	0.67200 0.85950 0.84360 -0.27000
C 	C 	0.69300 0.81570 0.87930 0.04400
H 	H 	0.68790 0.75440 0.88270 0.05300
C 	C 	0.72240 0.85720 0.91200 -0.08400
H 	H 	0.73690 0.82580 0.93750 0.06200
C 	C 	0.72920 0.94610 0.90530 0.02700
C 	C 	0.70760 0.99070 0.86820 -0.12400
H 	H 	0.71270 0.05080 0.86190 0.08000
C 	C 	0.67790 0.94190 0.84060 0.10600
H 	H 	0.66040 0.97320 0.81740 -0.00800
C 	C 	0.79370 0.11520 0.96680 0.07200
N 	N 	0.81820 0.06840 0.99630 -0.12100
C 	C 	0.80930 0.98290 0.00010 0.09900
N 	N 	0.77950 0.94150 0.97370 -0.15400
C 	C 	0.75940 0.99100 0.94020 0.06000
N 	N 	0.76470 0.07930 0.93500 -0.16000
Zn	Zn	0.82170 0.24120 0.47140 0.60700
I 	I 	0.38470 0.15240 0.18570 -0.10800
I 	I 	0.48150 0.24420 0.11930 -0.14000
I 	I 	0.65310 0.95650 0.22230 0.47500
I 	I 	0.61740 0.12330 0.33430 0.19400
I 	I 	0.75760 0.15750 0.43300 -0.60000
I 	I 	0.86050 0.20350 0.55150 0.10700
I 	I 	0.97770 0.02380 0.61630 -0.18000
I 	I 	0.89040 0.12520 0.69590 -0.10300
I 	I 	0.15010 0.31560 0.72170 0.11300
I 	I 	0.12270 0.14030 0.82600 -0.14200
I 	I 	0.87250 0.54420 0.05830 -1.82800
I 	I 	0.76810 0.61500 0.95230 2.04700
Zn	Zn	0.92228 0.76620 0.15446 1.16500
Zn	Zn	0.13434 0.47270 0.29066 1.15500
Zn	Zn	0.41836 0.50737 0.65688 1.15900
Zn	Zn	0.63160 0.79290 0.79514 1.15500
Zn	Zn	0.32195 0.02810 0.97320 1.05600
Zn	Zn	0.33030 0.74520 0.48180 0.61400
I 	I 	0.88717 0.65120 0.19670 -0.20600
I 	I 	0.97580 0.73770 0.11010 -0.16600
I 	I 	0.15890 0.41370 0.21300 -0.79800
I 	I 	0.13190 0.62750 0.30570 -0.59900
I 	I 	0.27060 0.65140 0.45250 0.22300
I 	I 	0.37320 0.73480 0.56057 -0.51800
I 	I 	0.47028 0.53830 0.60940 -0.13600
I 	I 	0.38020 0.61760 0.69740 -0.23500
I 	I 	0.66120 0.83900 0.71500 -0.42700
I 	I 	0.61260 0.65170 0.83320 -0.15600
I 	I 	0.35250 0.07050 0.04550 1.38300
I 	I 	0.25000 0.10390 0.92970 -2.44700
N 	N 	0.93890 0.86470 0.20170 -0.26800
C 	C 	0.97060 0.91980 0.19970 0.04400
H 	H 	0.98820 0.90650 0.17980 0.00000
C 	C 	0.97670 0.99580 0.22740 -0.10000
H 	H 	0.99830 0.03430 0.22600 0.06300
C 	C 	0.95150 0.01480 0.25660 0.04800
C 	C 	0.92160 0.95960 0.25830 -0.11800
H 	H 	0.90470 0.97040 0.27930 0.08300
C 	C 	0.91510 0.88910 0.23080 0.07200
H 	H 	0.89240 0.85390 0.23160 -0.00800
N 	N 	0.08280 0.39990 0.29260 -0.26700
C 	C 	0.06540 0.39800 0.33310 0.07500
H 	H 	0.07560 0.43370 0.35870 -0.01600
C 	C 	0.03760 0.34920 0.33320 -0.13500
H 	H 	0.02620 0.35260 0.35950 0.08600
C 	C 	0.02040 0.29050 0.30110 0.05900
C 	C 	0.06850 0.34310 0.25930 0.07100
H 	H 	0.08050 0.33910 0.23330 -0.00100
C 	C 	0.03700 0.29080 0.26210 -0.11900
H 	H 	0.02600 0.25380 0.23710 0.08000
N 	N 	0.86450 0.22790 0.43380 -0.28800
C 	C 	0.85900 0.15900 0.40590 0.05000
H 	H 	0.84130 0.11440 0.41180 -0.01900
C 	C 	0.87880 0.14600 0.36470 -0.09100
H 	H 	0.86980 0.10780 0.33940 0.07100
C 	C 	0.91420 0.20190 0.37190 0.04700
C 	C 	0.92250 0.26210 0.40540 -0.11800
H 	H 	0.94690 0.29350 0.40980 0.08100
C 	C 	0.89650 0.27870 0.43330 0.07800
H 	H 	0.90120 0.32830 0.45320 -0.01500
C 	C 	0.95620 0.09810 0.28500 0.08400
N 	N 	0.98490 0.15710 0.27650 -0.14700
C 	C 	0.98820 0.22650 0.30420 0.08000
N 	N 	0.96720 0.24380 0.33700 -0.14000
C 	C 	0.94110 0.18290 0.34070 0.10000
N 	N 	0.93370 0.10990 0.31430 -0.14200
N 	N 	0.17360 0.41200 0.34200 -0.27000
C 	C 	0.18010 0.32300 0.33720 0.04700
H 	H 	0.16690 0.29220 0.31080 0.01400
C 	C 	0.20620 0.27810 0.37160 -0.09500
H 	H 	0.20790 0.21530 0.37070 0.07700
C 	C 	0.22970 0.32440 0.40720 0.04000
C 	C 	0.22350 0.41390 0.40830 -0.12300
H 	H 	0.23810 0.44810 0.43260 0.08800
C 	C 	0.19720 0.45390 0.37580 0.07800
H 	H 	0.19510 0.51660 0.37700 0.00300
N 	N 	0.31440 0.87990 0.47330 -0.27800
C 	C 	0.33450 0.93350 0.50200 0.08800
H 	H 	0.35540 0.90930 0.52410 -0.02000
C 	C 	0.32810 0.02260 0.50340 -0.12800
H 	H 	0.34300 0.05720 0.52730 0.08300
C 	C 	0.30050 0.06210 0.47040 0.05100
C 	C 	0.27780 0.00640 0.43710 -0.09900
H 	H 	0.25630 0.02950 0.41550 0.07200
C 	C 	0.28830 0.91250 0.43660 0.04100
H 	H 	0.27730 0.87550 0.41160 0.00300
N 	N 	0.37650 0.43710 0.61140 -0.28800
C 	C 	0.37720 0.34910 0.61250 0.06200
H 	H 	0.39520 0.32070 0.63640 -0.00600
C 	C 	0.35220 0.29520 0.57920 -0.10500
H 	H 	0.35050 0.23290 0.58310 0.08400
C 	C 	0.32960 0.33870 0.54000 0.05000
C 	C 	0.32480 0.42950 0.54570 -0.14000
H 	H 	0.30510 0.46230 0.52560 0.07300
C 	C 	0.35030 0.47070 0.58250 0.11200
H 	H 	0.34680 0.53270 0.58530 -0.04100
C 	C 	0.25940 0.27810 0.44140 0.08500
N 	N 	0.26410 0.19240 0.43670 -0.14600
C 	C 	0.29310 0.15870 0.46940 0.09800
N 	N 	0.31560 0.20180 0.50310 -0.13500
C 	C 	0.30650 0.28770 0.50540 0.09800
N 	N 	0.27850 0.32940 0.47560 -0.14500
N 	N 	0.43790 0.40410 0.70280 -0.28500
C 	C 	0.46430 0.34850 0.69930 0.11900
H 	H 	0.47960 0.36070 0.67690 -0.02900
C 	C 	0.47360 0.27310 0.72390 -0.15300
H 	H 	0.49480 0.23560 0.71960 0.08100
C 	C 	0.45030 0.25390 0.75590 0.06000
C 	C 	0.42220 0.31650 0.76280 -0.11400
H 	H 	0.40690 0.30860 0.78570 0.08600
C 	C 	0.41730 0.39200 0.73440 0.07200
H 	H 	0.39830 0.43550 0.73850 -0.01700
N 	N 	0.58130 0.86830 0.79450 -0.30100
C 	C 	0.56640 0.86750 0.82700 0.14000
H 	H 	0.57680 0.82590 0.85010 -0.03100
C 	C 	0.53300 0.92500 0.83580 -0.13200
H 	H 	0.52200 0.92330 0.86240 0.10800
C 	C 	0.52070 0.98310 0.79790 0.08100
C 	C 	0.53600 0.98120 0.76250 -0.15100
H 	H 	0.52630 0.01920 0.73750 0.08800
C 	C 	0.56700 0.92270 0.76090 0.10000
H 	H 	0.57820 0.92200 0.73440 -0.02100
N 	N 	0.35880 0.04200 0.92680 -0.29500
C 	C 	0.39270 0.00450 0.93330 0.10200
H 	H 	0.40050 0.96930 0.95990 -0.00900
C 	C 	0.41900 0.01240 0.90360 -0.13200
H 	H 	0.44160 0.97530 0.90630 0.09700
C 	C 	0.41090 0.07570 0.87050 0.07500
C 	C 	0.37520 0.11480 0.86520 -0.12800
H 	H 	0.36900 0.15820 0.84180 0.08100
C 	C 	0.34870 0.09870 0.88880 0.05100
H 	H 	0.32310 0.12430 0.88100 0.00100
C 	C 	0.45560 0.17010 0.78170 0.09500
N 	N 	0.48280 0.11480 0.77630 -0.15300
C 	C 	0.48770 0.04600 0.80440 0.09200
N 	N 	0.46670 0.02700 0.83430 -0.13300
C 	C 	0.43620 0.08780 0.83510 0.07900
N 	N 	0.43100 0.16160 0.81100 -0.13500
N 	N 	0.30950 0.89420 0.96920 -0.30700
C 	C 	0.28210 0.85700 0.94390 0.14400
H 	H 	0.26170 0.89340 0.92760 -0.00400
C 	C 	0.27810 0.77010 0.93710 -0.18700
H 	H 	0.25960 0.74930 0.91140 0.09700
C 	C 	0.29900 0.71160 0.96480 0.07400
C 	C 	0.32740 0.75030 0.00040 -0.12300
H 	H 	0.34360 0.71530 0.02310 0.10000
C 	C 	0.33010 0.84270 0.00020 0.06400
H 	H 	0.34820 0.87000 0.02440 0.00900
N 	N 	0.38000 0.33770 0.11080 -0.27400
C 	C 	0.38670 0.42310 0.09850 0.10900
H 	H 	0.40970 0.45180 0.11480 -0.01400
C 	C 	0.36430 0.46780 0.06660 -0.15900
H 	H 	0.37040 0.52800 0.06190 0.11700
C 	C 	0.33370 0.43180 0.04070 0.10800
C 	C 	0.32790 0.34330 0.04580 -0.14100
H 	H 	0.30780 0.31360 0.02470 0.03100
C 	C 	0.35050 0.29630 0.08070 0.06800
H 	H 	0.34560 0.23500 0.08410 -0.05600
N 	N 	0.17200 0.35950 0.84360 -0.27000
C 	C 	0.19300 0.31570 0.87930 0.04400
H 	H 	0.18790 0.25440 0.88270 0.05200
C 	C 	0.22240 0.35720 0.91200 -0.08500
H 	H 	0.23690 0.32580 0.93750 0.06200
C 	C 	0.22920 0.44610 0.90530 0.02800
C 	C 	0.20760 0.49070 0.86820 -0.12700
H 	H 	0.21270 0.55080 0.86190 0.08100
C 	C 	0.17790 0.44190 0.84060 0.10700
H 	H 	0.16040 0.47320 0.81740 -0.00900
C 	C 	0.29370 0.61520 0.96680 0.07200
N 	N 	0.31820 0.56840 0.99630 -0.12000
C 	C 	0.30930 0.48290 0.00010 0.09700
N 	N 	0.27950 0.44150 0.97370 -0.15400
C 	C 	0.25940 0.49100 0.94020 0.05800
N 	N 	0.26470 0.57930 0.93500 -0.15900
Zn	Zn	0.32170 0.74120 0.47140 0.60700
I 	I 	0.88470 0.65240 0.18570 -0.10800
I 	I 	0.98150 0.74420 0.11930 -0.14000
I 	I 	0.15310 0.45650 0.22230 0.47500
I 	I 	0.11740 0.62330 0.33430 0.19400
I 	I 	0.25760 0.65750 0.43300 -0.60000
I 	I 	0.36050 0.70350 0.55150 0.10700
I 	I 	0.47770 0.52380 0.61630 -0.18000
I 	I 	0.39040 0.62520 0.69590 -0.10300
I 	I 	0.65010 0.81560 0.72170 0.11300
I 	I 	0.62270 0.64030 0.82600 -0.14200
I 	I 	0.37250 0.04420 0.05830 -1.82800
I 	I 	0.26810 0.11500 0.95230 2.04500
