data_crystal

_cell_length_a 14.87300
_cell_length_b 18.92930
_cell_length_c 18.92930
_cell_angle_alpha 66.60240
_cell_angle_beta  74.81690
_cell_angle_gamma 105.18300

_symmetry_space_group_name_	'P 1'
_symmetry_space_group_name_H-M	'P 1'

loop_
_symmetry_equiv_pos_as_xyz
  x,y,z

loop_
_atom_site_label
_atom_site_type_symbol
_atom_site_fract_x
_atom_site_fract_y
_atom_site_fract_z
_atom_site_charge
Mg	Mg	0.09877 0.71502 0.32577 1.45400
Mg	Mg	0.42454 0.32577 0.95921 1.46200
Mg	Mg	0.38375 0.95921 0.71502 1.46300
Mg	Mg	0.90123 0.28498 0.67423 1.45900
Mg	Mg	0.57546 0.67423 0.04079 1.45200
Mg	Mg	0.61625 0.04079 0.28498 1.45100
Mg	Mg	-0.00000 0.50000 0.50000 1.47300
Mg	Mg	0.50000 0.50000 -0.00000 1.47000
Mg	Mg	0.50000 0.00000 0.50000 1.47100
H 	H 	0.28390 0.61900 0.19030 0.02400
H 	H 	0.18890 0.40110 0.18240 0.04200
H 	H 	0.00410 0.45250 0.34480 0.05400
H 	H 	0.02780 0.33870 0.18990 -0.18300
H 	H 	0.87250 0.24210 0.22260 0.22900
H 	H 	0.77950 0.18360 0.45960 0.15000
H 	H 	0.93230 0.29150 0.40760 -0.22900
H 	H 	0.47420 0.19030 0.19070 0.01900
H 	H 	0.37130 0.18240 0.41650 0.05400
H 	H 	0.34890 0.34480 0.20270 0.07600
H 	H 	0.21770 0.18990 0.47140 -0.10800
H 	H 	0.09510 0.22260 0.53530 0.18900
H 	H 	0.23910 0.45960 0.35680 0.16500
H 	H 	0.33990 0.40760 0.30090 -0.29600
H 	H 	0.66490 0.19070 0.61900 0.03300
H 	H 	0.78780 0.41650 0.40110 0.06600
H 	H 	0.55160 0.20270 0.45250 0.07900
H 	H 	0.68910 0.47140 0.33870 -0.09500
H 	H 	0.63040 0.53530 0.24210 0.19900
H 	H 	0.59590 0.35680 0.18360 0.15700
H 	H 	0.64080 0.30090 0.29150 -0.28700
H 	H 	0.71610 0.38100 0.80970 0.04600
H 	H 	0.81110 0.59890 0.81760 0.07900
H 	H 	0.99590 0.54750 0.65520 0.10800
H 	H 	0.97220 0.66130 0.81010 -0.00400
H 	H 	0.12750 0.75790 0.77740 0.16600
H 	H 	0.22050 0.81640 0.54040 0.17200
H 	H 	0.06770 0.70850 0.59240 -0.33900
H 	H 	0.52580 0.80970 0.80930 0.05100
H 	H 	0.62870 0.81760 0.58350 0.06600
H 	H 	0.65110 0.65520 0.79730 0.08500
H 	H 	0.78230 0.81010 0.52860 -0.08300
H 	H 	0.90490 0.77740 0.46470 0.20800
H 	H 	0.76090 0.54040 0.64320 0.15600
H 	H 	0.66010 0.59240 0.69910 -0.26600
H 	H 	0.33510 0.80930 0.38100 0.03600
H 	H 	0.21220 0.58350 0.59890 0.05500
H 	H 	0.44840 0.79730 0.54750 0.08200
H 	H 	0.31090 0.52860 0.66130 -0.09700
H 	H 	0.36960 0.46470 0.75790 0.19800
H 	H 	0.40410 0.64320 0.81640 0.16400
H 	H 	0.35920 0.69910 0.70850 -0.27500
C 	C 	0.14149 0.54425 0.26822 -0.10500
C 	C 	0.23558 0.56868 0.20622 0.02900
C 	C 	0.25302 0.51548 0.17618 -0.12400
C 	C 	0.17361 0.43878 0.20622 -0.04300
C 	C 	0.07801 0.41384 0.26798 0.08200
C 	C 	0.06365 0.46591 0.30097 -0.07200
C 	C 	0.12511 0.60475 0.29677 0.35500
C 	C 	0.35835 0.54254 0.11291 0.44300
C 	C 	0.99036 0.33483 0.29568 -0.30200
C 	C 	0.97466 0.31425 0.23667 0.41300
C 	C 	0.88749 0.24678 0.25911 -0.48300
C 	C 	0.81448 0.19775 0.34133 0.16500
C 	C 	0.83211 0.21626 0.40088 -0.35200
C 	C 	0.91949 0.28396 0.37864 0.50400
C 	C 	0.71802 0.12729 0.36312 0.36500
C 	C 	0.40971 0.26822 0.18753 -0.09500
C 	C 	0.44180 0.20622 0.22510 0.01800
C 	C 	0.42920 0.17618 0.30834 -0.11300
C 	C 	0.37983 0.20622 0.35500 -0.06600
C 	C 	0.34599 0.26798 0.31818 0.13800
C 	C 	0.36462 0.30097 0.23312 -0.09900
C 	C 	0.42188 0.29677 0.09848 0.35200
C 	C 	0.47126 0.11291 0.34455 0.43900
C 	C 	0.28604 0.29568 0.36949 -0.35100
C 	C 	0.21133 0.23667 0.44908 0.30000
C 	C 	0.14660 0.25911 0.49411 -0.41200
C 	C 	0.15581 0.34133 0.46092 0.15300
C 	C 	0.23299 0.40088 0.38286 -0.39200
C 	C 	0.29813 0.37864 0.33740 0.60400
C 	C 	0.08114 0.36312 0.50959 0.36700
C 	C 	0.59724 0.18753 0.54425 -0.08300
C 	C 	0.66690 0.22510 0.56868 0.01100
C 	C 	0.73754 0.30834 0.51548 -0.09500
C 	C 	0.73483 0.35500 0.43878 -0.06800
C 	C 	0.66417 0.31818 0.41384 0.14300
C 	C 	0.59774 0.23312 0.46591 -0.10100
C 	C 	0.52036 0.09848 0.60475 0.34800
C 	C 	0.81581 0.34455 0.54254 0.43400
C 	C 	0.65553 0.36949 0.33483 -0.34000
C 	C 	0.66041 0.44908 0.31425 0.29900
C 	C 	0.64071 0.49411 0.24678 -0.40500
C 	C 	0.61673 0.46092 0.19775 0.15000
C 	C 	0.61585 0.38286 0.21626 -0.38200
C 	C 	0.63553 0.33740 0.28396 0.58500
C 	C 	0.59073 0.50959 0.12729 0.37100
C 	C 	0.85851 0.45575 0.73178 -0.05100
C 	C 	0.76442 0.43132 0.79378 -0.00900
C 	C 	0.74698 0.48452 0.82382 -0.07100
C 	C 	0.82639 0.56122 0.79378 -0.09300
C 	C 	0.92199 0.58616 0.73202 0.20400
C 	C 	0.93635 0.53409 0.69903 -0.13200
C 	C 	0.87489 0.39525 0.70323 0.33600
C 	C 	0.64165 0.45746 0.88709 0.42800
C 	C 	0.00964 0.66517 0.70432 -0.37400
C 	C 	0.02534 0.68575 0.76333 0.17400
C 	C 	0.11251 0.75322 0.74089 -0.32000
C 	C 	0.18552 0.80225 0.65867 0.13900
C 	C 	0.16789 0.78374 0.59912 -0.40600
C 	C 	0.08051 0.71604 0.62136 0.65800
C 	C 	0.28198 0.87271 0.63688 0.37200
C 	C 	0.59029 0.73178 0.81247 -0.06100
C 	C 	0.55820 0.79378 0.77490 0.00300
C 	C 	0.57080 0.82382 0.69166 -0.08200
C 	C 	0.62017 0.79378 0.64500 -0.06800
C 	C 	0.65401 0.73202 0.68182 0.14500
C 	C 	0.63538 0.69903 0.76688 -0.10300
C 	C 	0.57812 0.70323 0.90152 0.33900
C 	C 	0.52874 0.88709 0.65545 0.43200
C 	C 	0.71396 0.70432 0.63051 -0.32200
C 	C 	0.78867 0.76333 0.55092 0.29400
C 	C 	0.85340 0.74089 0.50589 -0.39500
C 	C 	0.84419 0.65867 0.53908 0.15100
C 	C 	0.76701 0.59912 0.61714 -0.36100
C 	C 	0.70187 0.62136 0.66260 0.54900
C 	C 	0.91886 0.63688 0.49041 0.37000
C 	C 	0.40276 0.81247 0.45575 -0.07400
C 	C 	0.33310 0.77490 0.43132 0.01000
C 	C 	0.26246 0.69166 0.48452 -0.10100
C 	C 	0.26517 0.64500 0.56122 -0.06600
C 	C 	0.33583 0.68182 0.58616 0.13900
C 	C 	0.40226 0.76688 0.53409 -0.10100
C 	C 	0.47964 0.90152 0.39525 0.34200
C 	C 	0.18419 0.65545 0.45746 0.43800
C 	C 	0.34447 0.63051 0.66517 -0.33300
C 	C 	0.33959 0.55092 0.68575 0.29500
C 	C 	0.35929 0.50589 0.75322 -0.40300
C 	C 	0.38327 0.53908 0.80225 0.15400
C 	C 	0.38415 0.61714 0.78374 -0.37200
C 	C 	0.36447 0.66260 0.71604 0.56900
C 	C 	0.40927 0.49041 0.87271 0.36600
O 	O 	0.05299 0.57969 0.36615 -0.61600
O 	O 	0.18181 0.68221 0.24718 -0.52900
O 	O 	0.37323 0.49503 0.08490 -0.51300
O 	O 	0.42322 0.61275 0.09345 -0.57800
O 	O 	0.65258 0.08448 0.43698 -0.49900
O 	O 	0.71227 0.11834 0.30227 -0.60300
O 	O 	0.41914 0.36615 0.05416 -0.63100
O 	O 	0.42899 0.24718 0.07061 -0.55900
O 	O 	0.45813 0.08490 0.42007 -0.50900
O 	O 	0.51667 0.09345 0.29380 -0.58300
O 	O 	0.08956 0.43698 0.47854 -0.49100
O 	O 	0.01454 0.30227 0.57939 -0.60900
O 	O 	0.47330 0.05416 0.57969 -0.62300
O 	O 	0.49960 0.07061 0.68221 -0.53600
O 	O 	0.87820 0.42007 0.49503 -0.47100
O 	O 	0.81047 0.29380 0.61275 -0.54800
O 	O 	0.56810 0.47854 0.08448 -0.50200
O 	O 	0.59393 0.57939 0.11834 -0.59700
O 	O 	0.94701 0.42031 0.63385 -0.57400
O 	O 	0.81819 0.31779 0.75282 -0.50500
O 	O 	0.62677 0.50497 0.91510 -0.46000
O 	O 	0.57678 0.38725 0.90655 -0.53200
O 	O 	0.34742 0.91552 0.56302 -0.45900
O 	O 	0.28773 0.88166 0.69773 -0.56600
O 	O 	0.58086 0.63385 0.94584 -0.55600
O 	O 	0.57101 0.75282 0.92939 -0.47300
O 	O 	0.54187 0.91510 0.57993 -0.46300
O 	O 	0.48333 0.90655 0.70620 -0.52600
O 	O 	0.91044 0.56302 0.52146 -0.46800
O 	O 	0.98546 0.69773 0.42061 -0.56100
O 	O 	0.52670 0.94584 0.42031 -0.56500
O 	O 	0.50040 0.92939 0.31779 -0.49700
O 	O 	0.12180 0.57993 0.50497 -0.50300
O 	O 	0.18953 0.70620 0.38725 -0.56200
O 	O 	0.43190 0.52146 0.91552 -0.45600
O 	O 	0.40607 0.42061 0.88166 -0.57200
