data_crystal

_cell_length_a 31.42060
_cell_length_b 31.42060
_cell_length_c 44.82390
_cell_angle_alpha 90.00000
_cell_angle_beta  90.00000
_cell_angle_gamma 90.00000

_symmetry_space_group_name_	'P 1'
_symmetry_space_group_name_H-M	'P 1'

loop_
_symmetry_equiv_pos_as_xyz
  x,y,z

loop_
_atom_site_label
_atom_site_type_symbol
_atom_site_fract_x
_atom_site_fract_y
_atom_site_fract_z
_atom_site_charge
O 	O 	0.90950 0.79963 0.10787 -0.38700
O 	O 	0.87708 0.75838 0.14185 -0.37100
C 	C 	0.89843 0.76417 0.11826 0.32600
C 	C 	0.91244 0.72530 0.10152 -0.02700
C 	C 	0.89748 0.68574 0.10978 -0.09100
H 	H 	0.87860 0.68300 0.12560 0.09000
C 	C 	0.91113 0.64990 0.09406 0.11400
N 	N 	0.89503 0.60887 0.10116 -0.09400
C 	C 	0.86656 0.59729 0.12206 0.01100
H 	H 	0.85310 0.61530 0.13550 0.03900
Cu	Cu	0.64013 0.69408 0.33238 0.93000
Cu	Cu	0.60506 0.64591 0.37392 0.93200
O 	O 	0.65298 0.63951 0.31323 -0.38400
O 	O 	0.00593 0.66400 0.03034 -0.39300
O 	O 	0.62575 0.59863 0.34937 -0.37700
O 	O 	0.65032 0.44537 0.34883 -0.38400
O 	O 	0.69320 0.41697 0.31449 -0.37500
O 	O 	0.99666 0.73474 0.03076 -0.39600
O 	O 	0.57585 0.60753 0.40783 -0.39800
H 	H 	0.55330 0.61850 0.41300 0.24800
O 	O 	0.66734 0.73433 0.29870 -0.40000
H 	H 	0.69070 0.72500 0.29380 0.24700
N 	N 	0.81482 0.34745 0.12117 -0.09400
C 	C 	0.94140 0.72935 0.07833 -0.02000
H 	H 	0.95100 0.75610 0.07260 0.07400
C 	C 	0.65756 0.52554 0.32353 -0.02100
H 	H 	0.64220 0.52300 0.34120 0.08000
C 	C 	0.66232 0.56506 0.31040 -0.02600
C 	C 	0.67565 0.48943 0.31044 -0.02900
C 	C 	0.67285 0.44732 0.32564 0.33500
C 	C 	0.95586 0.69356 0.06374 -0.03300
N 	N 	0.72621 0.53874 0.24402 -0.09300
C 	C 	0.94085 0.65311 0.07150 -0.08600
H 	H 	0.95070 0.62900 0.06170 0.09600
C 	C 	0.85502 0.31508 0.08073 -0.08600
H 	H 	0.86000 0.34180 0.07250 0.08500
C 	C 	0.68450 0.56916 0.28377 -0.08800
H 	H 	0.68720 0.59560 0.27470 0.09900
C 	C 	0.64537 0.60427 0.32558 0.33400
C 	C 	0.98888 0.69761 0.03975 0.33900
C 	C 	0.83041 0.31112 0.10628 0.11400
C 	C 	0.82320 0.27146 0.11875 -0.08500
H 	H 	0.80710 0.26900 0.13610 0.09700
C 	C 	0.69799 0.49338 0.28375 -0.08700
H 	H 	0.70980 0.46950 0.27460 0.09100
C 	C 	0.70246 0.53343 0.27092 0.11500
C 	C 	0.76310 0.53042 0.20340 0.03400
C 	C 	0.74267 0.50985 0.22557 0.01200
H 	H 	0.74040 0.48050 0.22760 0.03900
C 	C 	0.80390 0.41112 0.13887 0.03400
C 	C 	0.78378 0.47134 0.17058 -0.13600
H 	H 	0.76660 0.45300 0.18150 0.09600
C 	C 	0.81130 0.54169 0.16133 -0.13600
H 	H 	0.81160 0.57060 0.16580 0.09600
C 	C 	0.82691 0.38841 0.11897 0.01000
H 	H 	0.84740 0.39920 0.10610 0.03700
C 	C 	0.80740 0.45608 0.14649 0.08200
C 	C 	0.86110 0.55432 0.11990 0.03200
C 	C 	0.78610 0.51403 0.17808 0.08400
C 	C 	0.83314 0.48392 0.13000 -0.13500
H 	H 	0.84840 0.47380 0.11370 0.09400
C 	C 	0.83590 0.52629 0.13796 0.08400
C 	C 	0.90128 0.28369 0.04094 0.34500
C 	C 	0.87219 0.27922 0.06748 -0.03400
C 	C 	0.86468 0.23901 0.07963 -0.01800
H 	H 	0.87600 0.21480 0.07060 0.07700
C 	C 	0.84009 0.23545 0.10537 -0.03100
O 	O 	0.90739 0.32087 0.03130 -0.40100
O 	O 	0.91735 0.25042 0.03087 -0.39900
C 	C 	0.83413 0.19276 0.12005 0.34200
O 	O 	0.85132 0.16150 0.10736 -0.37700
O 	O 	0.81312 0.19171 0.14343 -0.39100
N 	N 	0.88560 0.54149 0.09817 -0.07400
N 	N 	0.90290 0.57604 0.08436 -0.04100
N 	N 	0.78100 0.38374 0.15360 -0.07200
N 	N 	0.76040 0.57030 0.20979 -0.07200
N 	N 	0.78830 0.34446 0.14337 -0.03800
N 	N 	0.73680 0.57617 0.23467 -0.03800
O 	O 	0.40950 0.29963 0.60787 -0.38600
O 	O 	0.37708 0.25838 0.64185 -0.37000
C 	C 	0.39843 0.26417 0.61826 0.32700
C 	C 	0.41244 0.22530 0.60152 -0.02500
C 	C 	0.39748 0.18574 0.60978 -0.09000
H 	H 	0.37860 0.18300 0.62560 0.09100
C 	C 	0.41113 0.14990 0.59406 0.11500
N 	N 	0.39503 0.10887 0.60116 -0.09300
C 	C 	0.36656 0.09729 0.62206 0.01100
H 	H 	0.35310 0.11530 0.63550 0.04000
Cu	Cu	0.14013 0.19408 0.83238 0.93000
Cu	Cu	0.10506 0.14591 0.87392 0.93200
O 	O 	0.15298 0.13951 0.81323 -0.38400
O 	O 	0.50593 0.16400 0.53034 -0.39200
O 	O 	0.12575 0.09863 0.84937 -0.37700
O 	O 	0.15032 0.94537 0.84883 -0.38400
O 	O 	0.19320 0.91697 0.81449 -0.37500
O 	O 	0.49666 0.23474 0.53076 -0.39500
O 	O 	0.07585 0.10753 0.90783 -0.39800
H 	H 	0.05330 0.11850 0.91300 0.24900
O 	O 	0.16734 0.23433 0.79870 -0.40000
H 	H 	0.19070 0.22500 0.79380 0.24700
N 	N 	0.31482 0.84745 0.62117 -0.09400
C 	C 	0.44140 0.22935 0.57833 -0.02100
H 	H 	0.45100 0.25610 0.57260 0.07400
C 	C 	0.15756 0.02554 0.82353 -0.02100
H 	H 	0.14220 0.02300 0.84120 0.08000
C 	C 	0.16232 0.06506 0.81040 -0.02600
C 	C 	0.17565 0.98943 0.81044 -0.02900
C 	C 	0.17285 0.94732 0.82564 0.33500
C 	C 	0.45586 0.19356 0.56374 -0.03200
N 	N 	0.22621 0.03874 0.74402 -0.09300
C 	C 	0.44085 0.15311 0.57150 -0.08600
H 	H 	0.45070 0.12900 0.56170 0.09600
C 	C 	0.35502 0.81508 0.58073 -0.08600
H 	H 	0.36000 0.84180 0.57250 0.08500
C 	C 	0.18450 0.06916 0.78377 -0.08800
H 	H 	0.18720 0.09560 0.77470 0.09900
C 	C 	0.14537 0.10427 0.82558 0.33400
C 	C 	0.48888 0.19761 0.53975 0.33900
C 	C 	0.33041 0.81112 0.60628 0.11400
C 	C 	0.32320 0.77146 0.61875 -0.08500
H 	H 	0.30710 0.76900 0.63610 0.09700
C 	C 	0.19799 0.99338 0.78375 -0.08700
H 	H 	0.20980 0.96950 0.77460 0.09100
C 	C 	0.20246 0.03343 0.77092 0.11500
C 	C 	0.26310 0.03042 0.70340 0.03400
C 	C 	0.24267 0.00985 0.72557 0.01200
H 	H 	0.24040 0.98050 0.72760 0.03900
C 	C 	0.30390 0.91112 0.63887 0.03400
C 	C 	0.28378 0.97134 0.67058 -0.13600
H 	H 	0.26660 0.95300 0.68150 0.09700
C 	C 	0.31130 0.04169 0.66133 -0.13600
H 	H 	0.31160 0.07060 0.66580 0.09600
C 	C 	0.32691 0.88841 0.61897 0.01000
H 	H 	0.34740 0.89920 0.60610 0.03700
C 	C 	0.30740 0.95608 0.64649 0.08200
C 	C 	0.36110 0.05432 0.61990 0.03200
C 	C 	0.28610 0.01403 0.67808 0.08400
C 	C 	0.33314 0.98392 0.63000 -0.13500
H 	H 	0.34840 0.97380 0.61370 0.09400
C 	C 	0.33590 0.02629 0.63796 0.08400
C 	C 	0.40128 0.78369 0.54094 0.34500
C 	C 	0.37219 0.77922 0.56748 -0.03300
C 	C 	0.36468 0.73901 0.57963 -0.01800
H 	H 	0.37600 0.71480 0.57060 0.07700
C 	C 	0.34009 0.73545 0.60537 -0.03000
O 	O 	0.40739 0.82087 0.53130 -0.40000
O 	O 	0.41735 0.75042 0.53087 -0.39800
C 	C 	0.33413 0.69276 0.62005 0.34200
O 	O 	0.35132 0.66150 0.60736 -0.37700
O 	O 	0.31312 0.69171 0.64343 -0.39100
N 	N 	0.38560 0.04149 0.59817 -0.07400
N 	N 	0.40290 0.07604 0.58436 -0.04000
N 	N 	0.28100 0.88374 0.65360 -0.07200
N 	N 	0.26040 0.07030 0.70979 -0.07200
N 	N 	0.28830 0.84446 0.64337 -0.03800
N 	N 	0.23680 0.07617 0.73467 -0.03800
O 	O 	0.09050 0.20037 0.10787 -0.38600
O 	O 	0.12292 0.24162 0.14185 -0.37000
C 	C 	0.10157 0.23583 0.11826 0.32700
C 	C 	0.08756 0.27470 0.10152 -0.02600
C 	C 	0.10252 0.31426 0.10978 -0.09000
H 	H 	0.12140 0.31700 0.12560 0.09100
C 	C 	0.08887 0.35010 0.09406 0.11500
N 	N 	0.10497 0.39113 0.10116 -0.09300
C 	C 	0.13344 0.40271 0.12206 0.01100
H 	H 	0.14690 0.38470 0.13550 0.03900
Cu	Cu	0.35987 0.30592 0.33238 0.93000
Cu	Cu	0.39494 0.35409 0.37392 0.93200
O 	O 	0.34702 0.36049 0.31323 -0.38400
O 	O 	0.99407 0.33600 0.03034 -0.39300
O 	O 	0.37425 0.40137 0.34937 -0.37700
O 	O 	0.34968 0.55463 0.34883 -0.38400
O 	O 	0.30680 0.58303 0.31449 -0.37500
O 	O 	0.00334 0.26526 0.03076 -0.39600
O 	O 	0.42415 0.39247 0.40783 -0.39800
H 	H 	0.44670 0.38150 0.41300 0.24800
O 	O 	0.33266 0.26567 0.29870 -0.40000
H 	H 	0.30930 0.27500 0.29380 0.24700
N 	N 	0.18518 0.65255 0.12117 -0.09400
C 	C 	0.05860 0.27065 0.07833 -0.02000
H 	H 	0.04900 0.24390 0.07260 0.07400
C 	C 	0.34244 0.47446 0.32353 -0.02100
H 	H 	0.35780 0.47700 0.34120 0.08000
C 	C 	0.33768 0.43494 0.31040 -0.02600
C 	C 	0.32435 0.51057 0.31044 -0.02900
C 	C 	0.32715 0.55268 0.32564 0.33500
C 	C 	0.04414 0.30644 0.06374 -0.03300
N 	N 	0.27379 0.46126 0.24402 -0.09300
C 	C 	0.05915 0.34689 0.07150 -0.08600
H 	H 	0.04930 0.37100 0.06170 0.09600
C 	C 	0.14498 0.68492 0.08073 -0.08600
H 	H 	0.14000 0.65820 0.07250 0.08500
C 	C 	0.31550 0.43084 0.28377 -0.08800
H 	H 	0.31280 0.40440 0.27470 0.09900
C 	C 	0.35463 0.39573 0.32558 0.33400
C 	C 	0.01112 0.30239 0.03975 0.33900
C 	C 	0.16959 0.68888 0.10628 0.11400
C 	C 	0.17680 0.72854 0.11875 -0.08500
H 	H 	0.19290 0.73100 0.13610 0.09700
C 	C 	0.30201 0.50662 0.28375 -0.08700
H 	H 	0.29020 0.53050 0.27460 0.09100
C 	C 	0.29754 0.46657 0.27092 0.11500
C 	C 	0.23690 0.46958 0.20340 0.03400
C 	C 	0.25733 0.49015 0.22557 0.01200
H 	H 	0.25960 0.51950 0.22760 0.03900
C 	C 	0.19610 0.58888 0.13887 0.03400
C 	C 	0.21622 0.52866 0.17058 -0.13600
H 	H 	0.23340 0.54700 0.18150 0.09600
C 	C 	0.18870 0.45831 0.16133 -0.13600
H 	H 	0.18840 0.42940 0.16580 0.09600
C 	C 	0.17309 0.61159 0.11897 0.01000
H 	H 	0.15260 0.60080 0.10610 0.03700
C 	C 	0.19260 0.54392 0.14649 0.08200
C 	C 	0.13890 0.44568 0.11990 0.03200
C 	C 	0.21390 0.48597 0.17808 0.08400
C 	C 	0.16686 0.51608 0.13000 -0.13500
H 	H 	0.15160 0.52620 0.11370 0.09400
C 	C 	0.16410 0.47371 0.13796 0.08400
C 	C 	0.09872 0.71631 0.04094 0.34500
C 	C 	0.12781 0.72078 0.06748 -0.03400
C 	C 	0.13532 0.76099 0.07963 -0.01800
H 	H 	0.12400 0.78520 0.07060 0.07700
C 	C 	0.15991 0.76455 0.10537 -0.03100
O 	O 	0.09261 0.67913 0.03130 -0.40100
O 	O 	0.08265 0.74958 0.03087 -0.39900
C 	C 	0.16587 0.80724 0.12005 0.34200
O 	O 	0.14868 0.83850 0.10736 -0.37700
O 	O 	0.18688 0.80829 0.14343 -0.39100
N 	N 	0.11440 0.45851 0.09817 -0.07400
N 	N 	0.09710 0.42396 0.08436 -0.04100
N 	N 	0.21900 0.61626 0.15360 -0.07200
N 	N 	0.23960 0.42970 0.20979 -0.07200
N 	N 	0.21170 0.65554 0.14337 -0.03800
N 	N 	0.26320 0.42383 0.23467 -0.03800
O 	O 	0.59050 0.70037 0.60787 -0.38600
O 	O 	0.62292 0.74162 0.64185 -0.37000
C 	C 	0.60157 0.73583 0.61826 0.32700
C 	C 	0.58756 0.77470 0.60152 -0.02500
C 	C 	0.60252 0.81426 0.60978 -0.09000
H 	H 	0.62140 0.81700 0.62560 0.09100
C 	C 	0.58887 0.85010 0.59406 0.11500
N 	N 	0.60497 0.89113 0.60116 -0.09300
C 	C 	0.63344 0.90271 0.62206 0.01100
H 	H 	0.64690 0.88470 0.63550 0.04000
Cu	Cu	0.85987 0.80592 0.83238 0.93000
Cu	Cu	0.89494 0.85409 0.87392 0.93200
O 	O 	0.84702 0.86049 0.81323 -0.38400
O 	O 	0.49407 0.83600 0.53034 -0.39200
O 	O 	0.87425 0.90137 0.84937 -0.37700
O 	O 	0.84968 0.05463 0.84883 -0.38400
O 	O 	0.80680 0.08303 0.81449 -0.37500
O 	O 	0.50334 0.76526 0.53076 -0.39500
O 	O 	0.92415 0.89247 0.90783 -0.39800
H 	H 	0.94670 0.88150 0.91300 0.24900
O 	O 	0.83266 0.76567 0.79870 -0.40000
H 	H 	0.80930 0.77500 0.79380 0.24700
N 	N 	0.68518 0.15255 0.62117 -0.09400
C 	C 	0.55860 0.77065 0.57833 -0.02100
H 	H 	0.54900 0.74390 0.57260 0.07400
C 	C 	0.84244 0.97446 0.82353 -0.02100
H 	H 	0.85780 0.97700 0.84120 0.08000
C 	C 	0.83768 0.93494 0.81040 -0.02600
C 	C 	0.82435 0.01057 0.81044 -0.02900
C 	C 	0.82715 0.05268 0.82564 0.33500
C 	C 	0.54414 0.80644 0.56374 -0.03200
N 	N 	0.77379 0.96126 0.74402 -0.09300
C 	C 	0.55915 0.84689 0.57150 -0.08600
H 	H 	0.54930 0.87100 0.56170 0.09600
C 	C 	0.64498 0.18492 0.58073 -0.08600
H 	H 	0.64000 0.15820 0.57250 0.08500
C 	C 	0.81550 0.93084 0.78377 -0.08800
H 	H 	0.81280 0.90440 0.77470 0.09900
C 	C 	0.85463 0.89573 0.82558 0.33400
C 	C 	0.51112 0.80239 0.53975 0.33900
C 	C 	0.66959 0.18888 0.60628 0.11400
C 	C 	0.67680 0.22854 0.61875 -0.08500
H 	H 	0.69290 0.23100 0.63610 0.09700
C 	C 	0.80201 0.00662 0.78375 -0.08700
H 	H 	0.79020 0.03050 0.77460 0.09100
C 	C 	0.79754 0.96657 0.77092 0.11500
C 	C 	0.73690 0.96958 0.70340 0.03400
C 	C 	0.75733 0.99015 0.72557 0.01200
H 	H 	0.75960 0.01950 0.72760 0.03900
C 	C 	0.69610 0.08888 0.63887 0.03400
C 	C 	0.71622 0.02866 0.67058 -0.13600
H 	H 	0.73340 0.04700 0.68150 0.09700
C 	C 	0.68870 0.95831 0.66133 -0.13600
H 	H 	0.68840 0.92940 0.66580 0.09600
C 	C 	0.67309 0.11159 0.61897 0.01000
H 	H 	0.65260 0.10080 0.60610 0.03700
C 	C 	0.69260 0.04392 0.64649 0.08200
C 	C 	0.63890 0.94568 0.61990 0.03200
C 	C 	0.71390 0.98597 0.67808 0.08400
C 	C 	0.66686 0.01608 0.63000 -0.13500
H 	H 	0.65160 0.02620 0.61370 0.09400
C 	C 	0.66410 0.97371 0.63796 0.08400
C 	C 	0.59872 0.21631 0.54094 0.34500
C 	C 	0.62781 0.22078 0.56748 -0.03300
C 	C 	0.63532 0.26099 0.57963 -0.01800
H 	H 	0.62400 0.28520 0.57060 0.07700
C 	C 	0.65991 0.26455 0.60537 -0.03000
O 	O 	0.59261 0.17913 0.53130 -0.40000
O 	O 	0.58265 0.24958 0.53087 -0.39800
C 	C 	0.66587 0.30724 0.62005 0.34200
O 	O 	0.64868 0.33850 0.60736 -0.37700
O 	O 	0.68688 0.30829 0.64343 -0.39100
N 	N 	0.61440 0.95851 0.59817 -0.07400
N 	N 	0.59710 0.92396 0.58436 -0.04000
N 	N 	0.71900 0.11626 0.65360 -0.07200
N 	N 	0.73960 0.92970 0.70979 -0.07200
N 	N 	0.71170 0.15554 0.64337 -0.03800
N 	N 	0.76320 0.92383 0.73467 -0.03800
O 	O 	0.20037 0.90950 0.10787 -0.38600
O 	O 	0.24162 0.87708 0.14185 -0.37000
C 	C 	0.23583 0.89843 0.11826 0.32700
C 	C 	0.27470 0.91244 0.10152 -0.02600
C 	C 	0.31426 0.89748 0.10978 -0.09000
H 	H 	0.31700 0.87860 0.12560 0.09100
C 	C 	0.35010 0.91113 0.09406 0.11500
N 	N 	0.39113 0.89503 0.10116 -0.09300
C 	C 	0.40271 0.86656 0.12206 0.01100
H 	H 	0.38470 0.85310 0.13550 0.03900
Cu	Cu	0.30592 0.64013 0.33238 0.93000
Cu	Cu	0.35409 0.60506 0.37392 0.93200
O 	O 	0.36049 0.65298 0.31323 -0.38400
O 	O 	0.33600 0.00593 0.03034 -0.39300
O 	O 	0.40137 0.62575 0.34937 -0.37700
O 	O 	0.55463 0.65032 0.34883 -0.38400
O 	O 	0.58303 0.69320 0.31449 -0.37500
O 	O 	0.26526 0.99666 0.03076 -0.39600
O 	O 	0.39247 0.57585 0.40783 -0.39800
H 	H 	0.38150 0.55330 0.41300 0.24800
O 	O 	0.26567 0.66734 0.29870 -0.40000
H 	H 	0.27500 0.69070 0.29380 0.24700
N 	N 	0.65255 0.81482 0.12117 -0.09400
C 	C 	0.27065 0.94140 0.07833 -0.02000
H 	H 	0.24390 0.95100 0.07260 0.07400
C 	C 	0.47446 0.65756 0.32353 -0.02100
H 	H 	0.47700 0.64220 0.34120 0.08000
C 	C 	0.43494 0.66232 0.31040 -0.02600
C 	C 	0.51057 0.67565 0.31044 -0.02900
C 	C 	0.55268 0.67285 0.32564 0.33500
C 	C 	0.30644 0.95586 0.06374 -0.03300
N 	N 	0.46126 0.72621 0.24402 -0.09300
C 	C 	0.34689 0.94085 0.07150 -0.08600
H 	H 	0.37100 0.95070 0.06170 0.09600
C 	C 	0.68492 0.85502 0.08073 -0.08600
H 	H 	0.65820 0.86000 0.07250 0.08500
C 	C 	0.43084 0.68450 0.28377 -0.08800
H 	H 	0.40440 0.68720 0.27470 0.09900
C 	C 	0.39573 0.64537 0.32558 0.33400
C 	C 	0.30239 0.98888 0.03975 0.33900
C 	C 	0.68888 0.83041 0.10628 0.11400
C 	C 	0.72854 0.82320 0.11875 -0.08500
H 	H 	0.73100 0.80710 0.13610 0.09700
C 	C 	0.50662 0.69799 0.28375 -0.08700
H 	H 	0.53050 0.70980 0.27460 0.09100
C 	C 	0.46657 0.70246 0.27092 0.11500
C 	C 	0.46958 0.76310 0.20340 0.03400
C 	C 	0.49015 0.74267 0.22557 0.01200
H 	H 	0.51950 0.74040 0.22760 0.03900
C 	C 	0.58888 0.80390 0.13887 0.03400
C 	C 	0.52866 0.78378 0.17058 -0.13600
H 	H 	0.54700 0.76660 0.18150 0.09600
C 	C 	0.45831 0.81130 0.16133 -0.13600
H 	H 	0.42940 0.81160 0.16580 0.09600
C 	C 	0.61159 0.82691 0.11897 0.01000
H 	H 	0.60080 0.84740 0.10610 0.03700
C 	C 	0.54392 0.80740 0.14649 0.08200
C 	C 	0.44568 0.86110 0.11990 0.03200
C 	C 	0.48597 0.78610 0.17808 0.08400
C 	C 	0.51608 0.83314 0.13000 -0.13500
H 	H 	0.52620 0.84840 0.11370 0.09400
C 	C 	0.47371 0.83590 0.13796 0.08400
C 	C 	0.71631 0.90128 0.04094 0.34500
C 	C 	0.72078 0.87219 0.06748 -0.03400
C 	C 	0.76099 0.86468 0.07963 -0.01800
H 	H 	0.78520 0.87600 0.07060 0.07700
C 	C 	0.76455 0.84009 0.10537 -0.03100
O 	O 	0.67913 0.90739 0.03130 -0.40100
O 	O 	0.74958 0.91735 0.03087 -0.39900
C 	C 	0.80724 0.83413 0.12005 0.34200
O 	O 	0.83850 0.85132 0.10736 -0.37700
O 	O 	0.80829 0.81312 0.14343 -0.39100
N 	N 	0.45851 0.88560 0.09817 -0.07400
N 	N 	0.42396 0.90290 0.08436 -0.04100
N 	N 	0.61626 0.78100 0.15360 -0.07200
N 	N 	0.42970 0.76040 0.20979 -0.07200
N 	N 	0.65554 0.78830 0.14337 -0.03800
N 	N 	0.42383 0.73680 0.23467 -0.03800
O 	O 	0.70037 0.40950 0.60787 -0.38600
O 	O 	0.74162 0.37708 0.64185 -0.37000
C 	C 	0.73583 0.39843 0.61826 0.32700
C 	C 	0.77470 0.41244 0.60152 -0.02500
C 	C 	0.81426 0.39748 0.60978 -0.09000
H 	H 	0.81700 0.37860 0.62560 0.09100
C 	C 	0.85010 0.41113 0.59406 0.11500
N 	N 	0.89113 0.39503 0.60116 -0.09300
C 	C 	0.90271 0.36656 0.62206 0.01100
H 	H 	0.88470 0.35310 0.63550 0.04000
Cu	Cu	0.80592 0.14013 0.83238 0.93000
Cu	Cu	0.85409 0.10506 0.87392 0.93200
O 	O 	0.86049 0.15298 0.81323 -0.38400
O 	O 	0.83600 0.50593 0.53034 -0.39200
O 	O 	0.90137 0.12575 0.84937 -0.37700
O 	O 	0.05463 0.15032 0.84883 -0.38400
O 	O 	0.08303 0.19320 0.81449 -0.37500
O 	O 	0.76526 0.49666 0.53076 -0.39500
O 	O 	0.89247 0.07585 0.90783 -0.39800
H 	H 	0.88150 0.05330 0.91300 0.24900
O 	O 	0.76567 0.16734 0.79870 -0.40000
H 	H 	0.77500 0.19070 0.79380 0.24700
N 	N 	0.15255 0.31482 0.62117 -0.09400
C 	C 	0.77065 0.44140 0.57833 -0.02100
H 	H 	0.74390 0.45100 0.57260 0.07400
C 	C 	0.97446 0.15756 0.82353 -0.02100
H 	H 	0.97700 0.14220 0.84120 0.08000
C 	C 	0.93494 0.16232 0.81040 -0.02600
C 	C 	0.01057 0.17565 0.81044 -0.02900
C 	C 	0.05268 0.17285 0.82564 0.33500
C 	C 	0.80644 0.45586 0.56374 -0.03200
N 	N 	0.96126 0.22621 0.74402 -0.09300
C 	C 	0.84689 0.44085 0.57150 -0.08600
H 	H 	0.87100 0.45070 0.56170 0.09600
C 	C 	0.18492 0.35502 0.58073 -0.08600
H 	H 	0.15820 0.36000 0.57250 0.08500
C 	C 	0.93084 0.18450 0.78377 -0.08800
H 	H 	0.90440 0.18720 0.77470 0.09900
C 	C 	0.89573 0.14537 0.82558 0.33400
C 	C 	0.80239 0.48888 0.53975 0.33900
C 	C 	0.18888 0.33041 0.60628 0.11400
C 	C 	0.22854 0.32320 0.61875 -0.08500
H 	H 	0.23100 0.30710 0.63610 0.09700
C 	C 	0.00662 0.19799 0.78375 -0.08700
H 	H 	0.03050 0.20980 0.77460 0.09100
C 	C 	0.96657 0.20246 0.77092 0.11500
C 	C 	0.96958 0.26310 0.70340 0.03400
C 	C 	0.99015 0.24267 0.72557 0.01200
H 	H 	0.01950 0.24040 0.72760 0.03900
C 	C 	0.08888 0.30390 0.63887 0.03400
C 	C 	0.02866 0.28378 0.67058 -0.13600
H 	H 	0.04700 0.26660 0.68150 0.09700
C 	C 	0.95831 0.31130 0.66133 -0.13600
H 	H 	0.92940 0.31160 0.66580 0.09600
C 	C 	0.11159 0.32691 0.61897 0.01000
H 	H 	0.10080 0.34740 0.60610 0.03700
C 	C 	0.04392 0.30740 0.64649 0.08200
C 	C 	0.94568 0.36110 0.61990 0.03200
C 	C 	0.98597 0.28610 0.67808 0.08400
C 	C 	0.01608 0.33314 0.63000 -0.13500
H 	H 	0.02620 0.34840 0.61370 0.09400
C 	C 	0.97371 0.33590 0.63796 0.08400
C 	C 	0.21631 0.40128 0.54094 0.34500
C 	C 	0.22078 0.37219 0.56748 -0.03300
C 	C 	0.26099 0.36468 0.57963 -0.01800
H 	H 	0.28520 0.37600 0.57060 0.07700
C 	C 	0.26455 0.34009 0.60537 -0.03000
O 	O 	0.17913 0.40739 0.53130 -0.40000
O 	O 	0.24958 0.41735 0.53087 -0.39800
C 	C 	0.30724 0.33413 0.62005 0.34200
O 	O 	0.33850 0.35132 0.60736 -0.37700
O 	O 	0.30829 0.31312 0.64343 -0.39100
N 	N 	0.95851 0.38560 0.59817 -0.07400
N 	N 	0.92396 0.40290 0.58436 -0.04000
N 	N 	0.11626 0.28100 0.65360 -0.07200
N 	N 	0.92970 0.26040 0.70979 -0.07200
N 	N 	0.15554 0.28830 0.64337 -0.03800
N 	N 	0.92383 0.23680 0.73467 -0.03800
O 	O 	0.79963 0.09050 0.10787 -0.38600
O 	O 	0.75838 0.12292 0.14185 -0.37000
C 	C 	0.76417 0.10157 0.11826 0.32700
C 	C 	0.72530 0.08756 0.10152 -0.02600
C 	C 	0.68574 0.10252 0.10978 -0.09000
H 	H 	0.68300 0.12140 0.12560 0.09100
C 	C 	0.64990 0.08887 0.09406 0.11500
N 	N 	0.60887 0.10497 0.10116 -0.09300
C 	C 	0.59729 0.13344 0.12206 0.01100
H 	H 	0.61530 0.14690 0.13550 0.03900
Cu	Cu	0.69408 0.35987 0.33238 0.93000
Cu	Cu	0.64591 0.39494 0.37392 0.93200
O 	O 	0.63951 0.34702 0.31323 -0.38400
O 	O 	0.66400 0.99407 0.03034 -0.39300
O 	O 	0.59863 0.37425 0.34937 -0.37700
O 	O 	0.44537 0.34968 0.34883 -0.38400
O 	O 	0.41697 0.30680 0.31449 -0.37500
O 	O 	0.73474 0.00334 0.03076 -0.39600
O 	O 	0.60753 0.42415 0.40783 -0.39800
H 	H 	0.61850 0.44670 0.41300 0.24800
O 	O 	0.73433 0.33266 0.29870 -0.40000
H 	H 	0.72500 0.30930 0.29380 0.24700
N 	N 	0.34745 0.18518 0.12117 -0.09400
C 	C 	0.72935 0.05860 0.07833 -0.02000
H 	H 	0.75610 0.04900 0.07260 0.07400
C 	C 	0.52554 0.34244 0.32353 -0.02100
H 	H 	0.52300 0.35780 0.34120 0.08000
C 	C 	0.56506 0.33768 0.31040 -0.02600
C 	C 	0.48943 0.32435 0.31044 -0.02900
C 	C 	0.44732 0.32715 0.32564 0.33500
C 	C 	0.69356 0.04414 0.06374 -0.03300
N 	N 	0.53874 0.27379 0.24402 -0.09300
C 	C 	0.65311 0.05915 0.07150 -0.08600
H 	H 	0.62900 0.04930 0.06170 0.09600
C 	C 	0.31508 0.14498 0.08073 -0.08600
H 	H 	0.34180 0.14000 0.07250 0.08500
C 	C 	0.56916 0.31550 0.28377 -0.08800
H 	H 	0.59560 0.31280 0.27470 0.09900
C 	C 	0.60427 0.35463 0.32558 0.33400
C 	C 	0.69761 0.01112 0.03975 0.33900
C 	C 	0.31112 0.16959 0.10628 0.11400
C 	C 	0.27146 0.17680 0.11875 -0.08500
H 	H 	0.26900 0.19290 0.13610 0.09700
C 	C 	0.49338 0.30201 0.28375 -0.08700
H 	H 	0.46950 0.29020 0.27460 0.09100
C 	C 	0.53343 0.29754 0.27092 0.11500
C 	C 	0.53042 0.23690 0.20340 0.03400
C 	C 	0.50985 0.25733 0.22557 0.01200
H 	H 	0.48050 0.25960 0.22760 0.03900
C 	C 	0.41112 0.19610 0.13887 0.03400
C 	C 	0.47134 0.21622 0.17058 -0.13600
H 	H 	0.45300 0.23340 0.18150 0.09600
C 	C 	0.54169 0.18870 0.16133 -0.13600
H 	H 	0.57060 0.18840 0.16580 0.09600
C 	C 	0.38841 0.17309 0.11897 0.01000
H 	H 	0.39920 0.15260 0.10610 0.03700
C 	C 	0.45608 0.19260 0.14649 0.08200
C 	C 	0.55432 0.13890 0.11990 0.03200
C 	C 	0.51403 0.21390 0.17808 0.08400
C 	C 	0.48392 0.16686 0.13000 -0.13500
H 	H 	0.47380 0.15160 0.11370 0.09400
C 	C 	0.52629 0.16410 0.13796 0.08400
C 	C 	0.28369 0.09872 0.04094 0.34500
C 	C 	0.27922 0.12781 0.06748 -0.03400
C 	C 	0.23901 0.13532 0.07963 -0.01800
H 	H 	0.21480 0.12400 0.07060 0.07700
C 	C 	0.23545 0.15991 0.10537 -0.03100
O 	O 	0.32087 0.09261 0.03130 -0.40100
O 	O 	0.25042 0.08265 0.03087 -0.39900
C 	C 	0.19276 0.16587 0.12005 0.34200
O 	O 	0.16150 0.14868 0.10736 -0.37700
O 	O 	0.19171 0.18688 0.14343 -0.39100
N 	N 	0.54149 0.11440 0.09817 -0.07400
N 	N 	0.57604 0.09710 0.08436 -0.04100
N 	N 	0.38374 0.21900 0.15360 -0.07200
N 	N 	0.57030 0.23960 0.20979 -0.07200
N 	N 	0.34446 0.21170 0.14337 -0.03800
N 	N 	0.57617 0.26320 0.23467 -0.03800
O 	O 	0.29963 0.59050 0.60787 -0.38600
O 	O 	0.25838 0.62292 0.64185 -0.37000
C 	C 	0.26417 0.60157 0.61826 0.32700
C 	C 	0.22530 0.58756 0.60152 -0.02500
C 	C 	0.18574 0.60252 0.60978 -0.09000
H 	H 	0.18300 0.62140 0.62560 0.09100
C 	C 	0.14990 0.58887 0.59406 0.11500
N 	N 	0.10887 0.60497 0.60116 -0.09300
C 	C 	0.09729 0.63344 0.62206 0.01100
H 	H 	0.11530 0.64690 0.63550 0.04000
Cu	Cu	0.19408 0.85987 0.83238 0.93000
Cu	Cu	0.14591 0.89494 0.87392 0.93200
O 	O 	0.13951 0.84702 0.81323 -0.38400
O 	O 	0.16400 0.49407 0.53034 -0.39200
O 	O 	0.09863 0.87425 0.84937 -0.37700
O 	O 	0.94537 0.84968 0.84883 -0.38400
O 	O 	0.91697 0.80680 0.81449 -0.37500
O 	O 	0.23474 0.50334 0.53076 -0.39500
O 	O 	0.10753 0.92415 0.90783 -0.39800
H 	H 	0.11850 0.94670 0.91300 0.24900
O 	O 	0.23433 0.83266 0.79870 -0.40000
H 	H 	0.22500 0.80930 0.79380 0.24700
N 	N 	0.84745 0.68518 0.62117 -0.09400
C 	C 	0.22935 0.55860 0.57833 -0.02100
H 	H 	0.25610 0.54900 0.57260 0.07400
C 	C 	0.02554 0.84244 0.82353 -0.02100
H 	H 	0.02300 0.85780 0.84120 0.08000
C 	C 	0.06506 0.83768 0.81040 -0.02600
C 	C 	0.98943 0.82435 0.81044 -0.02900
C 	C 	0.94732 0.82715 0.82564 0.33500
C 	C 	0.19356 0.54414 0.56374 -0.03200
N 	N 	0.03874 0.77379 0.74402 -0.09300
C 	C 	0.15311 0.55915 0.57150 -0.08600
H 	H 	0.12900 0.54930 0.56170 0.09600
C 	C 	0.81508 0.64498 0.58073 -0.08600
H 	H 	0.84180 0.64000 0.57250 0.08500
C 	C 	0.06916 0.81550 0.78377 -0.08800
H 	H 	0.09560 0.81280 0.77470 0.09900
C 	C 	0.10427 0.85463 0.82558 0.33400
C 	C 	0.19761 0.51112 0.53975 0.33900
C 	C 	0.81112 0.66959 0.60628 0.11400
C 	C 	0.77146 0.67680 0.61875 -0.08500
H 	H 	0.76900 0.69290 0.63610 0.09700
C 	C 	0.99338 0.80201 0.78375 -0.08700
H 	H 	0.96950 0.79020 0.77460 0.09100
C 	C 	0.03343 0.79754 0.77092 0.11500
C 	C 	0.03042 0.73690 0.70340 0.03400
C 	C 	0.00985 0.75733 0.72557 0.01200
H 	H 	0.98050 0.75960 0.72760 0.03900
C 	C 	0.91112 0.69610 0.63887 0.03400
C 	C 	0.97134 0.71622 0.67058 -0.13600
H 	H 	0.95300 0.73340 0.68150 0.09700
C 	C 	0.04169 0.68870 0.66133 -0.13600
H 	H 	0.07060 0.68840 0.66580 0.09600
C 	C 	0.88841 0.67309 0.61897 0.01000
H 	H 	0.89920 0.65260 0.60610 0.03700
C 	C 	0.95608 0.69260 0.64649 0.08200
C 	C 	0.05432 0.63890 0.61990 0.03200
C 	C 	0.01403 0.71390 0.67808 0.08400
C 	C 	0.98392 0.66686 0.63000 -0.13500
H 	H 	0.97380 0.65160 0.61370 0.09400
C 	C 	0.02629 0.66410 0.63796 0.08400
C 	C 	0.78369 0.59872 0.54094 0.34500
C 	C 	0.77922 0.62781 0.56748 -0.03300
C 	C 	0.73901 0.63532 0.57963 -0.01800
H 	H 	0.71480 0.62400 0.57060 0.07700
C 	C 	0.73545 0.65991 0.60537 -0.03000
O 	O 	0.82087 0.59261 0.53130 -0.40000
O 	O 	0.75042 0.58265 0.53087 -0.39800
C 	C 	0.69276 0.66587 0.62005 0.34200
O 	O 	0.66150 0.64868 0.60736 -0.37700
O 	O 	0.69171 0.68688 0.64343 -0.39100
N 	N 	0.04149 0.61440 0.59817 -0.07400
N 	N 	0.07604 0.59710 0.58436 -0.04000
N 	N 	0.88374 0.71900 0.65360 -0.07200
N 	N 	0.07030 0.73960 0.70979 -0.07200
N 	N 	0.84446 0.71170 0.64337 -0.03800
N 	N 	0.07617 0.76320 0.73467 -0.03800
O 	O 	0.09050 0.20037 0.89213 -0.38500
O 	O 	0.12292 0.24162 0.85815 -0.37000
C 	C 	0.10157 0.23583 0.88174 0.32600
C 	C 	0.08756 0.27470 0.89848 -0.02500
C 	C 	0.10252 0.31426 0.89022 -0.09000
H 	H 	0.12140 0.31700 0.87440 0.09200
C 	C 	0.08887 0.35010 0.90594 0.11500
N 	N 	0.10497 0.39113 0.89884 -0.09300
C 	C 	0.13344 0.40271 0.87794 0.01100
H 	H 	0.14690 0.38470 0.86450 0.04000
Cu	Cu	0.35987 0.30592 0.66762 0.93000
Cu	Cu	0.39494 0.35409 0.62608 0.93200
O 	O 	0.34702 0.36049 0.68677 -0.38400
O 	O 	0.99407 0.33600 0.96966 -0.39000
O 	O 	0.37425 0.40137 0.65063 -0.37700
O 	O 	0.34968 0.55463 0.65117 -0.38400
O 	O 	0.30680 0.58303 0.68551 -0.37500
O 	O 	0.00334 0.26526 0.96924 -0.39300
O 	O 	0.42415 0.39247 0.59217 -0.39800
H 	H 	0.44670 0.38150 0.58700 0.24800
O 	O 	0.33266 0.26567 0.70130 -0.40000
H 	H 	0.30930 0.27500 0.70620 0.24700
N 	N 	0.18518 0.65255 0.87883 -0.09400
C 	C 	0.05860 0.27065 0.92167 -0.02100
H 	H 	0.04900 0.24390 0.92740 0.07500
C 	C 	0.34244 0.47446 0.67647 -0.02100
H 	H 	0.35780 0.47700 0.65880 0.08000
C 	C 	0.33768 0.43494 0.68960 -0.02600
C 	C 	0.32435 0.51057 0.68956 -0.02900
C 	C 	0.32715 0.55268 0.67436 0.33500
C 	C 	0.04414 0.30644 0.93626 -0.03100
N 	N 	0.27379 0.46126 0.75598 -0.09300
C 	C 	0.05915 0.34689 0.92850 -0.08600
H 	H 	0.04930 0.37100 0.93830 0.09700
C 	C 	0.14498 0.68492 0.91927 -0.08700
H 	H 	0.14000 0.65820 0.92750 0.08500
C 	C 	0.31550 0.43084 0.71623 -0.08800
H 	H 	0.31280 0.40440 0.72530 0.09900
C 	C 	0.35463 0.39573 0.67442 0.33400
C 	C 	0.01112 0.30239 0.96025 0.33900
C 	C 	0.16959 0.68888 0.89372 0.11400
C 	C 	0.17680 0.72854 0.88125 -0.08600
H 	H 	0.19290 0.73100 0.86390 0.09800
C 	C 	0.30201 0.50662 0.71625 -0.08700
H 	H 	0.29020 0.53050 0.72540 0.09100
C 	C 	0.29754 0.46657 0.72908 0.11500
C 	C 	0.23690 0.46958 0.79660 0.03400
C 	C 	0.25733 0.49015 0.77443 0.01200
H 	H 	0.25960 0.51950 0.77240 0.03900
C 	C 	0.19610 0.58888 0.86113 0.03400
C 	C 	0.21622 0.52866 0.82942 -0.13600
H 	H 	0.23340 0.54700 0.81850 0.09700
C 	C 	0.18870 0.45831 0.83867 -0.13600
H 	H 	0.18840 0.42940 0.83420 0.09600
C 	C 	0.17309 0.61159 0.88103 0.01000
H 	H 	0.15260 0.60080 0.89390 0.03700
C 	C 	0.19260 0.54392 0.85351 0.08200
C 	C 	0.13890 0.44568 0.88010 0.03300
C 	C 	0.21390 0.48597 0.82192 0.08400
C 	C 	0.16686 0.51608 0.87000 -0.13500
H 	H 	0.15160 0.52620 0.88630 0.09400
C 	C 	0.16410 0.47371 0.86204 0.08400
C 	C 	0.09872 0.71631 0.95906 0.34500
C 	C 	0.12781 0.72078 0.93252 -0.03300
C 	C 	0.13532 0.76099 0.92037 -0.01800
H 	H 	0.12400 0.78520 0.92940 0.07800
C 	C 	0.15991 0.76455 0.89463 -0.03000
O 	O 	0.09261 0.67913 0.96870 -0.39800
O 	O 	0.08265 0.74958 0.96913 -0.39600
C 	C 	0.16587 0.80724 0.87995 0.34200
O 	O 	0.14868 0.83850 0.89264 -0.37600
O 	O 	0.18688 0.80829 0.85657 -0.39100
N 	N 	0.11440 0.45851 0.90183 -0.07400
N 	N 	0.09710 0.42396 0.91564 -0.04000
N 	N 	0.21900 0.61626 0.84640 -0.07200
N 	N 	0.23960 0.42970 0.79021 -0.07200
N 	N 	0.21170 0.65554 0.85663 -0.03800
N 	N 	0.26320 0.42383 0.76533 -0.03800
O 	O 	0.59050 0.70037 0.39213 -0.38600
O 	O 	0.62292 0.74162 0.35815 -0.37000
C 	C 	0.60157 0.73583 0.38174 0.32700
C 	C 	0.58756 0.77470 0.39848 -0.02500
C 	C 	0.60252 0.81426 0.39022 -0.09000
H 	H 	0.62140 0.81700 0.37440 0.09100
C 	C 	0.58887 0.85010 0.40594 0.11500
N 	N 	0.60497 0.89113 0.39884 -0.09300
C 	C 	0.63344 0.90271 0.37794 0.01100
H 	H 	0.64690 0.88470 0.36450 0.04000
Cu	Cu	0.85987 0.80592 0.16762 0.93000
Cu	Cu	0.89494 0.85409 0.12608 0.93200
O 	O 	0.84702 0.86049 0.18677 -0.38400
O 	O 	0.49407 0.83600 0.46966 -0.39200
O 	O 	0.87425 0.90137 0.15063 -0.37700
O 	O 	0.84968 0.05463 0.15117 -0.38400
O 	O 	0.80680 0.08303 0.18551 -0.37500
O 	O 	0.50334 0.76526 0.46924 -0.39500
O 	O 	0.92415 0.89247 0.09217 -0.39800
H 	H 	0.94670 0.88150 0.08700 0.24800
O 	O 	0.83266 0.76567 0.20130 -0.40000
H 	H 	0.80930 0.77500 0.20620 0.24700
N 	N 	0.68518 0.15255 0.37883 -0.09400
C 	C 	0.55860 0.77065 0.42167 -0.02100
H 	H 	0.54900 0.74390 0.42740 0.07400
C 	C 	0.84244 0.97446 0.17647 -0.02100
H 	H 	0.85780 0.97700 0.15880 0.08000
C 	C 	0.83768 0.93494 0.18960 -0.02600
C 	C 	0.82435 0.01057 0.18956 -0.02900
C 	C 	0.82715 0.05268 0.17436 0.33500
C 	C 	0.54414 0.80644 0.43626 -0.03200
N 	N 	0.77379 0.96126 0.25598 -0.09300
C 	C 	0.55915 0.84689 0.42850 -0.08600
H 	H 	0.54930 0.87100 0.43830 0.09600
C 	C 	0.64498 0.18492 0.41927 -0.08600
H 	H 	0.64000 0.15820 0.42750 0.08500
C 	C 	0.81550 0.93084 0.21623 -0.08800
H 	H 	0.81280 0.90440 0.22530 0.09900
C 	C 	0.85463 0.89573 0.17442 0.33400
C 	C 	0.51112 0.80239 0.46025 0.33900
C 	C 	0.66959 0.18888 0.39372 0.11400
C 	C 	0.67680 0.22854 0.38125 -0.08500
H 	H 	0.69290 0.23100 0.36390 0.09700
C 	C 	0.80201 0.00662 0.21625 -0.08700
H 	H 	0.79020 0.03050 0.22540 0.09100
C 	C 	0.79754 0.96657 0.22908 0.11500
C 	C 	0.73690 0.96958 0.29660 0.03400
C 	C 	0.75733 0.99015 0.27443 0.01200
H 	H 	0.75960 0.01950 0.27240 0.03900
C 	C 	0.69610 0.08888 0.36113 0.03400
C 	C 	0.71622 0.02866 0.32942 -0.13600
H 	H 	0.73340 0.04700 0.31850 0.09700
C 	C 	0.68870 0.95831 0.33867 -0.13600
H 	H 	0.68840 0.92940 0.33420 0.09600
C 	C 	0.67309 0.11159 0.38103 0.01000
H 	H 	0.65260 0.10080 0.39390 0.03700
C 	C 	0.69260 0.04392 0.35351 0.08200
C 	C 	0.63890 0.94568 0.38010 0.03200
C 	C 	0.71390 0.98597 0.32192 0.08400
C 	C 	0.66686 0.01608 0.37000 -0.13500
H 	H 	0.65160 0.02620 0.38630 0.09400
C 	C 	0.66410 0.97371 0.36204 0.08400
C 	C 	0.59872 0.21631 0.45906 0.34500
C 	C 	0.62781 0.22078 0.43252 -0.03300
C 	C 	0.63532 0.26099 0.42037 -0.01800
H 	H 	0.62400 0.28520 0.42940 0.07700
C 	C 	0.65991 0.26455 0.39463 -0.03000
O 	O 	0.59261 0.17913 0.46870 -0.40000
O 	O 	0.58265 0.24958 0.46913 -0.39800
C 	C 	0.66587 0.30724 0.37995 0.34200
O 	O 	0.64868 0.33850 0.39264 -0.37700
O 	O 	0.68688 0.30829 0.35657 -0.39100
N 	N 	0.61440 0.95851 0.40183 -0.07400
N 	N 	0.59710 0.92396 0.41564 -0.04000
N 	N 	0.71900 0.11626 0.34640 -0.07200
N 	N 	0.73960 0.92970 0.29021 -0.07200
N 	N 	0.71170 0.15554 0.35663 -0.03800
N 	N 	0.76320 0.92383 0.26533 -0.03800
O 	O 	0.90950 0.79963 0.89213 -0.38500
O 	O 	0.87708 0.75838 0.85815 -0.37000
C 	C 	0.89843 0.76417 0.88174 0.32600
C 	C 	0.91244 0.72530 0.89848 -0.02500
C 	C 	0.89748 0.68574 0.89022 -0.09000
H 	H 	0.87860 0.68300 0.87440 0.09200
C 	C 	0.91113 0.64990 0.90594 0.11500
N 	N 	0.89503 0.60887 0.89884 -0.09300
C 	C 	0.86656 0.59729 0.87794 0.01100
H 	H 	0.85310 0.61530 0.86450 0.04000
Cu	Cu	0.64013 0.69408 0.66762 0.93000
Cu	Cu	0.60506 0.64591 0.62608 0.93200
O 	O 	0.65298 0.63951 0.68677 -0.38400
O 	O 	0.00593 0.66400 0.96966 -0.39000
O 	O 	0.62575 0.59863 0.65063 -0.37700
O 	O 	0.65032 0.44537 0.65117 -0.38400
O 	O 	0.69320 0.41697 0.68551 -0.37500
O 	O 	0.99666 0.73474 0.96924 -0.39300
O 	O 	0.57585 0.60753 0.59217 -0.39800
H 	H 	0.55330 0.61850 0.58700 0.24800
O 	O 	0.66734 0.73433 0.70130 -0.40000
H 	H 	0.69070 0.72500 0.70620 0.24700
N 	N 	0.81482 0.34745 0.87883 -0.09400
C 	C 	0.94140 0.72935 0.92167 -0.02100
H 	H 	0.95100 0.75610 0.92740 0.07500
C 	C 	0.65756 0.52554 0.67647 -0.02100
H 	H 	0.64220 0.52300 0.65880 0.08000
C 	C 	0.66232 0.56506 0.68960 -0.02600
C 	C 	0.67565 0.48943 0.68956 -0.02900
C 	C 	0.67285 0.44732 0.67436 0.33500
C 	C 	0.95586 0.69356 0.93626 -0.03100
N 	N 	0.72621 0.53874 0.75598 -0.09300
C 	C 	0.94085 0.65311 0.92850 -0.08600
H 	H 	0.95070 0.62900 0.93830 0.09700
C 	C 	0.85502 0.31508 0.91927 -0.08700
H 	H 	0.86000 0.34180 0.92750 0.08500
C 	C 	0.68450 0.56916 0.71623 -0.08800
H 	H 	0.68720 0.59560 0.72530 0.09900
C 	C 	0.64537 0.60427 0.67442 0.33400
C 	C 	0.98888 0.69761 0.96025 0.33900
C 	C 	0.83041 0.31112 0.89372 0.11400
C 	C 	0.82320 0.27146 0.88125 -0.08600
H 	H 	0.80710 0.26900 0.86390 0.09800
C 	C 	0.69799 0.49338 0.71625 -0.08700
H 	H 	0.70980 0.46950 0.72540 0.09100
C 	C 	0.70246 0.53343 0.72908 0.11500
C 	C 	0.76310 0.53042 0.79660 0.03400
C 	C 	0.74267 0.50985 0.77443 0.01200
H 	H 	0.74040 0.48050 0.77240 0.03900
C 	C 	0.80390 0.41112 0.86113 0.03400
C 	C 	0.78378 0.47134 0.82942 -0.13600
H 	H 	0.76660 0.45300 0.81850 0.09700
C 	C 	0.81130 0.54169 0.83867 -0.13600
H 	H 	0.81160 0.57060 0.83420 0.09600
C 	C 	0.82691 0.38841 0.88103 0.01000
H 	H 	0.84740 0.39920 0.89390 0.03700
C 	C 	0.80740 0.45608 0.85351 0.08200
C 	C 	0.86110 0.55432 0.88010 0.03300
C 	C 	0.78610 0.51403 0.82192 0.08400
C 	C 	0.83314 0.48392 0.87000 -0.13500
H 	H 	0.84840 0.47380 0.88630 0.09400
C 	C 	0.83590 0.52629 0.86204 0.08400
C 	C 	0.90128 0.28369 0.95906 0.34500
C 	C 	0.87219 0.27922 0.93252 -0.03300
C 	C 	0.86468 0.23901 0.92037 -0.01800
H 	H 	0.87600 0.21480 0.92940 0.07800
C 	C 	0.84009 0.23545 0.89463 -0.03000
O 	O 	0.90739 0.32087 0.96870 -0.39800
O 	O 	0.91735 0.25042 0.96913 -0.39600
C 	C 	0.83413 0.19276 0.87995 0.34200
O 	O 	0.85132 0.16150 0.89264 -0.37600
O 	O 	0.81312 0.19171 0.85657 -0.39100
N 	N 	0.88560 0.54149 0.90183 -0.07400
N 	N 	0.90290 0.57604 0.91564 -0.04000
N 	N 	0.78100 0.38374 0.84640 -0.07200
N 	N 	0.76040 0.57030 0.79021 -0.07200
N 	N 	0.78830 0.34446 0.85663 -0.03800
N 	N 	0.73680 0.57617 0.76533 -0.03800
O 	O 	0.40950 0.29963 0.39213 -0.38600
O 	O 	0.37708 0.25838 0.35815 -0.37000
C 	C 	0.39843 0.26417 0.38174 0.32700
C 	C 	0.41244 0.22530 0.39848 -0.02500
C 	C 	0.39748 0.18574 0.39022 -0.09000
H 	H 	0.37860 0.18300 0.37440 0.09100
C 	C 	0.41113 0.14990 0.40594 0.11500
N 	N 	0.39503 0.10887 0.39884 -0.09300
C 	C 	0.36656 0.09729 0.37794 0.01100
H 	H 	0.35310 0.11530 0.36450 0.04000
Cu	Cu	0.14013 0.19408 0.16762 0.93000
Cu	Cu	0.10506 0.14591 0.12608 0.93200
O 	O 	0.15298 0.13951 0.18677 -0.38400
O 	O 	0.50593 0.16400 0.46966 -0.39200
O 	O 	0.12575 0.09863 0.15063 -0.37700
O 	O 	0.15032 0.94537 0.15117 -0.38400
O 	O 	0.19320 0.91697 0.18551 -0.37500
O 	O 	0.49666 0.23474 0.46924 -0.39500
O 	O 	0.07585 0.10753 0.09217 -0.39800
H 	H 	0.05330 0.11850 0.08700 0.24800
O 	O 	0.16734 0.23433 0.20130 -0.40000
H 	H 	0.19070 0.22500 0.20620 0.24700
N 	N 	0.31482 0.84745 0.37883 -0.09400
C 	C 	0.44140 0.22935 0.42167 -0.02100
H 	H 	0.45100 0.25610 0.42740 0.07400
C 	C 	0.15756 0.02554 0.17647 -0.02100
H 	H 	0.14220 0.02300 0.15880 0.08000
C 	C 	0.16232 0.06506 0.18960 -0.02600
C 	C 	0.17565 0.98943 0.18956 -0.02900
C 	C 	0.17285 0.94732 0.17436 0.33500
C 	C 	0.45586 0.19356 0.43626 -0.03200
N 	N 	0.22621 0.03874 0.25598 -0.09300
C 	C 	0.44085 0.15311 0.42850 -0.08600
H 	H 	0.45070 0.12900 0.43830 0.09600
C 	C 	0.35502 0.81508 0.41927 -0.08600
H 	H 	0.36000 0.84180 0.42750 0.08500
C 	C 	0.18450 0.06916 0.21623 -0.08800
H 	H 	0.18720 0.09560 0.22530 0.09900
C 	C 	0.14537 0.10427 0.17442 0.33400
C 	C 	0.48888 0.19761 0.46025 0.33900
C 	C 	0.33041 0.81112 0.39372 0.11400
C 	C 	0.32320 0.77146 0.38125 -0.08500
H 	H 	0.30710 0.76900 0.36390 0.09700
C 	C 	0.19799 0.99338 0.21625 -0.08700
H 	H 	0.20980 0.96950 0.22540 0.09100
C 	C 	0.20246 0.03343 0.22908 0.11500
C 	C 	0.26310 0.03042 0.29660 0.03400
C 	C 	0.24267 0.00985 0.27443 0.01200
H 	H 	0.24040 0.98050 0.27240 0.03900
C 	C 	0.30390 0.91112 0.36113 0.03400
C 	C 	0.28378 0.97134 0.32942 -0.13600
H 	H 	0.26660 0.95300 0.31850 0.09700
C 	C 	0.31130 0.04169 0.33867 -0.13600
H 	H 	0.31160 0.07060 0.33420 0.09600
C 	C 	0.32691 0.88841 0.38103 0.01000
H 	H 	0.34740 0.89920 0.39390 0.03700
C 	C 	0.30740 0.95608 0.35351 0.08200
C 	C 	0.36110 0.05432 0.38010 0.03200
C 	C 	0.28610 0.01403 0.32192 0.08400
C 	C 	0.33314 0.98392 0.37000 -0.13500
H 	H 	0.34840 0.97380 0.38630 0.09400
C 	C 	0.33590 0.02629 0.36204 0.08400
C 	C 	0.40128 0.78369 0.45906 0.34500
C 	C 	0.37219 0.77922 0.43252 -0.03300
C 	C 	0.36468 0.73901 0.42037 -0.01800
H 	H 	0.37600 0.71480 0.42940 0.07700
C 	C 	0.34009 0.73545 0.39463 -0.03000
O 	O 	0.40739 0.82087 0.46870 -0.40000
O 	O 	0.41735 0.75042 0.46913 -0.39800
C 	C 	0.33413 0.69276 0.37995 0.34200
O 	O 	0.35132 0.66150 0.39264 -0.37700
O 	O 	0.31312 0.69171 0.35657 -0.39100
N 	N 	0.38560 0.04149 0.40183 -0.07400
N 	N 	0.40290 0.07604 0.41564 -0.04000
N 	N 	0.28100 0.88374 0.34640 -0.07200
N 	N 	0.26040 0.07030 0.29021 -0.07200
N 	N 	0.28830 0.84446 0.35663 -0.03800
N 	N 	0.23680 0.07617 0.26533 -0.03800
O 	O 	0.79963 0.09050 0.89213 -0.38500
O 	O 	0.75838 0.12292 0.85815 -0.37000
C 	C 	0.76417 0.10157 0.88174 0.32600
C 	C 	0.72530 0.08756 0.89848 -0.02500
C 	C 	0.68574 0.10252 0.89022 -0.09000
H 	H 	0.68300 0.12140 0.87440 0.09200
C 	C 	0.64990 0.08887 0.90594 0.11500
N 	N 	0.60887 0.10497 0.89884 -0.09300
C 	C 	0.59729 0.13344 0.87794 0.01100
H 	H 	0.61530 0.14690 0.86450 0.04000
Cu	Cu	0.69408 0.35987 0.66762 0.93000
Cu	Cu	0.64591 0.39494 0.62608 0.93200
O 	O 	0.63951 0.34702 0.68677 -0.38400
O 	O 	0.66400 0.99407 0.96966 -0.39000
O 	O 	0.59863 0.37425 0.65063 -0.37700
O 	O 	0.44537 0.34968 0.65117 -0.38400
O 	O 	0.41697 0.30680 0.68551 -0.37500
O 	O 	0.73474 0.00334 0.96924 -0.39300
O 	O 	0.60753 0.42415 0.59217 -0.39800
H 	H 	0.61850 0.44670 0.58700 0.24800
O 	O 	0.73433 0.33266 0.70130 -0.40000
H 	H 	0.72500 0.30930 0.70620 0.24700
N 	N 	0.34745 0.18518 0.87883 -0.09400
C 	C 	0.72935 0.05860 0.92167 -0.02100
H 	H 	0.75610 0.04900 0.92740 0.07500
C 	C 	0.52554 0.34244 0.67647 -0.02100
H 	H 	0.52300 0.35780 0.65880 0.08000
C 	C 	0.56506 0.33768 0.68960 -0.02600
C 	C 	0.48943 0.32435 0.68956 -0.02900
C 	C 	0.44732 0.32715 0.67436 0.33500
C 	C 	0.69356 0.04414 0.93626 -0.03100
N 	N 	0.53874 0.27379 0.75598 -0.09300
C 	C 	0.65311 0.05915 0.92850 -0.08600
H 	H 	0.62900 0.04930 0.93830 0.09700
C 	C 	0.31508 0.14498 0.91927 -0.08700
H 	H 	0.34180 0.14000 0.92750 0.08500
C 	C 	0.56916 0.31550 0.71623 -0.08800
H 	H 	0.59560 0.31280 0.72530 0.09900
C 	C 	0.60427 0.35463 0.67442 0.33400
C 	C 	0.69761 0.01112 0.96025 0.33900
C 	C 	0.31112 0.16959 0.89372 0.11400
C 	C 	0.27146 0.17680 0.88125 -0.08600
H 	H 	0.26900 0.19290 0.86390 0.09800
C 	C 	0.49338 0.30201 0.71625 -0.08700
H 	H 	0.46950 0.29020 0.72540 0.09100
C 	C 	0.53343 0.29754 0.72908 0.11500
C 	C 	0.53042 0.23690 0.79660 0.03400
C 	C 	0.50985 0.25733 0.77443 0.01200
H 	H 	0.48050 0.25960 0.77240 0.03900
C 	C 	0.41112 0.19610 0.86113 0.03400
C 	C 	0.47134 0.21622 0.82942 -0.13600
H 	H 	0.45300 0.23340 0.81850 0.09700
C 	C 	0.54169 0.18870 0.83867 -0.13600
H 	H 	0.57060 0.18840 0.83420 0.09600
C 	C 	0.38841 0.17309 0.88103 0.01000
H 	H 	0.39920 0.15260 0.89390 0.03700
C 	C 	0.45608 0.19260 0.85351 0.08200
C 	C 	0.55432 0.13890 0.88010 0.03300
C 	C 	0.51403 0.21390 0.82192 0.08400
C 	C 	0.48392 0.16686 0.87000 -0.13500
H 	H 	0.47380 0.15160 0.88630 0.09400
C 	C 	0.52629 0.16410 0.86204 0.08400
C 	C 	0.28369 0.09872 0.95906 0.34500
C 	C 	0.27922 0.12781 0.93252 -0.03300
C 	C 	0.23901 0.13532 0.92037 -0.01800
H 	H 	0.21480 0.12400 0.92940 0.07800
C 	C 	0.23545 0.15991 0.89463 -0.03000
O 	O 	0.32087 0.09261 0.96870 -0.39800
O 	O 	0.25042 0.08265 0.96913 -0.39600
C 	C 	0.19276 0.16587 0.87995 0.34200
O 	O 	0.16150 0.14868 0.89264 -0.37600
O 	O 	0.19171 0.18688 0.85657 -0.39100
N 	N 	0.54149 0.11440 0.90183 -0.07400
N 	N 	0.57604 0.09710 0.91564 -0.04000
N 	N 	0.38374 0.21900 0.84640 -0.07200
N 	N 	0.57030 0.23960 0.79021 -0.07200
N 	N 	0.34446 0.21170 0.85663 -0.03800
N 	N 	0.57617 0.26320 0.76533 -0.03800
O 	O 	0.29963 0.59050 0.39213 -0.38600
O 	O 	0.25838 0.62292 0.35815 -0.37000
C 	C 	0.26417 0.60157 0.38174 0.32700
C 	C 	0.22530 0.58756 0.39848 -0.02500
C 	C 	0.18574 0.60252 0.39022 -0.09000
H 	H 	0.18300 0.62140 0.37440 0.09100
C 	C 	0.14990 0.58887 0.40594 0.11500
N 	N 	0.10887 0.60497 0.39884 -0.09300
C 	C 	0.09729 0.63344 0.37794 0.01100
H 	H 	0.11530 0.64690 0.36450 0.04000
Cu	Cu	0.19408 0.85987 0.16762 0.93000
Cu	Cu	0.14591 0.89494 0.12608 0.93200
O 	O 	0.13951 0.84702 0.18677 -0.38400
O 	O 	0.16400 0.49407 0.46966 -0.39200
O 	O 	0.09863 0.87425 0.15063 -0.37700
O 	O 	0.94537 0.84968 0.15117 -0.38400
O 	O 	0.91697 0.80680 0.18551 -0.37500
O 	O 	0.23474 0.50334 0.46924 -0.39500
O 	O 	0.10753 0.92415 0.09217 -0.39800
H 	H 	0.11850 0.94670 0.08700 0.24800
O 	O 	0.23433 0.83266 0.20130 -0.40000
H 	H 	0.22500 0.80930 0.20620 0.24700
N 	N 	0.84745 0.68518 0.37883 -0.09400
C 	C 	0.22935 0.55860 0.42167 -0.02100
H 	H 	0.25610 0.54900 0.42740 0.07400
C 	C 	0.02554 0.84244 0.17647 -0.02100
H 	H 	0.02300 0.85780 0.15880 0.08000
C 	C 	0.06506 0.83768 0.18960 -0.02600
C 	C 	0.98943 0.82435 0.18956 -0.02900
C 	C 	0.94732 0.82715 0.17436 0.33500
C 	C 	0.19356 0.54414 0.43626 -0.03200
N 	N 	0.03874 0.77379 0.25598 -0.09300
C 	C 	0.15311 0.55915 0.42850 -0.08600
H 	H 	0.12900 0.54930 0.43830 0.09600
C 	C 	0.81508 0.64498 0.41927 -0.08600
H 	H 	0.84180 0.64000 0.42750 0.08500
C 	C 	0.06916 0.81550 0.21623 -0.08800
H 	H 	0.09560 0.81280 0.22530 0.09900
C 	C 	0.10427 0.85463 0.17442 0.33400
C 	C 	0.19761 0.51112 0.46025 0.33900
C 	C 	0.81112 0.66959 0.39372 0.11400
C 	C 	0.77146 0.67680 0.38125 -0.08500
H 	H 	0.76900 0.69290 0.36390 0.09700
C 	C 	0.99338 0.80201 0.21625 -0.08700
H 	H 	0.96950 0.79020 0.22540 0.09100
C 	C 	0.03343 0.79754 0.22908 0.11500
C 	C 	0.03042 0.73690 0.29660 0.03400
C 	C 	0.00985 0.75733 0.27443 0.01200
H 	H 	0.98050 0.75960 0.27240 0.03900
C 	C 	0.91112 0.69610 0.36113 0.03400
C 	C 	0.97134 0.71622 0.32942 -0.13600
H 	H 	0.95300 0.73340 0.31850 0.09700
C 	C 	0.04169 0.68870 0.33867 -0.13600
H 	H 	0.07060 0.68840 0.33420 0.09600
C 	C 	0.88841 0.67309 0.38103 0.01000
H 	H 	0.89920 0.65260 0.39390 0.03700
C 	C 	0.95608 0.69260 0.35351 0.08200
C 	C 	0.05432 0.63890 0.38010 0.03200
C 	C 	0.01403 0.71390 0.32192 0.08400
C 	C 	0.98392 0.66686 0.37000 -0.13500
H 	H 	0.97380 0.65160 0.38630 0.09400
C 	C 	0.02629 0.66410 0.36204 0.08400
C 	C 	0.78369 0.59872 0.45906 0.34500
C 	C 	0.77922 0.62781 0.43252 -0.03300
C 	C 	0.73901 0.63532 0.42037 -0.01800
H 	H 	0.71480 0.62400 0.42940 0.07700
C 	C 	0.73545 0.65991 0.39463 -0.03000
O 	O 	0.82087 0.59261 0.46870 -0.40000
O 	O 	0.75042 0.58265 0.46913 -0.39800
C 	C 	0.69276 0.66587 0.37995 0.34200
O 	O 	0.66150 0.64868 0.39264 -0.37700
O 	O 	0.69171 0.68688 0.35657 -0.39100
N 	N 	0.04149 0.61440 0.40183 -0.07400
N 	N 	0.07604 0.59710 0.41564 -0.04000
N 	N 	0.88374 0.71900 0.34640 -0.07200
N 	N 	0.07030 0.73960 0.29021 -0.07200
N 	N 	0.84446 0.71170 0.35663 -0.03800
N 	N 	0.07617 0.76320 0.26533 -0.03800
O 	O 	0.20037 0.90950 0.89213 -0.38500
O 	O 	0.24162 0.87708 0.85815 -0.37000
C 	C 	0.23583 0.89843 0.88174 0.32600
C 	C 	0.27470 0.91244 0.89848 -0.02500
C 	C 	0.31426 0.89748 0.89022 -0.09000
H 	H 	0.31700 0.87860 0.87440 0.09200
C 	C 	0.35010 0.91113 0.90594 0.11500
N 	N 	0.39113 0.89503 0.89884 -0.09300
C 	C 	0.40271 0.86656 0.87794 0.01100
H 	H 	0.38470 0.85310 0.86450 0.04000
Cu	Cu	0.30592 0.64013 0.66762 0.93000
Cu	Cu	0.35409 0.60506 0.62608 0.93200
O 	O 	0.36049 0.65298 0.68677 -0.38400
O 	O 	0.33600 0.00593 0.96966 -0.39000
O 	O 	0.40137 0.62575 0.65063 -0.37700
O 	O 	0.55463 0.65032 0.65117 -0.38400
O 	O 	0.58303 0.69320 0.68551 -0.37500
O 	O 	0.26526 0.99666 0.96924 -0.39300
O 	O 	0.39247 0.57585 0.59217 -0.39800
H 	H 	0.38150 0.55330 0.58700 0.24800
O 	O 	0.26567 0.66734 0.70130 -0.40000
H 	H 	0.27500 0.69070 0.70620 0.24700
N 	N 	0.65255 0.81482 0.87883 -0.09400
C 	C 	0.27065 0.94140 0.92167 -0.02100
H 	H 	0.24390 0.95100 0.92740 0.07500
C 	C 	0.47446 0.65756 0.67647 -0.02100
H 	H 	0.47700 0.64220 0.65880 0.08000
C 	C 	0.43494 0.66232 0.68960 -0.02600
C 	C 	0.51057 0.67565 0.68956 -0.02900
C 	C 	0.55268 0.67285 0.67436 0.33500
C 	C 	0.30644 0.95586 0.93626 -0.03100
N 	N 	0.46126 0.72621 0.75598 -0.09300
C 	C 	0.34689 0.94085 0.92850 -0.08600
H 	H 	0.37100 0.95070 0.93830 0.09700
C 	C 	0.68492 0.85502 0.91927 -0.08700
H 	H 	0.65820 0.86000 0.92750 0.08500
C 	C 	0.43084 0.68450 0.71623 -0.08800
H 	H 	0.40440 0.68720 0.72530 0.09900
C 	C 	0.39573 0.64537 0.67442 0.33400
C 	C 	0.30239 0.98888 0.96025 0.33900
C 	C 	0.68888 0.83041 0.89372 0.11400
C 	C 	0.72854 0.82320 0.88125 -0.08600
H 	H 	0.73100 0.80710 0.86390 0.09800
C 	C 	0.50662 0.69799 0.71625 -0.08700
H 	H 	0.53050 0.70980 0.72540 0.09100
C 	C 	0.46657 0.70246 0.72908 0.11500
C 	C 	0.46958 0.76310 0.79660 0.03400
C 	C 	0.49015 0.74267 0.77443 0.01200
H 	H 	0.51950 0.74040 0.77240 0.03900
C 	C 	0.58888 0.80390 0.86113 0.03400
C 	C 	0.52866 0.78378 0.82942 -0.13600
H 	H 	0.54700 0.76660 0.81850 0.09700
C 	C 	0.45831 0.81130 0.83867 -0.13600
H 	H 	0.42940 0.81160 0.83420 0.09600
C 	C 	0.61159 0.82691 0.88103 0.01000
H 	H 	0.60080 0.84740 0.89390 0.03700
C 	C 	0.54392 0.80740 0.85351 0.08200
C 	C 	0.44568 0.86110 0.88010 0.03300
C 	C 	0.48597 0.78610 0.82192 0.08400
C 	C 	0.51608 0.83314 0.87000 -0.13500
H 	H 	0.52620 0.84840 0.88630 0.09400
C 	C 	0.47371 0.83590 0.86204 0.08400
C 	C 	0.71631 0.90128 0.95906 0.34500
C 	C 	0.72078 0.87219 0.93252 -0.03300
C 	C 	0.76099 0.86468 0.92037 -0.01800
H 	H 	0.78520 0.87600 0.92940 0.07800
C 	C 	0.76455 0.84009 0.89463 -0.03000
O 	O 	0.67913 0.90739 0.96870 -0.39800
O 	O 	0.74958 0.91735 0.96913 -0.39600
C 	C 	0.80724 0.83413 0.87995 0.34200
O 	O 	0.83850 0.85132 0.89264 -0.37600
O 	O 	0.80829 0.81312 0.85657 -0.39100
N 	N 	0.45851 0.88560 0.90183 -0.07400
N 	N 	0.42396 0.90290 0.91564 -0.04000
N 	N 	0.61626 0.78100 0.84640 -0.07200
N 	N 	0.42970 0.76040 0.79021 -0.07200
N 	N 	0.65554 0.78830 0.85663 -0.03800
N 	N 	0.42383 0.73680 0.76533 -0.03800
O 	O 	0.70037 0.40950 0.39213 -0.38600
O 	O 	0.74162 0.37708 0.35815 -0.37000
C 	C 	0.73583 0.39843 0.38174 0.32700
C 	C 	0.77470 0.41244 0.39848 -0.02500
C 	C 	0.81426 0.39748 0.39022 -0.09000
H 	H 	0.81700 0.37860 0.37440 0.09100
C 	C 	0.85010 0.41113 0.40594 0.11500
N 	N 	0.89113 0.39503 0.39884 -0.09300
C 	C 	0.90271 0.36656 0.37794 0.01100
H 	H 	0.88470 0.35310 0.36450 0.04000
Cu	Cu	0.80592 0.14013 0.16762 0.93000
Cu	Cu	0.85409 0.10506 0.12608 0.93200
O 	O 	0.86049 0.15298 0.18677 -0.38400
O 	O 	0.83600 0.50593 0.46966 -0.39200
O 	O 	0.90137 0.12575 0.15063 -0.37700
O 	O 	0.05463 0.15032 0.15117 -0.38400
O 	O 	0.08303 0.19320 0.18551 -0.37500
O 	O 	0.76526 0.49666 0.46924 -0.39500
O 	O 	0.89247 0.07585 0.09217 -0.39800
H 	H 	0.88150 0.05330 0.08700 0.24800
O 	O 	0.76567 0.16734 0.20130 -0.40000
H 	H 	0.77500 0.19070 0.20620 0.24700
N 	N 	0.15255 0.31482 0.37883 -0.09400
C 	C 	0.77065 0.44140 0.42167 -0.02100
H 	H 	0.74390 0.45100 0.42740 0.07400
C 	C 	0.97446 0.15756 0.17647 -0.02100
H 	H 	0.97700 0.14220 0.15880 0.08000
C 	C 	0.93494 0.16232 0.18960 -0.02600
C 	C 	0.01057 0.17565 0.18956 -0.02900
C 	C 	0.05268 0.17285 0.17436 0.33500
C 	C 	0.80644 0.45586 0.43626 -0.03200
N 	N 	0.96126 0.22621 0.25598 -0.09300
C 	C 	0.84689 0.44085 0.42850 -0.08600
H 	H 	0.87100 0.45070 0.43830 0.09600
C 	C 	0.18492 0.35502 0.41927 -0.08600
H 	H 	0.15820 0.36000 0.42750 0.08500
C 	C 	0.93084 0.18450 0.21623 -0.08800
H 	H 	0.90440 0.18720 0.22530 0.09900
C 	C 	0.89573 0.14537 0.17442 0.33400
C 	C 	0.80239 0.48888 0.46025 0.33900
C 	C 	0.18888 0.33041 0.39372 0.11400
C 	C 	0.22854 0.32320 0.38125 -0.08500
H 	H 	0.23100 0.30710 0.36390 0.09700
C 	C 	0.00662 0.19799 0.21625 -0.08700
H 	H 	0.03050 0.20980 0.22540 0.09100
C 	C 	0.96657 0.20246 0.22908 0.11500
C 	C 	0.96958 0.26310 0.29660 0.03400
C 	C 	0.99015 0.24267 0.27443 0.01200
H 	H 	0.01950 0.24040 0.27240 0.03900
C 	C 	0.08888 0.30390 0.36113 0.03400
C 	C 	0.02866 0.28378 0.32942 -0.13600
H 	H 	0.04700 0.26660 0.31850 0.09700
C 	C 	0.95831 0.31130 0.33867 -0.13600
H 	H 	0.92940 0.31160 0.33420 0.09600
C 	C 	0.11159 0.32691 0.38103 0.01000
H 	H 	0.10080 0.34740 0.39390 0.03700
C 	C 	0.04392 0.30740 0.35351 0.08200
C 	C 	0.94568 0.36110 0.38010 0.03200
C 	C 	0.98597 0.28610 0.32192 0.08400
C 	C 	0.01608 0.33314 0.37000 -0.13500
H 	H 	0.02620 0.34840 0.38630 0.09400
C 	C 	0.97371 0.33590 0.36204 0.08400
C 	C 	0.21631 0.40128 0.45906 0.34500
C 	C 	0.22078 0.37219 0.43252 -0.03300
C 	C 	0.26099 0.36468 0.42037 -0.01800
H 	H 	0.28520 0.37600 0.42940 0.07700
C 	C 	0.26455 0.34009 0.39463 -0.03000
O 	O 	0.17913 0.40739 0.46870 -0.40000
O 	O 	0.24958 0.41735 0.46913 -0.39800
C 	C 	0.30724 0.33413 0.37995 0.34200
O 	O 	0.33850 0.35132 0.39264 -0.37700
O 	O 	0.30829 0.31312 0.35657 -0.39100
N 	N 	0.95851 0.38560 0.40183 -0.07400
N 	N 	0.92396 0.40290 0.41564 -0.04000
N 	N 	0.11626 0.28100 0.34640 -0.07200
N 	N 	0.92970 0.26040 0.29021 -0.07200
N 	N 	0.15554 0.28830 0.35663 -0.03800
N 	N 	0.92383 0.23680 0.26533 -0.03800
Cu	Cu	0.03886 0.74863 -0.00000 0.90600
Cu	Cu	0.05112 0.66548 -0.00000 0.90300
Cu	Cu	0.53886 0.24863 0.50000 0.90800
Cu	Cu	0.55112 0.16548 0.50000 0.90400
Cu	Cu	0.96114 0.25137 -0.00000 0.90600
Cu	Cu	0.94888 0.33452 -0.00000 0.90300
Cu	Cu	0.46114 0.75137 0.50000 0.90800
Cu	Cu	0.44888 0.83452 0.50000 0.90400
Cu	Cu	0.25137 0.03886 -0.00000 0.90600
Cu	Cu	0.33452 0.05112 -0.00000 0.90300
Cu	Cu	0.75137 0.53886 0.50000 0.90800
Cu	Cu	0.83452 0.55112 0.50000 0.90400
Cu	Cu	0.74863 0.96114 -0.00000 0.90600
Cu	Cu	0.66548 0.94888 -0.00000 0.90300
Cu	Cu	0.24863 0.46114 0.50000 0.90800
Cu	Cu	0.16548 0.44888 0.50000 0.90400
