data_crystal

_cell_length_a 26.32560
_cell_length_b 26.32560
_cell_length_c 26.32560
_cell_angle_alpha 90.00000
_cell_angle_beta  90.00000
_cell_angle_gamma 90.00000

_symmetry_space_group_name_	'P 1'
_symmetry_space_group_name_H-M	'P 1'

loop_
_symmetry_equiv_pos_as_xyz
  x,y,z

loop_
_atom_site_label
_atom_site_type_symbol
_atom_site_fract_x
_atom_site_fract_y
_atom_site_fract_z
_atom_site_charge
O 	O 	0.31704 0.24377 0.94738 -0.37300
O 	O 	0.31704 0.74377 0.44738 -0.40100
O 	O 	0.81704 0.24377 0.44738 -0.39900
O 	O 	0.81704 0.74377 0.94738 -0.36400
O 	O 	0.68296 0.75623 0.94738 -0.37000
O 	O 	0.68296 0.25623 0.44738 -0.40500
O 	O 	0.18296 0.75623 0.44738 -0.40600
O 	O 	0.18296 0.25623 0.94738 -0.37800
O 	O 	0.68296 0.24377 0.05262 -0.42000
O 	O 	0.68296 0.74377 0.55262 -0.40100
O 	O 	0.18296 0.24377 0.55262 -0.41000
O 	O 	0.18296 0.74377 0.05262 -0.42300
O 	O 	0.31704 0.75623 0.05262 -0.41900
O 	O 	0.31704 0.25623 0.55262 -0.40600
O 	O 	0.81704 0.75623 0.55262 -0.39700
O 	O 	0.81704 0.25623 0.05262 -0.41700
O 	O 	0.94738 0.31704 0.24377 -0.37400
O 	O 	0.94738 0.81704 0.74377 -0.36500
O 	O 	0.44738 0.31704 0.74377 -0.40200
O 	O 	0.44738 0.81704 0.24377 -0.40000
O 	O 	0.94738 0.68296 0.75623 -0.37100
O 	O 	0.94738 0.18296 0.25623 -0.37900
O 	O 	0.44738 0.68296 0.25623 -0.40600
O 	O 	0.44738 0.18296 0.75623 -0.40700
O 	O 	0.05262 0.68296 0.24377 -0.42100
O 	O 	0.05262 0.18296 0.74377 -0.42300
O 	O 	0.55262 0.68296 0.74377 -0.40100
O 	O 	0.55262 0.18296 0.24377 -0.41000
O 	O 	0.05262 0.31704 0.75623 -0.41900
O 	O 	0.05262 0.81704 0.25623 -0.41700
O 	O 	0.55262 0.31704 0.25623 -0.40600
O 	O 	0.55262 0.81704 0.75623 -0.39700
O 	O 	0.24377 0.94738 0.31704 -0.37400
O 	O 	0.24377 0.44738 0.81704 -0.40000
O 	O 	0.74377 0.94738 0.81704 -0.36500
O 	O 	0.74377 0.44738 0.31704 -0.40200
O 	O 	0.75623 0.94738 0.68296 -0.37100
O 	O 	0.75623 0.44738 0.18296 -0.40700
O 	O 	0.25623 0.94738 0.18296 -0.37900
O 	O 	0.25623 0.44738 0.68296 -0.40600
O 	O 	0.24377 0.05262 0.68296 -0.42100
O 	O 	0.24377 0.55262 0.18296 -0.41000
O 	O 	0.74377 0.05262 0.18296 -0.42300
O 	O 	0.74377 0.55262 0.68296 -0.40100
O 	O 	0.75623 0.05262 0.31704 -0.41900
O 	O 	0.75623 0.55262 0.81704 -0.39700
O 	O 	0.25623 0.05262 0.81704 -0.41700
O 	O 	0.25623 0.55262 0.31704 -0.40600
O 	O 	0.24377 0.31704 0.05262 -0.42200
O 	O 	0.24377 0.81704 0.55262 -0.40000
O 	O 	0.74377 0.31704 0.55262 -0.40200
O 	O 	0.74377 0.81704 0.05262 -0.41300
O 	O 	0.75623 0.68296 0.05262 -0.41900
O 	O 	0.75623 0.18296 0.55262 -0.40700
O 	O 	0.25623 0.68296 0.55262 -0.40600
O 	O 	0.25623 0.18296 0.05262 -0.42700
O 	O 	0.24377 0.68296 0.94738 -0.37400
O 	O 	0.24377 0.18296 0.44738 -0.41000
O 	O 	0.74377 0.68296 0.44738 -0.40100
O 	O 	0.74377 0.18296 0.94738 -0.37500
O 	O 	0.75623 0.31704 0.94738 -0.37100
O 	O 	0.75623 0.81704 0.44738 -0.39700
O 	O 	0.25623 0.31704 0.44738 -0.40600
O 	O 	0.25623 0.81704 0.94738 -0.36900
O 	O 	0.31704 0.94738 0.75623 -0.37100
O 	O 	0.31704 0.44738 0.25623 -0.40600
O 	O 	0.81704 0.94738 0.25623 -0.36900
O 	O 	0.81704 0.44738 0.75623 -0.39700
O 	O 	0.68296 0.94738 0.24377 -0.37400
O 	O 	0.68296 0.44738 0.74377 -0.40100
O 	O 	0.18296 0.94738 0.74377 -0.37500
O 	O 	0.18296 0.44738 0.24377 -0.41000
O 	O 	0.68296 0.05262 0.75623 -0.41900
O 	O 	0.68296 0.55262 0.25623 -0.40600
O 	O 	0.18296 0.05262 0.25623 -0.42700
O 	O 	0.18296 0.55262 0.75623 -0.40700
O 	O 	0.31704 0.05262 0.24377 -0.42200
O 	O 	0.31704 0.55262 0.74377 -0.40200
O 	O 	0.81704 0.05262 0.74377 -0.41300
O 	O 	0.81704 0.55262 0.24377 -0.40000
O 	O 	0.94738 0.24377 0.68296 -0.37400
O 	O 	0.94738 0.74377 0.18296 -0.37500
O 	O 	0.44738 0.24377 0.18296 -0.41000
O 	O 	0.44738 0.74377 0.68296 -0.40100
O 	O 	0.94738 0.75623 0.31704 -0.37100
O 	O 	0.94738 0.25623 0.81704 -0.36900
O 	O 	0.44738 0.75623 0.81704 -0.39700
O 	O 	0.44738 0.25623 0.31704 -0.40600
O 	O 	0.05262 0.24377 0.31704 -0.42200
O 	O 	0.05262 0.74377 0.81704 -0.41300
O 	O 	0.55262 0.24377 0.81704 -0.40000
O 	O 	0.55262 0.74377 0.31704 -0.40200
O 	O 	0.05262 0.75623 0.68296 -0.41900
O 	O 	0.05262 0.25623 0.18296 -0.42700
O 	O 	0.55262 0.75623 0.18296 -0.40700
O 	O 	0.55262 0.25623 0.68296 -0.40600
O 	O 	0.68296 0.75623 0.05262 -0.41900
O 	O 	0.68296 0.25623 0.55262 -0.40600
O 	O 	0.18296 0.75623 0.55262 -0.40700
O 	O 	0.18296 0.25623 0.05262 -0.42700
O 	O 	0.31704 0.24377 0.05262 -0.42200
O 	O 	0.31704 0.74377 0.55262 -0.40200
O 	O 	0.81704 0.24377 0.55262 -0.40000
O 	O 	0.81704 0.74377 0.05262 -0.41300
O 	O 	0.31704 0.75623 0.94738 -0.37100
O 	O 	0.31704 0.25623 0.44738 -0.40600
O 	O 	0.81704 0.75623 0.44738 -0.39700
O 	O 	0.81704 0.25623 0.94738 -0.36900
O 	O 	0.68296 0.24377 0.94738 -0.37400
O 	O 	0.68296 0.74377 0.44738 -0.40100
O 	O 	0.18296 0.24377 0.44738 -0.41000
O 	O 	0.18296 0.74377 0.94738 -0.37500
O 	O 	0.05262 0.68296 0.75623 -0.41900
O 	O 	0.05262 0.18296 0.25623 -0.42700
O 	O 	0.55262 0.68296 0.25623 -0.40600
O 	O 	0.55262 0.18296 0.75623 -0.40700
O 	O 	0.05262 0.31704 0.24377 -0.42200
O 	O 	0.05262 0.81704 0.74377 -0.41300
O 	O 	0.55262 0.31704 0.74377 -0.40200
O 	O 	0.55262 0.81704 0.24377 -0.40000
O 	O 	0.94738 0.31704 0.75623 -0.37100
O 	O 	0.94738 0.81704 0.25623 -0.36900
O 	O 	0.44738 0.31704 0.25623 -0.40600
O 	O 	0.44738 0.81704 0.75623 -0.39700
O 	O 	0.94738 0.68296 0.24377 -0.37400
O 	O 	0.94738 0.18296 0.74377 -0.37500
O 	O 	0.44738 0.68296 0.74377 -0.40100
O 	O 	0.44738 0.18296 0.24377 -0.41000
O 	O 	0.75623 0.05262 0.68296 -0.41900
O 	O 	0.75623 0.55262 0.18296 -0.40700
O 	O 	0.25623 0.05262 0.18296 -0.42700
O 	O 	0.25623 0.55262 0.68296 -0.40600
O 	O 	0.24377 0.05262 0.31704 -0.42200
O 	O 	0.24377 0.55262 0.81704 -0.40000
O 	O 	0.74377 0.05262 0.81704 -0.41300
O 	O 	0.74377 0.55262 0.31704 -0.40200
O 	O 	0.75623 0.94738 0.31704 -0.37100
O 	O 	0.75623 0.44738 0.81704 -0.39700
O 	O 	0.25623 0.94738 0.81704 -0.36900
O 	O 	0.25623 0.44738 0.31704 -0.40600
O 	O 	0.24377 0.94738 0.68296 -0.37400
O 	O 	0.24377 0.44738 0.18296 -0.41000
O 	O 	0.74377 0.94738 0.18296 -0.37500
O 	O 	0.74377 0.44738 0.68296 -0.40100
O 	O 	0.75623 0.68296 0.94738 -0.37100
O 	O 	0.75623 0.18296 0.44738 -0.40700
O 	O 	0.25623 0.68296 0.44738 -0.40600
O 	O 	0.25623 0.18296 0.94738 -0.37900
O 	O 	0.24377 0.31704 0.94738 -0.37400
O 	O 	0.24377 0.81704 0.44738 -0.40000
O 	O 	0.74377 0.31704 0.44738 -0.40200
O 	O 	0.74377 0.81704 0.94738 -0.36500
O 	O 	0.75623 0.31704 0.05262 -0.41900
O 	O 	0.75623 0.81704 0.55262 -0.39700
O 	O 	0.25623 0.31704 0.55262 -0.40600
O 	O 	0.25623 0.81704 0.05262 -0.41700
O 	O 	0.24377 0.68296 0.05262 -0.42100
O 	O 	0.24377 0.18296 0.55262 -0.41000
O 	O 	0.74377 0.68296 0.55262 -0.40100
O 	O 	0.74377 0.18296 0.05262 -0.42300
O 	O 	0.68296 0.05262 0.24377 -0.42100
O 	O 	0.68296 0.55262 0.74377 -0.40100
O 	O 	0.18296 0.05262 0.74377 -0.42300
O 	O 	0.18296 0.55262 0.24377 -0.41000
O 	O 	0.31704 0.05262 0.75623 -0.41900
O 	O 	0.31704 0.55262 0.25623 -0.40600
O 	O 	0.81704 0.05262 0.25623 -0.41700
O 	O 	0.81704 0.55262 0.75623 -0.39700
O 	O 	0.31704 0.94738 0.24377 -0.37400
O 	O 	0.31704 0.44738 0.74377 -0.40200
O 	O 	0.81704 0.94738 0.74377 -0.36500
O 	O 	0.81704 0.44738 0.24377 -0.40000
O 	O 	0.68296 0.94738 0.75623 -0.37100
O 	O 	0.68296 0.44738 0.25623 -0.40600
O 	O 	0.18296 0.94738 0.25623 -0.37900
O 	O 	0.18296 0.44738 0.75623 -0.40700
O 	O 	0.05262 0.75623 0.31704 -0.41900
O 	O 	0.05262 0.25623 0.81704 -0.41700
O 	O 	0.55262 0.75623 0.81704 -0.39700
O 	O 	0.55262 0.25623 0.31704 -0.40600
O 	O 	0.05262 0.24377 0.68296 -0.42100
O 	O 	0.05262 0.74377 0.18296 -0.42300
O 	O 	0.55262 0.24377 0.18296 -0.41000
O 	O 	0.55262 0.74377 0.68296 -0.40100
O 	O 	0.94738 0.75623 0.68296 -0.37100
O 	O 	0.94738 0.25623 0.18296 -0.37900
O 	O 	0.44738 0.75623 0.18296 -0.40700
O 	O 	0.44738 0.25623 0.68296 -0.40600
O 	O 	0.94738 0.24377 0.31704 -0.37400
O 	O 	0.94738 0.74377 0.81704 -0.36500
O 	O 	0.44738 0.24377 0.81704 -0.40000
O 	O 	0.44738 0.74377 0.31704 -0.40200
Cu	Cu	0.28427 0.28427 -0.00000 0.87300
Cu	Cu	0.28427 0.78427 0.50000 0.90400
Cu	Cu	0.78427 0.28427 0.50000 0.90400
Cu	Cu	0.78427 0.78427 -0.00000 0.87700
Cu	Cu	0.71573 0.71573 -0.00000 0.87300
Cu	Cu	0.71573 0.21573 0.50000 0.90100
Cu	Cu	0.21573 0.71573 0.50000 0.90100
Cu	Cu	0.21573 0.21573 -0.00000 0.87100
Cu	Cu	0.71573 0.28427 -0.00000 0.87300
Cu	Cu	0.71573 0.78427 0.50000 0.90400
Cu	Cu	0.21573 0.28427 0.50000 0.90100
Cu	Cu	0.21573 0.78427 -0.00000 0.87400
Cu	Cu	0.28427 0.71573 -0.00000 0.87300
Cu	Cu	0.28427 0.21573 0.50000 0.90100
Cu	Cu	0.78427 0.71573 0.50000 0.90400
Cu	Cu	0.78427 0.21573 -0.00000 0.87400
Cu	Cu	0.00000 0.28427 0.28427 0.87300
Cu	Cu	0.00000 0.78427 0.78427 0.87700
Cu	Cu	0.50000 0.28427 0.78427 0.90400
Cu	Cu	0.50000 0.78427 0.28427 0.90400
Cu	Cu	0.00000 0.71573 0.71573 0.87300
Cu	Cu	0.00000 0.21573 0.21573 0.87100
Cu	Cu	0.50000 0.71573 0.21573 0.90100
Cu	Cu	0.50000 0.21573 0.71573 0.90100
Cu	Cu	0.00000 0.71573 0.28427 0.87300
Cu	Cu	0.00000 0.21573 0.78427 0.87400
Cu	Cu	0.50000 0.71573 0.78427 0.90400
Cu	Cu	0.50000 0.21573 0.28427 0.90100
Cu	Cu	0.00000 0.28427 0.71573 0.87300
Cu	Cu	0.00000 0.78427 0.21573 0.87400
Cu	Cu	0.50000 0.28427 0.21573 0.90100
Cu	Cu	0.50000 0.78427 0.71573 0.90400
Cu	Cu	0.28427 0.00000 0.28427 0.87300
Cu	Cu	0.28427 0.50000 0.78427 0.90400
Cu	Cu	0.78427 0.00000 0.78427 0.87700
Cu	Cu	0.78427 0.50000 0.28427 0.90400
Cu	Cu	0.71573 0.00000 0.71573 0.87300
Cu	Cu	0.71573 0.50000 0.21573 0.90100
Cu	Cu	0.21573 0.00000 0.21573 0.87100
Cu	Cu	0.21573 0.50000 0.71573 0.90100
Cu	Cu	0.28427 0.00000 0.71573 0.87300
Cu	Cu	0.28427 0.50000 0.21573 0.90100
Cu	Cu	0.78427 0.00000 0.21573 0.87400
Cu	Cu	0.78427 0.50000 0.71573 0.90400
Cu	Cu	0.71573 0.00000 0.28427 0.87300
Cu	Cu	0.71573 0.50000 0.78427 0.90400
Cu	Cu	0.21573 0.00000 0.78427 0.87400
Cu	Cu	0.21573 0.50000 0.28427 0.90100
C 	C 	0.32168 0.17832 0.88652 -0.10200
C 	C 	0.29595 0.20405 0.93084 0.35100
C 	C 	0.32168 0.67832 0.38652 -0.10700
C 	C 	0.29595 0.70405 0.43084 0.35500
C 	C 	0.67832 0.82168 0.88652 -0.09100
C 	C 	0.70405 0.79595 0.93084 0.34900
C 	C 	0.67832 0.32168 0.38652 -0.10700
C 	C 	0.70405 0.29595 0.43084 0.35500
C 	C 	0.17832 0.32168 0.88652 -0.10200
C 	C 	0.20405 0.29595 0.93084 0.35100
C 	C 	0.67832 0.17832 0.11348 -0.11900
C 	C 	0.70405 0.20405 0.06916 0.35600
C 	C 	0.67832 0.67832 0.61348 -0.10500
C 	C 	0.70405 0.70405 0.56916 0.35400
C 	C 	0.17832 0.17832 0.61348 -0.11600
C 	C 	0.20405 0.20405 0.56916 0.35600
C 	C 	0.32168 0.82168 0.11348 -0.11100
C 	C 	0.29595 0.79595 0.06916 0.35600
C 	C 	0.32168 0.32168 0.61348 -0.10900
C 	C 	0.29595 0.29595 0.56916 0.35700
C 	C 	0.88652 0.32168 0.17832 -0.10200
C 	C 	0.93084 0.29595 0.20405 0.35100
C 	C 	0.38652 0.32168 0.67832 -0.10700
C 	C 	0.43084 0.29595 0.70405 0.35500
C 	C 	0.88652 0.67832 0.82168 -0.09100
C 	C 	0.93084 0.70405 0.79595 0.34900
C 	C 	0.88652 0.17832 0.32168 -0.10200
C 	C 	0.93084 0.20405 0.29595 0.35100
C 	C 	0.38652 0.67832 0.32168 -0.10700
C 	C 	0.43084 0.70405 0.29595 0.35500
C 	C 	0.11348 0.67832 0.17832 -0.11900
C 	C 	0.06916 0.70405 0.20405 0.35600
C 	C 	0.61348 0.67832 0.67832 -0.10500
C 	C 	0.56916 0.70405 0.70405 0.35400
C 	C 	0.61348 0.17832 0.17832 -0.11600
C 	C 	0.56916 0.20405 0.20405 0.35600
C 	C 	0.11348 0.32168 0.82168 -0.11100
C 	C 	0.06916 0.29595 0.79595 0.35600
C 	C 	0.61348 0.32168 0.32168 -0.10900
C 	C 	0.56916 0.29595 0.29595 0.35700
C 	C 	0.17832 0.88652 0.32168 -0.10200
C 	C 	0.20405 0.93084 0.29595 0.35100
C 	C 	0.17832 0.38652 0.82168 -0.10700
C 	C 	0.20405 0.43084 0.79595 0.35500
C 	C 	0.82168 0.88652 0.67832 -0.09100
C 	C 	0.79595 0.93084 0.70405 0.34900
C 	C 	0.82168 0.38652 0.17832 -0.10700
C 	C 	0.79595 0.43084 0.20405 0.35500
C 	C 	0.32168 0.88652 0.17832 -0.10200
C 	C 	0.29595 0.93084 0.20405 0.35100
C 	C 	0.17832 0.11348 0.67832 -0.11900
C 	C 	0.20405 0.06916 0.70405 0.35600
C 	C 	0.17832 0.61348 0.17832 -0.11600
C 	C 	0.20405 0.56916 0.20405 0.35600
C 	C 	0.82168 0.11348 0.32168 -0.11100
C 	C 	0.79595 0.06916 0.29595 0.35600
C 	C 	0.82168 0.61348 0.82168 -0.09700
C 	C 	0.79595 0.56916 0.79595 0.35400
C 	C 	0.32168 0.61348 0.32168 -0.10900
C 	C 	0.29595 0.56916 0.29595 0.35700
C 	C 	0.17832 0.32168 0.11348 -0.12100
C 	C 	0.20405 0.29595 0.06916 0.35700
C 	C 	0.17832 0.82168 0.61348 -0.10600
C 	C 	0.20405 0.79595 0.56916 0.35500
C 	C 	0.82168 0.67832 0.11348 -0.10900
C 	C 	0.79595 0.70405 0.06916 0.35500
C 	C 	0.82168 0.17832 0.61348 -0.10600
C 	C 	0.79595 0.20405 0.56916 0.35500
C 	C 	0.32168 0.17832 0.11348 -0.12100
C 	C 	0.29595 0.20405 0.06916 0.35700
C 	C 	0.17832 0.67832 0.88652 -0.10000
C 	C 	0.20405 0.70405 0.93084 0.35000
C 	C 	0.17832 0.17832 0.38652 -0.11600
C 	C 	0.20405 0.20405 0.43084 0.35700
C 	C 	0.82168 0.32168 0.88652 -0.09300
C 	C 	0.79595 0.29595 0.93084 0.35000
C 	C 	0.82168 0.82168 0.38652 -0.09700
C 	C 	0.79595 0.79595 0.43084 0.35400
C 	C 	0.32168 0.32168 0.38652 -0.10900
C 	C 	0.29595 0.29595 0.43084 0.35700
C 	C 	0.32168 0.88652 0.82168 -0.09300
C 	C 	0.29595 0.93084 0.79595 0.35000
C 	C 	0.32168 0.38652 0.32168 -0.10900
C 	C 	0.29595 0.43084 0.29595 0.35700
C 	C 	0.67832 0.88652 0.17832 -0.10000
C 	C 	0.70405 0.93084 0.20405 0.35000
C 	C 	0.67832 0.38652 0.67832 -0.10600
C 	C 	0.70405 0.43084 0.70405 0.35400
C 	C 	0.17832 0.38652 0.17832 -0.11600
C 	C 	0.20405 0.43084 0.20405 0.35700
C 	C 	0.67832 0.11348 0.82168 -0.10900
C 	C 	0.70405 0.06916 0.79595 0.35500
C 	C 	0.67832 0.61348 0.32168 -0.10700
C 	C 	0.70405 0.56916 0.29595 0.35500
C 	C 	0.17832 0.11348 0.32168 -0.12100
C 	C 	0.20405 0.06916 0.29595 0.35700
C 	C 	0.32168 0.11348 0.17832 -0.12100
C 	C 	0.29595 0.06916 0.20405 0.35700
C 	C 	0.32168 0.61348 0.67832 -0.10700
C 	C 	0.29595 0.56916 0.70405 0.35500
C 	C 	0.88652 0.17832 0.67832 -0.10000
C 	C 	0.93084 0.20405 0.70405 0.35000
C 	C 	0.38652 0.17832 0.17832 -0.11600
C 	C 	0.43084 0.20405 0.20405 0.35700
C 	C 	0.88652 0.82168 0.32168 -0.09300
C 	C 	0.93084 0.79595 0.29595 0.35000
C 	C 	0.38652 0.82168 0.82168 -0.09700
C 	C 	0.43084 0.79595 0.79595 0.35400
C 	C 	0.38652 0.32168 0.32168 -0.10900
C 	C 	0.43084 0.29595 0.29595 0.35700
C 	C 	0.11348 0.17832 0.32168 -0.12100
C 	C 	0.06916 0.20405 0.29595 0.35700
C 	C 	0.61348 0.17832 0.82168 -0.10600
C 	C 	0.56916 0.20405 0.79595 0.35500
C 	C 	0.11348 0.82168 0.67832 -0.10900
C 	C 	0.06916 0.79595 0.70405 0.35500
C 	C 	0.11348 0.32168 0.17832 -0.12100
C 	C 	0.06916 0.29595 0.20405 0.35700
C 	C 	0.61348 0.82168 0.17832 -0.10600
C 	C 	0.56916 0.79595 0.20405 0.35500
C 	C 	0.67832 0.82168 0.11348 -0.10900
C 	C 	0.70405 0.79595 0.06916 0.35500
C 	C 	0.67832 0.32168 0.61348 -0.10700
C 	C 	0.70405 0.29595 0.56916 0.35500
C 	C 	0.32168 0.67832 0.61348 -0.10700
C 	C 	0.29595 0.70405 0.56916 0.35500
C 	C 	0.32168 0.82168 0.88652 -0.09300
C 	C 	0.29595 0.79595 0.93084 0.35000
C 	C 	0.67832 0.17832 0.88652 -0.10000
C 	C 	0.70405 0.20405 0.93084 0.35000
C 	C 	0.67832 0.67832 0.38652 -0.10600
C 	C 	0.70405 0.70405 0.43084 0.35400
C 	C 	0.11348 0.67832 0.82168 -0.10900
C 	C 	0.06916 0.70405 0.79595 0.35500
C 	C 	0.61348 0.67832 0.32168 -0.10700
C 	C 	0.56916 0.70405 0.29595 0.35500
C 	C 	0.61348 0.32168 0.67832 -0.10700
C 	C 	0.56916 0.29595 0.70405 0.35500
C 	C 	0.88652 0.32168 0.82168 -0.09300
C 	C 	0.93084 0.29595 0.79595 0.35000
C 	C 	0.88652 0.67832 0.17832 -0.10000
C 	C 	0.93084 0.70405 0.20405 0.35000
C 	C 	0.38652 0.67832 0.67832 -0.10600
C 	C 	0.43084 0.70405 0.70405 0.35400
C 	C 	0.82168 0.11348 0.67832 -0.10900
C 	C 	0.79595 0.06916 0.70405 0.35500
C 	C 	0.82168 0.61348 0.17832 -0.10600
C 	C 	0.79595 0.56916 0.20405 0.35500
C 	C 	0.17832 0.61348 0.82168 -0.10600
C 	C 	0.20405 0.56916 0.79595 0.35500
C 	C 	0.82168 0.88652 0.32168 -0.09300
C 	C 	0.79595 0.93084 0.29595 0.35000
C 	C 	0.82168 0.38652 0.82168 -0.09700
C 	C 	0.79595 0.43084 0.79595 0.35400
C 	C 	0.17832 0.88652 0.67832 -0.10000
C 	C 	0.20405 0.93084 0.70405 0.35000
C 	C 	0.82168 0.67832 0.88652 -0.09100
C 	C 	0.79595 0.70405 0.93084 0.34900
C 	C 	0.82168 0.17832 0.38652 -0.10700
C 	C 	0.79595 0.20405 0.43084 0.35500
C 	C 	0.17832 0.82168 0.38652 -0.10700
C 	C 	0.20405 0.79595 0.43084 0.35500
C 	C 	0.82168 0.32168 0.11348 -0.11100
C 	C 	0.79595 0.29595 0.06916 0.35600
C 	C 	0.82168 0.82168 0.61348 -0.09700
C 	C 	0.79595 0.79595 0.56916 0.35400
C 	C 	0.17832 0.67832 0.11348 -0.11900
C 	C 	0.20405 0.70405 0.06916 0.35600
C 	C 	0.67832 0.11348 0.17832 -0.11900
C 	C 	0.70405 0.06916 0.20405 0.35600
C 	C 	0.67832 0.61348 0.67832 -0.10500
C 	C 	0.70405 0.56916 0.70405 0.35400
C 	C 	0.32168 0.11348 0.82168 -0.11100
C 	C 	0.29595 0.06916 0.79595 0.35600
C 	C 	0.32168 0.38652 0.67832 -0.10700
C 	C 	0.29595 0.43084 0.70405 0.35500
C 	C 	0.67832 0.88652 0.82168 -0.09100
C 	C 	0.70405 0.93084 0.79595 0.34900
C 	C 	0.67832 0.38652 0.32168 -0.10700
C 	C 	0.70405 0.43084 0.29595 0.35500
C 	C 	0.11348 0.82168 0.32168 -0.11100
C 	C 	0.06916 0.79595 0.29595 0.35600
C 	C 	0.61348 0.82168 0.82168 -0.09700
C 	C 	0.56916 0.79595 0.79595 0.35400
C 	C 	0.11348 0.17832 0.67832 -0.11900
C 	C 	0.06916 0.20405 0.70405 0.35600
C 	C 	0.88652 0.82168 0.67832 -0.09100
C 	C 	0.93084 0.79595 0.70405 0.34900
C 	C 	0.38652 0.82168 0.17832 -0.10700
C 	C 	0.43084 0.79595 0.20405 0.35500
C 	C 	0.38652 0.17832 0.82168 -0.10700
C 	C 	0.43084 0.20405 0.79595 0.35500
C 	C 	0.36489 0.20058 0.86489 0.05900
H 	H 	0.38073 0.23473 0.88073 0.05400
C 	C 	0.36489 0.70058 0.36489 0.06000
H 	H 	0.38073 0.73473 0.38073 0.05100
C 	C 	0.63511 0.79942 0.86489 0.05600
H 	H 	0.61927 0.76527 0.88073 0.05700
C 	C 	0.63511 0.29942 0.36489 0.06000
H 	H 	0.61927 0.26527 0.38073 0.04700
C 	C 	0.13511 0.79942 0.36489 0.05900
H 	H 	0.11927 0.76527 0.38073 0.04400
C 	C 	0.63511 0.20058 0.13511 0.06000
H 	H 	0.61927 0.23473 0.11927 0.04100
C 	C 	0.63511 0.70058 0.63511 0.05800
H 	H 	0.61927 0.73473 0.61927 0.05100
C 	C 	0.13511 0.70058 0.13511 0.06000
H 	H 	0.11927 0.73473 0.11927 0.03900
C 	C 	0.36489 0.79942 0.13511 0.05900
H 	H 	0.38073 0.76527 0.11927 0.04400
C 	C 	0.36489 0.29942 0.63511 0.06000
H 	H 	0.38073 0.26527 0.61927 0.04700
C 	C 	0.86489 0.36489 0.20058 0.05900
H 	H 	0.88073 0.38073 0.23473 0.05400
C 	C 	0.86489 0.86489 0.70058 0.05600
H 	H 	0.88073 0.88073 0.73473 0.06400
C 	C 	0.36489 0.36489 0.70058 0.06000
H 	H 	0.38073 0.38073 0.73473 0.05100
C 	C 	0.86489 0.63511 0.79942 0.05600
H 	H 	0.88073 0.61927 0.76527 0.05700
C 	C 	0.86489 0.13511 0.29942 0.05900
H 	H 	0.88073 0.11927 0.26527 0.04800
C 	C 	0.36489 0.13511 0.79942 0.05900
H 	H 	0.38073 0.11927 0.76527 0.04400
C 	C 	0.13511 0.63511 0.20058 0.06000
H 	H 	0.11927 0.61927 0.23473 0.04100
C 	C 	0.13511 0.13511 0.70058 0.06000
H 	H 	0.11927 0.11927 0.73473 0.03900
C 	C 	0.13511 0.36489 0.79942 0.05900
H 	H 	0.11927 0.38073 0.76527 0.04400
C 	C 	0.13511 0.86489 0.29942 0.05900
H 	H 	0.11927 0.88073 0.26527 0.04800
C 	C 	0.20058 0.86489 0.36489 0.05900
H 	H 	0.23473 0.88073 0.38073 0.05400
C 	C 	0.70058 0.86489 0.86489 0.05600
H 	H 	0.73473 0.88073 0.88073 0.06400
C 	C 	0.70058 0.36489 0.36489 0.06000
H 	H 	0.73473 0.38073 0.38073 0.05100
C 	C 	0.79942 0.86489 0.63511 0.05600
H 	H 	0.76527 0.88073 0.61927 0.05700
C 	C 	0.79942 0.36489 0.13511 0.05900
H 	H 	0.76527 0.38073 0.11927 0.04400
C 	C 	0.29942 0.86489 0.13511 0.05900
H 	H 	0.26527 0.88073 0.11927 0.04800
C 	C 	0.20058 0.13511 0.63511 0.06000
H 	H 	0.23473 0.11927 0.61927 0.04100
C 	C 	0.70058 0.13511 0.13511 0.06000
H 	H 	0.73473 0.11927 0.11927 0.03900
C 	C 	0.79942 0.13511 0.36489 0.05900
H 	H 	0.76527 0.11927 0.38073 0.04400
C 	C 	0.29942 0.13511 0.86489 0.05900
H 	H 	0.26527 0.11927 0.88073 0.04800
C 	C 	0.20058 0.36489 0.13511 0.06100
H 	H 	0.23473 0.38073 0.11927 0.04100
C 	C 	0.70058 0.36489 0.63511 0.05900
H 	H 	0.73473 0.38073 0.61927 0.05100
C 	C 	0.79942 0.63511 0.13511 0.05800
H 	H 	0.76527 0.61927 0.11927 0.04400
C 	C 	0.29942 0.63511 0.63511 0.05900
H 	H 	0.26527 0.61927 0.61927 0.04700
C 	C 	0.29942 0.13511 0.13511 0.06100
H 	H 	0.26527 0.11927 0.11927 0.03500
C 	C 	0.20058 0.63511 0.86489 0.05800
H 	H 	0.23473 0.61927 0.88073 0.05400
C 	C 	0.20058 0.13511 0.36489 0.06100
H 	H 	0.23473 0.11927 0.38073 0.04100
C 	C 	0.70058 0.63511 0.36489 0.05900
H 	H 	0.73473 0.61927 0.38073 0.05100
C 	C 	0.79942 0.36489 0.86489 0.05700
H 	H 	0.76527 0.38073 0.88073 0.05700
C 	C 	0.29942 0.36489 0.36489 0.06100
H 	H 	0.26527 0.38073 0.38073 0.04700
C 	C 	0.36489 0.86489 0.79942 0.05700
H 	H 	0.38073 0.88073 0.76527 0.05700
C 	C 	0.36489 0.36489 0.29942 0.06100
H 	H 	0.38073 0.38073 0.26527 0.04700
C 	C 	0.63511 0.86489 0.20058 0.05800
H 	H 	0.61927 0.88073 0.23473 0.05400
C 	C 	0.63511 0.36489 0.70058 0.05900
H 	H 	0.61927 0.38073 0.73473 0.05100
C 	C 	0.13511 0.36489 0.20058 0.06100
H 	H 	0.11927 0.38073 0.23473 0.04100
C 	C 	0.63511 0.13511 0.79942 0.05800
H 	H 	0.61927 0.11927 0.76527 0.04400
C 	C 	0.63511 0.63511 0.29942 0.05900
H 	H 	0.61927 0.61927 0.26527 0.04700
C 	C 	0.13511 0.13511 0.29942 0.06100
H 	H 	0.11927 0.11927 0.26527 0.03500
C 	C 	0.36489 0.13511 0.20058 0.06100
H 	H 	0.38073 0.11927 0.23473 0.04100
C 	C 	0.36489 0.63511 0.70058 0.05900
H 	H 	0.38073 0.61927 0.73473 0.05100
C 	C 	0.86489 0.20058 0.63511 0.05800
H 	H 	0.88073 0.23473 0.61927 0.05400
C 	C 	0.86489 0.70058 0.13511 0.05800
H 	H 	0.88073 0.73473 0.11927 0.05100
C 	C 	0.36489 0.20058 0.13511 0.06100
H 	H 	0.38073 0.23473 0.11927 0.04100
C 	C 	0.86489 0.79942 0.36489 0.05700
H 	H 	0.88073 0.76527 0.38073 0.05700
C 	C 	0.86489 0.29942 0.86489 0.05700
H 	H 	0.88073 0.26527 0.88073 0.06100
C 	C 	0.36489 0.29942 0.36489 0.06100
H 	H 	0.38073 0.26527 0.38073 0.04700
C 	C 	0.13511 0.20058 0.36489 0.06100
H 	H 	0.11927 0.23473 0.38073 0.04100
C 	C 	0.13511 0.70058 0.86489 0.05800
H 	H 	0.11927 0.73473 0.88073 0.05100
C 	C 	0.13511 0.79942 0.63511 0.05800
H 	H 	0.11927 0.76527 0.61927 0.04400
C 	C 	0.13511 0.29942 0.13511 0.06100
H 	H 	0.11927 0.26527 0.11927 0.03500
C 	C 	0.63511 0.79942 0.13511 0.05800
H 	H 	0.61927 0.76527 0.11927 0.04400
C 	C 	0.63511 0.29942 0.63511 0.05900
H 	H 	0.61927 0.26527 0.61927 0.04700
C 	C 	0.36489 0.70058 0.63511 0.05900
H 	H 	0.38073 0.73473 0.61927 0.05100
C 	C 	0.36489 0.79942 0.86489 0.05700
H 	H 	0.38073 0.76527 0.88073 0.05700
C 	C 	0.63511 0.20058 0.86489 0.05800
H 	H 	0.61927 0.23473 0.88073 0.05400
C 	C 	0.63511 0.70058 0.36489 0.05900
H 	H 	0.61927 0.73473 0.38073 0.05100
C 	C 	0.13511 0.63511 0.79942 0.05800
H 	H 	0.11927 0.61927 0.76527 0.04400
C 	C 	0.13511 0.86489 0.70058 0.05800
H 	H 	0.11927 0.88073 0.73473 0.05100
C 	C 	0.86489 0.36489 0.79942 0.05700
H 	H 	0.88073 0.38073 0.76527 0.05700
C 	C 	0.86489 0.86489 0.29942 0.05700
H 	H 	0.88073 0.88073 0.26527 0.06100
C 	C 	0.86489 0.63511 0.20058 0.05800
H 	H 	0.88073 0.61927 0.23473 0.05400
C 	C 	0.86489 0.13511 0.70058 0.05800
H 	H 	0.88073 0.11927 0.73473 0.05100
C 	C 	0.79942 0.13511 0.63511 0.05800
H 	H 	0.76527 0.11927 0.61927 0.04400
C 	C 	0.70058 0.13511 0.86489 0.05800
H 	H 	0.73473 0.11927 0.88073 0.05100
C 	C 	0.79942 0.86489 0.36489 0.05700
H 	H 	0.76527 0.88073 0.38073 0.05700
C 	C 	0.29942 0.86489 0.86489 0.05700
H 	H 	0.26527 0.88073 0.88073 0.06100
C 	C 	0.20058 0.86489 0.63511 0.05800
H 	H 	0.23473 0.88073 0.61927 0.05400
C 	C 	0.70058 0.86489 0.13511 0.05800
H 	H 	0.73473 0.88073 0.11927 0.05100
C 	C 	0.79942 0.63511 0.86489 0.05600
H 	H 	0.76527 0.61927 0.88073 0.05700
C 	C 	0.29942 0.63511 0.36489 0.06000
H 	H 	0.26527 0.61927 0.38073 0.04700
C 	C 	0.20058 0.36489 0.86489 0.05900
H 	H 	0.23473 0.38073 0.88073 0.05400
C 	C 	0.29942 0.36489 0.63511 0.06000
H 	H 	0.26527 0.38073 0.61927 0.04700
C 	C 	0.20058 0.63511 0.13511 0.06000
H 	H 	0.23473 0.61927 0.11927 0.04100
C 	C 	0.70058 0.63511 0.63511 0.05800
H 	H 	0.73473 0.61927 0.61927 0.05100
C 	C 	0.63511 0.13511 0.20058 0.06000
H 	H 	0.61927 0.11927 0.23473 0.04100
C 	C 	0.63511 0.63511 0.70058 0.05800
H 	H 	0.61927 0.61927 0.73473 0.05100
C 	C 	0.36489 0.63511 0.29942 0.06000
H 	H 	0.38073 0.61927 0.26527 0.04700
C 	C 	0.36489 0.86489 0.20058 0.05900
H 	H 	0.38073 0.88073 0.23473 0.05400
C 	C 	0.63511 0.86489 0.79942 0.05600
H 	H 	0.61927 0.88073 0.76527 0.05700
C 	C 	0.63511 0.36489 0.29942 0.06000
H 	H 	0.61927 0.38073 0.26527 0.04700
C 	C 	0.13511 0.29942 0.86489 0.05900
H 	H 	0.11927 0.26527 0.88073 0.04800
C 	C 	0.13511 0.20058 0.63511 0.06000
H 	H 	0.11927 0.23473 0.61927 0.04100
C 	C 	0.86489 0.79942 0.63511 0.05600
H 	H 	0.88073 0.76527 0.61927 0.05700
C 	C 	0.86489 0.29942 0.13511 0.05900
H 	H 	0.88073 0.26527 0.11927 0.04800
C 	C 	0.86489 0.20058 0.36489 0.05900
H 	H 	0.88073 0.23473 0.38073 0.05400
C 	C 	0.86489 0.70058 0.86489 0.05600
H 	H 	0.88073 0.73473 0.88073 0.06400
