data_crystal

_cell_length_a 26.33860
_cell_length_b 26.33860
_cell_length_c 26.33860
_cell_angle_alpha 90.00000
_cell_angle_beta  90.00000
_cell_angle_gamma 90.00000

_symmetry_space_group_name_	'P 1'
_symmetry_space_group_name_H-M	'P 1'

loop_
_symmetry_equiv_pos_as_xyz
  x,y,z

loop_
_atom_site_label
_atom_site_type_symbol
_atom_site_fract_x
_atom_site_fract_y
_atom_site_fract_z
_atom_site_charge
O 	O 	0.31688 0.24405 0.94773 -0.36800
O 	O 	0.31688 0.74405 0.44773 -0.39600
O 	O 	0.81688 0.24405 0.44773 -0.39400
O 	O 	0.81688 0.74405 0.94773 -0.36000
O 	O 	0.68312 0.75595 0.94773 -0.36600
O 	O 	0.68312 0.25595 0.44773 -0.40000
O 	O 	0.18312 0.75595 0.44773 -0.40200
O 	O 	0.18312 0.25595 0.94773 -0.37400
O 	O 	0.68312 0.24405 0.05227 -0.41500
O 	O 	0.68312 0.74405 0.55227 -0.39500
O 	O 	0.18312 0.24405 0.55227 -0.40300
O 	O 	0.18312 0.74405 0.05227 -0.41600
O 	O 	0.31688 0.75595 0.05227 -0.41200
O 	O 	0.31688 0.25595 0.55227 -0.39900
O 	O 	0.81688 0.75595 0.55227 -0.39100
O 	O 	0.81688 0.25595 0.05227 -0.41000
O 	O 	0.94773 0.31688 0.24405 -0.36700
O 	O 	0.94773 0.81688 0.74405 -0.35900
O 	O 	0.44773 0.31688 0.74405 -0.39500
O 	O 	0.44773 0.81688 0.24405 -0.39300
O 	O 	0.94773 0.68312 0.75595 -0.36500
O 	O 	0.94773 0.18312 0.25595 -0.37300
O 	O 	0.44773 0.68312 0.25595 -0.39900
O 	O 	0.44773 0.18312 0.75595 -0.40100
O 	O 	0.05227 0.68312 0.24405 -0.41400
O 	O 	0.05227 0.18312 0.74405 -0.41600
O 	O 	0.55227 0.68312 0.74405 -0.39500
O 	O 	0.55227 0.18312 0.24405 -0.40300
O 	O 	0.05227 0.31688 0.75595 -0.41200
O 	O 	0.05227 0.81688 0.25595 -0.41000
O 	O 	0.55227 0.31688 0.25595 -0.39900
O 	O 	0.55227 0.81688 0.75595 -0.39100
O 	O 	0.24405 0.94773 0.31688 -0.36700
O 	O 	0.24405 0.44773 0.81688 -0.39300
O 	O 	0.74405 0.94773 0.81688 -0.35900
O 	O 	0.74405 0.44773 0.31688 -0.39500
O 	O 	0.75595 0.94773 0.68312 -0.36500
O 	O 	0.75595 0.44773 0.18312 -0.40100
O 	O 	0.25595 0.94773 0.18312 -0.37300
O 	O 	0.25595 0.44773 0.68312 -0.39900
O 	O 	0.24405 0.05227 0.68312 -0.41400
O 	O 	0.24405 0.55227 0.18312 -0.40300
O 	O 	0.74405 0.05227 0.18312 -0.41600
O 	O 	0.74405 0.55227 0.68312 -0.39500
O 	O 	0.75595 0.05227 0.31688 -0.41200
O 	O 	0.75595 0.55227 0.81688 -0.39100
O 	O 	0.25595 0.05227 0.81688 -0.41000
O 	O 	0.25595 0.55227 0.31688 -0.39900
O 	O 	0.24405 0.31688 0.05227 -0.41500
O 	O 	0.24405 0.81688 0.55227 -0.39300
O 	O 	0.74405 0.31688 0.55227 -0.39500
O 	O 	0.74405 0.81688 0.05227 -0.40600
O 	O 	0.75595 0.68312 0.05227 -0.41200
O 	O 	0.75595 0.18312 0.55227 -0.40100
O 	O 	0.25595 0.68312 0.55227 -0.39900
O 	O 	0.25595 0.18312 0.05227 -0.42000
O 	O 	0.24405 0.68312 0.94773 -0.36700
O 	O 	0.24405 0.18312 0.44773 -0.40300
O 	O 	0.74405 0.68312 0.44773 -0.39500
O 	O 	0.74405 0.18312 0.94773 -0.36900
O 	O 	0.75595 0.31688 0.94773 -0.36500
O 	O 	0.75595 0.81688 0.44773 -0.39100
O 	O 	0.25595 0.31688 0.44773 -0.39900
O 	O 	0.25595 0.81688 0.94773 -0.36300
O 	O 	0.31688 0.94773 0.75595 -0.36500
O 	O 	0.31688 0.44773 0.25595 -0.39900
O 	O 	0.81688 0.94773 0.25595 -0.36300
O 	O 	0.81688 0.44773 0.75595 -0.39100
O 	O 	0.68312 0.94773 0.24405 -0.36700
O 	O 	0.68312 0.44773 0.74405 -0.39500
O 	O 	0.18312 0.94773 0.74405 -0.36900
O 	O 	0.18312 0.44773 0.24405 -0.40300
O 	O 	0.68312 0.05227 0.75595 -0.41200
O 	O 	0.68312 0.55227 0.25595 -0.39900
O 	O 	0.18312 0.05227 0.25595 -0.42000
O 	O 	0.18312 0.55227 0.75595 -0.40100
O 	O 	0.31688 0.05227 0.24405 -0.41500
O 	O 	0.31688 0.55227 0.74405 -0.39500
O 	O 	0.81688 0.05227 0.74405 -0.40600
O 	O 	0.81688 0.55227 0.24405 -0.39300
O 	O 	0.94773 0.24405 0.68312 -0.36700
O 	O 	0.94773 0.74405 0.18312 -0.36900
O 	O 	0.44773 0.24405 0.18312 -0.40300
O 	O 	0.44773 0.74405 0.68312 -0.39500
O 	O 	0.94773 0.75595 0.31688 -0.36500
O 	O 	0.94773 0.25595 0.81688 -0.36300
O 	O 	0.44773 0.75595 0.81688 -0.39100
O 	O 	0.44773 0.25595 0.31688 -0.39900
O 	O 	0.05227 0.24405 0.31688 -0.41500
O 	O 	0.05227 0.74405 0.81688 -0.40600
O 	O 	0.55227 0.24405 0.81688 -0.39300
O 	O 	0.55227 0.74405 0.31688 -0.39500
O 	O 	0.05227 0.75595 0.68312 -0.41200
O 	O 	0.05227 0.25595 0.18312 -0.42000
O 	O 	0.55227 0.75595 0.18312 -0.40100
O 	O 	0.55227 0.25595 0.68312 -0.39900
O 	O 	0.68312 0.75595 0.05227 -0.41200
O 	O 	0.68312 0.25595 0.55227 -0.39900
O 	O 	0.18312 0.75595 0.55227 -0.40100
O 	O 	0.18312 0.25595 0.05227 -0.42000
O 	O 	0.31688 0.24405 0.05227 -0.41500
O 	O 	0.31688 0.74405 0.55227 -0.39500
O 	O 	0.81688 0.24405 0.55227 -0.39300
O 	O 	0.81688 0.74405 0.05227 -0.40600
O 	O 	0.31688 0.75595 0.94773 -0.36500
O 	O 	0.31688 0.25595 0.44773 -0.39900
O 	O 	0.81688 0.75595 0.44773 -0.39100
O 	O 	0.81688 0.25595 0.94773 -0.36300
O 	O 	0.68312 0.24405 0.94773 -0.36700
O 	O 	0.68312 0.74405 0.44773 -0.39500
O 	O 	0.18312 0.24405 0.44773 -0.40300
O 	O 	0.18312 0.74405 0.94773 -0.36900
O 	O 	0.05227 0.68312 0.75595 -0.41200
O 	O 	0.05227 0.18312 0.25595 -0.42000
O 	O 	0.55227 0.68312 0.25595 -0.39900
O 	O 	0.55227 0.18312 0.75595 -0.40100
O 	O 	0.05227 0.31688 0.24405 -0.41500
O 	O 	0.05227 0.81688 0.74405 -0.40600
O 	O 	0.55227 0.31688 0.74405 -0.39500
O 	O 	0.55227 0.81688 0.24405 -0.39300
O 	O 	0.94773 0.31688 0.75595 -0.36500
O 	O 	0.94773 0.81688 0.25595 -0.36300
O 	O 	0.44773 0.31688 0.25595 -0.39900
O 	O 	0.44773 0.81688 0.75595 -0.39100
O 	O 	0.94773 0.68312 0.24405 -0.36700
O 	O 	0.94773 0.18312 0.74405 -0.36900
O 	O 	0.44773 0.68312 0.74405 -0.39500
O 	O 	0.44773 0.18312 0.24405 -0.40300
O 	O 	0.75595 0.05227 0.68312 -0.41200
O 	O 	0.75595 0.55227 0.18312 -0.40100
O 	O 	0.25595 0.05227 0.18312 -0.42000
O 	O 	0.25595 0.55227 0.68312 -0.39900
O 	O 	0.24405 0.05227 0.31688 -0.41500
O 	O 	0.24405 0.55227 0.81688 -0.39300
O 	O 	0.74405 0.05227 0.81688 -0.40600
O 	O 	0.74405 0.55227 0.31688 -0.39500
O 	O 	0.75595 0.94773 0.31688 -0.36500
O 	O 	0.75595 0.44773 0.81688 -0.39100
O 	O 	0.25595 0.94773 0.81688 -0.36300
O 	O 	0.25595 0.44773 0.31688 -0.39900
O 	O 	0.24405 0.94773 0.68312 -0.36700
O 	O 	0.24405 0.44773 0.18312 -0.40300
O 	O 	0.74405 0.94773 0.18312 -0.36900
O 	O 	0.74405 0.44773 0.68312 -0.39500
O 	O 	0.75595 0.68312 0.94773 -0.36500
O 	O 	0.75595 0.18312 0.44773 -0.40100
O 	O 	0.25595 0.68312 0.44773 -0.39900
O 	O 	0.25595 0.18312 0.94773 -0.37300
O 	O 	0.24405 0.31688 0.94773 -0.36700
O 	O 	0.24405 0.81688 0.44773 -0.39300
O 	O 	0.74405 0.31688 0.44773 -0.39500
O 	O 	0.74405 0.81688 0.94773 -0.35900
O 	O 	0.75595 0.31688 0.05227 -0.41200
O 	O 	0.75595 0.81688 0.55227 -0.39100
O 	O 	0.25595 0.31688 0.55227 -0.39900
O 	O 	0.25595 0.81688 0.05227 -0.41000
O 	O 	0.24405 0.68312 0.05227 -0.41400
O 	O 	0.24405 0.18312 0.55227 -0.40300
O 	O 	0.74405 0.68312 0.55227 -0.39500
O 	O 	0.74405 0.18312 0.05227 -0.41600
O 	O 	0.68312 0.05227 0.24405 -0.41400
O 	O 	0.68312 0.55227 0.74405 -0.39500
O 	O 	0.18312 0.05227 0.74405 -0.41600
O 	O 	0.18312 0.55227 0.24405 -0.40300
O 	O 	0.31688 0.05227 0.75595 -0.41200
O 	O 	0.31688 0.55227 0.25595 -0.39900
O 	O 	0.81688 0.05227 0.25595 -0.41000
O 	O 	0.81688 0.55227 0.75595 -0.39100
O 	O 	0.31688 0.94773 0.24405 -0.36700
O 	O 	0.31688 0.44773 0.74405 -0.39500
O 	O 	0.81688 0.94773 0.74405 -0.35900
O 	O 	0.81688 0.44773 0.24405 -0.39300
O 	O 	0.68312 0.94773 0.75595 -0.36500
O 	O 	0.68312 0.44773 0.25595 -0.39900
O 	O 	0.18312 0.94773 0.25595 -0.37300
O 	O 	0.18312 0.44773 0.75595 -0.40100
O 	O 	0.05227 0.75595 0.31688 -0.41200
O 	O 	0.05227 0.25595 0.81688 -0.41000
O 	O 	0.55227 0.75595 0.81688 -0.39100
O 	O 	0.55227 0.25595 0.31688 -0.39900
O 	O 	0.05227 0.24405 0.68312 -0.41400
O 	O 	0.05227 0.74405 0.18312 -0.41600
O 	O 	0.55227 0.24405 0.18312 -0.40300
O 	O 	0.55227 0.74405 0.68312 -0.39500
O 	O 	0.94773 0.75595 0.68312 -0.36500
O 	O 	0.94773 0.25595 0.18312 -0.37300
O 	O 	0.44773 0.75595 0.18312 -0.40100
O 	O 	0.44773 0.25595 0.68312 -0.39900
O 	O 	0.94773 0.24405 0.31688 -0.36700
O 	O 	0.94773 0.74405 0.81688 -0.35900
O 	O 	0.44773 0.24405 0.81688 -0.39300
O 	O 	0.44773 0.74405 0.31688 -0.39500
Cu	Cu	0.28452 0.28452 -0.00000 0.87700
Cu	Cu	0.28452 0.78452 0.50000 0.90800
Cu	Cu	0.78452 0.28452 0.50000 0.90800
Cu	Cu	0.78452 0.78452 -0.00000 0.88000
Cu	Cu	0.71548 0.71548 -0.00000 0.87700
Cu	Cu	0.71548 0.21548 0.50000 0.90400
Cu	Cu	0.21548 0.71548 0.50000 0.90400
Cu	Cu	0.21548 0.21548 -0.00000 0.87400
Cu	Cu	0.71548 0.28452 -0.00000 0.87700
Cu	Cu	0.71548 0.78452 0.50000 0.90800
Cu	Cu	0.21548 0.28452 0.50000 0.90400
Cu	Cu	0.21548 0.78452 -0.00000 0.87700
Cu	Cu	0.28452 0.71548 -0.00000 0.87700
Cu	Cu	0.28452 0.21548 0.50000 0.90400
Cu	Cu	0.78452 0.71548 0.50000 0.90800
Cu	Cu	0.78452 0.21548 -0.00000 0.87700
Cu	Cu	-0.00000 0.28452 0.28452 0.87700
Cu	Cu	0.00000 0.78452 0.78452 0.88000
Cu	Cu	0.50000 0.28452 0.78452 0.90800
Cu	Cu	0.50000 0.78452 0.28452 0.90800
Cu	Cu	-0.00000 0.71548 0.71548 0.87700
Cu	Cu	-0.00000 0.21548 0.21548 0.87400
Cu	Cu	0.50000 0.71548 0.21548 0.90400
Cu	Cu	0.50000 0.21548 0.71548 0.90400
Cu	Cu	-0.00000 0.71548 0.28452 0.87700
Cu	Cu	-0.00000 0.21548 0.78452 0.87700
Cu	Cu	0.50000 0.71548 0.78452 0.90800
Cu	Cu	0.50000 0.21548 0.28452 0.90400
Cu	Cu	-0.00000 0.28452 0.71548 0.87700
Cu	Cu	-0.00000 0.78452 0.21548 0.87700
Cu	Cu	0.50000 0.28452 0.21548 0.90400
Cu	Cu	0.50000 0.78452 0.71548 0.90800
Cu	Cu	0.28452 0.00000 0.28452 0.87700
Cu	Cu	0.28452 0.50000 0.78452 0.90800
Cu	Cu	0.78452 0.00000 0.78452 0.88000
Cu	Cu	0.78452 0.50000 0.28452 0.90800
Cu	Cu	0.71548 -0.00000 0.71548 0.87700
Cu	Cu	0.71548 0.50000 0.21548 0.90400
Cu	Cu	0.21548 -0.00000 0.21548 0.87400
Cu	Cu	0.21548 0.50000 0.71548 0.90400
Cu	Cu	0.28452 -0.00000 0.71548 0.87700
Cu	Cu	0.28452 0.50000 0.21548 0.90400
Cu	Cu	0.78452 -0.00000 0.21548 0.87700
Cu	Cu	0.78452 0.50000 0.71548 0.90800
Cu	Cu	0.71548 0.00000 0.28452 0.87700
Cu	Cu	0.71548 0.50000 0.78452 0.90800
Cu	Cu	0.21548 0.00000 0.78452 0.87700
Cu	Cu	0.21548 0.50000 0.28452 0.90400
C 	C 	0.32158 0.17842 0.88646 -0.12600
C 	C 	0.29729 0.20271 0.93076 0.34500
C 	C 	0.32158 0.67842 0.38646 -0.13100
C 	C 	0.29729 0.70271 0.43076 0.34800
C 	C 	0.67842 0.82158 0.88646 -0.11700
C 	C 	0.70271 0.79729 0.93076 0.34300
C 	C 	0.67842 0.32158 0.38646 -0.13100
C 	C 	0.70271 0.29729 0.43076 0.34800
C 	C 	0.17842 0.32158 0.88646 -0.12600
C 	C 	0.20271 0.29729 0.93076 0.34500
C 	C 	0.67842 0.17842 0.11354 -0.14000
C 	C 	0.70271 0.20271 0.06924 0.34600
C 	C 	0.67842 0.67842 0.61354 -0.12900
C 	C 	0.70271 0.70271 0.56924 0.34600
C 	C 	0.17842 0.17842 0.61354 -0.13800
C 	C 	0.20271 0.20271 0.56924 0.34800
C 	C 	0.32158 0.82158 0.11354 -0.13400
C 	C 	0.29729 0.79729 0.06924 0.34800
C 	C 	0.32158 0.32158 0.61354 -0.13200
C 	C 	0.29729 0.29729 0.56924 0.34900
C 	C 	0.88646 0.32158 0.17842 -0.12600
C 	C 	0.93076 0.29729 0.20271 0.34500
C 	C 	0.38646 0.32158 0.67842 -0.13100
C 	C 	0.43076 0.29729 0.70271 0.34800
C 	C 	0.88646 0.67842 0.82158 -0.11700
C 	C 	0.93076 0.70271 0.79729 0.34300
C 	C 	0.88646 0.17842 0.32158 -0.12600
C 	C 	0.93076 0.20271 0.29729 0.34500
C 	C 	0.38646 0.67842 0.32158 -0.13100
C 	C 	0.43076 0.70271 0.29729 0.34800
C 	C 	0.11354 0.67842 0.17842 -0.14000
C 	C 	0.06924 0.70271 0.20271 0.34600
C 	C 	0.61354 0.67842 0.67842 -0.12900
C 	C 	0.56924 0.70271 0.70271 0.34600
C 	C 	0.61354 0.17842 0.17842 -0.13800
C 	C 	0.56924 0.20271 0.20271 0.34800
C 	C 	0.11354 0.32158 0.82158 -0.13400
C 	C 	0.06924 0.29729 0.79729 0.34800
C 	C 	0.61354 0.32158 0.32158 -0.13200
C 	C 	0.56924 0.29729 0.29729 0.34900
C 	C 	0.17842 0.88646 0.32158 -0.12600
C 	C 	0.20271 0.93076 0.29729 0.34500
C 	C 	0.17842 0.38646 0.82158 -0.13000
C 	C 	0.20271 0.43076 0.79729 0.34800
C 	C 	0.82158 0.88646 0.67842 -0.11700
C 	C 	0.79729 0.93076 0.70271 0.34300
C 	C 	0.82158 0.38646 0.17842 -0.13000
C 	C 	0.79729 0.43076 0.20271 0.34800
C 	C 	0.32158 0.88646 0.17842 -0.12600
C 	C 	0.29729 0.93076 0.20271 0.34500
C 	C 	0.17842 0.11354 0.67842 -0.14000
C 	C 	0.20271 0.06924 0.70271 0.34600
C 	C 	0.17842 0.61354 0.17842 -0.13800
C 	C 	0.20271 0.56924 0.20271 0.34800
C 	C 	0.82158 0.11354 0.32158 -0.13400
C 	C 	0.79729 0.06924 0.29729 0.34800
C 	C 	0.82158 0.61354 0.82158 -0.12200
C 	C 	0.79729 0.56924 0.79729 0.34700
C 	C 	0.32158 0.61354 0.32158 -0.13200
C 	C 	0.29729 0.56924 0.29729 0.34900
C 	C 	0.17842 0.32158 0.11354 -0.14200
C 	C 	0.20271 0.29729 0.06924 0.34800
C 	C 	0.17842 0.82158 0.61354 -0.13000
C 	C 	0.20271 0.79729 0.56924 0.34800
C 	C 	0.82158 0.67842 0.11354 -0.13300
C 	C 	0.79729 0.70271 0.06924 0.34600
C 	C 	0.82158 0.17842 0.61354 -0.13000
C 	C 	0.79729 0.20271 0.56924 0.34800
C 	C 	0.32158 0.17842 0.11354 -0.14200
C 	C 	0.29729 0.20271 0.06924 0.34800
C 	C 	0.17842 0.67842 0.88646 -0.12400
C 	C 	0.20271 0.70271 0.93076 0.34300
C 	C 	0.17842 0.17842 0.38646 -0.13800
C 	C 	0.20271 0.20271 0.43076 0.34800
C 	C 	0.82158 0.32158 0.88646 -0.11800
C 	C 	0.79729 0.29729 0.93076 0.34400
C 	C 	0.82158 0.82158 0.38646 -0.12300
C 	C 	0.79729 0.79729 0.43076 0.34800
C 	C 	0.32158 0.32158 0.38646 -0.13300
C 	C 	0.29729 0.29729 0.43076 0.34900
C 	C 	0.32158 0.88646 0.82158 -0.11800
C 	C 	0.29729 0.93076 0.79729 0.34400
C 	C 	0.32158 0.38646 0.32158 -0.13300
C 	C 	0.29729 0.43076 0.29729 0.34900
C 	C 	0.67842 0.88646 0.17842 -0.12400
C 	C 	0.70271 0.93076 0.20271 0.34300
C 	C 	0.67842 0.38646 0.67842 -0.12900
C 	C 	0.70271 0.43076 0.70271 0.34700
C 	C 	0.17842 0.38646 0.17842 -0.13800
C 	C 	0.20271 0.43076 0.20271 0.34800
C 	C 	0.67842 0.11354 0.82158 -0.13300
C 	C 	0.70271 0.06924 0.79729 0.34600
C 	C 	0.67842 0.61354 0.32158 -0.13100
C 	C 	0.70271 0.56924 0.29729 0.34800
C 	C 	0.17842 0.11354 0.32158 -0.14200
C 	C 	0.20271 0.06924 0.29729 0.34800
C 	C 	0.32158 0.11354 0.17842 -0.14200
C 	C 	0.29729 0.06924 0.20271 0.34800
C 	C 	0.32158 0.61354 0.67842 -0.13100
C 	C 	0.29729 0.56924 0.70271 0.34800
C 	C 	0.88646 0.17842 0.67842 -0.12400
C 	C 	0.93076 0.20271 0.70271 0.34300
C 	C 	0.38646 0.17842 0.17842 -0.13800
C 	C 	0.43076 0.20271 0.20271 0.34800
C 	C 	0.88646 0.82158 0.32158 -0.11800
C 	C 	0.93076 0.79729 0.29729 0.34400
C 	C 	0.38646 0.82158 0.82158 -0.12300
C 	C 	0.43076 0.79729 0.79729 0.34800
C 	C 	0.38646 0.32158 0.32158 -0.13300
C 	C 	0.43076 0.29729 0.29729 0.34900
C 	C 	0.11354 0.17842 0.32158 -0.14200
C 	C 	0.06924 0.20271 0.29729 0.34800
C 	C 	0.61354 0.17842 0.82158 -0.13000
C 	C 	0.56924 0.20271 0.79729 0.34800
C 	C 	0.11354 0.82158 0.67842 -0.13300
C 	C 	0.06924 0.79729 0.70271 0.34600
C 	C 	0.11354 0.32158 0.17842 -0.14200
C 	C 	0.06924 0.29729 0.20271 0.34800
C 	C 	0.61354 0.82158 0.17842 -0.13000
C 	C 	0.56924 0.79729 0.20271 0.34800
C 	C 	0.67842 0.82158 0.11354 -0.13300
C 	C 	0.70271 0.79729 0.06924 0.34600
C 	C 	0.67842 0.32158 0.61354 -0.13100
C 	C 	0.70271 0.29729 0.56924 0.34800
C 	C 	0.32158 0.67842 0.61354 -0.13100
C 	C 	0.29729 0.70271 0.56924 0.34800
C 	C 	0.32158 0.82158 0.88646 -0.11800
C 	C 	0.29729 0.79729 0.93076 0.34400
C 	C 	0.67842 0.17842 0.88646 -0.12400
C 	C 	0.70271 0.20271 0.93076 0.34300
C 	C 	0.67842 0.67842 0.38646 -0.12900
C 	C 	0.70271 0.70271 0.43076 0.34700
C 	C 	0.11354 0.67842 0.82158 -0.13300
C 	C 	0.06924 0.70271 0.79729 0.34600
C 	C 	0.61354 0.67842 0.32158 -0.13100
C 	C 	0.56924 0.70271 0.29729 0.34800
C 	C 	0.61354 0.32158 0.67842 -0.13100
C 	C 	0.56924 0.29729 0.70271 0.34800
C 	C 	0.88646 0.32158 0.82158 -0.11800
C 	C 	0.93076 0.29729 0.79729 0.34400
C 	C 	0.88646 0.67842 0.17842 -0.12400
C 	C 	0.93076 0.70271 0.20271 0.34300
C 	C 	0.38646 0.67842 0.67842 -0.12900
C 	C 	0.43076 0.70271 0.70271 0.34700
C 	C 	0.82158 0.11354 0.67842 -0.13300
C 	C 	0.79729 0.06924 0.70271 0.34600
C 	C 	0.82158 0.61354 0.17842 -0.13000
C 	C 	0.79729 0.56924 0.20271 0.34800
C 	C 	0.17842 0.61354 0.82158 -0.13000
C 	C 	0.20271 0.56924 0.79729 0.34800
C 	C 	0.82158 0.88646 0.32158 -0.11800
C 	C 	0.79729 0.93076 0.29729 0.34400
C 	C 	0.82158 0.38646 0.82158 -0.12300
C 	C 	0.79729 0.43076 0.79729 0.34800
C 	C 	0.17842 0.88646 0.67842 -0.12400
C 	C 	0.20271 0.93076 0.70271 0.34300
C 	C 	0.82158 0.67842 0.88646 -0.11700
C 	C 	0.79729 0.70271 0.93076 0.34300
C 	C 	0.82158 0.17842 0.38646 -0.13000
C 	C 	0.79729 0.20271 0.43076 0.34800
C 	C 	0.17842 0.82158 0.38646 -0.13000
C 	C 	0.20271 0.79729 0.43076 0.34800
C 	C 	0.82158 0.32158 0.11354 -0.13400
C 	C 	0.79729 0.29729 0.06924 0.34800
C 	C 	0.82158 0.82158 0.61354 -0.12200
C 	C 	0.79729 0.79729 0.56924 0.34700
C 	C 	0.17842 0.67842 0.11354 -0.14000
C 	C 	0.20271 0.70271 0.06924 0.34600
C 	C 	0.67842 0.11354 0.17842 -0.14000
C 	C 	0.70271 0.06924 0.20271 0.34600
C 	C 	0.67842 0.61354 0.67842 -0.12900
C 	C 	0.70271 0.56924 0.70271 0.34600
C 	C 	0.32158 0.11354 0.82158 -0.13400
C 	C 	0.29729 0.06924 0.79729 0.34800
C 	C 	0.32158 0.38646 0.67842 -0.13100
C 	C 	0.29729 0.43076 0.70271 0.34800
C 	C 	0.67842 0.88646 0.82158 -0.11700
C 	C 	0.70271 0.93076 0.79729 0.34300
C 	C 	0.67842 0.38646 0.32158 -0.13100
C 	C 	0.70271 0.43076 0.29729 0.34800
C 	C 	0.11354 0.82158 0.32158 -0.13400
C 	C 	0.06924 0.79729 0.29729 0.34800
C 	C 	0.61354 0.82158 0.82158 -0.12200
C 	C 	0.56924 0.79729 0.79729 0.34700
C 	C 	0.11354 0.17842 0.67842 -0.14000
C 	C 	0.06924 0.20271 0.70271 0.34600
C 	C 	0.88646 0.82158 0.67842 -0.11700
C 	C 	0.93076 0.79729 0.70271 0.34300
C 	C 	0.38646 0.82158 0.17842 -0.13000
C 	C 	0.43076 0.79729 0.20271 0.34800
C 	C 	0.38646 0.17842 0.82158 -0.13000
C 	C 	0.43076 0.20271 0.79729 0.34800
C 	C 	0.36481 0.19893 0.86481 0.08100
H 	H 	0.38103 0.23540 0.88103 0.04900
C 	C 	0.36481 0.69893 0.36481 0.08100
H 	H 	0.38103 0.73540 0.38103 0.04600
C 	C 	0.63519 0.80107 0.86481 0.08000
H 	H 	0.61897 0.76460 0.88103 0.05200
C 	C 	0.63519 0.30107 0.36481 0.08100
H 	H 	0.61897 0.26460 0.38103 0.04200
C 	C 	0.13519 0.80107 0.36481 0.08000
H 	H 	0.11897 0.76460 0.38103 0.03900
C 	C 	0.63519 0.19893 0.13519 0.07900
H 	H 	0.61897 0.23540 0.11897 0.03700
C 	C 	0.63519 0.69893 0.63519 0.07900
H 	H 	0.61897 0.73540 0.61897 0.04600
C 	C 	0.13519 0.69893 0.13519 0.07900
H 	H 	0.11897 0.73540 0.11897 0.03400
C 	C 	0.36481 0.80107 0.13519 0.08000
H 	H 	0.38103 0.76460 0.11897 0.03900
C 	C 	0.36481 0.30107 0.63519 0.08100
H 	H 	0.38103 0.26460 0.61897 0.04200
C 	C 	0.86481 0.36481 0.19893 0.08100
H 	H 	0.88103 0.38103 0.23540 0.04900
C 	C 	0.86481 0.86481 0.69893 0.07900
H 	H 	0.88103 0.88103 0.73540 0.05900
C 	C 	0.36481 0.36481 0.69893 0.08100
H 	H 	0.38103 0.38103 0.73540 0.04600
C 	C 	0.86481 0.63519 0.80107 0.08000
H 	H 	0.88103 0.61897 0.76460 0.05200
C 	C 	0.86481 0.13519 0.30107 0.08000
H 	H 	0.88103 0.11897 0.26460 0.04300
C 	C 	0.36481 0.13519 0.80107 0.08000
H 	H 	0.38103 0.11897 0.76460 0.03900
C 	C 	0.13519 0.63519 0.19893 0.07900
H 	H 	0.11897 0.61897 0.23540 0.03700
C 	C 	0.13519 0.13519 0.69893 0.07900
H 	H 	0.11897 0.11897 0.73540 0.03400
C 	C 	0.13519 0.36481 0.80107 0.08000
H 	H 	0.11897 0.38103 0.76460 0.03900
C 	C 	0.13519 0.86481 0.30107 0.08000
H 	H 	0.11897 0.88103 0.26460 0.04300
C 	C 	0.19893 0.86481 0.36481 0.08100
H 	H 	0.23540 0.88103 0.38103 0.04900
C 	C 	0.69893 0.86481 0.86481 0.07900
H 	H 	0.73540 0.88103 0.88103 0.05900
C 	C 	0.69893 0.36481 0.36481 0.08100
H 	H 	0.73540 0.38103 0.38103 0.04600
C 	C 	0.80107 0.86481 0.63519 0.08000
H 	H 	0.76460 0.88103 0.61897 0.05200
C 	C 	0.80107 0.36481 0.13519 0.08000
H 	H 	0.76460 0.38103 0.11897 0.03900
C 	C 	0.30107 0.86481 0.13519 0.08000
H 	H 	0.26460 0.88103 0.11897 0.04300
C 	C 	0.19893 0.13519 0.63519 0.07900
H 	H 	0.23540 0.11897 0.61897 0.03700
C 	C 	0.69893 0.13519 0.13519 0.07900
H 	H 	0.73540 0.11897 0.11897 0.03400
C 	C 	0.80107 0.13519 0.36481 0.08000
H 	H 	0.76460 0.11897 0.38103 0.03900
C 	C 	0.30107 0.13519 0.86481 0.08000
H 	H 	0.26460 0.11897 0.88103 0.04300
C 	C 	0.19893 0.36481 0.13519 0.08000
H 	H 	0.23540 0.38103 0.11897 0.03700
C 	C 	0.69893 0.36481 0.63519 0.08000
H 	H 	0.73540 0.38103 0.61897 0.04600
C 	C 	0.80107 0.63519 0.13519 0.07900
H 	H 	0.76460 0.61897 0.11897 0.03900
C 	C 	0.30107 0.63519 0.63519 0.08000
H 	H 	0.26460 0.61897 0.61897 0.04200
C 	C 	0.30107 0.13519 0.13519 0.08000
H 	H 	0.26460 0.11897 0.11897 0.03100
C 	C 	0.19893 0.63519 0.86481 0.08000
H 	H 	0.23540 0.61897 0.88103 0.04900
C 	C 	0.19893 0.13519 0.36481 0.08000
H 	H 	0.23540 0.11897 0.38103 0.03700
C 	C 	0.69893 0.63519 0.36481 0.08000
H 	H 	0.73540 0.61897 0.38103 0.04600
C 	C 	0.80107 0.36481 0.86481 0.08000
H 	H 	0.76460 0.38103 0.88103 0.05100
C 	C 	0.30107 0.36481 0.36481 0.08200
H 	H 	0.26460 0.38103 0.38103 0.04200
C 	C 	0.36481 0.86481 0.80107 0.08000
H 	H 	0.38103 0.88103 0.76460 0.05100
C 	C 	0.36481 0.36481 0.30107 0.08200
H 	H 	0.38103 0.38103 0.26460 0.04200
C 	C 	0.63519 0.86481 0.19893 0.08000
H 	H 	0.61897 0.88103 0.23540 0.04900
C 	C 	0.63519 0.36481 0.69893 0.08000
H 	H 	0.61897 0.38103 0.73540 0.04600
C 	C 	0.13519 0.36481 0.19893 0.08000
H 	H 	0.11897 0.38103 0.23540 0.03700
C 	C 	0.63519 0.13519 0.80107 0.07900
H 	H 	0.61897 0.11897 0.76460 0.03900
C 	C 	0.63519 0.63519 0.30107 0.08000
H 	H 	0.61897 0.61897 0.26460 0.04200
C 	C 	0.13519 0.13519 0.30107 0.08000
H 	H 	0.11897 0.11897 0.26460 0.03100
C 	C 	0.36481 0.13519 0.19893 0.08000
H 	H 	0.38103 0.11897 0.23540 0.03700
C 	C 	0.36481 0.63519 0.69893 0.08000
H 	H 	0.38103 0.61897 0.73540 0.04600
C 	C 	0.86481 0.19893 0.63519 0.08000
H 	H 	0.88103 0.23540 0.61897 0.04900
C 	C 	0.86481 0.69893 0.13519 0.07900
H 	H 	0.88103 0.73540 0.11897 0.04600
C 	C 	0.36481 0.19893 0.13519 0.08000
H 	H 	0.38103 0.23540 0.11897 0.03700
C 	C 	0.86481 0.80107 0.36481 0.08000
H 	H 	0.88103 0.76460 0.38103 0.05100
C 	C 	0.86481 0.30107 0.86481 0.08000
H 	H 	0.88103 0.26460 0.88103 0.05500
C 	C 	0.36481 0.30107 0.36481 0.08200
H 	H 	0.38103 0.26460 0.38103 0.04200
C 	C 	0.13519 0.19893 0.36481 0.08000
H 	H 	0.11897 0.23540 0.38103 0.03700
C 	C 	0.13519 0.69893 0.86481 0.07900
H 	H 	0.11897 0.73540 0.88103 0.04600
C 	C 	0.13519 0.80107 0.63519 0.07900
H 	H 	0.11897 0.76460 0.61897 0.03900
C 	C 	0.13519 0.30107 0.13519 0.08000
H 	H 	0.11897 0.26460 0.11897 0.03100
C 	C 	0.63519 0.80107 0.13519 0.07900
H 	H 	0.61897 0.76460 0.11897 0.03900
C 	C 	0.63519 0.30107 0.63519 0.08000
H 	H 	0.61897 0.26460 0.61897 0.04200
C 	C 	0.36481 0.69893 0.63519 0.08000
H 	H 	0.38103 0.73540 0.61897 0.04600
C 	C 	0.36481 0.80107 0.86481 0.08000
H 	H 	0.38103 0.76460 0.88103 0.05100
C 	C 	0.63519 0.19893 0.86481 0.08000
H 	H 	0.61897 0.23540 0.88103 0.04900
C 	C 	0.63519 0.69893 0.36481 0.08000
H 	H 	0.61897 0.73540 0.38103 0.04600
C 	C 	0.13519 0.63519 0.80107 0.07900
H 	H 	0.11897 0.61897 0.76460 0.03900
C 	C 	0.13519 0.86481 0.69893 0.07900
H 	H 	0.11897 0.88103 0.73540 0.04600
C 	C 	0.86481 0.36481 0.80107 0.08000
H 	H 	0.88103 0.38103 0.76460 0.05100
C 	C 	0.86481 0.86481 0.30107 0.08000
H 	H 	0.88103 0.88103 0.26460 0.05500
C 	C 	0.86481 0.63519 0.19893 0.08000
H 	H 	0.88103 0.61897 0.23540 0.04900
C 	C 	0.86481 0.13519 0.69893 0.07900
H 	H 	0.88103 0.11897 0.73540 0.04600
C 	C 	0.80107 0.13519 0.63519 0.07900
H 	H 	0.76460 0.11897 0.61897 0.03900
C 	C 	0.69893 0.13519 0.86481 0.07900
H 	H 	0.73540 0.11897 0.88103 0.04600
C 	C 	0.80107 0.86481 0.36481 0.08000
H 	H 	0.76460 0.88103 0.38103 0.05100
C 	C 	0.30107 0.86481 0.86481 0.08000
H 	H 	0.26460 0.88103 0.88103 0.05500
C 	C 	0.19893 0.86481 0.63519 0.08000
H 	H 	0.23540 0.88103 0.61897 0.04900
C 	C 	0.69893 0.86481 0.13519 0.07900
H 	H 	0.73540 0.88103 0.11897 0.04600
C 	C 	0.80107 0.63519 0.86481 0.08000
H 	H 	0.76460 0.61897 0.88103 0.05200
C 	C 	0.30107 0.63519 0.36481 0.08100
H 	H 	0.26460 0.61897 0.38103 0.04200
C 	C 	0.19893 0.36481 0.86481 0.08100
H 	H 	0.23540 0.38103 0.88103 0.04900
C 	C 	0.30107 0.36481 0.63519 0.08100
H 	H 	0.26460 0.38103 0.61897 0.04200
C 	C 	0.19893 0.63519 0.13519 0.07900
H 	H 	0.23540 0.61897 0.11897 0.03700
C 	C 	0.69893 0.63519 0.63519 0.07900
H 	H 	0.73540 0.61897 0.61897 0.04600
C 	C 	0.63519 0.13519 0.19893 0.07900
H 	H 	0.61897 0.11897 0.23540 0.03700
C 	C 	0.63519 0.63519 0.69893 0.07900
H 	H 	0.61897 0.61897 0.73540 0.04600
C 	C 	0.36481 0.63519 0.30107 0.08100
H 	H 	0.38103 0.61897 0.26460 0.04200
C 	C 	0.36481 0.86481 0.19893 0.08100
H 	H 	0.38103 0.88103 0.23540 0.04900
C 	C 	0.63519 0.86481 0.80107 0.08000
H 	H 	0.61897 0.88103 0.76460 0.05200
C 	C 	0.63519 0.36481 0.30107 0.08100
H 	H 	0.61897 0.38103 0.26460 0.04200
C 	C 	0.13519 0.30107 0.86481 0.08000
H 	H 	0.11897 0.26460 0.88103 0.04300
C 	C 	0.13519 0.19893 0.63519 0.07900
H 	H 	0.11897 0.23540 0.61897 0.03700
C 	C 	0.86481 0.80107 0.63519 0.08000
H 	H 	0.88103 0.76460 0.61897 0.05200
C 	C 	0.86481 0.30107 0.13519 0.08000
H 	H 	0.88103 0.26460 0.11897 0.04300
C 	C 	0.86481 0.19893 0.36481 0.08100
H 	H 	0.88103 0.23540 0.38103 0.04900
C 	C 	0.86481 0.69893 0.86481 0.07900
H 	H 	0.88103 0.73540 0.88103 0.05900
