data_crystal

_cell_length_a 35.15710
_cell_length_b 35.15710
_cell_length_c 35.15710
_cell_angle_alpha 90.00000
_cell_angle_beta  90.00000
_cell_angle_gamma 90.00000

_symmetry_space_group_name_	'P 1'
_symmetry_space_group_name_H-M	'P 1'

loop_
_symmetry_equiv_pos_as_xyz
  x,y,z

loop_
_atom_site_label
_atom_site_type_symbol
_atom_site_fract_x
_atom_site_fract_y
_atom_site_fract_z
_atom_site_charge
C 	C 	0.63900 0.46800 0.30000 -0.14200
C 	C 	0.57800 0.47700 0.28200 -0.16800
C 	C 	0.68400 0.50100 0.44000 0.01300
C 	C 	0.69300 0.53500 0.45400 -0.05200
C 	C 	0.70600 0.56000 0.42800 -0.00700
C 	C 	0.70400 0.55200 0.38900 -0.04700
C 	C 	0.69500 0.51900 0.37400 0.01300
C 	C 	0.61200 0.39800 0.42100 0.09900
C 	C 	0.58000 0.40000 0.44000 -0.07600
C 	C 	0.55200 0.42600 0.43200 -0.04100
C 	C 	0.56100 0.45300 0.40900 0.05500
C 	C 	0.59600 0.45400 0.39800 -0.03000
C 	C 	0.53400 0.47700 0.39500 -0.12200
N 	N 	0.64800 0.45300 0.32400 -0.17700
N 	N 	0.55500 0.46900 0.29900 -0.06800
N 	N 	0.69100 0.48900 0.40000 -0.21500
N 	N 	0.62400 0.42400 0.40600 -0.22500
H 	H 	0.66995 0.47883 0.45904 0.01400
H 	H 	0.68944 0.54095 0.48568 0.03900
H 	H 	0.71887 0.58817 0.43761 0.02700
H 	H 	0.71050 0.57523 0.36733 0.04100
H 	H 	0.69101 0.51631 0.34193 0.01500
H 	H 	0.62816 0.36994 0.41937 -0.00700
H 	H 	0.57438 0.37951 0.46450 0.04600
H 	H 	0.52269 0.42294 0.44552 0.03400
H 	H 	0.60691 0.47932 0.38093 0.02000
H 	H 	0.53278 0.48326 0.36321 0.06100
H 	H 	0.51262 0.49083 0.41508 0.05200
C 	C 	0.13900 0.96800 0.80000 -0.13600
C 	C 	0.07800 0.97700 0.78200 -0.16300
C 	C 	0.18400 0.00100 0.94000 -0.00600
C 	C 	0.19300 0.03500 0.95400 -0.04200
C 	C 	0.20600 0.06000 0.92800 -0.01300
C 	C 	0.20400 0.05200 0.88900 -0.04100
C 	C 	0.19500 0.01900 0.87400 0.00100
C 	C 	0.11200 0.89800 0.92100 0.09900
C 	C 	0.08000 0.90000 0.94000 -0.07500
C 	C 	0.05200 0.92600 0.93200 -0.04000
C 	C 	0.06100 0.95300 0.90900 0.05600
C 	C 	0.09600 0.95400 0.89800 -0.02900
C 	C 	0.03400 0.97700 0.89500 -0.12200
N 	N 	0.14800 0.95300 0.82400 -0.17800
N 	N 	0.05500 0.96900 0.79900 -0.06900
N 	N 	0.19100 0.98900 0.90000 -0.20400
N 	N 	0.12400 0.92400 0.90600 -0.22400
H 	H 	0.16995 0.97883 0.95904 0.02600
H 	H 	0.18944 0.04095 0.98568 0.03700
H 	H 	0.21887 0.08817 0.93761 0.02900
H 	H 	0.21050 0.07523 0.86733 0.04000
H 	H 	0.19101 0.01631 0.84193 0.01400
H 	H 	0.12816 0.86994 0.91937 -0.00700
H 	H 	0.07438 0.87951 0.96450 0.04700
H 	H 	0.02269 0.92294 0.94552 0.03500
H 	H 	0.10691 0.97932 0.88093 0.02300
H 	H 	0.03278 0.98326 0.86321 0.06200
H 	H 	0.01262 0.99083 0.91508 0.05400
C 	C 	0.86100 0.53200 0.80000 -0.14200
C 	C 	0.92200 0.52300 0.78200 -0.16800
C 	C 	0.81600 0.49900 0.94000 0.01400
C 	C 	0.80700 0.46500 0.95400 -0.05100
C 	C 	0.79400 0.44000 0.92800 -0.00600
C 	C 	0.79600 0.44800 0.88900 -0.04700
C 	C 	0.80500 0.48100 0.87400 0.01300
C 	C 	0.88800 0.60200 0.92100 0.09900
C 	C 	0.92000 0.60000 0.94000 -0.07400
C 	C 	0.94800 0.57400 0.93200 -0.04000
C 	C 	0.93900 0.54700 0.90900 0.05600
C 	C 	0.90400 0.54600 0.89800 -0.03000
C 	C 	0.96600 0.52300 0.89500 -0.12200
N 	N 	0.85200 0.54700 0.82400 -0.17700
N 	N 	0.94500 0.53100 0.79900 -0.06600
N 	N 	0.80900 0.51100 0.90000 -0.21500
N 	N 	0.87600 0.57600 0.90600 -0.22400
H 	H 	0.83005 0.52117 0.95904 0.01600
H 	H 	0.81056 0.45905 0.98568 0.04200
H 	H 	0.78113 0.41183 0.93761 0.02800
H 	H 	0.78950 0.42477 0.86733 0.04200
H 	H 	0.80899 0.48369 0.84193 0.01500
H 	H 	0.87184 0.63006 0.91937 -0.00600
H 	H 	0.92562 0.62049 0.96450 0.04800
H 	H 	0.97731 0.57706 0.94552 0.03900
H 	H 	0.89309 0.52068 0.88093 0.02000
H 	H 	0.96722 0.51674 0.86321 0.06200
H 	H 	0.98738 0.50917 0.91508 0.05500
C 	C 	0.36100 0.03200 0.30000 -0.14500
C 	C 	0.42200 0.02300 0.28200 -0.17200
C 	C 	0.31600 0.99900 0.44000 0.03400
C 	C 	0.30700 0.96500 0.45400 -0.06100
C 	C 	0.29400 0.94000 0.42800 -0.00100
C 	C 	0.29600 0.94800 0.38900 -0.05400
C 	C 	0.30500 0.98100 0.37400 0.02300
C 	C 	0.38800 0.10200 0.42100 0.09800
C 	C 	0.42000 0.10000 0.44000 -0.07700
C 	C 	0.44800 0.07400 0.43200 -0.04100
C 	C 	0.43900 0.04700 0.40900 0.05300
C 	C 	0.40400 0.04600 0.39800 -0.03100
C 	C 	0.46600 0.02300 0.39500 -0.12400
N 	N 	0.35200 0.04700 0.32400 -0.17800
N 	N 	0.44500 0.03100 0.29900 -0.07000
N 	N 	0.30900 0.01100 0.40000 -0.22700
N 	N 	0.37600 0.07600 0.40600 -0.22600
H 	H 	0.33005 0.02117 0.45904 0.00400
H 	H 	0.31056 0.95905 0.48568 0.04200
H 	H 	0.28113 0.91183 0.43761 0.02500
H 	H 	0.28950 0.92477 0.36733 0.04200
H 	H 	0.30899 0.98369 0.34193 0.01400
H 	H 	0.37184 0.13006 0.41937 -0.00800
H 	H 	0.42562 0.12049 0.46450 0.04500
H 	H 	0.47731 0.07706 0.44552 0.03200
H 	H 	0.39309 0.02068 0.38093 0.01700
H 	H 	0.46722 0.01674 0.36321 0.05700
H 	H 	0.48738 0.00917 0.41508 0.04800
C 	C 	0.36100 0.96800 0.20000 -0.13700
C 	C 	0.42200 0.97700 0.21800 -0.16300
C 	C 	0.31600 0.00100 0.06000 -0.00800
C 	C 	0.30700 0.03500 0.04600 -0.04500
C 	C 	0.29400 0.06000 0.07200 -0.01500
C 	C 	0.29600 0.05200 0.11100 -0.04300
C 	C 	0.30500 0.01900 0.12600 0.00000
C 	C 	0.38800 0.89800 0.07900 0.09700
C 	C 	0.42000 0.90000 0.06000 -0.07700
C 	C 	0.44800 0.92600 0.06800 -0.04300
C 	C 	0.43900 0.95300 0.09100 0.05500
C 	C 	0.40400 0.95400 0.10200 -0.03100
C 	C 	0.46600 0.97700 0.10500 -0.12200
N 	N 	0.35200 0.95300 0.17600 -0.17900
N 	N 	0.44500 0.96900 0.20100 -0.06800
N 	N 	0.30900 0.98900 0.10000 -0.20600
N 	N 	0.37600 0.92400 0.09400 -0.22600
H 	H 	0.33005 0.97883 0.04096 0.02000
H 	H 	0.31056 0.04095 0.01432 0.03100
H 	H 	0.28113 0.08817 0.06239 0.02600
H 	H 	0.28950 0.07523 0.13267 0.03800
H 	H 	0.30899 0.01631 0.15807 0.01300
H 	H 	0.37184 0.86994 0.08063 -0.00800
H 	H 	0.42562 0.87951 0.03550 0.04300
H 	H 	0.47731 0.92294 0.05448 0.03200
H 	H 	0.39309 0.97932 0.11907 0.02200
H 	H 	0.46722 0.98326 0.13679 0.06200
H 	H 	0.48738 0.99083 0.08492 0.05300
C 	C 	0.86100 0.46800 0.70000 -0.14300
C 	C 	0.92200 0.47700 0.71800 -0.16900
C 	C 	0.81600 0.50100 0.56000 0.01200
C 	C 	0.80700 0.53500 0.54600 -0.05300
C 	C 	0.79400 0.56000 0.57200 -0.00800
C 	C 	0.79600 0.55200 0.61100 -0.04800
C 	C 	0.80500 0.51900 0.62600 0.01200
C 	C 	0.88800 0.39800 0.57900 0.09800
C 	C 	0.92000 0.40000 0.56000 -0.07600
C 	C 	0.94800 0.42600 0.56800 -0.04200
C 	C 	0.93900 0.45300 0.59100 0.05500
C 	C 	0.90400 0.45400 0.60200 -0.03100
C 	C 	0.96600 0.47700 0.60500 -0.12300
N 	N 	0.85200 0.45300 0.67600 -0.17800
N 	N 	0.94500 0.46900 0.70100 -0.06700
N 	N 	0.80900 0.48900 0.60000 -0.21600
N 	N 	0.87600 0.42400 0.59400 -0.22600
H 	H 	0.83005 0.47883 0.54096 0.01300
H 	H 	0.81056 0.54095 0.51432 0.03800
H 	H 	0.78113 0.58817 0.56239 0.02600
H 	H 	0.78950 0.57523 0.63267 0.04000
H 	H 	0.80899 0.51631 0.65807 0.01400
H 	H 	0.87184 0.36994 0.58063 -0.00800
H 	H 	0.92562 0.37951 0.53550 0.04500
H 	H 	0.97731 0.42294 0.55448 0.03600
H 	H 	0.89309 0.47932 0.61907 0.01900
H 	H 	0.96722 0.48326 0.63679 0.06100
H 	H 	0.98738 0.49083 0.58492 0.05400
C 	C 	0.13900 0.03200 0.70000 -0.14600
C 	C 	0.07800 0.02300 0.71800 -0.17400
C 	C 	0.18400 0.99900 0.56000 0.03300
C 	C 	0.19300 0.96500 0.54600 -0.06100
C 	C 	0.20600 0.94000 0.57200 -0.00100
C 	C 	0.20400 0.94800 0.61100 -0.05400
C 	C 	0.19500 0.98100 0.62600 0.02300
C 	C 	0.11200 0.10200 0.57900 0.09800
C 	C 	0.08000 0.10000 0.56000 -0.07800
C 	C 	0.05200 0.07400 0.56800 -0.04200
C 	C 	0.06100 0.04700 0.59100 0.05200
C 	C 	0.09600 0.04600 0.60200 -0.03100
C 	C 	0.03400 0.02300 0.60500 -0.12500
N 	N 	0.14800 0.04700 0.67600 -0.17800
N 	N 	0.05500 0.03100 0.70100 -0.07100
N 	N 	0.19100 0.01100 0.60000 -0.22700
N 	N 	0.12400 0.07600 0.59400 -0.22600
H 	H 	0.16995 0.02117 0.54096 0.00400
H 	H 	0.18944 0.95905 0.51432 0.04200
H 	H 	0.21887 0.91183 0.56239 0.02500
H 	H 	0.21050 0.92477 0.63267 0.04200
H 	H 	0.19101 0.98369 0.65807 0.01400
H 	H 	0.12816 0.13006 0.58063 -0.00800
H 	H 	0.07438 0.12049 0.53550 0.04400
H 	H 	0.02269 0.07706 0.55448 0.03000
H 	H 	0.10691 0.02068 0.61907 0.01700
H 	H 	0.03278 0.01674 0.63679 0.05600
H 	H 	0.01262 0.00917 0.58492 0.04500
C 	C 	0.63900 0.53200 0.20000 -0.14300
C 	C 	0.57800 0.52300 0.21800 -0.16900
C 	C 	0.68400 0.49900 0.06000 0.01200
C 	C 	0.69300 0.46500 0.04600 -0.05400
C 	C 	0.70600 0.44000 0.07200 -0.00800
C 	C 	0.70400 0.44800 0.11100 -0.04800
C 	C 	0.69500 0.48100 0.12600 0.01100
C 	C 	0.61200 0.60200 0.07900 0.09700
C 	C 	0.58000 0.60000 0.06000 -0.07800
C 	C 	0.55200 0.57400 0.06800 -0.04300
C 	C 	0.56100 0.54700 0.09100 0.05400
C 	C 	0.59600 0.54600 0.10200 -0.03100
C 	C 	0.53400 0.52300 0.10500 -0.12300
N 	N 	0.64800 0.54700 0.17600 -0.17800
N 	N 	0.55500 0.53100 0.20100 -0.06900
N 	N 	0.69100 0.51100 0.10000 -0.21600
N 	N 	0.62400 0.57600 0.09400 -0.22600
H 	H 	0.66995 0.52117 0.04096 0.01100
H 	H 	0.68944 0.45905 0.01432 0.03500
H 	H 	0.71887 0.41183 0.06239 0.02500
H 	H 	0.71050 0.42477 0.13267 0.04000
H 	H 	0.69101 0.48369 0.15807 0.01400
H 	H 	0.62816 0.63006 0.08063 -0.00800
H 	H 	0.57438 0.62049 0.03550 0.04300
H 	H 	0.52269 0.57706 0.05448 0.03100
H 	H 	0.60691 0.52068 0.11907 0.01900
H 	H 	0.53278 0.51674 0.13679 0.06000
H 	H 	0.51262 0.50917 0.08492 0.05000
C 	C 	0.30000 0.63900 0.46800 -0.14300
C 	C 	0.28200 0.57800 0.47700 -0.16900
C 	C 	0.44000 0.68400 0.50100 0.01200
C 	C 	0.45400 0.69300 0.53500 -0.05300
C 	C 	0.42800 0.70600 0.56000 -0.00800
C 	C 	0.38900 0.70400 0.55200 -0.04800
C 	C 	0.37400 0.69500 0.51900 0.01200
C 	C 	0.42100 0.61200 0.39800 0.09800
C 	C 	0.44000 0.58000 0.40000 -0.07700
C 	C 	0.43200 0.55200 0.42600 -0.04200
C 	C 	0.40900 0.56100 0.45300 0.05400
C 	C 	0.39800 0.59600 0.45400 -0.03100
C 	C 	0.39500 0.53400 0.47700 -0.12300
N 	N 	0.32400 0.64800 0.45300 -0.17800
N 	N 	0.29900 0.55500 0.46900 -0.06900
N 	N 	0.40000 0.69100 0.48900 -0.21600
N 	N 	0.40600 0.62400 0.42400 -0.22600
H 	H 	0.45904 0.66995 0.47883 0.01300
H 	H 	0.48568 0.68944 0.54095 0.03800
H 	H 	0.43761 0.71887 0.58817 0.02600
H 	H 	0.36733 0.71050 0.57523 0.04000
H 	H 	0.34193 0.69101 0.51631 0.01400
H 	H 	0.41937 0.62816 0.36994 -0.00800
H 	H 	0.46450 0.57438 0.37951 0.04500
H 	H 	0.44552 0.52269 0.42294 0.03300
H 	H 	0.38093 0.60691 0.47932 0.01900
H 	H 	0.36321 0.53278 0.48326 0.06000
H 	H 	0.41508 0.51262 0.49083 0.05100
C 	C 	0.80000 0.13900 0.96800 -0.13700
C 	C 	0.78200 0.07800 0.97700 -0.16400
C 	C 	0.94000 0.18400 0.00100 -0.00700
C 	C 	0.95400 0.19300 0.03500 -0.04300
C 	C 	0.92800 0.20600 0.06000 -0.01400
C 	C 	0.88900 0.20400 0.05200 -0.04200
C 	C 	0.87400 0.19500 0.01900 0.00000
C 	C 	0.92100 0.11200 0.89800 0.09800
C 	C 	0.94000 0.08000 0.90000 -0.07600
C 	C 	0.93200 0.05200 0.92600 -0.04100
C 	C 	0.90900 0.06100 0.95300 0.05500
C 	C 	0.89800 0.09600 0.95400 -0.03000
C 	C 	0.89500 0.03400 0.97700 -0.12300
N 	N 	0.82400 0.14800 0.95300 -0.17900
N 	N 	0.79900 0.05500 0.96900 -0.07000
N 	N 	0.90000 0.19100 0.98900 -0.20500
N 	N 	0.90600 0.12400 0.92400 -0.22500
H 	H 	0.95904 0.16995 0.97883 0.02500
H 	H 	0.98568 0.18944 0.04095 0.03600
H 	H 	0.93761 0.21887 0.08817 0.02800
H 	H 	0.86733 0.21050 0.07523 0.03900
H 	H 	0.84193 0.19101 0.01631 0.01300
H 	H 	0.91937 0.12816 0.86994 -0.00800
H 	H 	0.96450 0.07438 0.87951 0.04600
H 	H 	0.94552 0.02269 0.92294 0.03400
H 	H 	0.88093 0.10691 0.97932 0.02200
H 	H 	0.86321 0.03278 0.98326 0.06100
H 	H 	0.91508 0.01262 0.99083 0.05300
C 	C 	0.80000 0.86100 0.53200 -0.14300
C 	C 	0.78200 0.92200 0.52300 -0.16900
C 	C 	0.94000 0.81600 0.49900 0.01300
C 	C 	0.95400 0.80700 0.46500 -0.05200
C 	C 	0.92800 0.79400 0.44000 -0.00700
C 	C 	0.88900 0.79600 0.44800 -0.04800
C 	C 	0.87400 0.80500 0.48100 0.01200
C 	C 	0.92100 0.88800 0.60200 0.09800
C 	C 	0.94000 0.92000 0.60000 -0.07500
C 	C 	0.93200 0.94800 0.57400 -0.04100
C 	C 	0.90900 0.93900 0.54700 0.05500
C 	C 	0.89800 0.90400 0.54600 -0.03100
C 	C 	0.89500 0.96600 0.52300 -0.12300
N 	N 	0.82400 0.85200 0.54700 -0.17800
N 	N 	0.79900 0.94500 0.53100 -0.06700
N 	N 	0.90000 0.80900 0.51100 -0.21600
N 	N 	0.90600 0.87600 0.57600 -0.22500
H 	H 	0.95904 0.83005 0.52117 0.01500
H 	H 	0.98568 0.81056 0.45905 0.04100
H 	H 	0.93761 0.78113 0.41183 0.02700
H 	H 	0.86733 0.78950 0.42477 0.04100
H 	H 	0.84193 0.80899 0.48369 0.01400
H 	H 	0.91937 0.87184 0.63006 -0.00700
H 	H 	0.96450 0.92562 0.62049 0.04700
H 	H 	0.94552 0.97731 0.57706 0.03800
H 	H 	0.88093 0.89309 0.52068 0.01900
H 	H 	0.86321 0.96722 0.51674 0.06100
H 	H 	0.91508 0.98738 0.50917 0.05400
C 	C 	0.30000 0.36100 0.03200 -0.14600
C 	C 	0.28200 0.42200 0.02300 -0.17300
C 	C 	0.44000 0.31600 0.99900 0.03300
C 	C 	0.45400 0.30700 0.96500 -0.06100
C 	C 	0.42800 0.29400 0.94000 -0.00100
C 	C 	0.38900 0.29600 0.94800 -0.05400
C 	C 	0.37400 0.30500 0.98100 0.02300
C 	C 	0.42100 0.38800 0.10200 0.09800
C 	C 	0.44000 0.42000 0.10000 -0.07700
C 	C 	0.43200 0.44800 0.07400 -0.04100
C 	C 	0.40900 0.43900 0.04700 0.05300
C 	C 	0.39800 0.40400 0.04600 -0.03100
C 	C 	0.39500 0.46600 0.02300 -0.12400
N 	N 	0.32400 0.35200 0.04700 -0.17800
N 	N 	0.29900 0.44500 0.03100 -0.07000
N 	N 	0.40000 0.30900 0.01100 -0.22700
N 	N 	0.40600 0.37600 0.07600 -0.22600
H 	H 	0.45904 0.33005 0.02117 0.00400
H 	H 	0.48568 0.31056 0.95905 0.04200
H 	H 	0.43761 0.28113 0.91183 0.02500
H 	H 	0.36733 0.28950 0.92477 0.04200
H 	H 	0.34193 0.30899 0.98369 0.01400
H 	H 	0.41937 0.37184 0.13006 -0.00800
H 	H 	0.46450 0.42562 0.12049 0.04500
H 	H 	0.44552 0.47731 0.07706 0.03200
H 	H 	0.38093 0.39309 0.02068 0.01700
H 	H 	0.36321 0.46722 0.01674 0.05700
H 	H 	0.41508 0.48738 0.00917 0.04800
C 	C 	0.20000 0.36100 0.96800 -0.13700
C 	C 	0.21800 0.42200 0.97700 -0.16300
C 	C 	0.06000 0.31600 0.00100 -0.00800
C 	C 	0.04600 0.30700 0.03500 -0.04500
C 	C 	0.07200 0.29400 0.06000 -0.01500
C 	C 	0.11100 0.29600 0.05200 -0.04300
C 	C 	0.12600 0.30500 0.01900 0.00000
C 	C 	0.07900 0.38800 0.89800 0.09700
C 	C 	0.06000 0.42000 0.90000 -0.07700
C 	C 	0.06800 0.44800 0.92600 -0.04300
C 	C 	0.09100 0.43900 0.95300 0.05500
C 	C 	0.10200 0.40400 0.95400 -0.03100
C 	C 	0.10500 0.46600 0.97700 -0.12200
N 	N 	0.17600 0.35200 0.95300 -0.17900
N 	N 	0.20100 0.44500 0.96900 -0.06800
N 	N 	0.10000 0.30900 0.98900 -0.20600
N 	N 	0.09400 0.37600 0.92400 -0.22600
H 	H 	0.04096 0.33005 0.97883 0.02000
H 	H 	0.01432 0.31056 0.04095 0.03100
H 	H 	0.06239 0.28113 0.08817 0.02600
H 	H 	0.13267 0.28950 0.07523 0.03800
H 	H 	0.15807 0.30899 0.01631 0.01300
H 	H 	0.08063 0.37184 0.86994 -0.00800
H 	H 	0.03550 0.42562 0.87951 0.04300
H 	H 	0.05448 0.47731 0.92294 0.03200
H 	H 	0.11907 0.39309 0.97932 0.02200
H 	H 	0.13679 0.46722 0.98326 0.06200
H 	H 	0.08492 0.48738 0.99083 0.05300
C 	C 	0.70000 0.86100 0.46800 -0.14300
C 	C 	0.71800 0.92200 0.47700 -0.16900
C 	C 	0.56000 0.81600 0.50100 0.01200
C 	C 	0.54600 0.80700 0.53500 -0.05300
C 	C 	0.57200 0.79400 0.56000 -0.00800
C 	C 	0.61100 0.79600 0.55200 -0.04800
C 	C 	0.62600 0.80500 0.51900 0.01200
C 	C 	0.57900 0.88800 0.39800 0.09800
C 	C 	0.56000 0.92000 0.40000 -0.07600
C 	C 	0.56800 0.94800 0.42600 -0.04200
C 	C 	0.59100 0.93900 0.45300 0.05500
C 	C 	0.60200 0.90400 0.45400 -0.03100
C 	C 	0.60500 0.96600 0.47700 -0.12300
N 	N 	0.67600 0.85200 0.45300 -0.17800
N 	N 	0.70100 0.94500 0.46900 -0.06700
N 	N 	0.60000 0.80900 0.48900 -0.21600
N 	N 	0.59400 0.87600 0.42400 -0.22600
H 	H 	0.54096 0.83005 0.47883 0.01300
H 	H 	0.51432 0.81056 0.54095 0.03800
H 	H 	0.56239 0.78113 0.58817 0.02600
H 	H 	0.63267 0.78950 0.57523 0.04000
H 	H 	0.65807 0.80899 0.51631 0.01400
H 	H 	0.58063 0.87184 0.36994 -0.00800
H 	H 	0.53550 0.92562 0.37951 0.04500
H 	H 	0.55448 0.97731 0.42294 0.03600
H 	H 	0.61907 0.89309 0.47932 0.01900
H 	H 	0.63679 0.96722 0.48326 0.06100
H 	H 	0.58492 0.98738 0.49083 0.05400
C 	C 	0.70000 0.13900 0.03200 -0.14600
C 	C 	0.71800 0.07800 0.02300 -0.17400
C 	C 	0.56000 0.18400 0.99900 0.03300
C 	C 	0.54600 0.19300 0.96500 -0.06100
C 	C 	0.57200 0.20600 0.94000 -0.00100
C 	C 	0.61100 0.20400 0.94800 -0.05400
C 	C 	0.62600 0.19500 0.98100 0.02300
C 	C 	0.57900 0.11200 0.10200 0.09800
C 	C 	0.56000 0.08000 0.10000 -0.07800
C 	C 	0.56800 0.05200 0.07400 -0.04200
C 	C 	0.59100 0.06100 0.04700 0.05200
C 	C 	0.60200 0.09600 0.04600 -0.03100
C 	C 	0.60500 0.03400 0.02300 -0.12500
N 	N 	0.67600 0.14800 0.04700 -0.17800
N 	N 	0.70100 0.05500 0.03100 -0.07100
N 	N 	0.60000 0.19100 0.01100 -0.22700
N 	N 	0.59400 0.12400 0.07600 -0.22600
H 	H 	0.54096 0.16995 0.02117 0.00400
H 	H 	0.51432 0.18944 0.95905 0.04200
H 	H 	0.56239 0.21887 0.91183 0.02500
H 	H 	0.63267 0.21050 0.92477 0.04200
H 	H 	0.65807 0.19101 0.98369 0.01400
H 	H 	0.58063 0.12816 0.13006 -0.00800
H 	H 	0.53550 0.07438 0.12049 0.04400
H 	H 	0.55448 0.02269 0.07706 0.03000
H 	H 	0.61907 0.10691 0.02068 0.01700
H 	H 	0.63679 0.03278 0.01674 0.05600
H 	H 	0.58492 0.01262 0.00917 0.04500
C 	C 	0.20000 0.63900 0.53200 -0.14300
C 	C 	0.21800 0.57800 0.52300 -0.16900
C 	C 	0.06000 0.68400 0.49900 0.01200
C 	C 	0.04600 0.69300 0.46500 -0.05400
C 	C 	0.07200 0.70600 0.44000 -0.00800
C 	C 	0.11100 0.70400 0.44800 -0.04800
C 	C 	0.12600 0.69500 0.48100 0.01100
C 	C 	0.07900 0.61200 0.60200 0.09700
C 	C 	0.06000 0.58000 0.60000 -0.07800
C 	C 	0.06800 0.55200 0.57400 -0.04300
C 	C 	0.09100 0.56100 0.54700 0.05400
C 	C 	0.10200 0.59600 0.54600 -0.03100
C 	C 	0.10500 0.53400 0.52300 -0.12300
N 	N 	0.17600 0.64800 0.54700 -0.17800
N 	N 	0.20100 0.55500 0.53100 -0.06900
N 	N 	0.10000 0.69100 0.51100 -0.21600
N 	N 	0.09400 0.62400 0.57600 -0.22600
H 	H 	0.04096 0.66995 0.52117 0.01100
H 	H 	0.01432 0.68944 0.45905 0.03500
H 	H 	0.06239 0.71887 0.41183 0.02500
H 	H 	0.13267 0.71050 0.42477 0.04000
H 	H 	0.15807 0.69101 0.48369 0.01400
H 	H 	0.08063 0.62816 0.63006 -0.00800
H 	H 	0.03550 0.57438 0.62049 0.04300
H 	H 	0.05448 0.52269 0.57706 0.03100
H 	H 	0.11907 0.60691 0.52068 0.01900
H 	H 	0.13679 0.53278 0.51674 0.06000
H 	H 	0.08492 0.51262 0.50917 0.05000
C 	C 	0.46800 0.30000 0.63900 -0.14300
C 	C 	0.47700 0.28200 0.57800 -0.16900
C 	C 	0.50100 0.44000 0.68400 0.01200
C 	C 	0.53500 0.45400 0.69300 -0.05300
C 	C 	0.56000 0.42800 0.70600 -0.00800
C 	C 	0.55200 0.38900 0.70400 -0.04800
C 	C 	0.51900 0.37400 0.69500 0.01200
C 	C 	0.39800 0.42100 0.61200 0.09800
C 	C 	0.40000 0.44000 0.58000 -0.07700
C 	C 	0.42600 0.43200 0.55200 -0.04200
C 	C 	0.45300 0.40900 0.56100 0.05400
C 	C 	0.45400 0.39800 0.59600 -0.03100
C 	C 	0.47700 0.39500 0.53400 -0.12300
N 	N 	0.45300 0.32400 0.64800 -0.17800
N 	N 	0.46900 0.29900 0.55500 -0.06900
N 	N 	0.48900 0.40000 0.69100 -0.21600
N 	N 	0.42400 0.40600 0.62400 -0.22600
H 	H 	0.47883 0.45904 0.66995 0.01300
H 	H 	0.54095 0.48568 0.68944 0.03800
H 	H 	0.58817 0.43761 0.71887 0.02600
H 	H 	0.57523 0.36733 0.71050 0.04000
H 	H 	0.51631 0.34193 0.69101 0.01400
H 	H 	0.36994 0.41937 0.62816 -0.00800
H 	H 	0.37951 0.46450 0.57438 0.04500
H 	H 	0.42294 0.44552 0.52269 0.03300
H 	H 	0.47932 0.38093 0.60691 0.01900
H 	H 	0.48326 0.36321 0.53278 0.06000
H 	H 	0.49083 0.41508 0.51262 0.05100
C 	C 	0.96800 0.80000 0.13900 -0.13700
C 	C 	0.97700 0.78200 0.07800 -0.16400
C 	C 	0.00100 0.94000 0.18400 -0.00700
C 	C 	0.03500 0.95400 0.19300 -0.04300
C 	C 	0.06000 0.92800 0.20600 -0.01400
C 	C 	0.05200 0.88900 0.20400 -0.04200
C 	C 	0.01900 0.87400 0.19500 0.00000
C 	C 	0.89800 0.92100 0.11200 0.09800
C 	C 	0.90000 0.94000 0.08000 -0.07600
C 	C 	0.92600 0.93200 0.05200 -0.04100
C 	C 	0.95300 0.90900 0.06100 0.05500
C 	C 	0.95400 0.89800 0.09600 -0.03000
C 	C 	0.97700 0.89500 0.03400 -0.12300
N 	N 	0.95300 0.82400 0.14800 -0.17900
N 	N 	0.96900 0.79900 0.05500 -0.07000
N 	N 	0.98900 0.90000 0.19100 -0.20500
N 	N 	0.92400 0.90600 0.12400 -0.22500
H 	H 	0.97883 0.95904 0.16995 0.02500
H 	H 	0.04095 0.98568 0.18944 0.03600
H 	H 	0.08817 0.93761 0.21887 0.02800
H 	H 	0.07523 0.86733 0.21050 0.03900
H 	H 	0.01631 0.84193 0.19101 0.01300
H 	H 	0.86994 0.91937 0.12816 -0.00800
H 	H 	0.87951 0.96450 0.07438 0.04600
H 	H 	0.92294 0.94552 0.02269 0.03400
H 	H 	0.97932 0.88093 0.10691 0.02200
H 	H 	0.98326 0.86321 0.03278 0.06100
H 	H 	0.99083 0.91508 0.01262 0.05300
C 	C 	0.53200 0.80000 0.86100 -0.14300
C 	C 	0.52300 0.78200 0.92200 -0.16900
C 	C 	0.49900 0.94000 0.81600 0.01300
C 	C 	0.46500 0.95400 0.80700 -0.05200
C 	C 	0.44000 0.92800 0.79400 -0.00700
C 	C 	0.44800 0.88900 0.79600 -0.04800
C 	C 	0.48100 0.87400 0.80500 0.01200
C 	C 	0.60200 0.92100 0.88800 0.09800
C 	C 	0.60000 0.94000 0.92000 -0.07500
C 	C 	0.57400 0.93200 0.94800 -0.04100
C 	C 	0.54700 0.90900 0.93900 0.05500
C 	C 	0.54600 0.89800 0.90400 -0.03100
C 	C 	0.52300 0.89500 0.96600 -0.12300
N 	N 	0.54700 0.82400 0.85200 -0.17800
N 	N 	0.53100 0.79900 0.94500 -0.06700
N 	N 	0.51100 0.90000 0.80900 -0.21600
N 	N 	0.57600 0.90600 0.87600 -0.22500
H 	H 	0.52117 0.95904 0.83005 0.01500
H 	H 	0.45905 0.98568 0.81056 0.04100
H 	H 	0.41183 0.93761 0.78113 0.02700
H 	H 	0.42477 0.86733 0.78950 0.04100
H 	H 	0.48369 0.84193 0.80899 0.01400
H 	H 	0.63006 0.91937 0.87184 -0.00700
H 	H 	0.62049 0.96450 0.92562 0.04700
H 	H 	0.57706 0.94552 0.97731 0.03800
H 	H 	0.52068 0.88093 0.89309 0.01900
H 	H 	0.51674 0.86321 0.96722 0.06100
H 	H 	0.50917 0.91508 0.98738 0.05400
C 	C 	0.03200 0.30000 0.36100 -0.14600
C 	C 	0.02300 0.28200 0.42200 -0.17300
C 	C 	0.99900 0.44000 0.31600 0.03300
C 	C 	0.96500 0.45400 0.30700 -0.06100
C 	C 	0.94000 0.42800 0.29400 -0.00100
C 	C 	0.94800 0.38900 0.29600 -0.05400
C 	C 	0.98100 0.37400 0.30500 0.02300
C 	C 	0.10200 0.42100 0.38800 0.09800
C 	C 	0.10000 0.44000 0.42000 -0.07700
C 	C 	0.07400 0.43200 0.44800 -0.04100
C 	C 	0.04700 0.40900 0.43900 0.05300
C 	C 	0.04600 0.39800 0.40400 -0.03100
C 	C 	0.02300 0.39500 0.46600 -0.12400
N 	N 	0.04700 0.32400 0.35200 -0.17800
N 	N 	0.03100 0.29900 0.44500 -0.07000
N 	N 	0.01100 0.40000 0.30900 -0.22700
N 	N 	0.07600 0.40600 0.37600 -0.22600
H 	H 	0.02117 0.45904 0.33005 0.00400
H 	H 	0.95905 0.48568 0.31056 0.04200
H 	H 	0.91183 0.43761 0.28113 0.02500
H 	H 	0.92477 0.36733 0.28950 0.04200
H 	H 	0.98369 0.34193 0.30899 0.01400
H 	H 	0.13006 0.41937 0.37184 -0.00800
H 	H 	0.12049 0.46450 0.42562 0.04500
H 	H 	0.07706 0.44552 0.47731 0.03200
H 	H 	0.02068 0.38093 0.39309 0.01700
H 	H 	0.01674 0.36321 0.46722 0.05700
H 	H 	0.00917 0.41508 0.48738 0.04800
C 	C 	0.96800 0.20000 0.36100 -0.13700
C 	C 	0.97700 0.21800 0.42200 -0.16300
C 	C 	0.00100 0.06000 0.31600 -0.00800
C 	C 	0.03500 0.04600 0.30700 -0.04500
C 	C 	0.06000 0.07200 0.29400 -0.01500
C 	C 	0.05200 0.11100 0.29600 -0.04300
C 	C 	0.01900 0.12600 0.30500 0.00000
C 	C 	0.89800 0.07900 0.38800 0.09700
C 	C 	0.90000 0.06000 0.42000 -0.07700
C 	C 	0.92600 0.06800 0.44800 -0.04300
C 	C 	0.95300 0.09100 0.43900 0.05500
C 	C 	0.95400 0.10200 0.40400 -0.03100
C 	C 	0.97700 0.10500 0.46600 -0.12200
N 	N 	0.95300 0.17600 0.35200 -0.17900
N 	N 	0.96900 0.20100 0.44500 -0.06800
N 	N 	0.98900 0.10000 0.30900 -0.20600
N 	N 	0.92400 0.09400 0.37600 -0.22600
H 	H 	0.97883 0.04096 0.33005 0.02000
H 	H 	0.04095 0.01432 0.31056 0.03100
H 	H 	0.08817 0.06239 0.28113 0.02600
H 	H 	0.07523 0.13267 0.28950 0.03800
H 	H 	0.01631 0.15807 0.30899 0.01300
H 	H 	0.86994 0.08063 0.37184 -0.00800
H 	H 	0.87951 0.03550 0.42562 0.04300
H 	H 	0.92294 0.05448 0.47731 0.03200
H 	H 	0.97932 0.11907 0.39309 0.02200
H 	H 	0.98326 0.13679 0.46722 0.06200
H 	H 	0.99083 0.08492 0.48738 0.05300
C 	C 	0.46800 0.70000 0.86100 -0.14300
C 	C 	0.47700 0.71800 0.92200 -0.16900
C 	C 	0.50100 0.56000 0.81600 0.01200
C 	C 	0.53500 0.54600 0.80700 -0.05300
C 	C 	0.56000 0.57200 0.79400 -0.00800
C 	C 	0.55200 0.61100 0.79600 -0.04800
C 	C 	0.51900 0.62600 0.80500 0.01200
C 	C 	0.39800 0.57900 0.88800 0.09800
C 	C 	0.40000 0.56000 0.92000 -0.07600
C 	C 	0.42600 0.56800 0.94800 -0.04200
C 	C 	0.45300 0.59100 0.93900 0.05500
C 	C 	0.45400 0.60200 0.90400 -0.03100
C 	C 	0.47700 0.60500 0.96600 -0.12300
N 	N 	0.45300 0.67600 0.85200 -0.17800
N 	N 	0.46900 0.70100 0.94500 -0.06700
N 	N 	0.48900 0.60000 0.80900 -0.21600
N 	N 	0.42400 0.59400 0.87600 -0.22600
H 	H 	0.47883 0.54096 0.83005 0.01300
H 	H 	0.54095 0.51432 0.81056 0.03800
H 	H 	0.58817 0.56239 0.78113 0.02600
H 	H 	0.57523 0.63267 0.78950 0.04000
H 	H 	0.51631 0.65807 0.80899 0.01400
H 	H 	0.36994 0.58063 0.87184 -0.00800
H 	H 	0.37951 0.53550 0.92562 0.04500
H 	H 	0.42294 0.55448 0.97731 0.03600
H 	H 	0.47932 0.61907 0.89309 0.01900
H 	H 	0.48326 0.63679 0.96722 0.06100
H 	H 	0.49083 0.58492 0.98738 0.05400
C 	C 	0.03200 0.70000 0.13900 -0.14600
C 	C 	0.02300 0.71800 0.07800 -0.17400
C 	C 	0.99900 0.56000 0.18400 0.03300
C 	C 	0.96500 0.54600 0.19300 -0.06100
C 	C 	0.94000 0.57200 0.20600 -0.00100
C 	C 	0.94800 0.61100 0.20400 -0.05400
C 	C 	0.98100 0.62600 0.19500 0.02300
C 	C 	0.10200 0.57900 0.11200 0.09800
C 	C 	0.10000 0.56000 0.08000 -0.07800
C 	C 	0.07400 0.56800 0.05200 -0.04200
C 	C 	0.04700 0.59100 0.06100 0.05200
C 	C 	0.04600 0.60200 0.09600 -0.03100
C 	C 	0.02300 0.60500 0.03400 -0.12500
N 	N 	0.04700 0.67600 0.14800 -0.17800
N 	N 	0.03100 0.70100 0.05500 -0.07100
N 	N 	0.01100 0.60000 0.19100 -0.22700
N 	N 	0.07600 0.59400 0.12400 -0.22600
H 	H 	0.02117 0.54096 0.16995 0.00400
H 	H 	0.95905 0.51432 0.18944 0.04200
H 	H 	0.91183 0.56239 0.21887 0.02500
H 	H 	0.92477 0.63267 0.21050 0.04200
H 	H 	0.98369 0.65807 0.19101 0.01400
H 	H 	0.13006 0.58063 0.12816 -0.00800
H 	H 	0.12049 0.53550 0.07438 0.04400
H 	H 	0.07706 0.55448 0.02269 0.03000
H 	H 	0.02068 0.61907 0.10691 0.01700
H 	H 	0.01674 0.63679 0.03278 0.05600
H 	H 	0.00917 0.58492 0.01262 0.04500
C 	C 	0.53200 0.20000 0.63900 -0.14300
C 	C 	0.52300 0.21800 0.57800 -0.16900
C 	C 	0.49900 0.06000 0.68400 0.01200
C 	C 	0.46500 0.04600 0.69300 -0.05400
C 	C 	0.44000 0.07200 0.70600 -0.00800
C 	C 	0.44800 0.11100 0.70400 -0.04800
C 	C 	0.48100 0.12600 0.69500 0.01100
C 	C 	0.60200 0.07900 0.61200 0.09700
C 	C 	0.60000 0.06000 0.58000 -0.07800
C 	C 	0.57400 0.06800 0.55200 -0.04300
C 	C 	0.54700 0.09100 0.56100 0.05400
C 	C 	0.54600 0.10200 0.59600 -0.03100
C 	C 	0.52300 0.10500 0.53400 -0.12300
N 	N 	0.54700 0.17600 0.64800 -0.17800
N 	N 	0.53100 0.20100 0.55500 -0.06900
N 	N 	0.51100 0.10000 0.69100 -0.21600
N 	N 	0.57600 0.09400 0.62400 -0.22600
H 	H 	0.52117 0.04096 0.66995 0.01100
H 	H 	0.45905 0.01432 0.68944 0.03500
H 	H 	0.41183 0.06239 0.71887 0.02500
H 	H 	0.42477 0.13267 0.71050 0.04000
H 	H 	0.48369 0.15807 0.69101 0.01400
H 	H 	0.63006 0.08063 0.62816 -0.00800
H 	H 	0.62049 0.03550 0.57438 0.04300
H 	H 	0.57706 0.05448 0.52269 0.03100
H 	H 	0.52068 0.11907 0.60691 0.01900
H 	H 	0.51674 0.13679 0.53278 0.06000
H 	H 	0.50917 0.08492 0.51262 0.05000
C 	C 	0.21800 0.88900 0.95000 -0.13800
C 	C 	0.22700 0.82800 0.96800 -0.16300
C 	C 	0.25100 0.93400 0.81000 0.01300
C 	C 	0.28500 0.94300 0.79600 -0.05200
C 	C 	0.31000 0.95600 0.82200 -0.00700
C 	C 	0.30200 0.95400 0.86100 -0.04700
C 	C 	0.26900 0.94500 0.87600 0.01300
C 	C 	0.14800 0.86200 0.82900 0.09800
C 	C 	0.15000 0.83000 0.81000 -0.07700
C 	C 	0.17600 0.80200 0.81800 -0.04200
C 	C 	0.20300 0.81100 0.84100 0.05400
C 	C 	0.20400 0.84600 0.85200 -0.03100
C 	C 	0.22700 0.78400 0.85500 -0.12300
N 	N 	0.20300 0.89800 0.92600 -0.17900
N 	N 	0.21900 0.80500 0.95100 -0.06900
N 	N 	0.23900 0.94100 0.85000 -0.21500
N 	N 	0.17400 0.87400 0.84400 -0.22600
H 	H 	0.22883 0.91995 0.79096 0.01300
H 	H 	0.29095 0.93944 0.76432 0.03900
H 	H 	0.33817 0.96887 0.81239 0.02800
H 	H 	0.32523 0.96050 0.88267 0.04200
H 	H 	0.26631 0.94101 0.90807 0.01500
H 	H 	0.11994 0.87816 0.83063 -0.00800
H 	H 	0.12951 0.82438 0.78550 0.04500
H 	H 	0.17294 0.77269 0.80448 0.03300
H 	H 	0.22932 0.85691 0.86907 0.01900
H 	H 	0.23326 0.78278 0.88679 0.06000
H 	H 	0.24083 0.76262 0.83492 0.05100
C 	C 	0.71800 0.38900 0.45000 -0.14300
C 	C 	0.72700 0.32800 0.46800 -0.16900
C 	C 	0.75100 0.43400 0.31000 0.01200
C 	C 	0.78500 0.44300 0.29600 -0.05300
C 	C 	0.81000 0.45600 0.32200 -0.00800
C 	C 	0.80200 0.45400 0.36100 -0.04800
C 	C 	0.76900 0.44500 0.37600 0.01200
C 	C 	0.64800 0.36200 0.32900 0.09800
C 	C 	0.65000 0.33000 0.31000 -0.07700
C 	C 	0.67600 0.30200 0.31800 -0.04200
C 	C 	0.70300 0.31100 0.34100 0.05400
C 	C 	0.70400 0.34600 0.35200 -0.03100
C 	C 	0.72700 0.28400 0.35500 -0.12300
N 	N 	0.70300 0.39800 0.42600 -0.17800
N 	N 	0.71900 0.30500 0.45100 -0.06900
N 	N 	0.73900 0.44100 0.35000 -0.21600
N 	N 	0.67400 0.37400 0.34400 -0.22600
H 	H 	0.72883 0.41995 0.29096 0.01300
H 	H 	0.79095 0.43944 0.26432 0.03800
H 	H 	0.83817 0.46887 0.31239 0.02600
H 	H 	0.82523 0.46050 0.38267 0.04000
H 	H 	0.76631 0.44101 0.40807 0.01400
H 	H 	0.61994 0.37816 0.33063 -0.00800
H 	H 	0.62951 0.32438 0.28550 0.04500
H 	H 	0.67294 0.27269 0.30448 0.03300
H 	H 	0.72932 0.35691 0.36907 0.01900
H 	H 	0.73326 0.28278 0.38679 0.06000
H 	H 	0.74083 0.26262 0.33492 0.05100
C 	C 	0.28200 0.11100 0.45000 -0.14300
C 	C 	0.27300 0.17200 0.46800 -0.16900
C 	C 	0.24900 0.06600 0.31000 0.01100
C 	C 	0.21500 0.05700 0.29600 -0.05300
C 	C 	0.19000 0.04400 0.32200 -0.00900
C 	C 	0.19800 0.04600 0.36100 -0.04900
C 	C 	0.23100 0.05500 0.37600 0.01000
C 	C 	0.35200 0.13800 0.32900 0.09800
C 	C 	0.35000 0.17000 0.31000 -0.07700
C 	C 	0.32400 0.19800 0.31800 -0.04200
C 	C 	0.29700 0.18900 0.34100 0.05400
C 	C 	0.29600 0.15400 0.35200 -0.03100
C 	C 	0.27300 0.21600 0.35500 -0.12300
N 	N 	0.29700 0.10200 0.42600 -0.17800
N 	N 	0.28100 0.19500 0.45100 -0.06900
N 	N 	0.26100 0.05900 0.35000 -0.21700
N 	N 	0.32600 0.12600 0.34400 -0.22600
H 	H 	0.27117 0.08005 0.29096 0.01300
H 	H 	0.20905 0.06056 0.26432 0.03600
H 	H 	0.16183 0.03113 0.31239 0.02400
H 	H 	0.17477 0.03950 0.38267 0.03900
H 	H 	0.23369 0.05899 0.40807 0.01300
H 	H 	0.38006 0.12184 0.33063 -0.00800
H 	H 	0.37049 0.17562 0.28550 0.04500
H 	H 	0.32706 0.22731 0.30448 0.03300
H 	H 	0.27068 0.14309 0.36907 0.01900
H 	H 	0.26674 0.21722 0.38679 0.06000
H 	H 	0.25917 0.23738 0.33492 0.05100
C 	C 	0.78200 0.61100 0.95000 -0.13800
C 	C 	0.77300 0.67200 0.96800 -0.16300
C 	C 	0.74900 0.56600 0.81000 0.01200
C 	C 	0.71500 0.55700 0.79600 -0.05300
C 	C 	0.69000 0.54400 0.82200 -0.00800
C 	C 	0.69800 0.54600 0.86100 -0.04800
C 	C 	0.73100 0.55500 0.87600 0.01200
C 	C 	0.85200 0.63800 0.82900 0.09800
C 	C 	0.85000 0.67000 0.81000 -0.07700
C 	C 	0.82400 0.69800 0.81800 -0.04200
C 	C 	0.79700 0.68900 0.84100 0.05400
C 	C 	0.79600 0.65400 0.85200 -0.03100
C 	C 	0.77300 0.71600 0.85500 -0.12300
N 	N 	0.79700 0.60200 0.92600 -0.17900
N 	N 	0.78100 0.69500 0.95100 -0.06900
N 	N 	0.76100 0.55900 0.85000 -0.21600
N 	N 	0.82600 0.62600 0.84400 -0.22600
H 	H 	0.77117 0.58005 0.79096 0.01300
H 	H 	0.70905 0.56056 0.76432 0.03800
H 	H 	0.66183 0.53113 0.81239 0.02600
H 	H 	0.67477 0.53950 0.88267 0.04100
H 	H 	0.73369 0.55899 0.90807 0.01400
H 	H 	0.88006 0.62184 0.83063 -0.00800
H 	H 	0.87049 0.67562 0.78550 0.04500
H 	H 	0.82706 0.72731 0.80448 0.03400
H 	H 	0.77068 0.64309 0.86907 0.01900
H 	H 	0.76674 0.71722 0.88679 0.06000
H 	H 	0.75917 0.73738 0.83492 0.05100
C 	C 	0.71800 0.61100 0.05000 -0.14500
C 	C 	0.72700 0.67200 0.03200 -0.17300
C 	C 	0.75100 0.56600 0.19000 0.01200
C 	C 	0.78500 0.55700 0.20400 -0.05300
C 	C 	0.81000 0.54400 0.17800 -0.00800
C 	C 	0.80200 0.54600 0.13900 -0.04800
C 	C 	0.76900 0.55500 0.12400 0.01100
C 	C 	0.64800 0.63800 0.17100 0.09800
C 	C 	0.65000 0.67000 0.19000 -0.07700
C 	C 	0.67600 0.69800 0.18200 -0.04200
C 	C 	0.70300 0.68900 0.15900 0.05400
C 	C 	0.70400 0.65400 0.14800 -0.03100
C 	C 	0.72700 0.71600 0.14500 -0.12300
N 	N 	0.70300 0.60200 0.07400 -0.17800
N 	N 	0.71900 0.69500 0.04900 -0.06900
N 	N 	0.73900 0.55900 0.15000 -0.21600
N 	N 	0.67400 0.62600 0.15600 -0.22600
H 	H 	0.72883 0.58005 0.20904 0.01300
H 	H 	0.79095 0.56056 0.23568 0.03800
H 	H 	0.83817 0.53113 0.18761 0.02600
H 	H 	0.82523 0.53950 0.11733 0.04000
H 	H 	0.76631 0.55899 0.09193 0.01400
H 	H 	0.61994 0.62184 0.16937 -0.00800
H 	H 	0.62951 0.67562 0.21450 0.04500
H 	H 	0.67294 0.72731 0.19552 0.03300
H 	H 	0.72932 0.64309 0.13093 0.01900
H 	H 	0.73326 0.71722 0.11321 0.05900
H 	H 	0.74083 0.73738 0.16508 0.05100
C 	C 	0.21800 0.11100 0.55000 -0.14300
C 	C 	0.22700 0.17200 0.53200 -0.16900
C 	C 	0.25100 0.06600 0.69000 0.01100
C 	C 	0.28500 0.05700 0.70400 -0.05300
C 	C 	0.31000 0.04400 0.67800 -0.00900
C 	C 	0.30200 0.04600 0.63900 -0.04900
C 	C 	0.26900 0.05500 0.62400 0.01000
C 	C 	0.14800 0.13800 0.67100 0.09800
C 	C 	0.15000 0.17000 0.69000 -0.07700
C 	C 	0.17600 0.19800 0.68200 -0.04200
C 	C 	0.20300 0.18900 0.65900 0.05400
C 	C 	0.20400 0.15400 0.64800 -0.03100
C 	C 	0.22700 0.21600 0.64500 -0.12300
N 	N 	0.20300 0.10200 0.57400 -0.17800
N 	N 	0.21900 0.19500 0.54900 -0.06900
N 	N 	0.23900 0.05900 0.65000 -0.21700
N 	N 	0.17400 0.12600 0.65600 -0.22600
H 	H 	0.22883 0.08005 0.70904 0.01300
H 	H 	0.29095 0.06056 0.73568 0.03700
H 	H 	0.33817 0.03113 0.68761 0.02500
H 	H 	0.32523 0.03950 0.61733 0.03900
H 	H 	0.26631 0.05899 0.59193 0.01300
H 	H 	0.11994 0.12184 0.66937 -0.00800
H 	H 	0.12951 0.17562 0.71450 0.04500
H 	H 	0.17294 0.22731 0.69552 0.03300
H 	H 	0.22932 0.14309 0.63093 0.01900
H 	H 	0.23326 0.21722 0.61321 0.06000
H 	H 	0.24083 0.23738 0.66508 0.05100
C 	C 	0.78200 0.38900 0.55000 -0.14300
C 	C 	0.77300 0.32800 0.53200 -0.16900
C 	C 	0.74900 0.43400 0.69000 0.01200
C 	C 	0.71500 0.44300 0.70400 -0.05300
C 	C 	0.69000 0.45600 0.67800 -0.00800
C 	C 	0.69800 0.45400 0.63900 -0.04800
C 	C 	0.73100 0.44500 0.62400 0.01200
C 	C 	0.85200 0.36200 0.67100 0.09800
C 	C 	0.85000 0.33000 0.69000 -0.07700
C 	C 	0.82400 0.30200 0.68200 -0.04200
C 	C 	0.79700 0.31100 0.65900 0.05400
C 	C 	0.79600 0.34600 0.64800 -0.03100
C 	C 	0.77300 0.28400 0.64500 -0.12300
N 	N 	0.79700 0.39800 0.57400 -0.17800
N 	N 	0.78100 0.30500 0.54900 -0.06900
N 	N 	0.76100 0.44100 0.65000 -0.21600
N 	N 	0.82600 0.37400 0.65600 -0.22600
H 	H 	0.77117 0.41995 0.70904 0.01300
H 	H 	0.70905 0.43944 0.73568 0.03800
H 	H 	0.66183 0.46887 0.68761 0.02600
H 	H 	0.67477 0.46050 0.61733 0.04000
H 	H 	0.73369 0.44101 0.59193 0.01400
H 	H 	0.88006 0.37816 0.66937 -0.00800
H 	H 	0.87049 0.32438 0.71450 0.04500
H 	H 	0.82706 0.27269 0.69552 0.03300
H 	H 	0.77068 0.35691 0.63093 0.01900
H 	H 	0.76674 0.28278 0.61321 0.06000
H 	H 	0.75917 0.26262 0.66508 0.05100
C 	C 	0.28200 0.88900 0.05000 -0.14500
C 	C 	0.27300 0.82800 0.03200 -0.17300
C 	C 	0.24900 0.93400 0.19000 0.01300
C 	C 	0.21500 0.94300 0.20400 -0.05200
C 	C 	0.19000 0.95600 0.17800 -0.00700
C 	C 	0.19800 0.95400 0.13900 -0.04800
C 	C 	0.23100 0.94500 0.12400 0.01200
C 	C 	0.35200 0.86200 0.17100 0.09800
C 	C 	0.35000 0.83000 0.19000 -0.07700
C 	C 	0.32400 0.80200 0.18200 -0.04200
C 	C 	0.29700 0.81100 0.15900 0.05400
C 	C 	0.29600 0.84600 0.14800 -0.03100
C 	C 	0.27300 0.78400 0.14500 -0.12300
N 	N 	0.29700 0.89800 0.07400 -0.17800
N 	N 	0.28100 0.80500 0.04900 -0.06900
N 	N 	0.26100 0.94100 0.15000 -0.21500
N 	N 	0.32600 0.87400 0.15600 -0.22600
H 	H 	0.27117 0.91995 0.20904 0.01300
H 	H 	0.20905 0.93944 0.23568 0.03900
H 	H 	0.16183 0.96887 0.18761 0.02700
H 	H 	0.17477 0.96050 0.11733 0.04100
H 	H 	0.23369 0.94101 0.09193 0.01400
H 	H 	0.38006 0.87816 0.16937 -0.00800
H 	H 	0.37049 0.82438 0.21450 0.04500
H 	H 	0.32706 0.77269 0.19552 0.03300
H 	H 	0.27068 0.85691 0.13093 0.01900
H 	H 	0.26674 0.78278 0.11321 0.05900
H 	H 	0.25917 0.76262 0.16508 0.05100
C 	C 	0.38900 0.55000 0.78200 -0.14300
C 	C 	0.32800 0.53200 0.77300 -0.16900
C 	C 	0.43400 0.69000 0.74900 0.01200
C 	C 	0.44300 0.70400 0.71500 -0.05300
C 	C 	0.45600 0.67800 0.69000 -0.00800
C 	C 	0.45400 0.63900 0.69800 -0.04800
C 	C 	0.44500 0.62400 0.73100 0.01200
C 	C 	0.36200 0.67100 0.85200 0.09800
C 	C 	0.33000 0.69000 0.85000 -0.07700
C 	C 	0.30200 0.68200 0.82400 -0.04200
C 	C 	0.31100 0.65900 0.79700 0.05400
C 	C 	0.34600 0.64800 0.79600 -0.03100
C 	C 	0.28400 0.64500 0.77300 -0.12300
N 	N 	0.39800 0.57400 0.79700 -0.17800
N 	N 	0.30500 0.54900 0.78100 -0.06900
N 	N 	0.44100 0.65000 0.76100 -0.21600
N 	N 	0.37400 0.65600 0.82600 -0.22600
H 	H 	0.41995 0.70904 0.77117 0.01300
H 	H 	0.43944 0.73568 0.70905 0.03800
H 	H 	0.46887 0.68761 0.66183 0.02600
H 	H 	0.46050 0.61733 0.67477 0.04000
H 	H 	0.44101 0.59193 0.73369 0.01400
H 	H 	0.37816 0.66937 0.88006 -0.00800
H 	H 	0.32438 0.71450 0.87049 0.04500
H 	H 	0.27269 0.69552 0.82706 0.03300
H 	H 	0.35691 0.63093 0.77068 0.01900
H 	H 	0.28278 0.61321 0.76674 0.06000
H 	H 	0.26262 0.66508 0.75917 0.05100
C 	C 	0.88900 0.05000 0.28200 -0.14500
C 	C 	0.82800 0.03200 0.27300 -0.17300
C 	C 	0.93400 0.19000 0.24900 0.01300
C 	C 	0.94300 0.20400 0.21500 -0.05200
C 	C 	0.95600 0.17800 0.19000 -0.00700
C 	C 	0.95400 0.13900 0.19800 -0.04800
C 	C 	0.94500 0.12400 0.23100 0.01200
C 	C 	0.86200 0.17100 0.35200 0.09800
C 	C 	0.83000 0.19000 0.35000 -0.07700
C 	C 	0.80200 0.18200 0.32400 -0.04200
C 	C 	0.81100 0.15900 0.29700 0.05400
C 	C 	0.84600 0.14800 0.29600 -0.03100
C 	C 	0.78400 0.14500 0.27300 -0.12300
N 	N 	0.89800 0.07400 0.29700 -0.17800
N 	N 	0.80500 0.04900 0.28100 -0.06900
N 	N 	0.94100 0.15000 0.26100 -0.21500
N 	N 	0.87400 0.15600 0.32600 -0.22600
H 	H 	0.91995 0.20904 0.27117 0.01300
H 	H 	0.93944 0.23568 0.20905 0.03900
H 	H 	0.96887 0.18761 0.16183 0.02700
H 	H 	0.96050 0.11733 0.17477 0.04100
H 	H 	0.94101 0.09193 0.23369 0.01400
H 	H 	0.87816 0.16937 0.38006 -0.00800
H 	H 	0.82438 0.21450 0.37049 0.04500
H 	H 	0.77269 0.19552 0.32706 0.03300
H 	H 	0.85691 0.13093 0.27068 0.01900
H 	H 	0.78278 0.11321 0.26674 0.05900
H 	H 	0.76262 0.16508 0.25917 0.05100
C 	C 	0.61100 0.05000 0.71800 -0.14500
C 	C 	0.67200 0.03200 0.72700 -0.17300
C 	C 	0.56600 0.19000 0.75100 0.01200
C 	C 	0.55700 0.20400 0.78500 -0.05300
C 	C 	0.54400 0.17800 0.81000 -0.00800
C 	C 	0.54600 0.13900 0.80200 -0.04800
C 	C 	0.55500 0.12400 0.76900 0.01100
C 	C 	0.63800 0.17100 0.64800 0.09800
C 	C 	0.67000 0.19000 0.65000 -0.07700
C 	C 	0.69800 0.18200 0.67600 -0.04200
C 	C 	0.68900 0.15900 0.70300 0.05400
C 	C 	0.65400 0.14800 0.70400 -0.03100
C 	C 	0.71600 0.14500 0.72700 -0.12300
N 	N 	0.60200 0.07400 0.70300 -0.17800
N 	N 	0.69500 0.04900 0.71900 -0.06900
N 	N 	0.55900 0.15000 0.73900 -0.21600
N 	N 	0.62600 0.15600 0.67400 -0.22600
H 	H 	0.58005 0.20904 0.72883 0.01300
H 	H 	0.56056 0.23568 0.79095 0.03800
H 	H 	0.53113 0.18761 0.83817 0.02600
H 	H 	0.53950 0.11733 0.82523 0.04000
H 	H 	0.55899 0.09193 0.76631 0.01400
H 	H 	0.62184 0.16937 0.61994 -0.00800
H 	H 	0.67562 0.21450 0.62951 0.04500
H 	H 	0.72731 0.19552 0.67294 0.03300
H 	H 	0.64309 0.13093 0.72932 0.01900
H 	H 	0.71722 0.11321 0.73326 0.05900
H 	H 	0.73738 0.16508 0.74083 0.05100
C 	C 	0.11100 0.55000 0.21800 -0.14300
C 	C 	0.17200 0.53200 0.22700 -0.16900
C 	C 	0.06600 0.69000 0.25100 0.01100
C 	C 	0.05700 0.70400 0.28500 -0.05300
C 	C 	0.04400 0.67800 0.31000 -0.00900
C 	C 	0.04600 0.63900 0.30200 -0.04900
C 	C 	0.05500 0.62400 0.26900 0.01000
C 	C 	0.13800 0.67100 0.14800 0.09800
C 	C 	0.17000 0.69000 0.15000 -0.07700
C 	C 	0.19800 0.68200 0.17600 -0.04200
C 	C 	0.18900 0.65900 0.20300 0.05400
C 	C 	0.15400 0.64800 0.20400 -0.03100
C 	C 	0.21600 0.64500 0.22700 -0.12300
N 	N 	0.10200 0.57400 0.20300 -0.17800
N 	N 	0.19500 0.54900 0.21900 -0.06900
N 	N 	0.05900 0.65000 0.23900 -0.21700
N 	N 	0.12600 0.65600 0.17400 -0.22600
H 	H 	0.08005 0.70904 0.22883 0.01300
H 	H 	0.06056 0.73568 0.29095 0.03700
H 	H 	0.03113 0.68761 0.33817 0.02500
H 	H 	0.03950 0.61733 0.32523 0.03900
H 	H 	0.05899 0.59193 0.26631 0.01300
H 	H 	0.12184 0.66937 0.11994 -0.00800
H 	H 	0.17562 0.71450 0.12951 0.04500
H 	H 	0.22731 0.69552 0.17294 0.03300
H 	H 	0.14309 0.63093 0.22932 0.01900
H 	H 	0.21722 0.61321 0.23326 0.06000
H 	H 	0.23738 0.66508 0.24083 0.05100
C 	C 	0.11100 0.45000 0.28200 -0.14300
C 	C 	0.17200 0.46800 0.27300 -0.16900
C 	C 	0.06600 0.31000 0.24900 0.01100
C 	C 	0.05700 0.29600 0.21500 -0.05300
C 	C 	0.04400 0.32200 0.19000 -0.00900
C 	C 	0.04600 0.36100 0.19800 -0.04900
C 	C 	0.05500 0.37600 0.23100 0.01000
C 	C 	0.13800 0.32900 0.35200 0.09800
C 	C 	0.17000 0.31000 0.35000 -0.07700
C 	C 	0.19800 0.31800 0.32400 -0.04200
C 	C 	0.18900 0.34100 0.29700 0.05400
C 	C 	0.15400 0.35200 0.29600 -0.03100
C 	C 	0.21600 0.35500 0.27300 -0.12300
N 	N 	0.10200 0.42600 0.29700 -0.17800
N 	N 	0.19500 0.45100 0.28100 -0.06900
N 	N 	0.05900 0.35000 0.26100 -0.21700
N 	N 	0.12600 0.34400 0.32600 -0.22600
H 	H 	0.08005 0.29096 0.27117 0.01300
H 	H 	0.06056 0.26432 0.20905 0.03600
H 	H 	0.03113 0.31239 0.16183 0.02400
H 	H 	0.03950 0.38267 0.17477 0.03900
H 	H 	0.05899 0.40807 0.23369 0.01300
H 	H 	0.12184 0.33063 0.38006 -0.00800
H 	H 	0.17562 0.28550 0.37049 0.04500
H 	H 	0.22731 0.30448 0.32706 0.03300
H 	H 	0.14309 0.36907 0.27068 0.01900
H 	H 	0.21722 0.38679 0.26674 0.06000
H 	H 	0.23738 0.33492 0.25917 0.05100
C 	C 	0.61100 0.95000 0.78200 -0.13800
C 	C 	0.67200 0.96800 0.77300 -0.16300
C 	C 	0.56600 0.81000 0.74900 0.01200
C 	C 	0.55700 0.79600 0.71500 -0.05300
C 	C 	0.54400 0.82200 0.69000 -0.00800
C 	C 	0.54600 0.86100 0.69800 -0.04800
C 	C 	0.55500 0.87600 0.73100 0.01200
C 	C 	0.63800 0.82900 0.85200 0.09800
C 	C 	0.67000 0.81000 0.85000 -0.07700
C 	C 	0.69800 0.81800 0.82400 -0.04200
C 	C 	0.68900 0.84100 0.79700 0.05400
C 	C 	0.65400 0.85200 0.79600 -0.03100
C 	C 	0.71600 0.85500 0.77300 -0.12300
N 	N 	0.60200 0.92600 0.79700 -0.17900
N 	N 	0.69500 0.95100 0.78100 -0.06900
N 	N 	0.55900 0.85000 0.76100 -0.21600
N 	N 	0.62600 0.84400 0.82600 -0.22600
H 	H 	0.58005 0.79096 0.77117 0.01300
H 	H 	0.56056 0.76432 0.70905 0.03800
H 	H 	0.53113 0.81239 0.66183 0.02600
H 	H 	0.53950 0.88267 0.67477 0.04100
H 	H 	0.55899 0.90807 0.73369 0.01400
H 	H 	0.62184 0.83063 0.88006 -0.00800
H 	H 	0.67562 0.78550 0.87049 0.04500
H 	H 	0.72731 0.80448 0.82706 0.03400
H 	H 	0.64309 0.86907 0.77068 0.01900
H 	H 	0.71722 0.88679 0.76674 0.06000
H 	H 	0.73738 0.83492 0.75917 0.05100
C 	C 	0.88900 0.95000 0.21800 -0.13800
C 	C 	0.82800 0.96800 0.22700 -0.16300
C 	C 	0.93400 0.81000 0.25100 0.01300
C 	C 	0.94300 0.79600 0.28500 -0.05200
C 	C 	0.95600 0.82200 0.31000 -0.00700
C 	C 	0.95400 0.86100 0.30200 -0.04700
C 	C 	0.94500 0.87600 0.26900 0.01300
C 	C 	0.86200 0.82900 0.14800 0.09800
C 	C 	0.83000 0.81000 0.15000 -0.07700
C 	C 	0.80200 0.81800 0.17600 -0.04200
C 	C 	0.81100 0.84100 0.20300 0.05400
C 	C 	0.84600 0.85200 0.20400 -0.03100
C 	C 	0.78400 0.85500 0.22700 -0.12300
N 	N 	0.89800 0.92600 0.20300 -0.17900
N 	N 	0.80500 0.95100 0.21900 -0.06900
N 	N 	0.94100 0.85000 0.23900 -0.21500
N 	N 	0.87400 0.84400 0.17400 -0.22600
H 	H 	0.91995 0.79096 0.22883 0.01300
H 	H 	0.93944 0.76432 0.29095 0.03900
H 	H 	0.96887 0.81239 0.33817 0.02800
H 	H 	0.96050 0.88267 0.32523 0.04200
H 	H 	0.94101 0.90807 0.26631 0.01500
H 	H 	0.87816 0.83063 0.11994 -0.00800
H 	H 	0.82438 0.78550 0.12951 0.04500
H 	H 	0.77269 0.80448 0.17294 0.03300
H 	H 	0.85691 0.86907 0.22932 0.01900
H 	H 	0.78278 0.88679 0.23326 0.06000
H 	H 	0.76262 0.83492 0.24083 0.05100
C 	C 	0.38900 0.45000 0.71800 -0.14300
C 	C 	0.32800 0.46800 0.72700 -0.16900
C 	C 	0.43400 0.31000 0.75100 0.01200
C 	C 	0.44300 0.29600 0.78500 -0.05300
C 	C 	0.45600 0.32200 0.81000 -0.00800
C 	C 	0.45400 0.36100 0.80200 -0.04800
C 	C 	0.44500 0.37600 0.76900 0.01200
C 	C 	0.36200 0.32900 0.64800 0.09800
C 	C 	0.33000 0.31000 0.65000 -0.07700
C 	C 	0.30200 0.31800 0.67600 -0.04200
C 	C 	0.31100 0.34100 0.70300 0.05400
C 	C 	0.34600 0.35200 0.70400 -0.03100
C 	C 	0.28400 0.35500 0.72700 -0.12300
N 	N 	0.39800 0.42600 0.70300 -0.17800
N 	N 	0.30500 0.45100 0.71900 -0.06900
N 	N 	0.44100 0.35000 0.73900 -0.21600
N 	N 	0.37400 0.34400 0.67400 -0.22600
H 	H 	0.41995 0.29096 0.72883 0.01300
H 	H 	0.43944 0.26432 0.79095 0.03800
H 	H 	0.46887 0.31239 0.83817 0.02600
H 	H 	0.46050 0.38267 0.82523 0.04000
H 	H 	0.44101 0.40807 0.76631 0.01400
H 	H 	0.37816 0.33063 0.61994 -0.00800
H 	H 	0.32438 0.28550 0.62951 0.04500
H 	H 	0.27269 0.30448 0.67294 0.03300
H 	H 	0.35691 0.36907 0.72932 0.01900
H 	H 	0.28278 0.38679 0.73326 0.06000
H 	H 	0.26262 0.33492 0.74083 0.05100
C 	C 	0.05000 0.71800 0.61100 -0.14500
C 	C 	0.03200 0.72700 0.67200 -0.17300
C 	C 	0.19000 0.75100 0.56600 0.01200
C 	C 	0.20400 0.78500 0.55700 -0.05300
C 	C 	0.17800 0.81000 0.54400 -0.00800
C 	C 	0.13900 0.80200 0.54600 -0.04800
C 	C 	0.12400 0.76900 0.55500 0.01100
C 	C 	0.17100 0.64800 0.63800 0.09800
C 	C 	0.19000 0.65000 0.67000 -0.07700
C 	C 	0.18200 0.67600 0.69800 -0.04200
C 	C 	0.15900 0.70300 0.68900 0.05400
C 	C 	0.14800 0.70400 0.65400 -0.03100
C 	C 	0.14500 0.72700 0.71600 -0.12300
N 	N 	0.07400 0.70300 0.60200 -0.17800
N 	N 	0.04900 0.71900 0.69500 -0.06900
N 	N 	0.15000 0.73900 0.55900 -0.21600
N 	N 	0.15600 0.67400 0.62600 -0.22600
H 	H 	0.20904 0.72883 0.58005 0.01300
H 	H 	0.23568 0.79095 0.56056 0.03800
H 	H 	0.18761 0.83817 0.53113 0.02600
H 	H 	0.11733 0.82523 0.53950 0.04000
H 	H 	0.09193 0.76631 0.55899 0.01400
H 	H 	0.16937 0.61994 0.62184 -0.00800
H 	H 	0.21450 0.62951 0.67562 0.04500
H 	H 	0.19552 0.67294 0.72731 0.03300
H 	H 	0.13093 0.72932 0.64309 0.01900
H 	H 	0.11321 0.73326 0.71722 0.05900
H 	H 	0.16508 0.74083 0.73738 0.05100
C 	C 	0.55000 0.21800 0.11100 -0.14300
C 	C 	0.53200 0.22700 0.17200 -0.16900
C 	C 	0.69000 0.25100 0.06600 0.01100
C 	C 	0.70400 0.28500 0.05700 -0.05300
C 	C 	0.67800 0.31000 0.04400 -0.00900
C 	C 	0.63900 0.30200 0.04600 -0.04900
C 	C 	0.62400 0.26900 0.05500 0.01000
C 	C 	0.67100 0.14800 0.13800 0.09800
C 	C 	0.69000 0.15000 0.17000 -0.07700
C 	C 	0.68200 0.17600 0.19800 -0.04200
C 	C 	0.65900 0.20300 0.18900 0.05400
C 	C 	0.64800 0.20400 0.15400 -0.03100
C 	C 	0.64500 0.22700 0.21600 -0.12300
N 	N 	0.57400 0.20300 0.10200 -0.17800
N 	N 	0.54900 0.21900 0.19500 -0.06900
N 	N 	0.65000 0.23900 0.05900 -0.21700
N 	N 	0.65600 0.17400 0.12600 -0.22600
H 	H 	0.70904 0.22883 0.08005 0.01300
H 	H 	0.73568 0.29095 0.06056 0.03700
H 	H 	0.68761 0.33817 0.03113 0.02500
H 	H 	0.61733 0.32523 0.03950 0.03900
H 	H 	0.59193 0.26631 0.05899 0.01300
H 	H 	0.66937 0.11994 0.12184 -0.00800
H 	H 	0.71450 0.12951 0.17562 0.04500
H 	H 	0.69552 0.17294 0.22731 0.03300
H 	H 	0.63093 0.22932 0.14309 0.01900
H 	H 	0.61321 0.23326 0.21722 0.06000
H 	H 	0.66508 0.24083 0.23738 0.05100
C 	C 	0.55000 0.78200 0.38900 -0.14300
C 	C 	0.53200 0.77300 0.32800 -0.16900
C 	C 	0.69000 0.74900 0.43400 0.01200
C 	C 	0.70400 0.71500 0.44300 -0.05300
C 	C 	0.67800 0.69000 0.45600 -0.00800
C 	C 	0.63900 0.69800 0.45400 -0.04800
C 	C 	0.62400 0.73100 0.44500 0.01200
C 	C 	0.67100 0.85200 0.36200 0.09800
C 	C 	0.69000 0.85000 0.33000 -0.07700
C 	C 	0.68200 0.82400 0.30200 -0.04200
C 	C 	0.65900 0.79700 0.31100 0.05400
C 	C 	0.64800 0.79600 0.34600 -0.03100
C 	C 	0.64500 0.77300 0.28400 -0.12300
N 	N 	0.57400 0.79700 0.39800 -0.17800
N 	N 	0.54900 0.78100 0.30500 -0.06900
N 	N 	0.65000 0.76100 0.44100 -0.21600
N 	N 	0.65600 0.82600 0.37400 -0.22600
H 	H 	0.70904 0.77117 0.41995 0.01300
H 	H 	0.73568 0.70905 0.43944 0.03800
H 	H 	0.68761 0.66183 0.46887 0.02600
H 	H 	0.61733 0.67477 0.46050 0.04000
H 	H 	0.59193 0.73369 0.44101 0.01400
H 	H 	0.66937 0.88006 0.37816 -0.00800
H 	H 	0.71450 0.87049 0.32438 0.04500
H 	H 	0.69552 0.82706 0.27269 0.03300
H 	H 	0.63093 0.77068 0.35691 0.01900
H 	H 	0.61321 0.76674 0.28278 0.06000
H 	H 	0.66508 0.75917 0.26262 0.05100
C 	C 	0.05000 0.28200 0.88900 -0.14500
C 	C 	0.03200 0.27300 0.82800 -0.17300
C 	C 	0.19000 0.24900 0.93400 0.01300
C 	C 	0.20400 0.21500 0.94300 -0.05200
C 	C 	0.17800 0.19000 0.95600 -0.00700
C 	C 	0.13900 0.19800 0.95400 -0.04800
C 	C 	0.12400 0.23100 0.94500 0.01200
C 	C 	0.17100 0.35200 0.86200 0.09800
C 	C 	0.19000 0.35000 0.83000 -0.07700
C 	C 	0.18200 0.32400 0.80200 -0.04200
C 	C 	0.15900 0.29700 0.81100 0.05400
C 	C 	0.14800 0.29600 0.84600 -0.03100
C 	C 	0.14500 0.27300 0.78400 -0.12300
N 	N 	0.07400 0.29700 0.89800 -0.17800
N 	N 	0.04900 0.28100 0.80500 -0.06900
N 	N 	0.15000 0.26100 0.94100 -0.21500
N 	N 	0.15600 0.32600 0.87400 -0.22600
H 	H 	0.20904 0.27117 0.91995 0.01300
H 	H 	0.23568 0.20905 0.93944 0.03900
H 	H 	0.18761 0.16183 0.96887 0.02700
H 	H 	0.11733 0.17477 0.96050 0.04100
H 	H 	0.09193 0.23369 0.94101 0.01400
H 	H 	0.16937 0.38006 0.87816 -0.00800
H 	H 	0.21450 0.37049 0.82438 0.04500
H 	H 	0.19552 0.32706 0.77269 0.03300
H 	H 	0.13093 0.27068 0.85691 0.01900
H 	H 	0.11321 0.26674 0.78278 0.05900
H 	H 	0.16508 0.25917 0.76262 0.05100
C 	C 	0.95000 0.21800 0.88900 -0.13800
C 	C 	0.96800 0.22700 0.82800 -0.16300
C 	C 	0.81000 0.25100 0.93400 0.01300
C 	C 	0.79600 0.28500 0.94300 -0.05200
C 	C 	0.82200 0.31000 0.95600 -0.00700
C 	C 	0.86100 0.30200 0.95400 -0.04700
C 	C 	0.87600 0.26900 0.94500 0.01300
C 	C 	0.82900 0.14800 0.86200 0.09800
C 	C 	0.81000 0.15000 0.83000 -0.07700
C 	C 	0.81800 0.17600 0.80200 -0.04200
C 	C 	0.84100 0.20300 0.81100 0.05400
C 	C 	0.85200 0.20400 0.84600 -0.03100
C 	C 	0.85500 0.22700 0.78400 -0.12300
N 	N 	0.92600 0.20300 0.89800 -0.17900
N 	N 	0.95100 0.21900 0.80500 -0.06900
N 	N 	0.85000 0.23900 0.94100 -0.21500
N 	N 	0.84400 0.17400 0.87400 -0.22600
H 	H 	0.79096 0.22883 0.91995 0.01300
H 	H 	0.76432 0.29095 0.93944 0.03900
H 	H 	0.81239 0.33817 0.96887 0.02800
H 	H 	0.88267 0.32523 0.96050 0.04200
H 	H 	0.90807 0.26631 0.94101 0.01500
H 	H 	0.83063 0.11994 0.87816 -0.00800
H 	H 	0.78550 0.12951 0.82438 0.04500
H 	H 	0.80448 0.17294 0.77269 0.03300
H 	H 	0.86907 0.22932 0.85691 0.01900
H 	H 	0.88679 0.23326 0.78278 0.06000
H 	H 	0.83492 0.24083 0.76262 0.05100
C 	C 	0.45000 0.71800 0.38900 -0.14300
C 	C 	0.46800 0.72700 0.32800 -0.16900
C 	C 	0.31000 0.75100 0.43400 0.01200
C 	C 	0.29600 0.78500 0.44300 -0.05300
C 	C 	0.32200 0.81000 0.45600 -0.00800
C 	C 	0.36100 0.80200 0.45400 -0.04800
C 	C 	0.37600 0.76900 0.44500 0.01200
C 	C 	0.32900 0.64800 0.36200 0.09800
C 	C 	0.31000 0.65000 0.33000 -0.07700
C 	C 	0.31800 0.67600 0.30200 -0.04200
C 	C 	0.34100 0.70300 0.31100 0.05400
C 	C 	0.35200 0.70400 0.34600 -0.03100
C 	C 	0.35500 0.72700 0.28400 -0.12300
N 	N 	0.42600 0.70300 0.39800 -0.17800
N 	N 	0.45100 0.71900 0.30500 -0.06900
N 	N 	0.35000 0.73900 0.44100 -0.21600
N 	N 	0.34400 0.67400 0.37400 -0.22600
H 	H 	0.29096 0.72883 0.41995 0.01300
H 	H 	0.26432 0.79095 0.43944 0.03800
H 	H 	0.31239 0.83817 0.46887 0.02600
H 	H 	0.38267 0.82523 0.46050 0.04000
H 	H 	0.40807 0.76631 0.44101 0.01400
H 	H 	0.33063 0.61994 0.37816 -0.00800
H 	H 	0.28550 0.62951 0.32438 0.04500
H 	H 	0.30448 0.67294 0.27269 0.03300
H 	H 	0.36907 0.72932 0.35691 0.01900
H 	H 	0.38679 0.73326 0.28278 0.06000
H 	H 	0.33492 0.74083 0.26262 0.05100
C 	C 	0.45000 0.28200 0.11100 -0.14300
C 	C 	0.46800 0.27300 0.17200 -0.16900
C 	C 	0.31000 0.24900 0.06600 0.01100
C 	C 	0.29600 0.21500 0.05700 -0.05300
C 	C 	0.32200 0.19000 0.04400 -0.00900
C 	C 	0.36100 0.19800 0.04600 -0.04900
C 	C 	0.37600 0.23100 0.05500 0.01000
C 	C 	0.32900 0.35200 0.13800 0.09800
C 	C 	0.31000 0.35000 0.17000 -0.07700
C 	C 	0.31800 0.32400 0.19800 -0.04200
C 	C 	0.34100 0.29700 0.18900 0.05400
C 	C 	0.35200 0.29600 0.15400 -0.03100
C 	C 	0.35500 0.27300 0.21600 -0.12300
N 	N 	0.42600 0.29700 0.10200 -0.17800
N 	N 	0.45100 0.28100 0.19500 -0.06900
N 	N 	0.35000 0.26100 0.05900 -0.21700
N 	N 	0.34400 0.32600 0.12600 -0.22600
H 	H 	0.29096 0.27117 0.08005 0.01300
H 	H 	0.26432 0.20905 0.06056 0.03600
H 	H 	0.31239 0.16183 0.03113 0.02400
H 	H 	0.38267 0.17477 0.03950 0.03900
H 	H 	0.40807 0.23369 0.05899 0.01300
H 	H 	0.33063 0.38006 0.12184 -0.00800
H 	H 	0.28550 0.37049 0.17562 0.04500
H 	H 	0.30448 0.32706 0.22731 0.03300
H 	H 	0.36907 0.27068 0.14309 0.01900
H 	H 	0.38679 0.26674 0.21722 0.06000
H 	H 	0.33492 0.25917 0.23738 0.05100
C 	C 	0.95000 0.78200 0.61100 -0.13800
C 	C 	0.96800 0.77300 0.67200 -0.16300
C 	C 	0.81000 0.74900 0.56600 0.01200
C 	C 	0.79600 0.71500 0.55700 -0.05300
C 	C 	0.82200 0.69000 0.54400 -0.00800
C 	C 	0.86100 0.69800 0.54600 -0.04800
C 	C 	0.87600 0.73100 0.55500 0.01200
C 	C 	0.82900 0.85200 0.63800 0.09800
C 	C 	0.81000 0.85000 0.67000 -0.07700
C 	C 	0.81800 0.82400 0.69800 -0.04200
C 	C 	0.84100 0.79700 0.68900 0.05400
C 	C 	0.85200 0.79600 0.65400 -0.03100
C 	C 	0.85500 0.77300 0.71600 -0.12300
N 	N 	0.92600 0.79700 0.60200 -0.17900
N 	N 	0.95100 0.78100 0.69500 -0.06900
N 	N 	0.85000 0.76100 0.55900 -0.21600
N 	N 	0.84400 0.82600 0.62600 -0.22600
H 	H 	0.79096 0.77117 0.58005 0.01300
H 	H 	0.76432 0.70905 0.56056 0.03800
H 	H 	0.81239 0.66183 0.53113 0.02600
H 	H 	0.88267 0.67477 0.53950 0.04100
H 	H 	0.90807 0.73369 0.55899 0.01400
H 	H 	0.83063 0.88006 0.62184 -0.00800
H 	H 	0.78550 0.87049 0.67562 0.04500
H 	H 	0.80448 0.82706 0.72731 0.03400
H 	H 	0.86907 0.77068 0.64309 0.01900
H 	H 	0.88679 0.76674 0.71722 0.06000
H 	H 	0.83492 0.75917 0.73738 0.05100
C 	C 	0.36100 0.53200 0.70000 -0.14300
C 	C 	0.42200 0.52300 0.71800 -0.16900
C 	C 	0.31600 0.49900 0.56000 0.01200
C 	C 	0.30700 0.46500 0.54600 -0.05300
C 	C 	0.29400 0.44000 0.57200 -0.00800
C 	C 	0.29600 0.44800 0.61100 -0.04800
C 	C 	0.30500 0.48100 0.62600 0.01200
C 	C 	0.38800 0.60200 0.57900 0.09800
C 	C 	0.42000 0.60000 0.56000 -0.07700
C 	C 	0.44800 0.57400 0.56800 -0.04200
C 	C 	0.43900 0.54700 0.59100 0.05400
C 	C 	0.40400 0.54600 0.60200 -0.03100
C 	C 	0.46600 0.52300 0.60500 -0.12300
N 	N 	0.35200 0.54700 0.67600 -0.17800
N 	N 	0.44500 0.53100 0.70100 -0.06900
N 	N 	0.30900 0.51100 0.60000 -0.21600
N 	N 	0.37600 0.57600 0.59400 -0.22600
H 	H 	0.33005 0.52117 0.54096 0.01300
H 	H 	0.31056 0.45905 0.51432 0.03800
H 	H 	0.28113 0.41183 0.56239 0.02600
H 	H 	0.28950 0.42477 0.63267 0.04000
H 	H 	0.30899 0.48369 0.65807 0.01400
H 	H 	0.37184 0.63006 0.58063 -0.00800
H 	H 	0.42562 0.62049 0.53550 0.04500
H 	H 	0.47731 0.57706 0.55448 0.03300
H 	H 	0.39309 0.52068 0.61907 0.01900
H 	H 	0.46722 0.51674 0.63679 0.06000
H 	H 	0.48738 0.50917 0.58492 0.05100
C 	C 	0.86100 0.03200 0.20000 -0.14600
C 	C 	0.92200 0.02300 0.21800 -0.17200
C 	C 	0.81600 0.99900 0.06000 0.03200
C 	C 	0.80700 0.96500 0.04600 -0.06200
C 	C 	0.79400 0.94000 0.07200 -0.00100
C 	C 	0.79600 0.94800 0.11100 -0.05400
C 	C 	0.80500 0.98100 0.12600 0.02300
C 	C 	0.88800 0.10200 0.07900 0.09700
C 	C 	0.92000 0.10000 0.06000 -0.07700
C 	C 	0.94800 0.07400 0.06800 -0.04200
C 	C 	0.93900 0.04700 0.09100 0.05300
C 	C 	0.90400 0.04600 0.10200 -0.03200
C 	C 	0.96600 0.02300 0.10500 -0.12400
N 	N 	0.85200 0.04700 0.17600 -0.17800
N 	N 	0.94500 0.03100 0.20100 -0.06800
N 	N 	0.80900 0.01100 0.10000 -0.22700
N 	N 	0.87600 0.07600 0.09400 -0.22600
H 	H 	0.83005 0.02117 0.04096 0.00100
H 	H 	0.81056 0.95905 0.01432 0.04000
H 	H 	0.78113 0.91183 0.06239 0.02400
H 	H 	0.78950 0.92477 0.13267 0.04200
H 	H 	0.80899 0.98369 0.15807 0.01400
H 	H 	0.87184 0.13006 0.08063 -0.00800
H 	H 	0.92562 0.12049 0.03550 0.04300
H 	H 	0.97731 0.07706 0.05448 0.03300
H 	H 	0.89309 0.02068 0.11907 0.01700
H 	H 	0.96722 0.01674 0.13679 0.05800
H 	H 	0.98738 0.00917 0.08492 0.04900
C 	C 	0.13900 0.46800 0.20000 -0.14300
C 	C 	0.07800 0.47700 0.21800 -0.17000
C 	C 	0.18400 0.50100 0.06000 0.01200
C 	C 	0.19300 0.53500 0.04600 -0.05400
C 	C 	0.20600 0.56000 0.07200 -0.00800
C 	C 	0.20400 0.55200 0.11100 -0.04800
C 	C 	0.19500 0.51900 0.12600 0.01100
C 	C 	0.11200 0.39800 0.07900 0.09700
C 	C 	0.08000 0.40000 0.06000 -0.07800
C 	C 	0.05200 0.42600 0.06800 -0.04300
C 	C 	0.06100 0.45300 0.09100 0.05300
C 	C 	0.09600 0.45400 0.10200 -0.03100
C 	C 	0.03400 0.47700 0.10500 -0.12400
N 	N 	0.14800 0.45300 0.17600 -0.17800
N 	N 	0.05500 0.46900 0.20100 -0.07000
N 	N 	0.19100 0.48900 0.10000 -0.21600
N 	N 	0.12400 0.42400 0.09400 -0.22600
H 	H 	0.16995 0.47883 0.04096 0.01100
H 	H 	0.18944 0.54095 0.01432 0.03500
H 	H 	0.21887 0.58817 0.06239 0.02500
H 	H 	0.21050 0.57523 0.13267 0.04000
H 	H 	0.19101 0.51631 0.15807 0.01400
H 	H 	0.12816 0.36994 0.08063 -0.00800
H 	H 	0.07438 0.37951 0.03550 0.04200
H 	H 	0.02269 0.42294 0.05448 0.02900
H 	H 	0.10691 0.47932 0.11907 0.01900
H 	H 	0.03278 0.48326 0.13679 0.05800
H 	H 	0.01262 0.49083 0.08492 0.04700
C 	C 	0.63900 0.96800 0.70000 -0.13800
C 	C 	0.57800 0.97700 0.71800 -0.16300
C 	C 	0.68400 0.00100 0.56000 -0.00800
C 	C 	0.69300 0.03500 0.54600 -0.04400
C 	C 	0.70600 0.06000 0.57200 -0.01500
C 	C 	0.70400 0.05200 0.61100 -0.04200
C 	C 	0.69500 0.01900 0.62600 0.00000
C 	C 	0.61200 0.89800 0.57900 0.09700
C 	C 	0.58000 0.90000 0.56000 -0.07600
C 	C 	0.55200 0.92600 0.56800 -0.04200
C 	C 	0.56100 0.95300 0.59100 0.05500
C 	C 	0.59600 0.95400 0.60200 -0.03100
C 	C 	0.53400 0.97700 0.60500 -0.12200
N 	N 	0.64800 0.95300 0.67600 -0.17900
N 	N 	0.55500 0.96900 0.70100 -0.06800
N 	N 	0.69100 0.98900 0.60000 -0.20500
N 	N 	0.62400 0.92400 0.59400 -0.22500
H 	H 	0.66995 0.97883 0.54096 0.02200
H 	H 	0.68944 0.04095 0.51432 0.03400
H 	H 	0.71887 0.08817 0.56239 0.02700
H 	H 	0.71050 0.07523 0.63267 0.03900
H 	H 	0.69101 0.01631 0.65807 0.01300
H 	H 	0.62816 0.86994 0.58063 -0.00800
H 	H 	0.57438 0.87951 0.53550 0.04500
H 	H 	0.52269 0.92294 0.55448 0.03400
H 	H 	0.60691 0.97932 0.61907 0.02200
H 	H 	0.53278 0.98326 0.63679 0.06200
H 	H 	0.51262 0.99083 0.58492 0.05400
C 	C 	0.63900 0.03200 0.80000 -0.14600
C 	C 	0.57800 0.02300 0.78200 -0.17300
C 	C 	0.68400 0.99900 0.94000 0.03300
C 	C 	0.69300 0.96500 0.95400 -0.06000
C 	C 	0.70600 0.94000 0.92800 -0.00100
C 	C 	0.70400 0.94800 0.88900 -0.05400
C 	C 	0.69500 0.98100 0.87400 0.02300
C 	C 	0.61200 0.10200 0.92100 0.09900
C 	C 	0.58000 0.10000 0.94000 -0.07600
C 	C 	0.55200 0.07400 0.93200 -0.04100
C 	C 	0.56100 0.04700 0.90900 0.05300
C 	C 	0.59600 0.04600 0.89800 -0.03100
C 	C 	0.53400 0.02300 0.89500 -0.12400
N 	N 	0.64800 0.04700 0.82400 -0.17900
N 	N 	0.55500 0.03100 0.79900 -0.06900
N 	N 	0.69100 0.01100 0.90000 -0.22600
N 	N 	0.62400 0.07600 0.90600 -0.22600
H 	H 	0.66995 0.02117 0.95904 0.00600
H 	H 	0.68944 0.95905 0.98568 0.04500
H 	H 	0.71887 0.91183 0.93761 0.02600
H 	H 	0.71050 0.92477 0.86733 0.04200
H 	H 	0.69101 0.98369 0.84193 0.01400
H 	H 	0.62816 0.13006 0.91937 -0.00800
H 	H 	0.57438 0.12049 0.96450 0.04700
H 	H 	0.52269 0.07706 0.94552 0.03500
H 	H 	0.60691 0.02068 0.88093 0.01700
H 	H 	0.53278 0.01674 0.86321 0.05700
H 	H 	0.51262 0.00917 0.91508 0.04800
C 	C 	0.13900 0.53200 0.30000 -0.14300
C 	C 	0.07800 0.52300 0.28200 -0.17000
C 	C 	0.18400 0.49900 0.44000 0.01200
C 	C 	0.19300 0.46500 0.45400 -0.05300
C 	C 	0.20600 0.44000 0.42800 -0.00800
C 	C 	0.20400 0.44800 0.38900 -0.04800
C 	C 	0.19500 0.48100 0.37400 0.01200
C 	C 	0.11200 0.60200 0.42100 0.09800
C 	C 	0.08000 0.60000 0.44000 -0.07700
C 	C 	0.05200 0.57400 0.43200 -0.04200
C 	C 	0.06100 0.54700 0.40900 0.05300
C 	C 	0.09600 0.54600 0.39800 -0.03100
C 	C 	0.03400 0.52300 0.39500 -0.12400
N 	N 	0.14800 0.54700 0.32400 -0.17800
N 	N 	0.05500 0.53100 0.29900 -0.07000
N 	N 	0.19100 0.51100 0.40000 -0.21600
N 	N 	0.12400 0.57600 0.40600 -0.22600
H 	H 	0.16995 0.52117 0.45904 0.01300
H 	H 	0.18944 0.45905 0.48568 0.03800
H 	H 	0.21887 0.41183 0.43761 0.02600
H 	H 	0.21050 0.42477 0.36733 0.04000
H 	H 	0.19101 0.48369 0.34193 0.01400
H 	H 	0.12816 0.63006 0.41937 -0.00800
H 	H 	0.07438 0.62049 0.46450 0.04400
H 	H 	0.02269 0.57706 0.44552 0.03100
H 	H 	0.10691 0.52068 0.38093 0.01900
H 	H 	0.03278 0.51674 0.36321 0.05800
H 	H 	0.01262 0.50917 0.41508 0.04800
C 	C 	0.86100 0.96800 0.30000 -0.13800
C 	C 	0.92200 0.97700 0.28200 -0.16300
C 	C 	0.81600 0.00100 0.44000 -0.00800
C 	C 	0.80700 0.03500 0.45400 -0.04400
C 	C 	0.79400 0.06000 0.42800 -0.01500
C 	C 	0.79600 0.05200 0.38900 -0.04200
C 	C 	0.80500 0.01900 0.37400 0.00000
C 	C 	0.88800 0.89800 0.42100 0.09700
C 	C 	0.92000 0.90000 0.44000 -0.07600
C 	C 	0.94800 0.92600 0.43200 -0.04200
C 	C 	0.93900 0.95300 0.40900 0.05600
C 	C 	0.90400 0.95400 0.39800 -0.03100
C 	C 	0.96600 0.97700 0.39500 -0.12200
N 	N 	0.85200 0.95300 0.32400 -0.17900
N 	N 	0.94500 0.96900 0.29900 -0.06700
N 	N 	0.80900 0.98900 0.40000 -0.20500
N 	N 	0.87600 0.92400 0.40600 -0.22500
H 	H 	0.83005 0.97883 0.45904 0.02200
H 	H 	0.81056 0.04095 0.48568 0.03400
H 	H 	0.78113 0.08817 0.43761 0.02700
H 	H 	0.78950 0.07523 0.36733 0.03900
H 	H 	0.80899 0.01631 0.34193 0.01300
H 	H 	0.87184 0.86994 0.41937 -0.00800
H 	H 	0.92562 0.87951 0.46450 0.04500
H 	H 	0.97731 0.92294 0.44552 0.03700
H 	H 	0.89309 0.97932 0.38093 0.02200
H 	H 	0.96722 0.98326 0.36321 0.06400
H 	H 	0.98738 0.99083 0.41508 0.05700
C 	C 	0.36100 0.46800 0.80000 -0.14300
C 	C 	0.42200 0.47700 0.78200 -0.16900
C 	C 	0.31600 0.50100 0.94000 0.01300
C 	C 	0.30700 0.53500 0.95400 -0.05200
C 	C 	0.29400 0.56000 0.92800 -0.00700
C 	C 	0.29600 0.55200 0.88900 -0.04800
C 	C 	0.30500 0.51900 0.87400 0.01200
C 	C 	0.38800 0.39800 0.92100 0.09800
C 	C 	0.42000 0.40000 0.94000 -0.07600
C 	C 	0.44800 0.42600 0.93200 -0.04100
C 	C 	0.43900 0.45300 0.90900 0.05400
C 	C 	0.40400 0.45400 0.89800 -0.03000
C 	C 	0.46600 0.47700 0.89500 -0.12300
N 	N 	0.35200 0.45300 0.82400 -0.17800
N 	N 	0.44500 0.46900 0.79900 -0.06900
N 	N 	0.30900 0.48900 0.90000 -0.21600
N 	N 	0.37600 0.42400 0.90600 -0.22600
H 	H 	0.33005 0.47883 0.95904 0.01500
H 	H 	0.31056 0.54095 0.98568 0.04100
H 	H 	0.28113 0.58817 0.93761 0.02700
H 	H 	0.28950 0.57523 0.86733 0.04000
H 	H 	0.30899 0.51631 0.84193 0.01400
H 	H 	0.37184 0.36994 0.91937 -0.00800
H 	H 	0.42562 0.37951 0.96450 0.04700
H 	H 	0.47731 0.42294 0.94552 0.03500
H 	H 	0.39309 0.47932 0.88093 0.01900
H 	H 	0.46722 0.48326 0.86321 0.06000
H 	H 	0.48738 0.49083 0.91508 0.05200
C 	C 	0.70000 0.36100 0.53200 -0.14300
C 	C 	0.71800 0.42200 0.52300 -0.16900
C 	C 	0.56000 0.31600 0.49900 0.01200
C 	C 	0.54600 0.30700 0.46500 -0.05300
C 	C 	0.57200 0.29400 0.44000 -0.00800
C 	C 	0.61100 0.29600 0.44800 -0.04800
C 	C 	0.62600 0.30500 0.48100 0.01200
C 	C 	0.57900 0.38800 0.60200 0.09800
C 	C 	0.56000 0.42000 0.60000 -0.07700
C 	C 	0.56800 0.44800 0.57400 -0.04200
C 	C 	0.59100 0.43900 0.54700 0.05400
C 	C 	0.60200 0.40400 0.54600 -0.03100
C 	C 	0.60500 0.46600 0.52300 -0.12300
N 	N 	0.67600 0.35200 0.54700 -0.17800
N 	N 	0.70100 0.44500 0.53100 -0.06900
N 	N 	0.60000 0.30900 0.51100 -0.21600
N 	N 	0.59400 0.37600 0.57600 -0.22600
H 	H 	0.54096 0.33005 0.52117 0.01300
H 	H 	0.51432 0.31056 0.45905 0.03800
H 	H 	0.56239 0.28113 0.41183 0.02600
H 	H 	0.63267 0.28950 0.42477 0.04000
H 	H 	0.65807 0.30899 0.48369 0.01400
H 	H 	0.58063 0.37184 0.63006 -0.00800
H 	H 	0.53550 0.42562 0.62049 0.04500
H 	H 	0.55448 0.47731 0.57706 0.03300
H 	H 	0.61907 0.39309 0.52068 0.01900
H 	H 	0.63679 0.46722 0.51674 0.06000
H 	H 	0.58492 0.48738 0.50917 0.05100
C 	C 	0.20000 0.86100 0.03200 -0.14600
C 	C 	0.21800 0.92200 0.02300 -0.17200
C 	C 	0.06000 0.81600 0.99900 0.03200
C 	C 	0.04600 0.80700 0.96500 -0.06200
C 	C 	0.07200 0.79400 0.94000 -0.00100
C 	C 	0.11100 0.79600 0.94800 -0.05400
C 	C 	0.12600 0.80500 0.98100 0.02300
C 	C 	0.07900 0.88800 0.10200 0.09700
C 	C 	0.06000 0.92000 0.10000 -0.07700
C 	C 	0.06800 0.94800 0.07400 -0.04200
C 	C 	0.09100 0.93900 0.04700 0.05300
C 	C 	0.10200 0.90400 0.04600 -0.03200
C 	C 	0.10500 0.96600 0.02300 -0.12400
N 	N 	0.17600 0.85200 0.04700 -0.17800
N 	N 	0.20100 0.94500 0.03100 -0.06800
N 	N 	0.10000 0.80900 0.01100 -0.22700
N 	N 	0.09400 0.87600 0.07600 -0.22600
H 	H 	0.04096 0.83005 0.02117 0.00100
H 	H 	0.01432 0.81056 0.95905 0.04000
H 	H 	0.06239 0.78113 0.91183 0.02400
H 	H 	0.13267 0.78950 0.92477 0.04200
H 	H 	0.15807 0.80899 0.98369 0.01400
H 	H 	0.08063 0.87184 0.13006 -0.00800
H 	H 	0.03550 0.92562 0.12049 0.04300
H 	H 	0.05448 0.97731 0.07706 0.03300
H 	H 	0.11907 0.89309 0.02068 0.01700
H 	H 	0.13679 0.96722 0.01674 0.05800
H 	H 	0.08492 0.98738 0.00917 0.04900
C 	C 	0.20000 0.13900 0.46800 -0.14300
C 	C 	0.21800 0.07800 0.47700 -0.17000
C 	C 	0.06000 0.18400 0.50100 0.01200
C 	C 	0.04600 0.19300 0.53500 -0.05400
C 	C 	0.07200 0.20600 0.56000 -0.00800
C 	C 	0.11100 0.20400 0.55200 -0.04800
C 	C 	0.12600 0.19500 0.51900 0.01100
C 	C 	0.07900 0.11200 0.39800 0.09700
C 	C 	0.06000 0.08000 0.40000 -0.07800
C 	C 	0.06800 0.05200 0.42600 -0.04300
C 	C 	0.09100 0.06100 0.45300 0.05300
C 	C 	0.10200 0.09600 0.45400 -0.03100
C 	C 	0.10500 0.03400 0.47700 -0.12400
N 	N 	0.17600 0.14800 0.45300 -0.17800
N 	N 	0.20100 0.05500 0.46900 -0.07000
N 	N 	0.10000 0.19100 0.48900 -0.21600
N 	N 	0.09400 0.12400 0.42400 -0.22600
H 	H 	0.04096 0.16995 0.47883 0.01100
H 	H 	0.01432 0.18944 0.54095 0.03500
H 	H 	0.06239 0.21887 0.58817 0.02500
H 	H 	0.13267 0.21050 0.57523 0.04000
H 	H 	0.15807 0.19101 0.51631 0.01400
H 	H 	0.08063 0.12816 0.36994 -0.00800
H 	H 	0.03550 0.07438 0.37951 0.04200
H 	H 	0.05448 0.02269 0.42294 0.02900
H 	H 	0.11907 0.10691 0.47932 0.01900
H 	H 	0.13679 0.03278 0.48326 0.05800
H 	H 	0.08492 0.01262 0.49083 0.04700
C 	C 	0.70000 0.63900 0.96800 -0.13800
C 	C 	0.71800 0.57800 0.97700 -0.16300
C 	C 	0.56000 0.68400 0.00100 -0.00800
C 	C 	0.54600 0.69300 0.03500 -0.04400
C 	C 	0.57200 0.70600 0.06000 -0.01500
C 	C 	0.61100 0.70400 0.05200 -0.04200
C 	C 	0.62600 0.69500 0.01900 0.00000
C 	C 	0.57900 0.61200 0.89800 0.09700
C 	C 	0.56000 0.58000 0.90000 -0.07600
C 	C 	0.56800 0.55200 0.92600 -0.04200
C 	C 	0.59100 0.56100 0.95300 0.05500
C 	C 	0.60200 0.59600 0.95400 -0.03100
C 	C 	0.60500 0.53400 0.97700 -0.12200
N 	N 	0.67600 0.64800 0.95300 -0.17900
N 	N 	0.70100 0.55500 0.96900 -0.06800
N 	N 	0.60000 0.69100 0.98900 -0.20500
N 	N 	0.59400 0.62400 0.92400 -0.22500
H 	H 	0.54096 0.66995 0.97883 0.02200
H 	H 	0.51432 0.68944 0.04095 0.03400
H 	H 	0.56239 0.71887 0.08817 0.02700
H 	H 	0.63267 0.71050 0.07523 0.03900
H 	H 	0.65807 0.69101 0.01631 0.01300
H 	H 	0.58063 0.62816 0.86994 -0.00800
H 	H 	0.53550 0.57438 0.87951 0.04500
H 	H 	0.55448 0.52269 0.92294 0.03400
H 	H 	0.61907 0.60691 0.97932 0.02200
H 	H 	0.63679 0.53278 0.98326 0.06200
H 	H 	0.58492 0.51262 0.99083 0.05400
C 	C 	0.80000 0.63900 0.03200 -0.14600
C 	C 	0.78200 0.57800 0.02300 -0.17300
C 	C 	0.94000 0.68400 0.99900 0.03300
C 	C 	0.95400 0.69300 0.96500 -0.06000
C 	C 	0.92800 0.70600 0.94000 -0.00100
C 	C 	0.88900 0.70400 0.94800 -0.05400
C 	C 	0.87400 0.69500 0.98100 0.02300
C 	C 	0.92100 0.61200 0.10200 0.09900
C 	C 	0.94000 0.58000 0.10000 -0.07600
C 	C 	0.93200 0.55200 0.07400 -0.04100
C 	C 	0.90900 0.56100 0.04700 0.05300
C 	C 	0.89800 0.59600 0.04600 -0.03100
C 	C 	0.89500 0.53400 0.02300 -0.12400
N 	N 	0.82400 0.64800 0.04700 -0.17900
N 	N 	0.79900 0.55500 0.03100 -0.06900
N 	N 	0.90000 0.69100 0.01100 -0.22600
N 	N 	0.90600 0.62400 0.07600 -0.22600
H 	H 	0.95904 0.66995 0.02117 0.00600
H 	H 	0.98568 0.68944 0.95905 0.04500
H 	H 	0.93761 0.71887 0.91183 0.02600
H 	H 	0.86733 0.71050 0.92477 0.04200
H 	H 	0.84193 0.69101 0.98369 0.01400
H 	H 	0.91937 0.62816 0.13006 -0.00800
H 	H 	0.96450 0.57438 0.12049 0.04700
H 	H 	0.94552 0.52269 0.07706 0.03500
H 	H 	0.88093 0.60691 0.02068 0.01700
H 	H 	0.86321 0.53278 0.01674 0.05700
H 	H 	0.91508 0.51262 0.00917 0.04800
C 	C 	0.30000 0.13900 0.53200 -0.14300
C 	C 	0.28200 0.07800 0.52300 -0.17000
C 	C 	0.44000 0.18400 0.49900 0.01200
C 	C 	0.45400 0.19300 0.46500 -0.05300
C 	C 	0.42800 0.20600 0.44000 -0.00800
C 	C 	0.38900 0.20400 0.44800 -0.04800
C 	C 	0.37400 0.19500 0.48100 0.01200
C 	C 	0.42100 0.11200 0.60200 0.09800
C 	C 	0.44000 0.08000 0.60000 -0.07700
C 	C 	0.43200 0.05200 0.57400 -0.04200
C 	C 	0.40900 0.06100 0.54700 0.05300
C 	C 	0.39800 0.09600 0.54600 -0.03100
C 	C 	0.39500 0.03400 0.52300 -0.12400
N 	N 	0.32400 0.14800 0.54700 -0.17800
N 	N 	0.29900 0.05500 0.53100 -0.07000
N 	N 	0.40000 0.19100 0.51100 -0.21600
N 	N 	0.40600 0.12400 0.57600 -0.22600
H 	H 	0.45904 0.16995 0.52117 0.01300
H 	H 	0.48568 0.18944 0.45905 0.03800
H 	H 	0.43761 0.21887 0.41183 0.02600
H 	H 	0.36733 0.21050 0.42477 0.04000
H 	H 	0.34193 0.19101 0.48369 0.01400
H 	H 	0.41937 0.12816 0.63006 -0.00800
H 	H 	0.46450 0.07438 0.62049 0.04400
H 	H 	0.44552 0.02269 0.57706 0.03100
H 	H 	0.38093 0.10691 0.52068 0.01900
H 	H 	0.36321 0.03278 0.51674 0.05800
H 	H 	0.41508 0.01262 0.50917 0.04800
C 	C 	0.30000 0.86100 0.96800 -0.13800
C 	C 	0.28200 0.92200 0.97700 -0.16300
C 	C 	0.44000 0.81600 0.00100 -0.00800
C 	C 	0.45400 0.80700 0.03500 -0.04400
C 	C 	0.42800 0.79400 0.06000 -0.01500
C 	C 	0.38900 0.79600 0.05200 -0.04200
C 	C 	0.37400 0.80500 0.01900 0.00000
C 	C 	0.42100 0.88800 0.89800 0.09700
C 	C 	0.44000 0.92000 0.90000 -0.07600
C 	C 	0.43200 0.94800 0.92600 -0.04200
C 	C 	0.40900 0.93900 0.95300 0.05600
C 	C 	0.39800 0.90400 0.95400 -0.03100
C 	C 	0.39500 0.96600 0.97700 -0.12200
N 	N 	0.32400 0.85200 0.95300 -0.17900
N 	N 	0.29900 0.94500 0.96900 -0.06700
N 	N 	0.40000 0.80900 0.98900 -0.20500
N 	N 	0.40600 0.87600 0.92400 -0.22500
H 	H 	0.45904 0.83005 0.97883 0.02200
H 	H 	0.48568 0.81056 0.04095 0.03400
H 	H 	0.43761 0.78113 0.08817 0.02700
H 	H 	0.36733 0.78950 0.07523 0.03900
H 	H 	0.34193 0.80899 0.01631 0.01300
H 	H 	0.41937 0.87184 0.86994 -0.00800
H 	H 	0.46450 0.92562 0.87951 0.04500
H 	H 	0.44552 0.97731 0.92294 0.03700
H 	H 	0.38093 0.89309 0.97932 0.02200
H 	H 	0.36321 0.96722 0.98326 0.06400
H 	H 	0.41508 0.98738 0.99083 0.05700
C 	C 	0.80000 0.36100 0.46800 -0.14300
C 	C 	0.78200 0.42200 0.47700 -0.16900
C 	C 	0.94000 0.31600 0.50100 0.01300
C 	C 	0.95400 0.30700 0.53500 -0.05200
C 	C 	0.92800 0.29400 0.56000 -0.00700
C 	C 	0.88900 0.29600 0.55200 -0.04800
C 	C 	0.87400 0.30500 0.51900 0.01200
C 	C 	0.92100 0.38800 0.39800 0.09800
C 	C 	0.94000 0.42000 0.40000 -0.07600
C 	C 	0.93200 0.44800 0.42600 -0.04100
C 	C 	0.90900 0.43900 0.45300 0.05400
C 	C 	0.89800 0.40400 0.45400 -0.03000
C 	C 	0.89500 0.46600 0.47700 -0.12300
N 	N 	0.82400 0.35200 0.45300 -0.17800
N 	N 	0.79900 0.44500 0.46900 -0.06900
N 	N 	0.90000 0.30900 0.48900 -0.21600
N 	N 	0.90600 0.37600 0.42400 -0.22600
H 	H 	0.95904 0.33005 0.47883 0.01500
H 	H 	0.98568 0.31056 0.54095 0.04100
H 	H 	0.93761 0.28113 0.58817 0.02700
H 	H 	0.86733 0.28950 0.57523 0.04000
H 	H 	0.84193 0.30899 0.51631 0.01400
H 	H 	0.91937 0.37184 0.36994 -0.00800
H 	H 	0.96450 0.42562 0.37951 0.04700
H 	H 	0.94552 0.47731 0.42294 0.03500
H 	H 	0.88093 0.39309 0.47932 0.01900
H 	H 	0.86321 0.46722 0.48326 0.06000
H 	H 	0.91508 0.48738 0.49083 0.05200
C 	C 	0.53200 0.70000 0.36100 -0.14300
C 	C 	0.52300 0.71800 0.42200 -0.16900
C 	C 	0.49900 0.56000 0.31600 0.01200
C 	C 	0.46500 0.54600 0.30700 -0.05300
C 	C 	0.44000 0.57200 0.29400 -0.00800
C 	C 	0.44800 0.61100 0.29600 -0.04800
C 	C 	0.48100 0.62600 0.30500 0.01200
C 	C 	0.60200 0.57900 0.38800 0.09800
C 	C 	0.60000 0.56000 0.42000 -0.07700
C 	C 	0.57400 0.56800 0.44800 -0.04200
C 	C 	0.54700 0.59100 0.43900 0.05400
C 	C 	0.54600 0.60200 0.40400 -0.03100
C 	C 	0.52300 0.60500 0.46600 -0.12300
N 	N 	0.54700 0.67600 0.35200 -0.17800
N 	N 	0.53100 0.70100 0.44500 -0.06900
N 	N 	0.51100 0.60000 0.30900 -0.21600
N 	N 	0.57600 0.59400 0.37600 -0.22600
H 	H 	0.52117 0.54096 0.33005 0.01300
H 	H 	0.45905 0.51432 0.31056 0.03800
H 	H 	0.41183 0.56239 0.28113 0.02600
H 	H 	0.42477 0.63267 0.28950 0.04000
H 	H 	0.48369 0.65807 0.30899 0.01400
H 	H 	0.63006 0.58063 0.37184 -0.00800
H 	H 	0.62049 0.53550 0.42562 0.04500
H 	H 	0.57706 0.55448 0.47731 0.03300
H 	H 	0.52068 0.61907 0.39309 0.01900
H 	H 	0.51674 0.63679 0.46722 0.06000
H 	H 	0.50917 0.58492 0.48738 0.05100
C 	C 	0.03200 0.20000 0.86100 -0.14600
C 	C 	0.02300 0.21800 0.92200 -0.17200
C 	C 	0.99900 0.06000 0.81600 0.03200
C 	C 	0.96500 0.04600 0.80700 -0.06200
C 	C 	0.94000 0.07200 0.79400 -0.00100
C 	C 	0.94800 0.11100 0.79600 -0.05400
C 	C 	0.98100 0.12600 0.80500 0.02300
C 	C 	0.10200 0.07900 0.88800 0.09700
C 	C 	0.10000 0.06000 0.92000 -0.07700
C 	C 	0.07400 0.06800 0.94800 -0.04200
C 	C 	0.04700 0.09100 0.93900 0.05300
C 	C 	0.04600 0.10200 0.90400 -0.03200
C 	C 	0.02300 0.10500 0.96600 -0.12400
N 	N 	0.04700 0.17600 0.85200 -0.17800
N 	N 	0.03100 0.20100 0.94500 -0.06800
N 	N 	0.01100 0.10000 0.80900 -0.22700
N 	N 	0.07600 0.09400 0.87600 -0.22600
H 	H 	0.02117 0.04096 0.83005 0.00100
H 	H 	0.95905 0.01432 0.81056 0.04000
H 	H 	0.91183 0.06239 0.78113 0.02400
H 	H 	0.92477 0.13267 0.78950 0.04200
H 	H 	0.98369 0.15807 0.80899 0.01400
H 	H 	0.13006 0.08063 0.87184 -0.00800
H 	H 	0.12049 0.03550 0.92562 0.04300
H 	H 	0.07706 0.05448 0.97731 0.03300
H 	H 	0.02068 0.11907 0.89309 0.01700
H 	H 	0.01674 0.13679 0.96722 0.05800
H 	H 	0.00917 0.08492 0.98738 0.04900
C 	C 	0.46800 0.20000 0.13900 -0.14300
C 	C 	0.47700 0.21800 0.07800 -0.17000
C 	C 	0.50100 0.06000 0.18400 0.01200
C 	C 	0.53500 0.04600 0.19300 -0.05400
C 	C 	0.56000 0.07200 0.20600 -0.00800
C 	C 	0.55200 0.11100 0.20400 -0.04800
C 	C 	0.51900 0.12600 0.19500 0.01100
C 	C 	0.39800 0.07900 0.11200 0.09700
C 	C 	0.40000 0.06000 0.08000 -0.07800
C 	C 	0.42600 0.06800 0.05200 -0.04300
C 	C 	0.45300 0.09100 0.06100 0.05300
C 	C 	0.45400 0.10200 0.09600 -0.03100
C 	C 	0.47700 0.10500 0.03400 -0.12400
N 	N 	0.45300 0.17600 0.14800 -0.17800
N 	N 	0.46900 0.20100 0.05500 -0.07000
N 	N 	0.48900 0.10000 0.19100 -0.21600
N 	N 	0.42400 0.09400 0.12400 -0.22600
H 	H 	0.47883 0.04096 0.16995 0.01100
H 	H 	0.54095 0.01432 0.18944 0.03500
H 	H 	0.58817 0.06239 0.21887 0.02500
H 	H 	0.57523 0.13267 0.21050 0.04000
H 	H 	0.51631 0.15807 0.19101 0.01400
H 	H 	0.36994 0.08063 0.12816 -0.00800
H 	H 	0.37951 0.03550 0.07438 0.04200
H 	H 	0.42294 0.05448 0.02269 0.02900
H 	H 	0.47932 0.11907 0.10691 0.01900
H 	H 	0.48326 0.13679 0.03278 0.05800
H 	H 	0.49083 0.08492 0.01262 0.04700
C 	C 	0.96800 0.70000 0.63900 -0.13800
C 	C 	0.97700 0.71800 0.57800 -0.16300
C 	C 	0.00100 0.56000 0.68400 -0.00800
C 	C 	0.03500 0.54600 0.69300 -0.04400
C 	C 	0.06000 0.57200 0.70600 -0.01500
C 	C 	0.05200 0.61100 0.70400 -0.04200
C 	C 	0.01900 0.62600 0.69500 0.00000
C 	C 	0.89800 0.57900 0.61200 0.09700
C 	C 	0.90000 0.56000 0.58000 -0.07600
C 	C 	0.92600 0.56800 0.55200 -0.04200
C 	C 	0.95300 0.59100 0.56100 0.05500
C 	C 	0.95400 0.60200 0.59600 -0.03100
C 	C 	0.97700 0.60500 0.53400 -0.12200
N 	N 	0.95300 0.67600 0.64800 -0.17900
N 	N 	0.96900 0.70100 0.55500 -0.06800
N 	N 	0.98900 0.60000 0.69100 -0.20500
N 	N 	0.92400 0.59400 0.62400 -0.22500
H 	H 	0.97883 0.54096 0.66995 0.02200
H 	H 	0.04095 0.51432 0.68944 0.03400
H 	H 	0.08817 0.56239 0.71887 0.02700
H 	H 	0.07523 0.63267 0.71050 0.03900
H 	H 	0.01631 0.65807 0.69101 0.01300
H 	H 	0.86994 0.58063 0.62816 -0.00800
H 	H 	0.87951 0.53550 0.57438 0.04500
H 	H 	0.92294 0.55448 0.52269 0.03400
H 	H 	0.97932 0.61907 0.60691 0.02200
H 	H 	0.98326 0.63679 0.53278 0.06200
H 	H 	0.99083 0.58492 0.51262 0.05400
C 	C 	0.03200 0.80000 0.63900 -0.14600
C 	C 	0.02300 0.78200 0.57800 -0.17300
C 	C 	0.99900 0.94000 0.68400 0.03300
C 	C 	0.96500 0.95400 0.69300 -0.06000
C 	C 	0.94000 0.92800 0.70600 -0.00100
C 	C 	0.94800 0.88900 0.70400 -0.05400
C 	C 	0.98100 0.87400 0.69500 0.02300
C 	C 	0.10200 0.92100 0.61200 0.09900
C 	C 	0.10000 0.94000 0.58000 -0.07600
C 	C 	0.07400 0.93200 0.55200 -0.04100
C 	C 	0.04700 0.90900 0.56100 0.05300
C 	C 	0.04600 0.89800 0.59600 -0.03100
C 	C 	0.02300 0.89500 0.53400 -0.12400
N 	N 	0.04700 0.82400 0.64800 -0.17900
N 	N 	0.03100 0.79900 0.55500 -0.06900
N 	N 	0.01100 0.90000 0.69100 -0.22600
N 	N 	0.07600 0.90600 0.62400 -0.22600
H 	H 	0.02117 0.95904 0.66995 0.00600
H 	H 	0.95905 0.98568 0.68944 0.04500
H 	H 	0.91183 0.93761 0.71887 0.02600
H 	H 	0.92477 0.86733 0.71050 0.04200
H 	H 	0.98369 0.84193 0.69101 0.01400
H 	H 	0.13006 0.91937 0.62816 -0.00800
H 	H 	0.12049 0.96450 0.57438 0.04700
H 	H 	0.07706 0.94552 0.52269 0.03500
H 	H 	0.02068 0.88093 0.60691 0.01700
H 	H 	0.01674 0.86321 0.53278 0.05700
H 	H 	0.00917 0.91508 0.51262 0.04800
C 	C 	0.53200 0.30000 0.13900 -0.14300
C 	C 	0.52300 0.28200 0.07800 -0.17000
C 	C 	0.49900 0.44000 0.18400 0.01200
C 	C 	0.46500 0.45400 0.19300 -0.05300
C 	C 	0.44000 0.42800 0.20600 -0.00800
C 	C 	0.44800 0.38900 0.20400 -0.04800
C 	C 	0.48100 0.37400 0.19500 0.01200
C 	C 	0.60200 0.42100 0.11200 0.09800
C 	C 	0.60000 0.44000 0.08000 -0.07700
C 	C 	0.57400 0.43200 0.05200 -0.04200
C 	C 	0.54700 0.40900 0.06100 0.05300
C 	C 	0.54600 0.39800 0.09600 -0.03100
C 	C 	0.52300 0.39500 0.03400 -0.12400
N 	N 	0.54700 0.32400 0.14800 -0.17800
N 	N 	0.53100 0.29900 0.05500 -0.07000
N 	N 	0.51100 0.40000 0.19100 -0.21600
N 	N 	0.57600 0.40600 0.12400 -0.22600
H 	H 	0.52117 0.45904 0.16995 0.01300
H 	H 	0.45905 0.48568 0.18944 0.03800
H 	H 	0.41183 0.43761 0.21887 0.02600
H 	H 	0.42477 0.36733 0.21050 0.04000
H 	H 	0.48369 0.34193 0.19101 0.01400
H 	H 	0.63006 0.41937 0.12816 -0.00800
H 	H 	0.62049 0.46450 0.07438 0.04400
H 	H 	0.57706 0.44552 0.02269 0.03100
H 	H 	0.52068 0.38093 0.10691 0.01900
H 	H 	0.51674 0.36321 0.03278 0.05800
H 	H 	0.50917 0.41508 0.01262 0.04800
C 	C 	0.96800 0.30000 0.86100 -0.13800
C 	C 	0.97700 0.28200 0.92200 -0.16300
C 	C 	0.00100 0.44000 0.81600 -0.00800
C 	C 	0.03500 0.45400 0.80700 -0.04400
C 	C 	0.06000 0.42800 0.79400 -0.01500
C 	C 	0.05200 0.38900 0.79600 -0.04200
C 	C 	0.01900 0.37400 0.80500 0.00000
C 	C 	0.89800 0.42100 0.88800 0.09700
C 	C 	0.90000 0.44000 0.92000 -0.07600
C 	C 	0.92600 0.43200 0.94800 -0.04200
C 	C 	0.95300 0.40900 0.93900 0.05600
C 	C 	0.95400 0.39800 0.90400 -0.03100
C 	C 	0.97700 0.39500 0.96600 -0.12200
N 	N 	0.95300 0.32400 0.85200 -0.17900
N 	N 	0.96900 0.29900 0.94500 -0.06700
N 	N 	0.98900 0.40000 0.80900 -0.20500
N 	N 	0.92400 0.40600 0.87600 -0.22500
H 	H 	0.97883 0.45904 0.83005 0.02200
H 	H 	0.04095 0.48568 0.81056 0.03400
H 	H 	0.08817 0.43761 0.78113 0.02700
H 	H 	0.07523 0.36733 0.78950 0.03900
H 	H 	0.01631 0.34193 0.80899 0.01300
H 	H 	0.86994 0.41937 0.87184 -0.00800
H 	H 	0.87951 0.46450 0.92562 0.04500
H 	H 	0.92294 0.44552 0.97731 0.03700
H 	H 	0.97932 0.38093 0.89309 0.02200
H 	H 	0.98326 0.36321 0.96722 0.06400
H 	H 	0.99083 0.41508 0.98738 0.05700
C 	C 	0.46800 0.80000 0.36100 -0.14300
C 	C 	0.47700 0.78200 0.42200 -0.16900
C 	C 	0.50100 0.94000 0.31600 0.01300
C 	C 	0.53500 0.95400 0.30700 -0.05200
C 	C 	0.56000 0.92800 0.29400 -0.00700
C 	C 	0.55200 0.88900 0.29600 -0.04800
C 	C 	0.51900 0.87400 0.30500 0.01200
C 	C 	0.39800 0.92100 0.38800 0.09800
C 	C 	0.40000 0.94000 0.42000 -0.07600
C 	C 	0.42600 0.93200 0.44800 -0.04100
C 	C 	0.45300 0.90900 0.43900 0.05400
C 	C 	0.45400 0.89800 0.40400 -0.03000
C 	C 	0.47700 0.89500 0.46600 -0.12300
N 	N 	0.45300 0.82400 0.35200 -0.17800
N 	N 	0.46900 0.79900 0.44500 -0.06900
N 	N 	0.48900 0.90000 0.30900 -0.21600
N 	N 	0.42400 0.90600 0.37600 -0.22600
H 	H 	0.47883 0.95904 0.33005 0.01500
H 	H 	0.54095 0.98568 0.31056 0.04100
H 	H 	0.58817 0.93761 0.28113 0.02700
H 	H 	0.57523 0.86733 0.28950 0.04000
H 	H 	0.51631 0.84193 0.30899 0.01400
H 	H 	0.36994 0.91937 0.37184 -0.00800
H 	H 	0.37951 0.96450 0.42562 0.04700
H 	H 	0.42294 0.94552 0.47731 0.03500
H 	H 	0.47932 0.88093 0.39309 0.01900
H 	H 	0.48326 0.86321 0.46722 0.06000
H 	H 	0.49083 0.91508 0.48738 0.05200
C 	C 	0.78200 0.11100 0.05000 -0.14500
C 	C 	0.77300 0.17200 0.03200 -0.17300
C 	C 	0.74900 0.06600 0.19000 0.01100
C 	C 	0.71500 0.05700 0.20400 -0.05300
C 	C 	0.69000 0.04400 0.17800 -0.00900
C 	C 	0.69800 0.04600 0.13900 -0.04900
C 	C 	0.73100 0.05500 0.12400 0.01000
C 	C 	0.85200 0.13800 0.17100 0.09800
C 	C 	0.85000 0.17000 0.19000 -0.07700
C 	C 	0.82400 0.19800 0.18200 -0.04200
C 	C 	0.79700 0.18900 0.15900 0.05400
C 	C 	0.79600 0.15400 0.14800 -0.03100
C 	C 	0.77300 0.21600 0.14500 -0.12300
N 	N 	0.79700 0.10200 0.07400 -0.17800
N 	N 	0.78100 0.19500 0.04900 -0.06900
N 	N 	0.76100 0.05900 0.15000 -0.21700
N 	N 	0.82600 0.12600 0.15600 -0.22600
H 	H 	0.77117 0.08005 0.20904 0.01300
H 	H 	0.70905 0.06056 0.23568 0.03700
H 	H 	0.66183 0.03113 0.18761 0.02400
H 	H 	0.67477 0.03950 0.11733 0.03900
H 	H 	0.73369 0.05899 0.09193 0.01300
H 	H 	0.88006 0.12184 0.16937 -0.00800
H 	H 	0.87049 0.17562 0.21450 0.04500
H 	H 	0.82706 0.22731 0.19552 0.03300
H 	H 	0.77068 0.14309 0.13093 0.01900
H 	H 	0.76674 0.21722 0.11321 0.06000
H 	H 	0.75917 0.23738 0.16508 0.05100
C 	C 	0.28200 0.61100 0.55000 -0.14300
C 	C 	0.27300 0.67200 0.53200 -0.16900
C 	C 	0.24900 0.56600 0.69000 0.01200
C 	C 	0.21500 0.55700 0.70400 -0.05300
C 	C 	0.19000 0.54400 0.67800 -0.00800
C 	C 	0.19800 0.54600 0.63900 -0.04800
C 	C 	0.23100 0.55500 0.62400 0.01200
C 	C 	0.35200 0.63800 0.67100 0.09800
C 	C 	0.35000 0.67000 0.69000 -0.07700
C 	C 	0.32400 0.69800 0.68200 -0.04200
C 	C 	0.29700 0.68900 0.65900 0.05400
C 	C 	0.29600 0.65400 0.64800 -0.03100
C 	C 	0.27300 0.71600 0.64500 -0.12300
N 	N 	0.29700 0.60200 0.57400 -0.17800
N 	N 	0.28100 0.69500 0.54900 -0.06900
N 	N 	0.26100 0.55900 0.65000 -0.21600
N 	N 	0.32600 0.62600 0.65600 -0.22600
H 	H 	0.27117 0.58005 0.70904 0.01300
H 	H 	0.20905 0.56056 0.73568 0.03800
H 	H 	0.16183 0.53113 0.68761 0.02600
H 	H 	0.17477 0.53950 0.61733 0.04000
H 	H 	0.23369 0.55899 0.59193 0.01400
H 	H 	0.38006 0.62184 0.66937 -0.00800
H 	H 	0.37049 0.67562 0.71450 0.04500
H 	H 	0.32706 0.72731 0.69552 0.03300
H 	H 	0.27068 0.64309 0.63093 0.01900
H 	H 	0.26674 0.71722 0.61321 0.06000
H 	H 	0.25917 0.73738 0.66508 0.05100
C 	C 	0.71800 0.88900 0.55000 -0.14300
C 	C 	0.72700 0.82800 0.53200 -0.16900
C 	C 	0.75100 0.93400 0.69000 0.01300
C 	C 	0.78500 0.94300 0.70400 -0.05200
C 	C 	0.81000 0.95600 0.67800 -0.00700
C 	C 	0.80200 0.95400 0.63900 -0.04700
C 	C 	0.76900 0.94500 0.62400 0.01300
C 	C 	0.64800 0.86200 0.67100 0.09800
C 	C 	0.65000 0.83000 0.69000 -0.07700
C 	C 	0.67600 0.80200 0.68200 -0.04200
C 	C 	0.70300 0.81100 0.65900 0.05400
C 	C 	0.70400 0.84600 0.64800 -0.03100
C 	C 	0.72700 0.78400 0.64500 -0.12300
N 	N 	0.70300 0.89800 0.57400 -0.17800
N 	N 	0.71900 0.80500 0.54900 -0.06900
N 	N 	0.73900 0.94100 0.65000 -0.21500
N 	N 	0.67400 0.87400 0.65600 -0.22600
H 	H 	0.72883 0.91995 0.70904 0.01300
H 	H 	0.79095 0.93944 0.73568 0.03900
H 	H 	0.83817 0.96887 0.68761 0.02800
H 	H 	0.82523 0.96050 0.61733 0.04200
H 	H 	0.76631 0.94101 0.59193 0.01400
H 	H 	0.61994 0.87816 0.66937 -0.00800
H 	H 	0.62951 0.82438 0.71450 0.04500
H 	H 	0.67294 0.77269 0.69552 0.03300
H 	H 	0.72932 0.85691 0.63093 0.01900
H 	H 	0.73326 0.78278 0.61321 0.06000
H 	H 	0.74083 0.76262 0.66508 0.05100
C 	C 	0.21800 0.38900 0.05000 -0.14500
C 	C 	0.22700 0.32800 0.03200 -0.17300
C 	C 	0.25100 0.43400 0.19000 0.01200
C 	C 	0.28500 0.44300 0.20400 -0.05300
C 	C 	0.31000 0.45600 0.17800 -0.00800
C 	C 	0.30200 0.45400 0.13900 -0.04800
C 	C 	0.26900 0.44500 0.12400 0.01100
C 	C 	0.14800 0.36200 0.17100 0.09800
C 	C 	0.15000 0.33000 0.19000 -0.07700
C 	C 	0.17600 0.30200 0.18200 -0.04200
C 	C 	0.20300 0.31100 0.15900 0.05400
C 	C 	0.20400 0.34600 0.14800 -0.03100
C 	C 	0.22700 0.28400 0.14500 -0.12300
N 	N 	0.20300 0.39800 0.07400 -0.17800
N 	N 	0.21900 0.30500 0.04900 -0.06900
N 	N 	0.23900 0.44100 0.15000 -0.21600
N 	N 	0.17400 0.37400 0.15600 -0.22600
H 	H 	0.22883 0.41995 0.20904 0.01300
H 	H 	0.29095 0.43944 0.23568 0.03800
H 	H 	0.33817 0.46887 0.18761 0.02600
H 	H 	0.32523 0.46050 0.11733 0.04000
H 	H 	0.26631 0.44101 0.09193 0.01400
H 	H 	0.11994 0.37816 0.16937 -0.00800
H 	H 	0.12951 0.32438 0.21450 0.04500
H 	H 	0.17294 0.27269 0.19552 0.03300
H 	H 	0.22932 0.35691 0.13093 0.01900
H 	H 	0.23326 0.28278 0.11321 0.05900
H 	H 	0.24083 0.26262 0.16508 0.05100
C 	C 	0.28200 0.38900 0.95000 -0.13800
C 	C 	0.27300 0.32800 0.96800 -0.16300
C 	C 	0.24900 0.43400 0.81000 0.01200
C 	C 	0.21500 0.44300 0.79600 -0.05300
C 	C 	0.19000 0.45600 0.82200 -0.00800
C 	C 	0.19800 0.45400 0.86100 -0.04800
C 	C 	0.23100 0.44500 0.87600 0.01200
C 	C 	0.35200 0.36200 0.82900 0.09800
C 	C 	0.35000 0.33000 0.81000 -0.07700
C 	C 	0.32400 0.30200 0.81800 -0.04200
C 	C 	0.29700 0.31100 0.84100 0.05400
C 	C 	0.29600 0.34600 0.85200 -0.03100
C 	C 	0.27300 0.28400 0.85500 -0.12300
N 	N 	0.29700 0.39800 0.92600 -0.17900
N 	N 	0.28100 0.30500 0.95100 -0.06900
N 	N 	0.26100 0.44100 0.85000 -0.21600
N 	N 	0.32600 0.37400 0.84400 -0.22600
H 	H 	0.27117 0.41995 0.79096 0.01300
H 	H 	0.20905 0.43944 0.76432 0.03800
H 	H 	0.16183 0.46887 0.81239 0.02600
H 	H 	0.17477 0.46050 0.88267 0.04100
H 	H 	0.23369 0.44101 0.90807 0.01400
H 	H 	0.38006 0.37816 0.83063 -0.00800
H 	H 	0.37049 0.32438 0.78550 0.04500
H 	H 	0.32706 0.27269 0.80448 0.03300
H 	H 	0.27068 0.35691 0.86907 0.01900
H 	H 	0.26674 0.28278 0.88679 0.06000
H 	H 	0.25917 0.26262 0.83492 0.05100
C 	C 	0.78200 0.88900 0.45000 -0.14300
C 	C 	0.77300 0.82800 0.46800 -0.16900
C 	C 	0.74900 0.93400 0.31000 0.01300
C 	C 	0.71500 0.94300 0.29600 -0.05200
C 	C 	0.69000 0.95600 0.32200 -0.00700
C 	C 	0.69800 0.95400 0.36100 -0.04800
C 	C 	0.73100 0.94500 0.37600 0.01300
C 	C 	0.85200 0.86200 0.32900 0.09800
C 	C 	0.85000 0.83000 0.31000 -0.07700
C 	C 	0.82400 0.80200 0.31800 -0.04200
C 	C 	0.79700 0.81100 0.34100 0.05400
C 	C 	0.79600 0.84600 0.35200 -0.03100
C 	C 	0.77300 0.78400 0.35500 -0.12300
N 	N 	0.79700 0.89800 0.42600 -0.17800
N 	N 	0.78100 0.80500 0.45100 -0.06900
N 	N 	0.76100 0.94100 0.35000 -0.21500
N 	N 	0.82600 0.87400 0.34400 -0.22600
H 	H 	0.77117 0.91995 0.29096 0.01300
H 	H 	0.70905 0.93944 0.26432 0.03900
H 	H 	0.66183 0.96887 0.31239 0.02800
H 	H 	0.67477 0.96050 0.38267 0.04100
H 	H 	0.73369 0.94101 0.40807 0.01400
H 	H 	0.88006 0.87816 0.33063 -0.00800
H 	H 	0.87049 0.82438 0.28550 0.04500
H 	H 	0.82706 0.77269 0.30448 0.03300
H 	H 	0.77068 0.85691 0.36907 0.01900
H 	H 	0.76674 0.78278 0.38679 0.06000
H 	H 	0.75917 0.76262 0.33492 0.05100
C 	C 	0.21800 0.61100 0.45000 -0.14300
C 	C 	0.22700 0.67200 0.46800 -0.16900
C 	C 	0.25100 0.56600 0.31000 0.01200
C 	C 	0.28500 0.55700 0.29600 -0.05300
C 	C 	0.31000 0.54400 0.32200 -0.00800
C 	C 	0.30200 0.54600 0.36100 -0.04800
C 	C 	0.26900 0.55500 0.37600 0.01200
C 	C 	0.14800 0.63800 0.32900 0.09800
C 	C 	0.15000 0.67000 0.31000 -0.07700
C 	C 	0.17600 0.69800 0.31800 -0.04200
C 	C 	0.20300 0.68900 0.34100 0.05400
C 	C 	0.20400 0.65400 0.35200 -0.03100
C 	C 	0.22700 0.71600 0.35500 -0.12300
N 	N 	0.20300 0.60200 0.42600 -0.17800
N 	N 	0.21900 0.69500 0.45100 -0.06900
N 	N 	0.23900 0.55900 0.35000 -0.21600
N 	N 	0.17400 0.62600 0.34400 -0.22600
H 	H 	0.22883 0.58005 0.29096 0.01300
H 	H 	0.29095 0.56056 0.26432 0.03800
H 	H 	0.33817 0.53113 0.31239 0.02600
H 	H 	0.32523 0.53950 0.38267 0.04000
H 	H 	0.26631 0.55899 0.40807 0.01400
H 	H 	0.11994 0.62184 0.33063 -0.00800
H 	H 	0.12951 0.67562 0.28550 0.04500
H 	H 	0.17294 0.72731 0.30448 0.03300
H 	H 	0.22932 0.64309 0.36907 0.01900
H 	H 	0.23326 0.71722 0.38679 0.06000
H 	H 	0.24083 0.73738 0.33492 0.05100
C 	C 	0.71800 0.11100 0.95000 -0.13900
C 	C 	0.72700 0.17200 0.96800 -0.16300
C 	C 	0.75100 0.06600 0.81000 0.01100
C 	C 	0.78500 0.05700 0.79600 -0.05300
C 	C 	0.81000 0.04400 0.82200 -0.00900
C 	C 	0.80200 0.04600 0.86100 -0.04900
C 	C 	0.76900 0.05500 0.87600 0.01100
C 	C 	0.64800 0.13800 0.82900 0.09800
C 	C 	0.65000 0.17000 0.81000 -0.07700
C 	C 	0.67600 0.19800 0.81800 -0.04200
C 	C 	0.70300 0.18900 0.84100 0.05400
C 	C 	0.70400 0.15400 0.85200 -0.03100
C 	C 	0.72700 0.21600 0.85500 -0.12300
N 	N 	0.70300 0.10200 0.92600 -0.17900
N 	N 	0.71900 0.19500 0.95100 -0.06900
N 	N 	0.73900 0.05900 0.85000 -0.21700
N 	N 	0.67400 0.12600 0.84400 -0.22600
H 	H 	0.72883 0.08005 0.79096 0.01300
H 	H 	0.79095 0.06056 0.76432 0.03700
H 	H 	0.83817 0.03113 0.81239 0.02500
H 	H 	0.82523 0.03950 0.88267 0.04000
H 	H 	0.76631 0.05899 0.90807 0.01300
H 	H 	0.61994 0.12184 0.83063 -0.00800
H 	H 	0.62951 0.17562 0.78550 0.04500
H 	H 	0.67294 0.22731 0.80448 0.03300
H 	H 	0.72932 0.14309 0.86907 0.01900
H 	H 	0.73326 0.21722 0.88679 0.06000
H 	H 	0.74083 0.23738 0.83492 0.05100
C 	C 	0.61100 0.45000 0.21800 -0.14300
C 	C 	0.67200 0.46800 0.22700 -0.16900
C 	C 	0.56600 0.31000 0.25100 0.01200
C 	C 	0.55700 0.29600 0.28500 -0.05300
C 	C 	0.54400 0.32200 0.31000 -0.00800
C 	C 	0.54600 0.36100 0.30200 -0.04800
C 	C 	0.55500 0.37600 0.26900 0.01200
C 	C 	0.63800 0.32900 0.14800 0.09800
C 	C 	0.67000 0.31000 0.15000 -0.07700
C 	C 	0.69800 0.31800 0.17600 -0.04200
C 	C 	0.68900 0.34100 0.20300 0.05400
C 	C 	0.65400 0.35200 0.20400 -0.03100
C 	C 	0.71600 0.35500 0.22700 -0.12300
N 	N 	0.60200 0.42600 0.20300 -0.17800
N 	N 	0.69500 0.45100 0.21900 -0.06900
N 	N 	0.55900 0.35000 0.23900 -0.21600
N 	N 	0.62600 0.34400 0.17400 -0.22600
H 	H 	0.58005 0.29096 0.22883 0.01300
H 	H 	0.56056 0.26432 0.29095 0.03800
H 	H 	0.53113 0.31239 0.33817 0.02600
H 	H 	0.53950 0.38267 0.32523 0.04000
H 	H 	0.55899 0.40807 0.26631 0.01400
H 	H 	0.62184 0.33063 0.11994 -0.00800
H 	H 	0.67562 0.28550 0.12951 0.04500
H 	H 	0.72731 0.30448 0.17294 0.03300
H 	H 	0.64309 0.36907 0.22932 0.01900
H 	H 	0.71722 0.38679 0.23326 0.06000
H 	H 	0.73738 0.33492 0.24083 0.05100
C 	C 	0.11100 0.95000 0.71800 -0.13900
C 	C 	0.17200 0.96800 0.72700 -0.16300
C 	C 	0.06600 0.81000 0.75100 0.01100
C 	C 	0.05700 0.79600 0.78500 -0.05300
C 	C 	0.04400 0.82200 0.81000 -0.00900
C 	C 	0.04600 0.86100 0.80200 -0.04900
C 	C 	0.05500 0.87600 0.76900 0.01100
C 	C 	0.13800 0.82900 0.64800 0.09800
C 	C 	0.17000 0.81000 0.65000 -0.07700
C 	C 	0.19800 0.81800 0.67600 -0.04200
C 	C 	0.18900 0.84100 0.70300 0.05400
C 	C 	0.15400 0.85200 0.70400 -0.03100
C 	C 	0.21600 0.85500 0.72700 -0.12300
N 	N 	0.10200 0.92600 0.70300 -0.17900
N 	N 	0.19500 0.95100 0.71900 -0.06900
N 	N 	0.05900 0.85000 0.73900 -0.21700
N 	N 	0.12600 0.84400 0.67400 -0.22600
H 	H 	0.08005 0.79096 0.72883 0.01300
H 	H 	0.06056 0.76432 0.79095 0.03700
H 	H 	0.03113 0.81239 0.83817 0.02500
H 	H 	0.03950 0.88267 0.82523 0.04000
H 	H 	0.05899 0.90807 0.76631 0.01300
H 	H 	0.12184 0.83063 0.61994 -0.00800
H 	H 	0.17562 0.78550 0.62951 0.04500
H 	H 	0.22731 0.80448 0.67294 0.03300
H 	H 	0.14309 0.86907 0.72932 0.01900
H 	H 	0.21722 0.88679 0.73326 0.06000
H 	H 	0.23738 0.83492 0.74083 0.05100
C 	C 	0.38900 0.95000 0.28200 -0.13800
C 	C 	0.32800 0.96800 0.27300 -0.16300
C 	C 	0.43400 0.81000 0.24900 0.01200
C 	C 	0.44300 0.79600 0.21500 -0.05300
C 	C 	0.45600 0.82200 0.19000 -0.00800
C 	C 	0.45400 0.86100 0.19800 -0.04800
C 	C 	0.44500 0.87600 0.23100 0.01200
C 	C 	0.36200 0.82900 0.35200 0.09800
C 	C 	0.33000 0.81000 0.35000 -0.07700
C 	C 	0.30200 0.81800 0.32400 -0.04200
C 	C 	0.31100 0.84100 0.29700 0.05400
C 	C 	0.34600 0.85200 0.29600 -0.03100
C 	C 	0.28400 0.85500 0.27300 -0.12300
N 	N 	0.39800 0.92600 0.29700 -0.17900
N 	N 	0.30500 0.95100 0.28100 -0.06900
N 	N 	0.44100 0.85000 0.26100 -0.21600
N 	N 	0.37400 0.84400 0.32600 -0.22600
H 	H 	0.41995 0.79096 0.27117 0.01300
H 	H 	0.43944 0.76432 0.20905 0.03800
H 	H 	0.46887 0.81239 0.16183 0.02600
H 	H 	0.46050 0.88267 0.17477 0.04100
H 	H 	0.44101 0.90807 0.23369 0.01400
H 	H 	0.37816 0.83063 0.38006 -0.00800
H 	H 	0.32438 0.78550 0.37049 0.04500
H 	H 	0.27269 0.80448 0.32706 0.03300
H 	H 	0.35691 0.86907 0.27068 0.01900
H 	H 	0.28278 0.88679 0.26674 0.06000
H 	H 	0.26262 0.83492 0.25917 0.05100
C 	C 	0.88900 0.45000 0.78200 -0.14300
C 	C 	0.82800 0.46800 0.77300 -0.16900
C 	C 	0.93400 0.31000 0.74900 0.01300
C 	C 	0.94300 0.29600 0.71500 -0.05200
C 	C 	0.95600 0.32200 0.69000 -0.00700
C 	C 	0.95400 0.36100 0.69800 -0.04800
C 	C 	0.94500 0.37600 0.73100 0.01300
C 	C 	0.86200 0.32900 0.85200 0.09800
C 	C 	0.83000 0.31000 0.85000 -0.07700
C 	C 	0.80200 0.31800 0.82400 -0.04200
C 	C 	0.81100 0.34100 0.79700 0.05400
C 	C 	0.84600 0.35200 0.79600 -0.03100
C 	C 	0.78400 0.35500 0.77300 -0.12300
N 	N 	0.89800 0.42600 0.79700 -0.17800
N 	N 	0.80500 0.45100 0.78100 -0.06900
N 	N 	0.94100 0.35000 0.76100 -0.21500
N 	N 	0.87400 0.34400 0.82600 -0.22600
H 	H 	0.91995 0.29096 0.77117 0.01300
H 	H 	0.93944 0.26432 0.70905 0.03900
H 	H 	0.96887 0.31239 0.66183 0.02800
H 	H 	0.96050 0.38267 0.67477 0.04100
H 	H 	0.94101 0.40807 0.73369 0.01400
H 	H 	0.87816 0.33063 0.88006 -0.00800
H 	H 	0.82438 0.28550 0.87049 0.04500
H 	H 	0.77269 0.30448 0.82706 0.03300
H 	H 	0.85691 0.36907 0.77068 0.01900
H 	H 	0.78278 0.38679 0.76674 0.06000
H 	H 	0.76262 0.33492 0.75917 0.05100
C 	C 	0.88900 0.55000 0.71800 -0.14300
C 	C 	0.82800 0.53200 0.72700 -0.16900
C 	C 	0.93400 0.69000 0.75100 0.01300
C 	C 	0.94300 0.70400 0.78500 -0.05200
C 	C 	0.95600 0.67800 0.81000 -0.00700
C 	C 	0.95400 0.63900 0.80200 -0.04700
C 	C 	0.94500 0.62400 0.76900 0.01300
C 	C 	0.86200 0.67100 0.64800 0.09800
C 	C 	0.83000 0.69000 0.65000 -0.07700
C 	C 	0.80200 0.68200 0.67600 -0.04200
C 	C 	0.81100 0.65900 0.70300 0.05400
C 	C 	0.84600 0.64800 0.70400 -0.03100
C 	C 	0.78400 0.64500 0.72700 -0.12300
N 	N 	0.89800 0.57400 0.70300 -0.17800
N 	N 	0.80500 0.54900 0.71900 -0.06900
N 	N 	0.94100 0.65000 0.73900 -0.21500
N 	N 	0.87400 0.65600 0.67400 -0.22600
H 	H 	0.91995 0.70904 0.72883 0.01300
H 	H 	0.93944 0.73568 0.79095 0.03900
H 	H 	0.96887 0.68761 0.83817 0.02800
H 	H 	0.96050 0.61733 0.82523 0.04200
H 	H 	0.94101 0.59193 0.76631 0.01400
H 	H 	0.87816 0.66937 0.61994 -0.00800
H 	H 	0.82438 0.71450 0.62951 0.04500
H 	H 	0.77269 0.69552 0.67294 0.03300
H 	H 	0.85691 0.63093 0.72932 0.01900
H 	H 	0.78278 0.61321 0.73326 0.06000
H 	H 	0.76262 0.66508 0.74083 0.05100
C 	C 	0.38900 0.05000 0.21800 -0.14500
C 	C 	0.32800 0.03200 0.22700 -0.17300
C 	C 	0.43400 0.19000 0.25100 0.01200
C 	C 	0.44300 0.20400 0.28500 -0.05300
C 	C 	0.45600 0.17800 0.31000 -0.00800
C 	C 	0.45400 0.13900 0.30200 -0.04800
C 	C 	0.44500 0.12400 0.26900 0.01100
C 	C 	0.36200 0.17100 0.14800 0.09800
C 	C 	0.33000 0.19000 0.15000 -0.07700
C 	C 	0.30200 0.18200 0.17600 -0.04200
C 	C 	0.31100 0.15900 0.20300 0.05400
C 	C 	0.34600 0.14800 0.20400 -0.03100
C 	C 	0.28400 0.14500 0.22700 -0.12300
N 	N 	0.39800 0.07400 0.20300 -0.17800
N 	N 	0.30500 0.04900 0.21900 -0.06900
N 	N 	0.44100 0.15000 0.23900 -0.21600
N 	N 	0.37400 0.15600 0.17400 -0.22600
H 	H 	0.41995 0.20904 0.22883 0.01300
H 	H 	0.43944 0.23568 0.29095 0.03800
H 	H 	0.46887 0.18761 0.33817 0.02600
H 	H 	0.46050 0.11733 0.32523 0.04000
H 	H 	0.44101 0.09193 0.26631 0.01400
H 	H 	0.37816 0.16937 0.11994 -0.00800
H 	H 	0.32438 0.21450 0.12951 0.04500
H 	H 	0.27269 0.19552 0.17294 0.03300
H 	H 	0.35691 0.13093 0.22932 0.01900
H 	H 	0.28278 0.11321 0.23326 0.05900
H 	H 	0.26262 0.16508 0.24083 0.05100
C 	C 	0.11100 0.05000 0.78200 -0.14500
C 	C 	0.17200 0.03200 0.77300 -0.17300
C 	C 	0.06600 0.19000 0.74900 0.01100
C 	C 	0.05700 0.20400 0.71500 -0.05300
C 	C 	0.04400 0.17800 0.69000 -0.00900
C 	C 	0.04600 0.13900 0.69800 -0.04900
C 	C 	0.05500 0.12400 0.73100 0.01000
C 	C 	0.13800 0.17100 0.85200 0.09800
C 	C 	0.17000 0.19000 0.85000 -0.07700
C 	C 	0.19800 0.18200 0.82400 -0.04200
C 	C 	0.18900 0.15900 0.79700 0.05400
C 	C 	0.15400 0.14800 0.79600 -0.03100
C 	C 	0.21600 0.14500 0.77300 -0.12300
N 	N 	0.10200 0.07400 0.79700 -0.17800
N 	N 	0.19500 0.04900 0.78100 -0.06900
N 	N 	0.05900 0.15000 0.76100 -0.21700
N 	N 	0.12600 0.15600 0.82600 -0.22600
H 	H 	0.08005 0.20904 0.77117 0.01300
H 	H 	0.06056 0.23568 0.70905 0.03700
H 	H 	0.03113 0.18761 0.66183 0.02400
H 	H 	0.03950 0.11733 0.67477 0.03900
H 	H 	0.05899 0.09193 0.73369 0.01300
H 	H 	0.12184 0.16937 0.88006 -0.00800
H 	H 	0.17562 0.21450 0.87049 0.04500
H 	H 	0.22731 0.19552 0.82706 0.03300
H 	H 	0.14309 0.13093 0.77068 0.01900
H 	H 	0.21722 0.11321 0.76674 0.06000
H 	H 	0.23738 0.16508 0.75917 0.05100
C 	C 	0.61100 0.55000 0.28200 -0.14300
C 	C 	0.67200 0.53200 0.27300 -0.16900
C 	C 	0.56600 0.69000 0.24900 0.01200
C 	C 	0.55700 0.70400 0.21500 -0.05300
C 	C 	0.54400 0.67800 0.19000 -0.00800
C 	C 	0.54600 0.63900 0.19800 -0.04800
C 	C 	0.55500 0.62400 0.23100 0.01200
C 	C 	0.63800 0.67100 0.35200 0.09800
C 	C 	0.67000 0.69000 0.35000 -0.07700
C 	C 	0.69800 0.68200 0.32400 -0.04200
C 	C 	0.68900 0.65900 0.29700 0.05400
C 	C 	0.65400 0.64800 0.29600 -0.03100
C 	C 	0.71600 0.64500 0.27300 -0.12300
N 	N 	0.60200 0.57400 0.29700 -0.17800
N 	N 	0.69500 0.54900 0.28100 -0.06900
N 	N 	0.55900 0.65000 0.26100 -0.21600
N 	N 	0.62600 0.65600 0.32600 -0.22600
H 	H 	0.58005 0.70904 0.27117 0.01300
H 	H 	0.56056 0.73568 0.20905 0.03800
H 	H 	0.53113 0.68761 0.16183 0.02600
H 	H 	0.53950 0.61733 0.17477 0.04000
H 	H 	0.55899 0.59193 0.23369 0.01400
H 	H 	0.62184 0.66937 0.38006 -0.00800
H 	H 	0.67562 0.71450 0.37049 0.04500
H 	H 	0.72731 0.69552 0.32706 0.03300
H 	H 	0.64309 0.63093 0.27068 0.01900
H 	H 	0.71722 0.61321 0.26674 0.06000
H 	H 	0.73738 0.66508 0.25917 0.05100
C 	C 	0.95000 0.28200 0.38900 -0.13800
C 	C 	0.96800 0.27300 0.32800 -0.16300
C 	C 	0.81000 0.24900 0.43400 0.01200
C 	C 	0.79600 0.21500 0.44300 -0.05300
C 	C 	0.82200 0.19000 0.45600 -0.00800
C 	C 	0.86100 0.19800 0.45400 -0.04800
C 	C 	0.87600 0.23100 0.44500 0.01200
C 	C 	0.82900 0.35200 0.36200 0.09800
C 	C 	0.81000 0.35000 0.33000 -0.07700
C 	C 	0.81800 0.32400 0.30200 -0.04200
C 	C 	0.84100 0.29700 0.31100 0.05400
C 	C 	0.85200 0.29600 0.34600 -0.03100
C 	C 	0.85500 0.27300 0.28400 -0.12300
N 	N 	0.92600 0.29700 0.39800 -0.17900
N 	N 	0.95100 0.28100 0.30500 -0.06900
N 	N 	0.85000 0.26100 0.44100 -0.21600
N 	N 	0.84400 0.32600 0.37400 -0.22600
H 	H 	0.79096 0.27117 0.41995 0.01300
H 	H 	0.76432 0.20905 0.43944 0.03800
H 	H 	0.81239 0.16183 0.46887 0.02600
H 	H 	0.88267 0.17477 0.46050 0.04100
H 	H 	0.90807 0.23369 0.44101 0.01400
H 	H 	0.83063 0.38006 0.37816 -0.00800
H 	H 	0.78550 0.37049 0.32438 0.04500
H 	H 	0.80448 0.32706 0.27269 0.03300
H 	H 	0.86907 0.27068 0.35691 0.01900
H 	H 	0.88679 0.26674 0.28278 0.06000
H 	H 	0.83492 0.25917 0.26262 0.05100
C 	C 	0.45000 0.78200 0.88900 -0.14300
C 	C 	0.46800 0.77300 0.82800 -0.16900
C 	C 	0.31000 0.74900 0.93400 0.01300
C 	C 	0.29600 0.71500 0.94300 -0.05200
C 	C 	0.32200 0.69000 0.95600 -0.00700
C 	C 	0.36100 0.69800 0.95400 -0.04800
C 	C 	0.37600 0.73100 0.94500 0.01300
C 	C 	0.32900 0.85200 0.86200 0.09800
C 	C 	0.31000 0.85000 0.83000 -0.07700
C 	C 	0.31800 0.82400 0.80200 -0.04200
C 	C 	0.34100 0.79700 0.81100 0.05400
C 	C 	0.35200 0.79600 0.84600 -0.03100
C 	C 	0.35500 0.77300 0.78400 -0.12300
N 	N 	0.42600 0.79700 0.89800 -0.17800
N 	N 	0.45100 0.78100 0.80500 -0.06900
N 	N 	0.35000 0.76100 0.94100 -0.21500
N 	N 	0.34400 0.82600 0.87400 -0.22600
H 	H 	0.29096 0.77117 0.91995 0.01300
H 	H 	0.26432 0.70905 0.93944 0.03900
H 	H 	0.31239 0.66183 0.96887 0.02800
H 	H 	0.38267 0.67477 0.96050 0.04100
H 	H 	0.40807 0.73369 0.94101 0.01400
H 	H 	0.33063 0.88006 0.87816 -0.00800
H 	H 	0.28550 0.87049 0.82438 0.04500
H 	H 	0.30448 0.82706 0.77269 0.03300
H 	H 	0.36907 0.77068 0.85691 0.01900
H 	H 	0.38679 0.76674 0.78278 0.06000
H 	H 	0.33492 0.75917 0.76262 0.05100
C 	C 	0.45000 0.21800 0.61100 -0.14300
C 	C 	0.46800 0.22700 0.67200 -0.16900
C 	C 	0.31000 0.25100 0.56600 0.01200
C 	C 	0.29600 0.28500 0.55700 -0.05300
C 	C 	0.32200 0.31000 0.54400 -0.00800
C 	C 	0.36100 0.30200 0.54600 -0.04800
C 	C 	0.37600 0.26900 0.55500 0.01200
C 	C 	0.32900 0.14800 0.63800 0.09800
C 	C 	0.31000 0.15000 0.67000 -0.07700
C 	C 	0.31800 0.17600 0.69800 -0.04200
C 	C 	0.34100 0.20300 0.68900 0.05400
C 	C 	0.35200 0.20400 0.65400 -0.03100
C 	C 	0.35500 0.22700 0.71600 -0.12300
N 	N 	0.42600 0.20300 0.60200 -0.17800
N 	N 	0.45100 0.21900 0.69500 -0.06900
N 	N 	0.35000 0.23900 0.55900 -0.21600
N 	N 	0.34400 0.17400 0.62600 -0.22600
H 	H 	0.29096 0.22883 0.58005 0.01300
H 	H 	0.26432 0.29095 0.56056 0.03800
H 	H 	0.31239 0.33817 0.53113 0.02600
H 	H 	0.38267 0.32523 0.53950 0.04000
H 	H 	0.40807 0.26631 0.55899 0.01400
H 	H 	0.33063 0.11994 0.62184 -0.00800
H 	H 	0.28550 0.12951 0.67562 0.04500
H 	H 	0.30448 0.17294 0.72731 0.03300
H 	H 	0.36907 0.22932 0.64309 0.01900
H 	H 	0.38679 0.23326 0.71722 0.06000
H 	H 	0.33492 0.24083 0.73738 0.05100
C 	C 	0.95000 0.71800 0.11100 -0.13900
C 	C 	0.96800 0.72700 0.17200 -0.16300
C 	C 	0.81000 0.75100 0.06600 0.01100
C 	C 	0.79600 0.78500 0.05700 -0.05300
C 	C 	0.82200 0.81000 0.04400 -0.00900
C 	C 	0.86100 0.80200 0.04600 -0.04900
C 	C 	0.87600 0.76900 0.05500 0.01100
C 	C 	0.82900 0.64800 0.13800 0.09800
C 	C 	0.81000 0.65000 0.17000 -0.07700
C 	C 	0.81800 0.67600 0.19800 -0.04200
C 	C 	0.84100 0.70300 0.18900 0.05400
C 	C 	0.85200 0.70400 0.15400 -0.03100
C 	C 	0.85500 0.72700 0.21600 -0.12300
N 	N 	0.92600 0.70300 0.10200 -0.17900
N 	N 	0.95100 0.71900 0.19500 -0.06900
N 	N 	0.85000 0.73900 0.05900 -0.21700
N 	N 	0.84400 0.67400 0.12600 -0.22600
H 	H 	0.79096 0.72883 0.08005 0.01300
H 	H 	0.76432 0.79095 0.06056 0.03700
H 	H 	0.81239 0.83817 0.03113 0.02500
H 	H 	0.88267 0.82523 0.03950 0.04000
H 	H 	0.90807 0.76631 0.05899 0.01300
H 	H 	0.83063 0.61994 0.12184 -0.00800
H 	H 	0.78550 0.62951 0.17562 0.04500
H 	H 	0.80448 0.67294 0.22731 0.03300
H 	H 	0.86907 0.72932 0.14309 0.01900
H 	H 	0.88679 0.73326 0.21722 0.06000
H 	H 	0.83492 0.74083 0.23738 0.05100
C 	C 	0.05000 0.78200 0.11100 -0.14500
C 	C 	0.03200 0.77300 0.17200 -0.17300
C 	C 	0.19000 0.74900 0.06600 0.01100
C 	C 	0.20400 0.71500 0.05700 -0.05300
C 	C 	0.17800 0.69000 0.04400 -0.00900
C 	C 	0.13900 0.69800 0.04600 -0.04900
C 	C 	0.12400 0.73100 0.05500 0.01000
C 	C 	0.17100 0.85200 0.13800 0.09800
C 	C 	0.19000 0.85000 0.17000 -0.07700
C 	C 	0.18200 0.82400 0.19800 -0.04200
C 	C 	0.15900 0.79700 0.18900 0.05400
C 	C 	0.14800 0.79600 0.15400 -0.03100
C 	C 	0.14500 0.77300 0.21600 -0.12300
N 	N 	0.07400 0.79700 0.10200 -0.17800
N 	N 	0.04900 0.78100 0.19500 -0.06900
N 	N 	0.15000 0.76100 0.05900 -0.21700
N 	N 	0.15600 0.82600 0.12600 -0.22600
H 	H 	0.20904 0.77117 0.08005 0.01300
H 	H 	0.23568 0.70905 0.06056 0.03700
H 	H 	0.18761 0.66183 0.03113 0.02400
H 	H 	0.11733 0.67477 0.03950 0.03900
H 	H 	0.09193 0.73369 0.05899 0.01300
H 	H 	0.16937 0.88006 0.12184 -0.00800
H 	H 	0.21450 0.87049 0.17562 0.04500
H 	H 	0.19552 0.82706 0.22731 0.03300
H 	H 	0.13093 0.77068 0.14309 0.01900
H 	H 	0.11321 0.76674 0.21722 0.06000
H 	H 	0.16508 0.75917 0.23738 0.05100
C 	C 	0.55000 0.28200 0.61100 -0.14300
C 	C 	0.53200 0.27300 0.67200 -0.16900
C 	C 	0.69000 0.24900 0.56600 0.01200
C 	C 	0.70400 0.21500 0.55700 -0.05300
C 	C 	0.67800 0.19000 0.54400 -0.00800
C 	C 	0.63900 0.19800 0.54600 -0.04800
C 	C 	0.62400 0.23100 0.55500 0.01200
C 	C 	0.67100 0.35200 0.63800 0.09800
C 	C 	0.69000 0.35000 0.67000 -0.07700
C 	C 	0.68200 0.32400 0.69800 -0.04200
C 	C 	0.65900 0.29700 0.68900 0.05400
C 	C 	0.64800 0.29600 0.65400 -0.03100
C 	C 	0.64500 0.27300 0.71600 -0.12300
N 	N 	0.57400 0.29700 0.60200 -0.17800
N 	N 	0.54900 0.28100 0.69500 -0.06900
N 	N 	0.65000 0.26100 0.55900 -0.21600
N 	N 	0.65600 0.32600 0.62600 -0.22600
H 	H 	0.70904 0.27117 0.58005 0.01300
H 	H 	0.73568 0.20905 0.56056 0.03800
H 	H 	0.68761 0.16183 0.53113 0.02600
H 	H 	0.61733 0.17477 0.53950 0.04000
H 	H 	0.59193 0.23369 0.55899 0.01400
H 	H 	0.66937 0.38006 0.62184 -0.00800
H 	H 	0.71450 0.37049 0.67562 0.04500
H 	H 	0.69552 0.32706 0.72731 0.03300
H 	H 	0.63093 0.27068 0.64309 0.01900
H 	H 	0.61321 0.26674 0.71722 0.06000
H 	H 	0.66508 0.25917 0.73738 0.05100
C 	C 	0.55000 0.71800 0.88900 -0.14300
C 	C 	0.53200 0.72700 0.82800 -0.16900
C 	C 	0.69000 0.75100 0.93400 0.01300
C 	C 	0.70400 0.78500 0.94300 -0.05200
C 	C 	0.67800 0.81000 0.95600 -0.00700
C 	C 	0.63900 0.80200 0.95400 -0.04700
C 	C 	0.62400 0.76900 0.94500 0.01300
C 	C 	0.67100 0.64800 0.86200 0.09800
C 	C 	0.69000 0.65000 0.83000 -0.07700
C 	C 	0.68200 0.67600 0.80200 -0.04200
C 	C 	0.65900 0.70300 0.81100 0.05400
C 	C 	0.64800 0.70400 0.84600 -0.03100
C 	C 	0.64500 0.72700 0.78400 -0.12300
N 	N 	0.57400 0.70300 0.89800 -0.17800
N 	N 	0.54900 0.71900 0.80500 -0.06900
N 	N 	0.65000 0.73900 0.94100 -0.21500
N 	N 	0.65600 0.67400 0.87400 -0.22600
H 	H 	0.70904 0.72883 0.91995 0.01300
H 	H 	0.73568 0.79095 0.93944 0.03900
H 	H 	0.68761 0.83817 0.96887 0.02800
H 	H 	0.61733 0.82523 0.96050 0.04200
H 	H 	0.59193 0.76631 0.94101 0.01400
H 	H 	0.66937 0.61994 0.87816 -0.00800
H 	H 	0.71450 0.62951 0.82438 0.04500
H 	H 	0.69552 0.67294 0.77269 0.03300
H 	H 	0.63093 0.72932 0.85691 0.01900
H 	H 	0.61321 0.73326 0.78278 0.06000
H 	H 	0.66508 0.74083 0.76262 0.05100
C 	C 	0.05000 0.21800 0.38900 -0.14500
C 	C 	0.03200 0.22700 0.32800 -0.17300
C 	C 	0.19000 0.25100 0.43400 0.01200
C 	C 	0.20400 0.28500 0.44300 -0.05300
C 	C 	0.17800 0.31000 0.45600 -0.00800
C 	C 	0.13900 0.30200 0.45400 -0.04800
C 	C 	0.12400 0.26900 0.44500 0.01100
C 	C 	0.17100 0.14800 0.36200 0.09800
C 	C 	0.19000 0.15000 0.33000 -0.07700
C 	C 	0.18200 0.17600 0.30200 -0.04200
C 	C 	0.15900 0.20300 0.31100 0.05400
C 	C 	0.14800 0.20400 0.34600 -0.03100
C 	C 	0.14500 0.22700 0.28400 -0.12300
N 	N 	0.07400 0.20300 0.39800 -0.17800
N 	N 	0.04900 0.21900 0.30500 -0.06900
N 	N 	0.15000 0.23900 0.44100 -0.21600
N 	N 	0.15600 0.17400 0.37400 -0.22600
H 	H 	0.20904 0.22883 0.41995 0.01300
H 	H 	0.23568 0.29095 0.43944 0.03800
H 	H 	0.18761 0.33817 0.46887 0.02600
H 	H 	0.11733 0.32523 0.46050 0.04000
H 	H 	0.09193 0.26631 0.44101 0.01400
H 	H 	0.16937 0.11994 0.37816 -0.00800
H 	H 	0.21450 0.12951 0.32438 0.04500
H 	H 	0.19552 0.17294 0.27269 0.03300
H 	H 	0.13093 0.22932 0.35691 0.01900
H 	H 	0.11321 0.23326 0.28278 0.05900
H 	H 	0.16508 0.24083 0.26262 0.05100
Nb	Nb	0.62500 0.50000 0.25000 1.30300
Nb	Nb	0.87500 0.50000 0.75000 1.30300
Nb	Nb	0.37500 0.00000 0.25000 1.29700
Nb	Nb	0.12500 0.00000 0.75000 1.29700
Nb	Nb	0.25000 0.62500 0.50000 1.30300
Nb	Nb	0.75000 0.87500 0.50000 1.30300
Nb	Nb	0.25000 0.37500 -0.00000 1.29700
Nb	Nb	0.75000 0.12500 -0.00000 1.29700
Nb	Nb	0.50000 0.25000 0.62500 1.30300
Nb	Nb	0.50000 0.75000 0.87500 1.30300
Nb	Nb	-0.00000 0.25000 0.37500 1.29700
Nb	Nb	-0.00000 0.75000 0.12500 1.29700
Nb	Nb	0.25000 0.87500 -0.00000 1.29700
Nb	Nb	0.75000 0.37500 0.50000 1.30300
Nb	Nb	0.25000 0.12500 0.50000 1.30300
Nb	Nb	0.75000 0.62500 -0.00000 1.29700
Nb	Nb	0.37500 0.50000 0.75000 1.30300
Nb	Nb	0.62500 0.00000 0.75000 1.29700
Nb	Nb	0.12500 0.50000 0.25000 1.30300
Nb	Nb	0.87500 0.00000 0.25000 1.29700
Nb	Nb	-0.00000 0.75000 0.62500 1.29700
Nb	Nb	0.50000 0.75000 0.37500 1.30300
Nb	Nb	0.00000 0.25000 0.87500 1.29700
Nb	Nb	0.50000 0.25000 0.12500 1.30300
Fe	Fe	0.68200 0.43200 0.37500 1.09800
Fe	Fe	0.81800 0.56800 0.87500 1.09800
Fe	Fe	0.31800 0.93200 0.12500 1.09900
Fe	Fe	0.18200 0.06800 0.62500 1.09800
Fe	Fe	0.37500 0.68200 0.43200 1.09800
Fe	Fe	0.87500 0.81800 0.56800 1.09800
Fe	Fe	0.12500 0.31800 0.93200 1.09900
Fe	Fe	0.62500 0.18200 0.06800 1.09800
Fe	Fe	0.43200 0.37500 0.68200 1.09800
Fe	Fe	0.56800 0.87500 0.81800 1.09800
Fe	Fe	0.93200 0.12500 0.31800 1.09900
Fe	Fe	0.06800 0.62500 0.18200 1.09800
Fe	Fe	0.18200 0.93200 0.87500 1.09900
Fe	Fe	0.31800 0.06800 0.37500 1.09800
Fe	Fe	0.68200 0.56800 0.12500 1.09800
Fe	Fe	0.81800 0.43200 0.62500 1.09800
Fe	Fe	0.43200 0.62500 0.81800 1.09800
Fe	Fe	0.56800 0.12500 0.68200 1.09800
Fe	Fe	0.06800 0.37500 0.31800 1.09800
Fe	Fe	0.93200 0.87500 0.18200 1.09900
Fe	Fe	0.12500 0.68200 0.56800 1.09800
Fe	Fe	0.62500 0.81800 0.43200 1.09800
Fe	Fe	0.87500 0.18200 0.93200 1.09900
Fe	Fe	0.37500 0.31800 0.06800 1.09800
Fe	Fe	0.31800 0.56800 0.62500 1.09800
Fe	Fe	0.18200 0.43200 0.12500 1.09800
Fe	Fe	0.68200 0.06800 0.87500 1.09800
Fe	Fe	0.81800 0.93200 0.37500 1.09900
Fe	Fe	0.62500 0.31800 0.56800 1.09800
Fe	Fe	0.12500 0.18200 0.43200 1.09800
Fe	Fe	0.87500 0.68200 0.06800 1.09800
Fe	Fe	0.37500 0.81800 0.93200 1.09900
Fe	Fe	0.56800 0.62500 0.31800 1.09800
Fe	Fe	0.43200 0.12500 0.18200 1.09800
Fe	Fe	0.06800 0.87500 0.68200 1.09800
Fe	Fe	0.93200 0.37500 0.81800 1.09900
Fe	Fe	0.81800 0.06800 0.12500 1.09700
Fe	Fe	0.68200 0.93200 0.62500 1.09900
Fe	Fe	0.31800 0.43200 0.87500 1.09800
Fe	Fe	0.18200 0.56800 0.37500 1.09800
Fe	Fe	0.56800 0.37500 0.18200 1.09800
Fe	Fe	0.43200 0.87500 0.31800 1.09800
Fe	Fe	0.93200 0.62500 0.68200 1.09900
Fe	Fe	0.06800 0.12500 0.81800 1.09700
Fe	Fe	0.87500 0.31800 0.43200 1.09800
Fe	Fe	0.37500 0.18200 0.56800 1.09800
Fe	Fe	0.12500 0.81800 0.06800 1.09700
Fe	Fe	0.62500 0.68200 0.93200 1.09900
