data_crystal

_cell_length_a 7.98780
_cell_length_b 33.93520
_cell_length_c 39.19920
_cell_angle_alpha 90.00000
_cell_angle_beta  90.00000
_cell_angle_gamma 90.00000

_symmetry_space_group_name_	'P 1'
_symmetry_space_group_name_H-M	'P 1'

loop_
_symmetry_equiv_pos_as_xyz
  x,y,z

loop_
_atom_site_label
_atom_site_type_symbol
_atom_site_fract_x
_atom_site_fract_y
_atom_site_fract_z
_atom_site_charge
Cu	Cu	0.20497 0.40618 0.35066 0.88500
C 	C 	0.79190 0.58100 0.16421 0.35100
C 	C 	0.64250 0.51880 0.18090 0.02000
H 	H 	0.65900 0.50880 0.15910 0.03200
C 	C 	0.55840 0.49620 0.20530 -0.09400
H 	H 	0.51830 0.47140 0.19960 0.05700
C 	C 	0.53410 0.51090 0.23826 0.02800
C 	C 	0.59750 0.54820 0.24656 -0.09400
H 	H 	0.58440 0.55800 0.26860 0.05700
C 	C 	0.68020 0.57090 0.22200 0.02700
H 	H 	0.72050 0.59580 0.22760 0.03200
C 	C 	0.70190 0.55630 0.18950 -0.11200
C 	C 	0.30760 0.42790 0.28257 0.07300
H 	H 	0.26660 0.40300 0.27730 -0.00900
C 	C 	0.38620 0.44900 0.25740 -0.13500
H 	H 	0.39950 0.43820 0.23570 0.07100
C 	C 	0.44610 0.48680 0.26439 0.06600
C 	C 	0.41960 0.50170 0.29750 -0.13400
H 	H 	0.45440 0.52710 0.30310 0.07200
C 	C 	0.34180 0.47850 0.32140 0.07500
H 	H 	0.32630 0.48850 0.34320 -0.01400
N 	N 	0.28690 0.44167 0.31451 -0.23800
O 	O 	0.82810 0.61582 0.17318 -0.43300
O 	O 	0.83040 0.56559 0.13569 -0.42900
Cu	Cu	0.20497 0.90618 0.85066 0.88600
C 	C 	0.79190 0.08100 0.66421 0.35200
C 	C 	0.64250 0.01880 0.68090 0.02100
H 	H 	0.65900 0.00880 0.65910 0.03300
C 	C 	0.55840 0.99620 0.70530 -0.09300
H 	H 	0.51830 0.97140 0.69960 0.05800
C 	C 	0.53410 0.01090 0.73826 0.02900
C 	C 	0.59750 0.04820 0.74656 -0.09300
H 	H 	0.58440 0.05800 0.76860 0.05800
C 	C 	0.68020 0.07090 0.72200 0.02800
H 	H 	0.72050 0.09580 0.72760 0.03300
C 	C 	0.70190 0.05630 0.68950 -0.11100
C 	C 	0.30760 0.92790 0.78257 0.07400
H 	H 	0.26660 0.90300 0.77730 -0.00800
C 	C 	0.38620 0.94900 0.75740 -0.13400
H 	H 	0.39950 0.93820 0.73570 0.07200
C 	C 	0.44610 0.98680 0.76439 0.06700
C 	C 	0.41960 0.00170 0.79750 -0.13300
H 	H 	0.45440 0.02710 0.80310 0.07200
C 	C 	0.34180 0.97850 0.82140 0.07500
H 	H 	0.32630 0.98850 0.84320 -0.01400
N 	N 	0.28690 0.94167 0.81451 -0.23800
O 	O 	0.82810 0.11582 0.67318 -0.43300
O 	O 	0.83040 0.06559 0.63569 -0.42900
Cu	Cu	0.70497 0.40618 0.85066 0.88600
C 	C 	0.29190 0.58100 0.66421 0.35100
C 	C 	0.14250 0.51880 0.68090 0.01900
H 	H 	0.15900 0.50880 0.65910 0.03400
C 	C 	0.05840 0.49620 0.70530 -0.09100
H 	H 	0.01830 0.47140 0.69960 0.05600
C 	C 	0.03410 0.51090 0.73826 0.02500
C 	C 	0.09750 0.54820 0.74656 -0.09000
H 	H 	0.08440 0.55800 0.76860 0.05600
C 	C 	0.18020 0.57090 0.72200 0.02600
H 	H 	0.22050 0.59580 0.72760 0.03400
C 	C 	0.20190 0.55630 0.68950 -0.10900
C 	C 	0.80760 0.42790 0.78257 0.07600
H 	H 	0.76660 0.40300 0.77730 -0.00800
C 	C 	0.88620 0.44900 0.75740 -0.13600
H 	H 	0.89950 0.43820 0.73570 0.07400
C 	C 	0.94610 0.48680 0.76439 0.07100
C 	C 	0.91960 0.50170 0.79750 -0.13600
H 	H 	0.95440 0.52710 0.80310 0.07400
C 	C 	0.84180 0.47850 0.82140 0.07700
H 	H 	0.82630 0.48850 0.84320 -0.01500
N 	N 	0.78690 0.44167 0.81451 -0.23800
O 	O 	0.32810 0.61582 0.67318 -0.43200
O 	O 	0.33040 0.56559 0.63569 -0.42900
Cu	Cu	0.70497 0.90618 0.35066 0.88600
C 	C 	0.29190 0.08100 0.16421 0.35100
C 	C 	0.14250 0.01880 0.18090 0.01900
H 	H 	0.15900 0.00880 0.15910 0.03400
C 	C 	0.05840 0.99620 0.20530 -0.09100
H 	H 	0.01830 0.97140 0.19960 0.05600
C 	C 	0.03410 0.01090 0.23826 0.02500
C 	C 	0.09750 0.04820 0.24656 -0.09000
H 	H 	0.08440 0.05800 0.26860 0.05600
C 	C 	0.18020 0.07090 0.22200 0.02600
H 	H 	0.22050 0.09580 0.22760 0.03400
C 	C 	0.20190 0.05630 0.18950 -0.10900
C 	C 	0.80760 0.92790 0.28257 0.07600
H 	H 	0.76660 0.90300 0.27730 -0.00800
C 	C 	0.88620 0.94900 0.25740 -0.13600
H 	H 	0.89950 0.93820 0.23570 0.07400
C 	C 	0.94610 0.98680 0.26439 0.07100
C 	C 	0.91960 0.00170 0.29750 -0.13600
H 	H 	0.95440 0.02710 0.30310 0.07400
C 	C 	0.84180 0.97850 0.32140 0.07700
H 	H 	0.82630 0.98850 0.34320 -0.01500
N 	N 	0.78690 0.94167 0.31451 -0.23800
O 	O 	0.32810 0.11582 0.17318 -0.43300
O 	O 	0.33040 0.06559 0.13569 -0.42900
Cu	Cu	0.54503 0.34382 0.35066 0.88600
C 	C 	0.95810 0.16900 0.16421 0.35300
C 	C 	0.10750 0.23120 0.18090 0.02200
H 	H 	0.09100 0.24120 0.15910 0.03300
C 	C 	0.19160 0.25380 0.20530 -0.09400
H 	H 	0.23170 0.27860 0.19960 0.05800
C 	C 	0.21590 0.23910 0.23826 0.03000
C 	C 	0.15250 0.20180 0.24656 -0.09400
H 	H 	0.16560 0.19200 0.26860 0.05800
C 	C 	0.06980 0.17910 0.22200 0.02900
H 	H 	0.02950 0.15420 0.22760 0.03200
C 	C 	0.04810 0.19370 0.18950 -0.11200
C 	C 	0.44240 0.32210 0.28257 0.07400
H 	H 	0.48340 0.34700 0.27730 -0.00800
C 	C 	0.36380 0.30100 0.25740 -0.13400
H 	H 	0.35050 0.31180 0.23570 0.07200
C 	C 	0.30390 0.26320 0.26439 0.06700
C 	C 	0.33040 0.24830 0.29750 -0.13300
H 	H 	0.29560 0.22290 0.30310 0.07200
C 	C 	0.40820 0.27150 0.32140 0.07500
H 	H 	0.42370 0.26150 0.34320 -0.01400
N 	N 	0.46310 0.30833 0.31451 -0.23800
O 	O 	0.92190 0.13418 0.17318 -0.43200
O 	O 	0.91960 0.18441 0.13569 -0.42900
Cu	Cu	0.54503 0.84382 0.85066 0.88600
C 	C 	0.95810 0.66900 0.66421 0.35300
C 	C 	0.10750 0.73120 0.68090 0.02200
H 	H 	0.09100 0.74120 0.65910 0.03300
C 	C 	0.19160 0.75380 0.70530 -0.09400
H 	H 	0.23170 0.77860 0.69960 0.05800
C 	C 	0.21590 0.73910 0.73826 0.03000
C 	C 	0.15250 0.70180 0.74656 -0.09400
H 	H 	0.16560 0.69200 0.76860 0.05800
C 	C 	0.06980 0.67910 0.72200 0.02900
H 	H 	0.02950 0.65420 0.72760 0.03200
C 	C 	0.04810 0.69370 0.68950 -0.11200
C 	C 	0.44240 0.82210 0.78257 0.07400
H 	H 	0.48340 0.84700 0.77730 -0.00800
C 	C 	0.36380 0.80100 0.75740 -0.13400
H 	H 	0.35050 0.81180 0.73570 0.07200
C 	C 	0.30390 0.76320 0.76439 0.06700
C 	C 	0.33040 0.74830 0.79750 -0.13300
H 	H 	0.29560 0.72290 0.80310 0.07200
C 	C 	0.40820 0.77150 0.82140 0.07500
H 	H 	0.42370 0.76150 0.84320 -0.01400
N 	N 	0.46310 0.80833 0.81451 -0.23800
O 	O 	0.92190 0.63418 0.67318 -0.43200
O 	O 	0.91960 0.68441 0.63569 -0.42900
Cu	Cu	0.04503 0.34382 0.85066 0.88500
C 	C 	0.45810 0.16900 0.66421 0.35200
C 	C 	0.60750 0.23120 0.68090 0.02100
H 	H 	0.59100 0.24120 0.65910 0.03300
C 	C 	0.69160 0.25380 0.70530 -0.09300
H 	H 	0.73170 0.27860 0.69960 0.05800
C 	C 	0.71590 0.23910 0.73826 0.02900
C 	C 	0.65250 0.20180 0.74656 -0.09300
H 	H 	0.66560 0.19200 0.76860 0.05800
C 	C 	0.56980 0.17910 0.72200 0.02800
H 	H 	0.52950 0.15420 0.72760 0.03300
C 	C 	0.54810 0.19370 0.68950 -0.11000
C 	C 	0.94240 0.32210 0.78257 0.07400
H 	H 	0.98340 0.34700 0.77730 -0.00700
C 	C 	0.86380 0.30100 0.75740 -0.13400
H 	H 	0.85050 0.31180 0.73570 0.07200
C 	C 	0.80390 0.26320 0.76439 0.06700
C 	C 	0.83040 0.24830 0.79750 -0.13300
H 	H 	0.79560 0.22290 0.80310 0.07200
C 	C 	0.90820 0.27150 0.82140 0.07500
H 	H 	0.92370 0.26150 0.84320 -0.01400
N 	N 	0.96310 0.30833 0.81451 -0.23700
O 	O 	0.42190 0.13418 0.67318 -0.43200
O 	O 	0.41960 0.18441 0.63569 -0.42900
Cu	Cu	0.04503 0.84382 0.35066 0.88500
C 	C 	0.45810 0.66900 0.16421 0.35200
C 	C 	0.60750 0.73120 0.18090 0.02100
H 	H 	0.59100 0.74120 0.15910 0.03300
C 	C 	0.69160 0.75380 0.20530 -0.09300
H 	H 	0.73170 0.77860 0.19960 0.05800
C 	C 	0.71590 0.73910 0.23826 0.02900
C 	C 	0.65250 0.70180 0.24656 -0.09300
H 	H 	0.66560 0.69200 0.26860 0.05800
C 	C 	0.56980 0.67910 0.22200 0.02800
H 	H 	0.52950 0.65420 0.22760 0.03300
C 	C 	0.54810 0.69370 0.18950 -0.11000
C 	C 	0.94240 0.82210 0.28257 0.07400
H 	H 	0.98340 0.84700 0.27730 -0.00700
C 	C 	0.86380 0.80100 0.25740 -0.13400
H 	H 	0.85050 0.81180 0.23570 0.07200
C 	C 	0.80390 0.76320 0.26439 0.06700
C 	C 	0.83040 0.74830 0.29750 -0.13300
H 	H 	0.79560 0.72290 0.30310 0.07200
C 	C 	0.90820 0.77150 0.32140 0.07500
H 	H 	0.92370 0.76150 0.34320 -0.01400
N 	N 	0.96310 0.80833 0.31451 -0.23700
O 	O 	0.42190 0.63418 0.17318 -0.43200
O 	O 	0.41960 0.68441 0.13569 -0.42900
Cu	Cu	0.54503 0.40618 0.39934 0.88600
C 	C 	0.95810 0.58100 0.58579 0.35300
C 	C 	0.10750 0.51880 0.56910 0.02200
H 	H 	0.09100 0.50880 0.59090 0.03300
C 	C 	0.19160 0.49620 0.54470 -0.09400
H 	H 	0.23170 0.47140 0.55040 0.05800
C 	C 	0.21590 0.51090 0.51174 0.03000
C 	C 	0.15250 0.54820 0.50344 -0.09400
H 	H 	0.16560 0.55800 0.48140 0.05800
C 	C 	0.06980 0.57090 0.52800 0.02900
H 	H 	0.02950 0.59580 0.52240 0.03200
C 	C 	0.04810 0.55630 0.56050 -0.11200
C 	C 	0.44240 0.42790 0.46743 0.07400
H 	H 	0.48340 0.40300 0.47270 -0.00800
C 	C 	0.36380 0.44900 0.49260 -0.13400
H 	H 	0.35050 0.43820 0.51430 0.07200
C 	C 	0.30390 0.48680 0.48561 0.06700
C 	C 	0.33040 0.50170 0.45250 -0.13300
H 	H 	0.29560 0.52710 0.44690 0.07200
C 	C 	0.40820 0.47850 0.42860 0.07500
H 	H 	0.42370 0.48850 0.40680 -0.01400
N 	N 	0.46310 0.44167 0.43549 -0.23800
O 	O 	0.92190 0.61582 0.57682 -0.43200
O 	O 	0.91960 0.56559 0.61431 -0.42900
Cu	Cu	0.54503 0.90618 0.89934 0.88600
C 	C 	0.95810 0.08100 0.08579 0.35300
C 	C 	0.10750 0.01880 0.06910 0.02300
H 	H 	0.09100 0.00880 0.09090 0.03300
C 	C 	0.19160 0.99620 0.04470 -0.09400
H 	H 	0.23170 0.97140 0.05040 0.05800
C 	C 	0.21590 0.01090 0.01174 0.03000
C 	C 	0.15250 0.04820 0.00344 -0.09400
H 	H 	0.16560 0.05800 0.98140 0.05800
C 	C 	0.06980 0.07090 0.02800 0.02900
H 	H 	0.02950 0.09580 0.02240 0.03200
C 	C 	0.04810 0.05630 0.06050 -0.11200
C 	C 	0.44240 0.92790 0.96743 0.07400
H 	H 	0.48340 0.90300 0.97270 -0.00800
C 	C 	0.36380 0.94900 0.99260 -0.13400
H 	H 	0.35050 0.93820 0.01430 0.07200
C 	C 	0.30390 0.98680 0.98561 0.06600
C 	C 	0.33040 0.00170 0.95250 -0.13300
H 	H 	0.29560 0.02710 0.94690 0.07200
C 	C 	0.40820 0.97850 0.92860 0.07500
H 	H 	0.42370 0.98850 0.90680 -0.01400
N 	N 	0.46310 0.94167 0.93549 -0.23800
O 	O 	0.92190 0.11582 0.07682 -0.43200
O 	O 	0.91960 0.06559 0.11431 -0.42900
Cu	Cu	0.04503 0.40618 0.89934 0.88500
C 	C 	0.45810 0.58100 0.08579 0.35200
C 	C 	0.60750 0.51880 0.06910 0.02100
H 	H 	0.59100 0.50880 0.09090 0.03300
C 	C 	0.69160 0.49620 0.04470 -0.09300
H 	H 	0.73170 0.47140 0.05040 0.05800
C 	C 	0.71590 0.51090 0.01174 0.02900
C 	C 	0.65250 0.54820 0.00344 -0.09300
H 	H 	0.66560 0.55800 0.98140 0.05800
C 	C 	0.56980 0.57090 0.02800 0.02800
H 	H 	0.52950 0.59580 0.02240 0.03300
C 	C 	0.54810 0.55630 0.06050 -0.11000
C 	C 	0.94240 0.42790 0.96743 0.07400
H 	H 	0.98340 0.40300 0.97270 -0.00700
C 	C 	0.86380 0.44900 0.99260 -0.13400
H 	H 	0.85050 0.43820 0.01430 0.07200
C 	C 	0.80390 0.48680 0.98561 0.06700
C 	C 	0.83040 0.50170 0.95250 -0.13300
H 	H 	0.79560 0.52710 0.94690 0.07200
C 	C 	0.90820 0.47850 0.92860 0.07500
H 	H 	0.92370 0.48850 0.90680 -0.01400
N 	N 	0.96310 0.44167 0.93549 -0.23700
O 	O 	0.42190 0.61582 0.07682 -0.43200
O 	O 	0.41960 0.56559 0.11431 -0.42900
Cu	Cu	0.04503 0.90618 0.39934 0.88500
C 	C 	0.45810 0.08100 0.58579 0.35200
C 	C 	0.60750 0.01880 0.56910 0.02100
H 	H 	0.59100 0.00880 0.59090 0.03300
C 	C 	0.69160 0.99620 0.54470 -0.09300
H 	H 	0.73170 0.97140 0.55040 0.05800
C 	C 	0.71590 0.01090 0.51174 0.02900
C 	C 	0.65250 0.04820 0.50344 -0.09300
H 	H 	0.66560 0.05800 0.48140 0.05800
C 	C 	0.56980 0.07090 0.52800 0.02800
H 	H 	0.52950 0.09580 0.52240 0.03300
C 	C 	0.54810 0.05630 0.56050 -0.11000
C 	C 	0.94240 0.92790 0.46743 0.07400
H 	H 	0.98340 0.90300 0.47270 -0.00700
C 	C 	0.86380 0.94900 0.49260 -0.13400
H 	H 	0.85050 0.93820 0.51430 0.07200
C 	C 	0.80390 0.98680 0.48561 0.06700
C 	C 	0.83040 0.00170 0.45250 -0.13400
H 	H 	0.79560 0.02710 0.44690 0.07300
C 	C 	0.90820 0.97850 0.42860 0.07500
H 	H 	0.92370 0.98850 0.40680 -0.01400
N 	N 	0.96310 0.94167 0.43549 -0.23700
O 	O 	0.42190 0.11582 0.57682 -0.43200
O 	O 	0.41960 0.06559 0.61431 -0.42900
Cu	Cu	0.20497 0.34382 0.39934 0.88600
C 	C 	0.79190 0.16900 0.58579 0.35200
C 	C 	0.64250 0.23120 0.56910 0.02100
H 	H 	0.65900 0.24120 0.59090 0.03300
C 	C 	0.55840 0.25380 0.54470 -0.09300
H 	H 	0.51830 0.27860 0.55040 0.05800
C 	C 	0.53410 0.23910 0.51174 0.02900
C 	C 	0.59750 0.20180 0.50344 -0.09300
H 	H 	0.58440 0.19200 0.48140 0.05800
C 	C 	0.68020 0.17910 0.52800 0.02800
H 	H 	0.72050 0.15420 0.52240 0.03300
C 	C 	0.70190 0.19370 0.56050 -0.11100
C 	C 	0.30760 0.32210 0.46743 0.07400
H 	H 	0.26660 0.34700 0.47270 -0.00800
C 	C 	0.38620 0.30100 0.49260 -0.13400
H 	H 	0.39950 0.31180 0.51430 0.07200
C 	C 	0.44610 0.26320 0.48561 0.06700
C 	C 	0.41960 0.24830 0.45250 -0.13300
H 	H 	0.45440 0.22290 0.44690 0.07200
C 	C 	0.34180 0.27150 0.42860 0.07500
H 	H 	0.32630 0.26150 0.40680 -0.01400
N 	N 	0.28690 0.30833 0.43549 -0.23800
O 	O 	0.82810 0.13418 0.57682 -0.43300
O 	O 	0.83040 0.18441 0.61431 -0.42900
Cu	Cu	0.20497 0.84382 0.89934 0.88600
C 	C 	0.79190 0.66900 0.08579 0.35200
C 	C 	0.64250 0.73120 0.06910 0.02100
H 	H 	0.65900 0.74120 0.09090 0.03300
C 	C 	0.55840 0.75380 0.04470 -0.09300
H 	H 	0.51830 0.77860 0.05040 0.05800
C 	C 	0.53410 0.73910 0.01174 0.02900
C 	C 	0.59750 0.70180 0.00344 -0.09300
H 	H 	0.58440 0.69200 0.98140 0.05800
C 	C 	0.68020 0.67910 0.02800 0.02800
H 	H 	0.72050 0.65420 0.02240 0.03300
C 	C 	0.70190 0.69370 0.06050 -0.11100
C 	C 	0.30760 0.82210 0.96743 0.07400
H 	H 	0.26660 0.84700 0.97270 -0.00800
C 	C 	0.38620 0.80100 0.99260 -0.13400
H 	H 	0.39950 0.81180 0.01430 0.07200
C 	C 	0.44610 0.76320 0.98561 0.06700
C 	C 	0.41960 0.74830 0.95250 -0.13300
H 	H 	0.45440 0.72290 0.94690 0.07200
C 	C 	0.34180 0.77150 0.92860 0.07500
H 	H 	0.32630 0.76150 0.90680 -0.01400
N 	N 	0.28690 0.80833 0.93549 -0.23800
O 	O 	0.82810 0.63418 0.07682 -0.43300
O 	O 	0.83040 0.68441 0.11431 -0.42900
Cu	Cu	0.70497 0.34382 0.89934 0.88600
C 	C 	0.29190 0.16900 0.08579 0.35100
C 	C 	0.14250 0.23120 0.06910 0.01900
H 	H 	0.15900 0.24120 0.09090 0.03400
C 	C 	0.05840 0.25380 0.04470 -0.09100
H 	H 	0.01830 0.27860 0.05040 0.05600
C 	C 	0.03410 0.23910 0.01174 0.02500
C 	C 	0.09750 0.20180 0.00344 -0.09000
H 	H 	0.08440 0.19200 0.98140 0.05600
C 	C 	0.18020 0.17910 0.02800 0.02600
H 	H 	0.22050 0.15420 0.02240 0.03400
C 	C 	0.20190 0.19370 0.06050 -0.10900
C 	C 	0.80760 0.32210 0.96743 0.07600
H 	H 	0.76660 0.34700 0.97270 -0.00800
C 	C 	0.88620 0.30100 0.99260 -0.13600
H 	H 	0.89950 0.31180 0.01430 0.07400
C 	C 	0.94610 0.26320 0.98561 0.07100
C 	C 	0.91960 0.24830 0.95250 -0.13600
H 	H 	0.95440 0.22290 0.94690 0.07400
C 	C 	0.84180 0.27150 0.92860 0.07700
H 	H 	0.82630 0.26150 0.90680 -0.01500
N 	N 	0.78690 0.30833 0.93549 -0.23800
O 	O 	0.32810 0.13418 0.07682 -0.43200
O 	O 	0.33040 0.18441 0.11431 -0.42900
Cu	Cu	0.70497 0.84382 0.39934 0.88600
C 	C 	0.29190 0.66900 0.58579 0.35100
C 	C 	0.14250 0.73120 0.56910 0.01900
H 	H 	0.15900 0.74120 0.59090 0.03400
C 	C 	0.05840 0.75380 0.54470 -0.09100
H 	H 	0.01830 0.77860 0.55040 0.05600
C 	C 	0.03410 0.73910 0.51174 0.02500
C 	C 	0.09750 0.70180 0.50344 -0.09000
H 	H 	0.08440 0.69200 0.48140 0.05600
C 	C 	0.18020 0.67910 0.52800 0.02600
H 	H 	0.22050 0.65420 0.52240 0.03400
C 	C 	0.20190 0.69370 0.56050 -0.10900
C 	C 	0.80760 0.82210 0.46743 0.07600
H 	H 	0.76660 0.84700 0.47270 -0.00800
C 	C 	0.88620 0.80100 0.49260 -0.13600
H 	H 	0.89950 0.81180 0.51430 0.07400
C 	C 	0.94610 0.76320 0.48561 0.07100
C 	C 	0.91960 0.74830 0.45250 -0.13600
H 	H 	0.95440 0.72290 0.44690 0.07400
C 	C 	0.84180 0.77150 0.42860 0.07700
H 	H 	0.82630 0.76150 0.40680 -0.01500
N 	N 	0.78690 0.80833 0.43549 -0.23800
O 	O 	0.32810 0.63418 0.57682 -0.43200
O 	O 	0.33040 0.68441 0.61431 -0.42900
Cu	Cu	0.79503 0.59382 0.64934 0.88600
C 	C 	0.20810 0.41900 0.83579 0.35200
C 	C 	0.35750 0.48120 0.81910 0.02100
H 	H 	0.34100 0.49120 0.84090 0.03300
C 	C 	0.44160 0.50380 0.79470 -0.09300
H 	H 	0.48170 0.52860 0.80040 0.05800
C 	C 	0.46590 0.48910 0.76174 0.02900
C 	C 	0.40250 0.45180 0.75344 -0.09300
H 	H 	0.41560 0.44200 0.73140 0.05800
C 	C 	0.31980 0.42910 0.77800 0.02800
H 	H 	0.27950 0.40420 0.77240 0.03300
C 	C 	0.29810 0.44370 0.81050 -0.11100
C 	C 	0.69240 0.57210 0.71743 0.07400
H 	H 	0.73340 0.59700 0.72270 -0.00800
C 	C 	0.61380 0.55100 0.74260 -0.13400
H 	H 	0.60050 0.56180 0.76430 0.07200
C 	C 	0.55390 0.51320 0.73561 0.06700
C 	C 	0.58040 0.49830 0.70250 -0.13300
H 	H 	0.54560 0.47290 0.69690 0.07200
C 	C 	0.65820 0.52150 0.67860 0.07500
H 	H 	0.67370 0.51150 0.65680 -0.01400
N 	N 	0.71310 0.55833 0.68549 -0.23800
O 	O 	0.17190 0.38418 0.82682 -0.43300
O 	O 	0.16960 0.43441 0.86431 -0.42900
Cu	Cu	0.79503 0.09382 0.14934 0.88600
C 	C 	0.20810 0.91900 0.33579 0.35200
C 	C 	0.35750 0.98120 0.31910 0.02100
H 	H 	0.34100 0.99120 0.34090 0.03300
C 	C 	0.44160 0.00380 0.29470 -0.09300
H 	H 	0.48170 0.02860 0.30040 0.05800
C 	C 	0.46590 0.98910 0.26174 0.02900
C 	C 	0.40250 0.95180 0.25344 -0.09300
H 	H 	0.41560 0.94200 0.23140 0.05800
C 	C 	0.31980 0.92910 0.27800 0.02800
H 	H 	0.27950 0.90420 0.27240 0.03300
C 	C 	0.29810 0.94370 0.31050 -0.11100
C 	C 	0.69240 0.07210 0.21743 0.07400
H 	H 	0.73340 0.09700 0.22270 -0.00800
C 	C 	0.61380 0.05100 0.24260 -0.13400
H 	H 	0.60050 0.06180 0.26430 0.07200
C 	C 	0.55390 0.01320 0.23561 0.06700
C 	C 	0.58040 0.99830 0.20250 -0.13300
H 	H 	0.54560 0.97290 0.19690 0.07200
C 	C 	0.65820 0.02150 0.17860 0.07500
H 	H 	0.67370 0.01150 0.15680 -0.01400
N 	N 	0.71310 0.05833 0.18549 -0.23800
O 	O 	0.17190 0.88418 0.32682 -0.43300
O 	O 	0.16960 0.93441 0.36431 -0.42900
Cu	Cu	0.29503 0.59382 0.14934 0.88600
C 	C 	0.70810 0.41900 0.33579 0.35100
C 	C 	0.85750 0.48120 0.31910 0.01900
H 	H 	0.84100 0.49120 0.34090 0.03400
C 	C 	0.94160 0.50380 0.29470 -0.09100
H 	H 	0.98170 0.52860 0.30040 0.05600
C 	C 	0.96590 0.48910 0.26174 0.02500
C 	C 	0.90250 0.45180 0.25344 -0.09000
H 	H 	0.91560 0.44200 0.23140 0.05600
C 	C 	0.81980 0.42910 0.27800 0.02600
H 	H 	0.77950 0.40420 0.27240 0.03400
C 	C 	0.79810 0.44370 0.31050 -0.10900
C 	C 	0.19240 0.57210 0.21743 0.07600
H 	H 	0.23340 0.59700 0.22270 -0.00800
C 	C 	0.11380 0.55100 0.24260 -0.13600
H 	H 	0.10050 0.56180 0.26430 0.07400
C 	C 	0.05390 0.51320 0.23561 0.07100
C 	C 	0.08040 0.49830 0.20250 -0.13600
H 	H 	0.04560 0.47290 0.19690 0.07400
C 	C 	0.15820 0.52150 0.17860 0.07700
H 	H 	0.17370 0.51150 0.15680 -0.01500
N 	N 	0.21310 0.55833 0.18549 -0.23800
O 	O 	0.67190 0.38418 0.32682 -0.43200
O 	O 	0.66960 0.43441 0.36431 -0.42900
Cu	Cu	0.29503 0.09382 0.64934 0.88600
C 	C 	0.70810 0.91900 0.83579 0.35100
C 	C 	0.85750 0.98120 0.81910 0.01900
H 	H 	0.84100 0.99120 0.84090 0.03400
C 	C 	0.94160 0.00380 0.79470 -0.09100
H 	H 	0.98170 0.02860 0.80040 0.05600
C 	C 	0.96590 0.98910 0.76174 0.02500
C 	C 	0.90250 0.95180 0.75344 -0.09000
H 	H 	0.91560 0.94200 0.73140 0.05600
C 	C 	0.81980 0.92910 0.77800 0.02600
H 	H 	0.77950 0.90420 0.77240 0.03400
C 	C 	0.79810 0.94370 0.81050 -0.10900
C 	C 	0.19240 0.07210 0.71743 0.07600
H 	H 	0.23340 0.09700 0.72270 -0.00800
C 	C 	0.11380 0.05100 0.74260 -0.13600
H 	H 	0.10050 0.06180 0.76430 0.07400
C 	C 	0.05390 0.01320 0.73561 0.07100
C 	C 	0.08040 0.99830 0.70250 -0.13600
H 	H 	0.04560 0.97290 0.69690 0.07400
C 	C 	0.15820 0.02150 0.67860 0.07700
H 	H 	0.17370 0.01150 0.65680 -0.01500
N 	N 	0.21310 0.05833 0.68549 -0.23800
O 	O 	0.67190 0.88418 0.82682 -0.43300
O 	O 	0.66960 0.93441 0.86431 -0.42900
Cu	Cu	0.45497 0.65618 0.64934 0.88600
C 	C 	0.04190 0.83100 0.83579 0.35300
C 	C 	0.89250 0.76880 0.81910 0.02200
H 	H 	0.90900 0.75880 0.84090 0.03300
C 	C 	0.80840 0.74620 0.79470 -0.09400
H 	H 	0.76830 0.72140 0.80040 0.05800
C 	C 	0.78410 0.76090 0.76174 0.03000
C 	C 	0.84750 0.79820 0.75344 -0.09400
H 	H 	0.83440 0.80800 0.73140 0.05800
C 	C 	0.93020 0.82090 0.77800 0.02900
H 	H 	0.97050 0.84580 0.77240 0.03200
C 	C 	0.95190 0.80630 0.81050 -0.11200
C 	C 	0.55760 0.67790 0.71743 0.07400
H 	H 	0.51660 0.65300 0.72270 -0.00800
C 	C 	0.63620 0.69900 0.74260 -0.13400
H 	H 	0.64950 0.68820 0.76430 0.07200
C 	C 	0.69610 0.73680 0.73561 0.06700
C 	C 	0.66960 0.75170 0.70250 -0.13300
H 	H 	0.70440 0.77710 0.69690 0.07200
C 	C 	0.59180 0.72850 0.67860 0.07500
H 	H 	0.57630 0.73850 0.65680 -0.01400
N 	N 	0.53690 0.69167 0.68549 -0.23800
O 	O 	0.07810 0.86582 0.82682 -0.43200
O 	O 	0.08040 0.81559 0.86431 -0.42900
Cu	Cu	0.45497 0.15618 0.14934 0.88600
C 	C 	0.04190 0.33100 0.33579 0.35300
C 	C 	0.89250 0.26880 0.31910 0.02200
H 	H 	0.90900 0.25880 0.34090 0.03300
C 	C 	0.80840 0.24620 0.29470 -0.09400
H 	H 	0.76830 0.22140 0.30040 0.05800
C 	C 	0.78410 0.26090 0.26174 0.03000
C 	C 	0.84750 0.29820 0.25344 -0.09400
H 	H 	0.83440 0.30800 0.23140 0.05800
C 	C 	0.93020 0.32090 0.27800 0.02900
H 	H 	0.97050 0.34580 0.27240 0.03200
C 	C 	0.95190 0.30630 0.31050 -0.11200
C 	C 	0.55760 0.17790 0.21743 0.07400
H 	H 	0.51660 0.15300 0.22270 -0.00800
C 	C 	0.63620 0.19900 0.24260 -0.13400
H 	H 	0.64950 0.18820 0.26430 0.07200
C 	C 	0.69610 0.23680 0.23561 0.06700
C 	C 	0.66960 0.25170 0.20250 -0.13300
H 	H 	0.70440 0.27710 0.19690 0.07200
C 	C 	0.59180 0.22850 0.17860 0.07500
H 	H 	0.57630 0.23850 0.15680 -0.01400
N 	N 	0.53690 0.19167 0.18549 -0.23800
O 	O 	0.07810 0.36582 0.32682 -0.43200
O 	O 	0.08040 0.31559 0.36431 -0.42900
Cu	Cu	0.95497 0.65618 0.14934 0.88500
C 	C 	0.54190 0.83100 0.33579 0.35200
C 	C 	0.39250 0.76880 0.31910 0.02100
H 	H 	0.40900 0.75880 0.34090 0.03300
C 	C 	0.30840 0.74620 0.29470 -0.09300
H 	H 	0.26830 0.72140 0.30040 0.05800
C 	C 	0.28410 0.76090 0.26174 0.02900
C 	C 	0.34750 0.79820 0.25344 -0.09300
H 	H 	0.33440 0.80800 0.23140 0.05800
C 	C 	0.43020 0.82090 0.27800 0.02800
H 	H 	0.47050 0.84580 0.27240 0.03300
C 	C 	0.45190 0.80630 0.31050 -0.11000
C 	C 	0.05760 0.67790 0.21743 0.07400
H 	H 	0.01660 0.65300 0.22270 -0.00700
C 	C 	0.13620 0.69900 0.24260 -0.13400
H 	H 	0.14950 0.68820 0.26430 0.07200
C 	C 	0.19610 0.73680 0.23561 0.06700
C 	C 	0.16960 0.75170 0.20250 -0.13300
H 	H 	0.20440 0.77710 0.19690 0.07200
C 	C 	0.09180 0.72850 0.17860 0.07500
H 	H 	0.07630 0.73850 0.15680 -0.01400
N 	N 	0.03690 0.69167 0.18549 -0.23700
O 	O 	0.57810 0.86582 0.32682 -0.43200
O 	O 	0.58040 0.81559 0.36431 -0.42900
Cu	Cu	0.95497 0.15618 0.64934 0.88500
C 	C 	0.54190 0.33100 0.83579 0.35200
C 	C 	0.39250 0.26880 0.81910 0.02100
H 	H 	0.40900 0.25880 0.84090 0.03300
C 	C 	0.30840 0.24620 0.79470 -0.09300
H 	H 	0.26830 0.22140 0.80040 0.05800
C 	C 	0.28410 0.26090 0.76174 0.02900
C 	C 	0.34750 0.29820 0.75344 -0.09300
H 	H 	0.33440 0.30800 0.73140 0.05800
C 	C 	0.43020 0.32090 0.77800 0.02800
H 	H 	0.47050 0.34580 0.77240 0.03300
C 	C 	0.45190 0.30630 0.81050 -0.11000
C 	C 	0.05760 0.17790 0.71743 0.07400
H 	H 	0.01660 0.15300 0.72270 -0.00700
C 	C 	0.13620 0.19900 0.74260 -0.13400
H 	H 	0.14950 0.18820 0.76430 0.07200
C 	C 	0.19610 0.23680 0.73561 0.06700
C 	C 	0.16960 0.25170 0.70250 -0.13300
H 	H 	0.20440 0.27710 0.69690 0.07200
C 	C 	0.09180 0.22850 0.67860 0.07500
H 	H 	0.07630 0.23850 0.65680 -0.01400
N 	N 	0.03690 0.19167 0.68549 -0.23700
O 	O 	0.57810 0.36582 0.82682 -0.43200
O 	O 	0.58040 0.31559 0.86431 -0.42900
Cu	Cu	0.45497 0.59382 0.60066 0.88600
C 	C 	0.04190 0.41900 0.41421 0.35300
C 	C 	0.89250 0.48120 0.43090 0.02200
H 	H 	0.90900 0.49120 0.40910 0.03300
C 	C 	0.80840 0.50380 0.45530 -0.09400
H 	H 	0.76830 0.52860 0.44960 0.05800
C 	C 	0.78410 0.48910 0.48826 0.03000
C 	C 	0.84750 0.45180 0.49656 -0.09400
H 	H 	0.83440 0.44200 0.51860 0.05800
C 	C 	0.93020 0.42910 0.47200 0.02900
H 	H 	0.97050 0.40420 0.47760 0.03200
C 	C 	0.95190 0.44370 0.43950 -0.11200
C 	C 	0.55760 0.57210 0.53257 0.07400
H 	H 	0.51660 0.59700 0.52730 -0.00800
C 	C 	0.63620 0.55100 0.50740 -0.13400
H 	H 	0.64950 0.56180 0.48570 0.07200
C 	C 	0.69610 0.51320 0.51439 0.06700
C 	C 	0.66960 0.49830 0.54750 -0.13300
H 	H 	0.70440 0.47290 0.55310 0.07200
C 	C 	0.59180 0.52150 0.57140 0.07500
H 	H 	0.57630 0.51150 0.59320 -0.01400
N 	N 	0.53690 0.55833 0.56451 -0.23800
O 	O 	0.07810 0.38418 0.42318 -0.43200
O 	O 	0.08040 0.43441 0.38569 -0.42900
Cu	Cu	0.45497 0.09382 0.10066 0.88600
C 	C 	0.04190 0.91900 0.91421 0.35300
C 	C 	0.89250 0.98120 0.93090 0.02300
H 	H 	0.90900 0.99120 0.90910 0.03300
C 	C 	0.80840 0.00380 0.95530 -0.09400
H 	H 	0.76830 0.02860 0.94960 0.05800
C 	C 	0.78410 0.98910 0.98826 0.03000
C 	C 	0.84750 0.95180 0.99656 -0.09400
H 	H 	0.83440 0.94200 0.01860 0.05800
C 	C 	0.93020 0.92910 0.97200 0.02900
H 	H 	0.97050 0.90420 0.97760 0.03200
C 	C 	0.95190 0.94370 0.93950 -0.11200
C 	C 	0.55760 0.07210 0.03257 0.07400
H 	H 	0.51660 0.09700 0.02730 -0.00800
C 	C 	0.63620 0.05100 0.00740 -0.13400
H 	H 	0.64950 0.06180 0.98570 0.07200
C 	C 	0.69610 0.01320 0.01439 0.06600
C 	C 	0.66960 0.99830 0.04750 -0.13300
H 	H 	0.70440 0.97290 0.05310 0.07200
C 	C 	0.59180 0.02150 0.07140 0.07500
H 	H 	0.57630 0.01150 0.09320 -0.01400
N 	N 	0.53690 0.05833 0.06451 -0.23800
O 	O 	0.07810 0.88418 0.92318 -0.43200
O 	O 	0.08040 0.93441 0.88569 -0.42900
Cu	Cu	0.95497 0.59382 0.10066 0.88500
C 	C 	0.54190 0.41900 0.91421 0.35200
C 	C 	0.39250 0.48120 0.93090 0.02100
H 	H 	0.40900 0.49120 0.90910 0.03300
C 	C 	0.30840 0.50380 0.95530 -0.09300
H 	H 	0.26830 0.52860 0.94960 0.05800
C 	C 	0.28410 0.48910 0.98826 0.02900
C 	C 	0.34750 0.45180 0.99656 -0.09300
H 	H 	0.33440 0.44200 0.01860 0.05800
C 	C 	0.43020 0.42910 0.97200 0.02800
H 	H 	0.47050 0.40420 0.97760 0.03300
C 	C 	0.45190 0.44370 0.93950 -0.11000
C 	C 	0.05760 0.57210 0.03257 0.07400
H 	H 	0.01660 0.59700 0.02730 -0.00700
C 	C 	0.13620 0.55100 0.00740 -0.13400
H 	H 	0.14950 0.56180 0.98570 0.07200
C 	C 	0.19610 0.51320 0.01439 0.06700
C 	C 	0.16960 0.49830 0.04750 -0.13300
H 	H 	0.20440 0.47290 0.05310 0.07200
C 	C 	0.09180 0.52150 0.07140 0.07500
H 	H 	0.07630 0.51150 0.09320 -0.01400
N 	N 	0.03690 0.55833 0.06451 -0.23700
O 	O 	0.57810 0.38418 0.92318 -0.43200
O 	O 	0.58040 0.43441 0.88569 -0.42900
Cu	Cu	0.95497 0.09382 0.60066 0.88500
C 	C 	0.54190 0.91900 0.41421 0.35200
C 	C 	0.39250 0.98120 0.43090 0.02100
H 	H 	0.40900 0.99120 0.40910 0.03300
C 	C 	0.30840 0.00380 0.45530 -0.09300
H 	H 	0.26830 0.02860 0.44960 0.05800
C 	C 	0.28410 0.98910 0.48826 0.02900
C 	C 	0.34750 0.95180 0.49656 -0.09300
H 	H 	0.33440 0.94200 0.51860 0.05800
C 	C 	0.43020 0.92910 0.47200 0.02800
H 	H 	0.47050 0.90420 0.47760 0.03300
C 	C 	0.45190 0.94370 0.43950 -0.11000
C 	C 	0.05760 0.07210 0.53257 0.07400
H 	H 	0.01660 0.09700 0.52730 -0.00700
C 	C 	0.13620 0.05100 0.50740 -0.13400
H 	H 	0.14950 0.06180 0.48570 0.07200
C 	C 	0.19610 0.01320 0.51439 0.06700
C 	C 	0.16960 0.99830 0.54750 -0.13400
H 	H 	0.20440 0.97290 0.55310 0.07300
C 	C 	0.09180 0.02150 0.57140 0.07500
H 	H 	0.07630 0.01150 0.59320 -0.01400
N 	N 	0.03690 0.05833 0.56451 -0.23700
O 	O 	0.57810 0.88418 0.42318 -0.43200
O 	O 	0.58040 0.93441 0.38569 -0.42900
Cu	Cu	0.79503 0.65618 0.60066 0.88600
C 	C 	0.20810 0.83100 0.41421 0.35200
C 	C 	0.35750 0.76880 0.43090 0.02100
H 	H 	0.34100 0.75880 0.40910 0.03300
C 	C 	0.44160 0.74620 0.45530 -0.09300
H 	H 	0.48170 0.72140 0.44960 0.05800
C 	C 	0.46590 0.76090 0.48826 0.02900
C 	C 	0.40250 0.79820 0.49656 -0.09300
H 	H 	0.41560 0.80800 0.51860 0.05800
C 	C 	0.31980 0.82090 0.47200 0.02800
H 	H 	0.27950 0.84580 0.47760 0.03300
C 	C 	0.29810 0.80630 0.43950 -0.11100
C 	C 	0.69240 0.67790 0.53257 0.07400
H 	H 	0.73340 0.65300 0.52730 -0.00800
C 	C 	0.61380 0.69900 0.50740 -0.13400
H 	H 	0.60050 0.68820 0.48570 0.07200
C 	C 	0.55390 0.73680 0.51439 0.06700
C 	C 	0.58040 0.75170 0.54750 -0.13300
H 	H 	0.54560 0.77710 0.55310 0.07200
C 	C 	0.65820 0.72850 0.57140 0.07500
H 	H 	0.67370 0.73850 0.59320 -0.01400
N 	N 	0.71310 0.69167 0.56451 -0.23800
O 	O 	0.17190 0.86582 0.42318 -0.43300
O 	O 	0.16960 0.81559 0.38569 -0.42900
Cu	Cu	0.79503 0.15618 0.10066 0.88600
C 	C 	0.20810 0.33100 0.91421 0.35200
C 	C 	0.35750 0.26880 0.93090 0.02100
H 	H 	0.34100 0.25880 0.90910 0.03300
C 	C 	0.44160 0.24620 0.95530 -0.09300
H 	H 	0.48170 0.22140 0.94960 0.05800
C 	C 	0.46590 0.26090 0.98826 0.02900
C 	C 	0.40250 0.29820 0.99656 -0.09300
H 	H 	0.41560 0.30800 0.01860 0.05800
C 	C 	0.31980 0.32090 0.97200 0.02800
H 	H 	0.27950 0.34580 0.97760 0.03300
C 	C 	0.29810 0.30630 0.93950 -0.11100
C 	C 	0.69240 0.17790 0.03257 0.07400
H 	H 	0.73340 0.15300 0.02730 -0.00800
C 	C 	0.61380 0.19900 0.00740 -0.13400
H 	H 	0.60050 0.18820 0.98570 0.07200
C 	C 	0.55390 0.23680 0.01439 0.06700
C 	C 	0.58040 0.25170 0.04750 -0.13300
H 	H 	0.54560 0.27710 0.05310 0.07200
C 	C 	0.65820 0.22850 0.07140 0.07500
H 	H 	0.67370 0.23850 0.09320 -0.01400
N 	N 	0.71310 0.19167 0.06451 -0.23800
O 	O 	0.17190 0.36582 0.92318 -0.43300
O 	O 	0.16960 0.31559 0.88569 -0.42900
Cu	Cu	0.29503 0.65618 0.10066 0.88600
C 	C 	0.70810 0.83100 0.91421 0.35100
C 	C 	0.85750 0.76880 0.93090 0.01900
H 	H 	0.84100 0.75880 0.90910 0.03400
C 	C 	0.94160 0.74620 0.95530 -0.09100
H 	H 	0.98170 0.72140 0.94960 0.05600
C 	C 	0.96590 0.76090 0.98826 0.02500
C 	C 	0.90250 0.79820 0.99656 -0.09000
H 	H 	0.91560 0.80800 0.01860 0.05600
C 	C 	0.81980 0.82090 0.97200 0.02600
H 	H 	0.77950 0.84580 0.97760 0.03400
C 	C 	0.79810 0.80630 0.93950 -0.10900
C 	C 	0.19240 0.67790 0.03257 0.07600
H 	H 	0.23340 0.65300 0.02730 -0.00800
C 	C 	0.11380 0.69900 0.00740 -0.13600
H 	H 	0.10050 0.68820 0.98570 0.07400
C 	C 	0.05390 0.73680 0.01439 0.07100
C 	C 	0.08040 0.75170 0.04750 -0.13600
H 	H 	0.04560 0.77710 0.05310 0.07400
C 	C 	0.15820 0.72850 0.07140 0.07700
H 	H 	0.17370 0.73850 0.09320 -0.01500
N 	N 	0.21310 0.69167 0.06451 -0.23800
O 	O 	0.67190 0.86582 0.92318 -0.43200
O 	O 	0.66960 0.81559 0.88569 -0.42900
Cu	Cu	0.29503 0.15618 0.60066 0.88600
C 	C 	0.70810 0.33100 0.41421 0.35100
C 	C 	0.85750 0.26880 0.43090 0.01900
H 	H 	0.84100 0.25880 0.40910 0.03400
C 	C 	0.94160 0.24620 0.45530 -0.09100
H 	H 	0.98170 0.22140 0.44960 0.05600
C 	C 	0.96590 0.26090 0.48826 0.02500
C 	C 	0.90250 0.29820 0.49656 -0.09000
H 	H 	0.91560 0.30800 0.51860 0.05600
C 	C 	0.81980 0.32090 0.47200 0.02600
H 	H 	0.77950 0.34580 0.47760 0.03400
C 	C 	0.79810 0.30630 0.43950 -0.10900
C 	C 	0.19240 0.17790 0.53257 0.07600
H 	H 	0.23340 0.15300 0.52730 -0.00800
C 	C 	0.11380 0.19900 0.50740 -0.13600
H 	H 	0.10050 0.18820 0.48570 0.07400
C 	C 	0.05390 0.23680 0.51439 0.07100
C 	C 	0.08040 0.25170 0.54750 -0.13600
H 	H 	0.04560 0.27710 0.55310 0.07400
C 	C 	0.15820 0.22850 0.57140 0.07700
H 	H 	0.17370 0.23850 0.59320 -0.01500
N 	N 	0.21310 0.19167 0.56451 -0.23800
O 	O 	0.67190 0.36582 0.42318 -0.43200
O 	O 	0.66960 0.31559 0.38569 -0.42900
O 	O 	0.37500 0.37500 0.37500 -0.69300
O 	O 	0.37500 0.87500 0.87500 -0.69300
O 	O 	0.87500 0.37500 0.87500 -0.69200
O 	O 	0.87500 0.87500 0.37500 -0.69200
O 	O 	0.62500 0.62500 0.62500 -0.69300
O 	O 	0.62500 0.12500 0.12500 -0.69300
O 	O 	0.12500 0.62500 0.12500 -0.69200
O 	O 	0.12500 0.12500 0.62500 -0.69200
