data_crystal

_cell_length_a 8.89460
_cell_length_b 9.81250
_cell_length_c 12.25070
_cell_angle_alpha 81.74200
_cell_angle_beta  71.83100
_cell_angle_gamma 72.82700

_symmetry_space_group_name_	'P 1'
_symmetry_space_group_name_H-M	'P 1'

loop_
_symmetry_equiv_pos_as_xyz
  x,y,z

loop_
_atom_site_label
_atom_site_type_symbol
_atom_site_fract_x
_atom_site_fract_y
_atom_site_fract_z
_atom_site_charge
Mn	Mn	0.93886 0.34054 0.71726 1.31500
Mn	Mn	0.40124 0.95431 0.92639 1.27000
P 	P 	0.68817 0.11332 0.77624 0.54800
P 	P 	0.71856 0.66904 0.81466 0.59000
O 	O 	0.82230 0.17310 0.78630 -0.41600
O 	O 	0.74620 0.00890 0.68170 -0.23300
O 	O 	0.60840 0.04520 0.89290 -0.55000
O 	O 	0.55100 0.24020 0.74030 -0.42100
H 	H 	0.51180 0.29920 0.78970 0.26400
O 	O 	0.74040 0.51390 0.79720 -0.37500
O 	O 	0.54860 0.74250 0.88650 -0.43200
O 	O 	0.76150 0.74640 0.69340 -0.44400
H 	H 	0.74030 0.83250 0.70020 0.30800
O 	O 	0.85020 0.67520 0.87390 -0.43800
H 	H 	0.80570 0.72730 0.92800 0.28700
O 	O 	0.88800 0.37330 0.55220 -0.32200
O 	O 	0.91780 0.50700 0.38660 -0.29900
O 	O 	0.35140 0.01290 0.75960 -0.33800
O 	O 	0.17890 0.16650 0.67270 -0.30100
O 	O 	0.23170 0.17830 0.94130 -0.38700
O 	O 	0.05860 0.33000 0.85340 -0.33200
C 	C 	0.94350 0.46560 0.48250 0.23900
C 	C 	0.24050 0.12390 0.75420 0.22500
C 	C 	0.16960 0.22040 0.86070 0.24200
Mn	Mn	0.06114 0.65946 0.28274 1.31500
Mn	Mn	0.59876 0.04569 0.07361 1.27000
P 	P 	0.31183 0.88668 0.22376 0.54800
P 	P 	0.28144 0.33096 0.18534 0.59000
O 	O 	0.17770 0.82690 0.21370 -0.41600
O 	O 	0.25380 0.99110 0.31830 -0.23300
O 	O 	0.39160 0.95480 0.10710 -0.55000
O 	O 	0.44900 0.75980 0.25970 -0.42100
H 	H 	0.48820 0.70080 0.21030 0.26400
O 	O 	0.25960 0.48610 0.20280 -0.37500
O 	O 	0.45140 0.25750 0.11350 -0.43200
O 	O 	0.23850 0.25360 0.30660 -0.44400
H 	H 	0.25970 0.16750 0.29980 0.30800
O 	O 	0.14980 0.32480 0.12610 -0.43800
H 	H 	0.19430 0.27270 0.07200 0.28700
O 	O 	0.11200 0.62670 0.44780 -0.32200
O 	O 	0.08220 0.49300 0.61340 -0.29900
O 	O 	0.64860 0.98710 0.24040 -0.33800
O 	O 	0.82110 0.83350 0.32730 -0.30100
O 	O 	0.76830 0.82170 0.05870 -0.38700
O 	O 	0.94140 0.67000 0.14660 -0.33200
C 	C 	0.05650 0.53440 0.51750 0.23900
C 	C 	0.75950 0.87610 0.24580 0.22500
C 	C 	0.83040 0.77960 0.13930 0.24200
