data_crystal

_cell_length_a 19.55200
_cell_length_b 21.89800
_cell_length_c 25.29700
_cell_angle_alpha 90.00000
_cell_angle_beta  90.00000
_cell_angle_gamma 90.00000

_symmetry_space_group_name_	'P 1'
_symmetry_space_group_name_H-M	'P 1'

loop_
_symmetry_equiv_pos_as_xyz
  x,y,z

loop_
_atom_site_label
_atom_site_type_symbol
_atom_site_fract_x
_atom_site_fract_y
_atom_site_fract_z
_atom_site_charge
U 	U 	0.79746 0.18151 0.33131 0.00900
P 	P 	0.51640 0.99340 0.55129 0.19200
C 	C 	0.59470 0.00170 0.45940 -0.05700
H 	H 	0.57590 0.96410 0.45010 0.07600
O 	O 	0.73100 0.09290 0.36110 -0.16200
C 	C 	0.58430 0.87140 0.66040 0.04400
H 	H 	0.57310 0.83120 0.66870 0.04600
C 	C 	0.56730 0.95940 0.60510 0.01800
O 	O 	0.73710 0.16700 0.41560 -0.17200
C 	C 	0.55470 0.89880 0.61900 -0.08900
H 	H 	0.52430 0.87630 0.59860 0.08500
C 	C 	0.61380 0.98980 0.63230 -0.07600
H 	H 	0.62280 0.03030 0.62370 0.07400
C 	C 	0.65010 0.96210 0.67380 0.01100
H 	H 	0.68600 0.98160 0.69110 0.06500
C 	C 	0.70770 0.11530 0.40760 0.24600
C 	C 	0.63650 0.02960 0.42690 0.00800
H 	H 	0.64720 0.01220 0.39440 0.05600
C 	C 	0.61300 0.08680 0.52210 -0.06300
H 	H 	0.60530 0.10560 0.55450 0.07000
O 	O 	0.47400 0.94650 0.52220 -0.19200
C 	C 	0.57730 0.02910 0.51030 -0.00700
C 	C 	0.66490 0.08610 0.44180 -0.07100
C 	C 	0.65440 0.11200 0.48920 0.01200
H 	H 	0.67680 0.14800 0.49820 0.06300
C 	C 	0.46770 0.05080 0.58010 -0.01600
C 	C 	0.62740 0.89990 0.68830 -0.08800
O 	O 	0.30500 0.22920 0.61030 -0.16800
O 	O 	0.36120 0.22390 0.68420 -0.17000
C 	C 	0.38620 0.14900 0.61760 -0.04700
C 	C 	0.35140 0.20120 0.63810 0.25200
C 	C 	0.37500 0.12740 0.57290 -0.01000
H 	H 	0.34310 0.14470 0.55000 0.06300
C 	C 	0.41520 0.07280 0.55840 -0.04200
H 	H 	0.39950 0.05150 0.52890 0.06800
C 	C 	0.48050 0.07770 0.63280 -0.04700
H 	H 	0.51180 0.06020 0.65590 0.06000
C 	C 	0.44470 0.12980 0.64670 -0.01300
H 	H 	0.45910 0.15270 0.67550 0.06700
O 	O 	0.70130 0.90010 0.76560 -0.19900
O 	O 	0.64920 0.82120 0.74500 -0.20300
C 	C 	0.66210 0.87340 0.73420 0.31400
U 	U 	0.70254 0.81849 0.83131 0.00800
P 	P 	0.98360 0.00660 0.05129 0.19200
C 	C 	0.90530 0.99830 0.95940 -0.05800
H 	H 	0.92410 0.03590 0.95010 0.07500
O 	O 	0.76900 0.90710 0.86110 -0.16300
C 	C 	0.91570 0.12860 0.16040 0.04300
H 	H 	0.92690 0.16880 0.16870 0.04500
C 	C 	0.93270 0.04060 0.10510 0.01700
O 	O 	0.76290 0.83300 0.91560 -0.17200
C 	C 	0.94530 0.10120 0.11900 -0.08900
H 	H 	0.97570 0.12370 0.09860 0.08500
C 	C 	0.88620 0.01020 0.13230 -0.07600
H 	H 	0.87720 0.96970 0.12370 0.07400
C 	C 	0.84990 0.03790 0.17380 0.01100
H 	H 	0.81400 0.01840 0.19110 0.06500
C 	C 	0.79230 0.88470 0.90760 0.24600
C 	C 	0.86350 0.97040 0.92690 0.00900
H 	H 	0.85280 0.98780 0.89440 0.05600
C 	C 	0.88700 0.91320 0.02210 -0.06300
H 	H 	0.89470 0.89440 0.05450 0.07000
O 	O 	0.02600 0.05350 0.02220 -0.19200
C 	C 	0.92270 0.97090 0.01030 -0.00700
C 	C 	0.83510 0.91390 0.94180 -0.07100
C 	C 	0.84560 0.88800 0.98920 0.01200
H 	H 	0.82320 0.85200 0.99820 0.06300
C 	C 	0.03230 0.94920 0.08010 -0.01600
C 	C 	0.87260 0.10010 0.18830 -0.08800
O 	O 	0.19500 0.77080 0.11030 -0.16800
O 	O 	0.13880 0.77610 0.18420 -0.17000
C 	C 	0.11380 0.85100 0.11760 -0.04700
C 	C 	0.14860 0.79880 0.13810 0.25200
C 	C 	0.12500 0.87260 0.07290 -0.01000
H 	H 	0.15690 0.85530 0.05000 0.06300
C 	C 	0.08480 0.92720 0.05840 -0.04200
H 	H 	0.10050 0.94850 0.02890 0.06800
C 	C 	0.01950 0.92230 0.13280 -0.04800
H 	H 	0.98820 0.93980 0.15590 0.06100
C 	C 	0.05530 0.87020 0.14670 -0.01200
H 	H 	0.04090 0.84730 0.17550 0.06600
O 	O 	0.79870 0.09990 0.26560 -0.19900
O 	O 	0.85080 0.17880 0.24500 -0.20300
C 	C 	0.83790 0.12660 0.23420 0.31400
U 	U 	0.20254 0.68151 0.16869 0.00800
P 	P 	0.48360 0.49340 0.94871 0.19100
C 	C 	0.40530 0.50170 0.04060 -0.05800
H 	H 	0.42410 0.46410 0.04990 0.07500
O 	O 	0.26900 0.59290 0.13890 -0.16300
C 	C 	0.41570 0.37140 0.83960 0.04300
H 	H 	0.42690 0.33120 0.83130 0.04500
C 	C 	0.43270 0.45940 0.89490 0.01700
O 	O 	0.26290 0.66700 0.08440 -0.17200
C 	C 	0.44530 0.39880 0.88100 -0.08900
H 	H 	0.47570 0.37630 0.90140 0.08500
C 	C 	0.38620 0.48980 0.86770 -0.07600
H 	H 	0.37720 0.53030 0.87630 0.07400
C 	C 	0.34990 0.46210 0.82620 0.01100
H 	H 	0.31400 0.48160 0.80890 0.06500
C 	C 	0.29230 0.61530 0.09240 0.24600
C 	C 	0.36350 0.52960 0.07310 0.00900
H 	H 	0.35280 0.51220 0.10560 0.05500
C 	C 	0.38700 0.58680 0.97790 -0.06300
H 	H 	0.39470 0.60560 0.94550 0.07000
O 	O 	0.52600 0.44650 0.97780 -0.19200
C 	C 	0.42270 0.52910 0.98970 -0.00700
C 	C 	0.33510 0.58610 0.05820 -0.07100
C 	C 	0.34560 0.61200 0.01080 0.01200
H 	H 	0.32320 0.64800 0.00180 0.06300
C 	C 	0.53230 0.55080 0.91990 -0.01600
C 	C 	0.37260 0.39990 0.81170 -0.08900
O 	O 	0.69500 0.72920 0.88970 -0.16800
O 	O 	0.63880 0.72390 0.81580 -0.17000
C 	C 	0.61380 0.64900 0.88240 -0.04700
C 	C 	0.64860 0.70120 0.86190 0.25200
C 	C 	0.62500 0.62740 0.92710 -0.01000
H 	H 	0.65690 0.64470 0.95000 0.06300
C 	C 	0.58480 0.57280 0.94160 -0.04200
H 	H 	0.60050 0.55150 0.97110 0.06800
C 	C 	0.51950 0.57770 0.86720 -0.04700
H 	H 	0.48820 0.56020 0.84410 0.06000
C 	C 	0.55530 0.62980 0.85330 -0.01300
H 	H 	0.54090 0.65270 0.82450 0.06700
O 	O 	0.29870 0.40010 0.73440 -0.19900
O 	O 	0.35080 0.32120 0.75500 -0.20300
C 	C 	0.33790 0.37340 0.76580 0.31400
U 	U 	0.29746 0.31849 0.66869 0.00800
P 	P 	0.01640 0.50660 0.44871 0.19100
C 	C 	0.09470 0.49830 0.54060 -0.05800
H 	H 	0.07590 0.53590 0.54990 0.07500
O 	O 	0.23100 0.40710 0.63890 -0.16300
C 	C 	0.08430 0.62860 0.33960 0.04300
H 	H 	0.07310 0.66880 0.33130 0.04500
C 	C 	0.06730 0.54060 0.39490 0.01700
O 	O 	0.23710 0.33300 0.58440 -0.17200
C 	C 	0.05470 0.60120 0.38100 -0.08900
H 	H 	0.02430 0.62370 0.40140 0.08500
C 	C 	0.11380 0.51020 0.36770 -0.07600
H 	H 	0.12280 0.46970 0.37630 0.07400
C 	C 	0.15010 0.53790 0.32620 0.01100
H 	H 	0.18600 0.51840 0.30890 0.06500
C 	C 	0.20770 0.38470 0.59240 0.24600
C 	C 	0.13650 0.47040 0.57310 0.00900
H 	H 	0.14720 0.48780 0.60560 0.05500
C 	C 	0.11300 0.41320 0.47790 -0.06300
H 	H 	0.10530 0.39440 0.44550 0.07000
O 	O 	0.97400 0.55350 0.47780 -0.19200
C 	C 	0.07730 0.47090 0.48970 -0.00700
C 	C 	0.16490 0.41390 0.55820 -0.07100
C 	C 	0.15440 0.38800 0.51080 0.01200
H 	H 	0.17680 0.35200 0.50180 0.06300
C 	C 	0.96770 0.44920 0.41990 -0.01600
C 	C 	0.12740 0.60010 0.31170 -0.08900
O 	O 	0.80500 0.27080 0.38970 -0.16800
O 	O 	0.86120 0.27610 0.31580 -0.17000
C 	C 	0.88620 0.35100 0.38240 -0.04700
C 	C 	0.85140 0.29880 0.36190 0.25200
C 	C 	0.87500 0.37260 0.42710 -0.01000
H 	H 	0.84310 0.35530 0.45000 0.06300
C 	C 	0.91520 0.42720 0.44160 -0.04200
H 	H 	0.89950 0.44850 0.47110 0.06800
C 	C 	0.98050 0.42230 0.36720 -0.04700
H 	H 	0.01180 0.43980 0.34410 0.06000
C 	C 	0.94470 0.37020 0.35330 -0.01300
H 	H 	0.95910 0.34730 0.32450 0.06700
O 	O 	0.20130 0.59990 0.23440 -0.19900
O 	O 	0.14920 0.67880 0.25500 -0.20300
C 	C 	0.16210 0.62660 0.26580 0.31400
U 	U 	0.29746 0.68151 0.83131 0.00800
P 	P 	0.01640 0.49340 0.05129 0.19100
C 	C 	0.09470 0.50170 0.95940 -0.05800
H 	H 	0.07590 0.46410 0.95010 0.07500
O 	O 	0.23100 0.59290 0.86110 -0.16300
C 	C 	0.08430 0.37140 0.16040 0.04300
H 	H 	0.07310 0.33120 0.16870 0.04500
C 	C 	0.06730 0.45940 0.10510 0.01700
O 	O 	0.23710 0.66700 0.91560 -0.17200
C 	C 	0.05470 0.39880 0.11900 -0.08900
H 	H 	0.02430 0.37630 0.09860 0.08500
C 	C 	0.11380 0.48980 0.13230 -0.07600
H 	H 	0.12280 0.53030 0.12370 0.07400
C 	C 	0.15010 0.46210 0.17380 0.01100
H 	H 	0.18600 0.48160 0.19110 0.06500
C 	C 	0.20770 0.61530 0.90760 0.24600
C 	C 	0.13650 0.52960 0.92690 0.00900
H 	H 	0.14720 0.51220 0.89440 0.05500
C 	C 	0.11300 0.58680 0.02210 -0.06300
H 	H 	0.10530 0.60560 0.05450 0.07000
O 	O 	0.97400 0.44650 0.02220 -0.19200
C 	C 	0.07730 0.52910 0.01030 -0.00700
C 	C 	0.16490 0.58610 0.94180 -0.07100
C 	C 	0.15440 0.61200 0.98920 0.01200
H 	H 	0.17680 0.64800 0.99820 0.06300
C 	C 	0.96770 0.55080 0.08010 -0.01600
C 	C 	0.12740 0.39990 0.18830 -0.08900
O 	O 	0.80500 0.72920 0.11030 -0.16800
O 	O 	0.86120 0.72390 0.18420 -0.17000
C 	C 	0.88620 0.64900 0.11760 -0.04700
C 	C 	0.85140 0.70120 0.13810 0.25200
C 	C 	0.87500 0.62740 0.07290 -0.01000
H 	H 	0.84310 0.64470 0.05000 0.06300
C 	C 	0.91520 0.57280 0.05840 -0.04200
H 	H 	0.89950 0.55150 0.02890 0.06800
C 	C 	0.98050 0.57770 0.13280 -0.04700
H 	H 	0.01180 0.56020 0.15590 0.06000
C 	C 	0.94470 0.62980 0.14670 -0.01300
H 	H 	0.95910 0.65270 0.17550 0.06700
O 	O 	0.20130 0.40010 0.26560 -0.19900
O 	O 	0.14920 0.32120 0.24500 -0.20300
C 	C 	0.16210 0.37340 0.23420 0.31400
U 	U 	0.20254 0.31849 0.33131 0.00800
P 	P 	0.48360 0.50660 0.55129 0.19100
C 	C 	0.40530 0.49830 0.45940 -0.05800
H 	H 	0.42410 0.53590 0.45010 0.07500
O 	O 	0.26900 0.40710 0.36110 -0.16300
C 	C 	0.41570 0.62860 0.66040 0.04300
H 	H 	0.42690 0.66880 0.66870 0.04500
C 	C 	0.43270 0.54060 0.60510 0.01700
O 	O 	0.26290 0.33300 0.41560 -0.17200
C 	C 	0.44530 0.60120 0.61900 -0.08900
H 	H 	0.47570 0.62370 0.59860 0.08500
C 	C 	0.38620 0.51020 0.63230 -0.07600
H 	H 	0.37720 0.46970 0.62370 0.07400
C 	C 	0.34990 0.53790 0.67380 0.01100
H 	H 	0.31400 0.51840 0.69110 0.06500
C 	C 	0.29230 0.38470 0.40760 0.24600
C 	C 	0.36350 0.47040 0.42690 0.00900
H 	H 	0.35280 0.48780 0.39440 0.05500
C 	C 	0.38700 0.41320 0.52210 -0.06300
H 	H 	0.39470 0.39440 0.55450 0.07000
O 	O 	0.52600 0.55350 0.52220 -0.19200
C 	C 	0.42270 0.47090 0.51030 -0.00700
C 	C 	0.33510 0.41390 0.44180 -0.07100
C 	C 	0.34560 0.38800 0.48920 0.01200
H 	H 	0.32320 0.35200 0.49820 0.06300
C 	C 	0.53230 0.44920 0.58010 -0.01600
C 	C 	0.37260 0.60010 0.68830 -0.08900
O 	O 	0.69500 0.27080 0.61030 -0.16800
O 	O 	0.63880 0.27610 0.68420 -0.17000
C 	C 	0.61380 0.35100 0.61760 -0.04700
C 	C 	0.64860 0.29880 0.63810 0.25200
C 	C 	0.62500 0.37260 0.57290 -0.01000
H 	H 	0.65690 0.35530 0.55000 0.06300
C 	C 	0.58480 0.42720 0.55840 -0.04200
H 	H 	0.60050 0.44850 0.52890 0.06800
C 	C 	0.51950 0.42230 0.63280 -0.04700
H 	H 	0.48820 0.43980 0.65590 0.06000
C 	C 	0.55530 0.37020 0.64670 -0.01300
H 	H 	0.54090 0.34730 0.67550 0.06700
O 	O 	0.29870 0.59990 0.76560 -0.19900
O 	O 	0.35080 0.67880 0.74500 -0.20300
C 	C 	0.33790 0.62660 0.73420 0.31400
U 	U 	0.70254 0.18151 0.66869 0.00800
P 	P 	0.98360 0.99340 0.44871 0.19200
C 	C 	0.90530 0.00170 0.54060 -0.05800
H 	H 	0.92410 0.96410 0.54990 0.07500
O 	O 	0.76900 0.09290 0.63890 -0.16300
C 	C 	0.91570 0.87140 0.33960 0.04300
H 	H 	0.92690 0.83120 0.33130 0.04500
C 	C 	0.93270 0.95940 0.39490 0.01700
O 	O 	0.76290 0.16700 0.58440 -0.17200
C 	C 	0.94530 0.89880 0.38100 -0.08900
H 	H 	0.97570 0.87630 0.40140 0.08500
C 	C 	0.88620 0.98980 0.36770 -0.07600
H 	H 	0.87720 0.03030 0.37630 0.07400
C 	C 	0.84990 0.96210 0.32620 0.01100
H 	H 	0.81400 0.98160 0.30890 0.06500
C 	C 	0.79230 0.11530 0.59240 0.24600
C 	C 	0.86350 0.02960 0.57310 0.00800
H 	H 	0.85280 0.01220 0.60560 0.05600
C 	C 	0.88700 0.08680 0.47790 -0.06300
H 	H 	0.89470 0.10560 0.44550 0.07000
O 	O 	0.02600 0.94650 0.47780 -0.19200
C 	C 	0.92270 0.02910 0.48970 -0.00700
C 	C 	0.83510 0.08610 0.55820 -0.07100
C 	C 	0.84560 0.11200 0.51080 0.01200
H 	H 	0.82320 0.14800 0.50180 0.06300
C 	C 	0.03230 0.05080 0.41990 -0.01600
C 	C 	0.87260 0.89990 0.31170 -0.08800
O 	O 	0.19500 0.22920 0.38970 -0.16800
O 	O 	0.13880 0.22390 0.31580 -0.17000
C 	C 	0.11380 0.14900 0.38240 -0.04700
C 	C 	0.14860 0.20120 0.36190 0.25200
C 	C 	0.12500 0.12740 0.42710 -0.01000
H 	H 	0.15690 0.14470 0.45000 0.06300
C 	C 	0.08480 0.07280 0.44160 -0.04200
H 	H 	0.10050 0.05150 0.47110 0.06800
C 	C 	0.01950 0.07770 0.36720 -0.04800
H 	H 	0.98820 0.06020 0.34410 0.06100
C 	C 	0.05530 0.12980 0.35330 -0.01200
H 	H 	0.04090 0.15270 0.32450 0.06600
O 	O 	0.79870 0.90010 0.23440 -0.19900
O 	O 	0.85080 0.82120 0.25500 -0.20300
C 	C 	0.83790 0.87340 0.26580 0.31400
U 	U 	0.79746 0.81849 0.16869 0.00800
P 	P 	0.51640 0.00660 0.94871 0.19100
C 	C 	0.59470 0.99830 0.04060 -0.05800
H 	H 	0.57590 0.03590 0.04990 0.07500
O 	O 	0.73100 0.90710 0.13890 -0.16300
C 	C 	0.58430 0.12860 0.83960 0.04300
H 	H 	0.57310 0.16880 0.83130 0.04500
C 	C 	0.56730 0.04060 0.89490 0.01700
O 	O 	0.73710 0.83300 0.08440 -0.17200
C 	C 	0.55470 0.10120 0.88100 -0.08900
H 	H 	0.52430 0.12370 0.90140 0.08500
C 	C 	0.61380 0.01020 0.86770 -0.07600
H 	H 	0.62280 0.96970 0.87630 0.07400
C 	C 	0.65010 0.03790 0.82620 0.01100
H 	H 	0.68600 0.01840 0.80890 0.06500
C 	C 	0.70770 0.88470 0.09240 0.24600
C 	C 	0.63650 0.97040 0.07310 0.00900
H 	H 	0.64720 0.98780 0.10560 0.05600
C 	C 	0.61300 0.91320 0.97790 -0.06300
H 	H 	0.60530 0.89440 0.94550 0.07000
O 	O 	0.47400 0.05350 0.97780 -0.19200
C 	C 	0.57730 0.97090 0.98970 -0.00700
C 	C 	0.66490 0.91390 0.05820 -0.07100
C 	C 	0.65440 0.88800 0.01080 0.01200
H 	H 	0.67680 0.85200 0.00180 0.06300
C 	C 	0.46770 0.94920 0.91990 -0.01600
C 	C 	0.62740 0.10010 0.81170 -0.08800
O 	O 	0.30500 0.77080 0.88970 -0.16800
O 	O 	0.36120 0.77610 0.81580 -0.17000
C 	C 	0.38620 0.85100 0.88240 -0.04700
C 	C 	0.35140 0.79880 0.86190 0.25200
C 	C 	0.37500 0.87260 0.92710 -0.01000
H 	H 	0.34310 0.85530 0.95000 0.06300
C 	C 	0.41520 0.92720 0.94160 -0.04200
H 	H 	0.39950 0.94850 0.97110 0.06800
C 	C 	0.48050 0.92230 0.86720 -0.04700
H 	H 	0.51180 0.93980 0.84410 0.06000
C 	C 	0.44470 0.87020 0.85330 -0.01300
H 	H 	0.45910 0.84730 0.82450 0.06700
O 	O 	0.70130 0.09990 0.73440 -0.19900
O 	O 	0.64920 0.17880 0.75500 -0.20300
C 	C 	0.66210 0.12660 0.76580 0.31400
