data_crystal

_cell_length_a 15.46800
_cell_length_b 15.78500
_cell_length_c 18.03800
_cell_angle_alpha 107.27000
_cell_angle_beta  103.94900
_cell_angle_gamma 107.16300

_symmetry_space_group_name_	'P 1'
_symmetry_space_group_name_H-M	'P 1'

loop_
_symmetry_equiv_pos_as_xyz
  x,y,z

loop_
_atom_site_label
_atom_site_type_symbol
_atom_site_fract_x
_atom_site_fract_y
_atom_site_fract_z
_atom_site_charge
Co	Co	0.02536 0.17788 0.91484 1.16200
O 	O 	0.95830 0.10460 0.06200 -0.42900
O 	O 	0.97680 0.22800 0.01280 -0.38900
O 	O 	0.94890 0.02010 0.88040 -0.46800
O 	O 	0.02490 0.06480 0.79740 -0.39600
O 	O 	0.89040 0.17820 0.82140 -0.33800
O 	O 	0.03590 0.29210 0.87050 -0.38500
O 	O 	0.17240 0.22730 0.98790 -0.39100
O 	O 	0.14200 0.10370 0.02820 -0.44300
C 	C 	0.97160 0.99960 0.81280 0.38500
C 	C 	0.92430 0.89730 0.75630 -0.13600
C 	C 	0.86370 0.82660 0.77410 0.08900
H 	H 	0.84860 0.84500 0.82170 0.01600
C 	C 	0.82680 0.73160 0.72290 -0.17300
H 	H 	0.78500 0.68640 0.73510 0.09700
C 	C 	0.85010 0.70030 0.65280 0.12400
C 	C 	0.90650 0.76760 0.63170 -0.15700
H 	H 	0.91850 0.74710 0.58270 0.09900
C 	C 	0.94660 0.86750 0.68260 0.06900
H 	H 	0.98620 0.91240 0.66860 0.03500
C 	C 	0.82100 0.59460 0.60590 -0.08600
C 	C 	0.84110 0.54070 0.65040 0.00600
H 	H 	0.87010 0.57140 0.70810 0.03700
O 	O 	0.76360 0.59680 0.47030 -0.15400
C 	C 	0.81990 0.44210 0.61290 -0.09900
O 	O 	0.75360 0.29720 0.48590 -0.16000
C 	C 	0.77990 0.39670 0.52980 0.11900
O 	O 	0.56150 0.39220 0.37830 -0.17200
C 	C 	0.75890 0.44910 0.48140 -0.04200
O 	O 	0.87950 0.41160 0.39630 -0.18000
C 	C 	0.78260 0.54640 0.52040 0.11900
C 	C 	0.68470 0.63370 0.47480 -0.27400
H 	H 	0.68480 0.67460 0.44460 0.12400
H 	H 	0.69620 0.67000 0.53190 0.12000
H 	H 	0.62300 0.58010 0.45070 0.13000
C 	C 	0.83790 0.26920 0.48420 -0.27100
H 	H 	0.81720 0.20080 0.46900 0.12000
H 	H 	0.88820 0.30270 0.53820 0.12000
H 	H 	0.86230 0.28610 0.44410 0.12900
C 	C 	0.94770 0.25530 0.82290 0.36100
C 	C 	0.91240 0.30330 0.77250 -0.16900
C 	C 	0.82140 0.26220 0.71350 0.12200
H 	H 	0.77860 0.20390 0.70930 0.00500
C 	C 	0.79030 0.30140 0.66100 -0.20000
H 	H 	0.72960 0.26740 0.61880 0.11000
C 	C 	0.84830 0.39210 0.66950 0.14400
C 	C 	0.94120 0.43950 0.73360 -0.20900
H 	H 	0.97990 0.50180 0.74230 0.11300
C 	C 	0.97540 0.39760 0.78210 0.14900
H 	H 	0.03830 0.42850 0.82110 -0.01400
C 	C 	0.95440 0.18000 0.06300 0.33600
C 	C 	0.91250 0.23720 0.11730 -0.09200
C 	C 	0.91420 0.22080 0.18970 0.02700
H 	H 	0.94370 0.18120 0.20350 0.04300
C 	C 	0.87120 0.26420 0.24140 -0.11400
H 	H 	0.87780 0.25850 0.29210 0.08300
C 	C 	0.81660 0.31780 0.21650 0.08800
C 	C 	0.81840 0.33690 0.14530 -0.12800
H 	H 	0.78920 0.37660 0.13130 0.07600
C 	C 	0.86500 0.29530 0.09490 0.03300
H 	H 	0.86430 0.30600 0.04680 0.03200
C 	C 	0.75140 0.34270 0.25980 -0.08200
C 	C 	0.78530 0.38660 0.34910 0.13200
C 	C 	0.94060 0.50720 0.40860 -0.17300
H 	H 	0.00740 0.51700 0.43040 0.08400
H 	H 	0.92780 0.55430 0.44720 0.10000
H 	H 	0.92720 0.51410 0.35640 0.09500
C 	C 	0.71980 0.40180 0.38770 -0.05500
C 	C 	0.62380 0.37270 0.34010 0.14600
C 	C 	0.59110 0.33110 0.25330 -0.11500
C 	C 	0.65780 0.32020 0.21600 0.01800
H 	H 	0.63720 0.29620 0.15830 0.02400
C 	C 	0.52660 0.33130 0.42170 -0.22300
H 	H 	0.48110 0.35000 0.44330 0.10100
H 	H 	0.58060 0.33930 0.46680 0.11000
H 	H 	0.49560 0.26480 0.38340 0.09900
C 	C 	0.48950 0.29660 0.19970 0.17900
C 	C 	0.46180 0.33530 0.13810 -0.21300
H 	H 	0.50780 0.38350 0.13200 0.10600
C 	C 	0.36520 0.29820 0.08920 0.14000
H 	H 	0.34610 0.32840 0.05500 -0.01000
C 	C 	0.29770 0.22240 0.08760 -0.21000
C 	C 	0.32590 0.18620 0.14160 0.14500
H 	H 	0.28050 0.13240 0.14180 -0.01100
C 	C 	0.42190 0.22520 0.19920 -0.23600
H 	H 	0.43650 0.19860 0.23780 0.11300
C 	C 	0.19610 0.18440 0.03060 0.36400
Co	Co	0.97464 0.82212 0.08516 1.16200
O 	O 	0.04170 0.89540 0.93800 -0.40400
O 	O 	0.02320 0.77200 0.98720 -0.36700
O 	O 	0.05110 0.97990 0.11960 -0.41200
O 	O 	0.97510 0.93520 0.20260 -0.28100
O 	O 	0.10960 0.82180 0.17860 -0.33000
O 	O 	0.96410 0.70790 0.12950 -0.35300
O 	O 	0.82760 0.77270 0.01210 -0.47400
O 	O 	0.85800 0.89630 0.97180 -0.40900
C 	C 	0.02840 0.00040 0.18720 0.19200
C 	C 	0.07570 0.10270 0.24370 -0.07900
C 	C 	0.13630 0.17340 0.22590 0.02900
H 	H 	0.15140 0.15500 0.17830 0.02600
C 	C 	0.17320 0.26840 0.27710 -0.13700
H 	H 	0.21500 0.31360 0.26490 0.08100
C 	C 	0.14990 0.29970 0.34720 0.09200
C 	C 	0.09350 0.23240 0.36830 -0.13000
H 	H 	0.08150 0.25290 0.41730 0.07900
C 	C 	0.05340 0.13250 0.31740 0.01400
H 	H 	0.01380 0.08760 0.33140 0.02500
C 	C 	0.17900 0.40540 0.39410 -0.07300
C 	C 	0.15890 0.45930 0.34960 -0.01300
H 	H 	0.12990 0.42860 0.29190 0.03700
O 	O 	0.23640 0.40320 0.52970 -0.15700
C 	C 	0.18010 0.55790 0.38710 -0.07500
O 	O 	0.24640 0.70280 0.51410 -0.15200
C 	C 	0.22010 0.60330 0.47020 0.10800
O 	O 	0.43850 0.60780 0.62170 -0.16900
C 	C 	0.24110 0.55090 0.51860 -0.03700
O 	O 	0.12050 0.58840 0.60370 -0.15700
C 	C 	0.21740 0.45360 0.47960 0.11100
C 	C 	0.31530 0.36630 0.52520 -0.26500
H 	H 	0.31520 0.32540 0.55540 0.11700
H 	H 	0.30380 0.33000 0.46810 0.11500
H 	H 	0.37700 0.41990 0.54930 0.12700
C 	C 	0.16210 0.73080 0.51580 -0.27000
H 	H 	0.18280 0.79920 0.53100 0.12500
H 	H 	0.11180 0.69730 0.46180 0.11700
H 	H 	0.13770 0.71390 0.55590 0.12700
C 	C 	0.05230 0.74470 0.17710 0.28400
C 	C 	0.08760 0.69670 0.22750 -0.09400
C 	C 	0.17860 0.73780 0.28650 0.04900
H 	H 	0.22140 0.79610 0.29070 0.03300
C 	C 	0.20970 0.69860 0.33900 -0.13700
H 	H 	0.27040 0.73260 0.38120 0.09200
C 	C 	0.15170 0.60790 0.33050 0.08600
C 	C 	0.05880 0.56050 0.26640 -0.11600
H 	H 	0.02010 0.49820 0.25770 0.06700
C 	C 	0.02460 0.60240 0.21790 -0.00200
H 	H 	0.96170 0.57150 0.17890 0.05700
C 	C 	0.04560 0.82000 0.93700 0.33100
C 	C 	0.08750 0.76280 0.88270 -0.08400
C 	C 	0.08580 0.77920 0.81030 0.02600
H 	H 	0.05630 0.81880 0.79650 0.03900
C 	C 	0.12880 0.73580 0.75860 -0.11100
H 	H 	0.12220 0.74150 0.70790 0.08000
C 	C 	0.18340 0.68220 0.78350 0.08500
C 	C 	0.18160 0.66310 0.85470 -0.12300
H 	H 	0.21080 0.62340 0.86870 0.08100
C 	C 	0.13500 0.70470 0.90510 0.03100
H 	H 	0.13570 0.69400 0.95320 0.04700
C 	C 	0.24860 0.65730 0.74020 -0.07500
C 	C 	0.21470 0.61340 0.65090 0.12400
C 	C 	0.05940 0.49280 0.59140 -0.32800
H 	H 	0.99260 0.48300 0.56960 0.15600
H 	H 	0.07220 0.44570 0.55280 0.13700
H 	H 	0.07280 0.48590 0.64360 0.13000
C 	C 	0.28020 0.59820 0.61230 -0.05200
C 	C 	0.37620 0.62730 0.65990 0.14600
C 	C 	0.40890 0.66890 0.74670 -0.11300
C 	C 	0.34220 0.67980 0.78400 0.01800
H 	H 	0.36280 0.70380 0.84170 0.03700
C 	C 	0.47340 0.66870 0.57830 -0.23600
H 	H 	0.51890 0.65000 0.55670 0.10600
H 	H 	0.41940 0.66070 0.53320 0.11600
H 	H 	0.50440 0.73520 0.61660 0.10900
C 	C 	0.51050 0.70340 0.80030 0.19500
C 	C 	0.53820 0.66470 0.86190 -0.22500
H 	H 	0.49220 0.61650 0.86800 0.12000
C 	C 	0.63480 0.70180 0.91080 0.17400
H 	H 	0.65390 0.67160 0.94500 0.00200
C 	C 	0.70230 0.77760 0.91240 -0.23800
C 	C 	0.67410 0.81380 0.85840 0.17700
H 	H 	0.71950 0.86760 0.85820 -0.00500
C 	C 	0.57810 0.77480 0.80080 -0.24800
H 	H 	0.56350 0.80140 0.76220 0.12800
C 	C 	0.80390 0.81560 0.96940 0.46500
Co	Co	-0.00000 0.00000 -0.00000 1.13800
