data_crystal

_cell_length_a 15.45620
_cell_length_b 16.27800
_cell_length_c 18.34600
_cell_angle_alpha 108.55900
_cell_angle_beta  103.79900
_cell_angle_gamma 108.45300

_symmetry_space_group_name_	'P 1'
_symmetry_space_group_name_H-M	'P 1'

loop_
_symmetry_equiv_pos_as_xyz
  x,y,z

loop_
_atom_site_label
_atom_site_type_symbol
_atom_site_fract_x
_atom_site_fract_y
_atom_site_fract_z
_atom_site_charge
C 	C 	0.55400 0.02450 0.68980 0.22200
C 	C 	0.59490 0.12740 0.74480 -0.10700
C 	C 	0.64370 0.19300 0.72200 0.05500
H 	H 	0.65610 0.17350 0.67360 0.00700
C 	C 	0.67620 0.29160 0.77160 -0.15100
H 	H 	0.70930 0.33680 0.75550 0.08900
C 	C 	0.65890 0.32120 0.84420 0.11100
C 	C 	0.61150 0.25480 0.86780 -0.15400
H 	H 	0.60040 0.27470 0.91670 0.09100
C 	C 	0.57960 0.15810 0.82020 0.04900
H 	H 	0.54820 0.11340 0.83760 0.01900
C 	C 	0.56220 0.75350 0.68110 0.30600
C 	C 	0.59280 0.70730 0.73150 -0.11200
C 	C 	0.52840 0.61360 0.71630 0.05600
H 	H 	0.46640 0.58190 0.67390 0.02900
C 	C 	0.55730 0.57020 0.76350 -0.14500
H 	H 	0.51590 0.50790 0.75140 0.08200
C 	C 	0.64890 0.61830 0.83060 0.09900
C 	C 	0.71290 0.70960 0.84310 -0.14200
H 	H 	0.77520 0.74120 0.88500 0.09400
C 	C 	0.68460 0.75260 0.79440 0.05900
H 	H 	0.72800 0.81300 0.80400 0.03300
C 	C 	0.30850 0.80350 0.47630 0.46000
C 	C 	0.20860 0.77210 0.41260 -0.20200
C 	C 	0.13140 0.69910 0.40820 0.11800
H 	H 	0.14020 0.66890 0.44280 0.01000
C 	C 	0.03390 0.66930 0.34780 -0.19500
H 	H 	0.98050 0.61710 0.34150 0.10500
C 	C 	0.02070 0.71780 0.30020 0.17600
C 	C 	0.09330 0.80110 0.32140 -0.22800
H 	H 	0.08090 0.84360 0.30120 0.12100
C 	C 	0.18720 0.82590 0.37300 0.14700
H 	H 	0.23810 0.88150 0.38140 -0.00100
C 	C 	0.55690 0.82290 0.44000 0.38700
C 	C 	0.59660 0.77200 0.38020 -0.13000
C 	C 	0.59110 0.78400 0.30760 0.07500
H 	H 	0.55620 0.81700 0.29240 0.02600
C 	C 	0.63630 0.74790 0.25840 -0.15300
H 	H 	0.63060 0.75590 0.20970 0.09900
C 	C 	0.69110 0.69930 0.27990 0.11600
C 	C 	0.69260 0.68410 0.35230 -0.15900
H 	H 	0.72690 0.65090 0.36800 0.09000
C 	C 	0.64410 0.71780 0.39900 0.07600
H 	H 	0.64290 0.70410 0.44440 0.02300
C 	C 	0.65910 0.47400 0.84510 -0.01100
H 	H 	0.62820 0.44120 0.78770 0.04000
C 	C 	0.67630 0.57080 0.88290 -0.07400
C 	C 	0.71780 0.61580 0.97040 0.10600
C 	C 	0.74700 0.57070 0.01660 -0.03500
C 	C 	0.73340 0.47660 0.97590 0.11100
C 	C 	0.68580 0.42590 0.88940 -0.07600
C 	C 	0.78660 0.61860 0.10820 -0.04700
C 	C 	0.72360 0.63160 0.14970 0.12600
C 	C 	0.75380 0.67430 0.23610 -0.08700
C 	C 	0.85200 0.70040 0.28110 0.01400
H 	H 	0.87390 0.72760 0.33880 0.03500
C 	C 	0.91880 0.68860 0.24550 -0.10300
C 	C 	0.88520 0.64890 0.15760 0.13500
C 	C 	0.84330 0.41040 0.01110 -0.22700
H 	H 	0.86090 0.38030 0.04590 0.10700
H 	H 	0.82290 0.36750 0.95400 0.10300
H 	H 	0.89910 0.46810 0.02510 0.11800
C 	C 	0.65430 0.73220 0.00680 -0.25000
H 	H 	0.67610 0.79960 0.03820 0.12200
H 	H 	0.61750 0.71410 0.94970 0.11400
H 	H 	0.61320 0.69720 0.02850 0.12100
C 	C 	0.56090 0.51230 0.09810 -0.25200
H 	H 	0.49430 0.49390 0.06370 0.12100
H 	H 	0.58100 0.46280 0.07570 0.11600
H 	H 	0.56470 0.52150 0.15330 0.11300
C 	C 	0.99180 0.70740 0.09440 -0.22200
H 	H 	0.03550 0.69260 0.06860 0.10200
H 	H 	0.94030 0.71060 0.05570 0.11300
H 	H 	0.02790 0.76810 0.14220 0.10700
Cd	Cd	0.48569 0.83397 0.58842 1.24400
O 	O 	0.57550 0.99800 0.62500 -0.41800
O 	O 	0.49930 0.96150 0.70600 -0.30300
O 	O 	0.47010 0.71830 0.63410 -0.35900
O 	O 	0.62130 0.82970 0.68520 -0.33300
O 	O 	0.36970 0.88320 0.49850 -0.49900
O 	O 	0.32350 0.74940 0.50500 -0.42800
O 	O 	0.53700 0.78540 0.48800 -0.42900
O 	O 	0.54900 0.89490 0.43490 -0.42100
O 	O 	0.76430 0.43290 0.02340 -0.15700
O 	O 	0.73710 0.71100 0.01280 -0.14900
O 	O 	0.62510 0.60070 0.10040 -0.16500
O 	O 	0.94960 0.63430 0.11950 -0.16600
C 	C 	0.44600 0.97550 0.31020 0.43700
C 	C 	0.40510 0.87260 0.25520 -0.18800
C 	C 	0.35630 0.80700 0.27800 0.12400
H 	H 	0.34390 0.82650 0.32640 -0.00800
C 	C 	0.32380 0.70840 0.22840 -0.19700
H 	H 	0.29070 0.66320 0.24450 0.10500
C 	C 	0.34110 0.67880 0.15580 0.14800
C 	C 	0.38850 0.74520 0.13220 -0.19900
H 	H 	0.39960 0.72530 0.08330 0.11100
C 	C 	0.42040 0.84190 0.17980 0.11500
H 	H 	0.45180 0.88660 0.16240 0.01600
C 	C 	0.43780 0.24650 0.31890 0.31000
C 	C 	0.40720 0.29270 0.26850 -0.12200
C 	C 	0.47160 0.38640 0.28370 0.06200
H 	H 	0.53360 0.41810 0.32610 0.02700
C 	C 	0.44270 0.42980 0.23650 -0.15300
H 	H 	0.48410 0.49210 0.24860 0.08400
C 	C 	0.35110 0.38170 0.16940 0.10600
C 	C 	0.28710 0.29040 0.15690 -0.15200
H 	H 	0.22480 0.25880 0.11500 0.09100
C 	C 	0.31540 0.24740 0.20560 0.06500
H 	H 	0.27200 0.18700 0.19600 0.01900
C 	C 	0.69150 0.19650 0.52370 0.46800
C 	C 	0.79140 0.22790 0.58740 -0.22000
C 	C 	0.86860 0.30090 0.59180 0.12800
H 	H 	0.85980 0.33110 0.55720 0.00300
C 	C 	0.96610 0.33070 0.65220 -0.21100
H 	H 	0.01950 0.38290 0.65850 0.11300
C 	C 	0.97930 0.28220 0.69980 0.18300
C 	C 	0.90670 0.19890 0.67860 -0.24300
H 	H 	0.91910 0.15640 0.69880 0.11300
C 	C 	0.81280 0.17410 0.62700 0.15700
H 	H 	0.76190 0.11850 0.61860 -0.02400
C 	C 	0.44310 0.17710 0.56000 0.39000
C 	C 	0.40340 0.22800 0.61980 -0.13900
C 	C 	0.40890 0.21600 0.69240 0.07600
H 	H 	0.44380 0.18300 0.70760 0.02000
C 	C 	0.36370 0.25210 0.74160 -0.16000
H 	H 	0.36940 0.24410 0.79030 0.09500
C 	C 	0.30890 0.30070 0.72010 0.11600
C 	C 	0.30740 0.31590 0.64770 -0.16500
H 	H 	0.27310 0.34910 0.63200 0.09000
C 	C 	0.35590 0.28220 0.60100 0.07700
H 	H 	0.35710 0.29590 0.55560 0.01900
C 	C 	0.34090 0.52600 0.15490 0.00200
H 	H 	0.37180 0.55880 0.21230 0.03400
C 	C 	0.32370 0.42920 0.11710 -0.08500
C 	C 	0.28220 0.38420 0.02960 0.11800
C 	C 	0.25300 0.42930 0.98340 -0.04600
C 	C 	0.26660 0.52340 0.02410 0.12300
C 	C 	0.31420 0.57410 0.11060 -0.09400
C 	C 	0.21340 0.38140 0.89180 -0.04600
C 	C 	0.27640 0.36840 0.85030 0.12500
C 	C 	0.24620 0.32570 0.76390 -0.09100
C 	C 	0.14800 0.29960 0.71890 0.01500
H 	H 	0.12610 0.27240 0.66120 0.02800
C 	C 	0.08120 0.31140 0.75450 -0.10700
C 	C 	0.11480 0.35110 0.84240 0.13700
C 	C 	0.15670 0.58960 0.98890 -0.24400
H 	H 	0.13910 0.61970 0.95410 0.11700
H 	H 	0.17710 0.63250 0.04600 0.11100
H 	H 	0.10090 0.53190 0.97490 0.12300
C 	C 	0.34570 0.26780 0.99320 -0.23100
H 	H 	0.32390 0.20040 0.96180 0.10400
H 	H 	0.38250 0.28590 0.05030 0.10600
H 	H 	0.38680 0.30280 0.97150 0.11200
C 	C 	0.43910 0.48770 0.90190 -0.25300
H 	H 	0.50570 0.50610 0.93630 0.12100
H 	H 	0.41900 0.53720 0.92430 0.11600
H 	H 	0.43530 0.47850 0.84670 0.11400
C 	C 	0.00820 0.29260 0.90560 -0.17000
H 	H 	0.96450 0.30740 0.93140 0.08000
H 	H 	0.05970 0.28940 0.94430 0.09200
H 	H 	0.97210 0.23190 0.85780 0.08100
Cd	Cd	0.51431 0.16603 0.41158 1.24300
O 	O 	0.42450 0.00200 0.37500 -0.53800
O 	O 	0.50070 0.03850 0.29400 -0.41700
O 	O 	0.52990 0.28170 0.36590 -0.36300
O 	O 	0.37870 0.17030 0.31480 -0.34900
O 	O 	0.63030 0.11680 0.50150 -0.52600
O 	O 	0.67650 0.25060 0.49500 -0.43400
O 	O 	0.46300 0.21460 0.51200 -0.43300
O 	O 	0.45100 0.10510 0.56510 -0.44600
O 	O 	0.23570 0.56710 0.97660 -0.15600
O 	O 	0.26290 0.28900 0.98720 -0.16200
O 	O 	0.37490 0.39930 0.89960 -0.16500
O 	O 	0.05040 0.36570 0.88050 -0.17500
Cd	Cd	0.50000 0.00000 0.50000 1.23400
