data_crystal

_cell_length_a 15.97000
_cell_length_b 18.59700
_cell_length_c 28.43400
_cell_angle_alpha 100.53600
_cell_angle_beta  95.13000
_cell_angle_gamma 109.61500

_symmetry_space_group_name_	'P 1'
_symmetry_space_group_name_H-M	'P 1'

loop_
_symmetry_equiv_pos_as_xyz
  x,y,z

loop_
_atom_site_label
_atom_site_type_symbol
_atom_site_fract_x
_atom_site_fract_y
_atom_site_fract_z
_atom_site_charge
C 	C 	0.81590 0.08060 0.18290 0.10600
H 	H 	0.79750 0.12250 0.18070 0.01100
C 	C 	0.76350 0.00560 0.15860 -0.20100
H 	H 	0.71080 0.99750 0.13820 0.10200
C 	C 	0.86130 0.95460 0.19480 -0.21000
H 	H 	0.87410 0.91140 0.20050 0.11200
C 	C 	0.91810 0.02730 0.21810 0.11300
H 	H 	0.97010 0.03370 0.23860 -0.00400
C 	C 	0.73300 0.86220 0.13100 -0.11200
C 	C 	0.71310 0.85690 0.08240 0.03000
H 	H 	0.72500 0.90290 0.07140 0.02100
C 	C 	0.67590 0.78580 0.04880 -0.11500
C 	C 	0.65750 0.71830 0.06480 0.15000
C 	C 	0.67200 0.72080 0.11390 -0.06100
C 	C 	0.71140 0.79270 0.14720 0.14300
C 	C 	0.66790 0.78890 0.99640 0.16400
C 	C 	0.62140 0.83270 0.97960 -0.20900
H 	H 	0.58900 0.85470 0.99940 0.10700
C 	C 	0.62460 0.84290 0.93140 0.13200
H 	H 	0.59590 0.87390 0.92010 0.00100
C 	C 	0.66870 0.80820 0.90130 -0.23200
C 	C 	0.71260 0.76540 0.91850 0.15100
H 	H 	0.74400 0.74280 0.89820 -0.03200
C 	C 	0.71290 0.75360 0.96570 -0.22100
H 	H 	0.74250 0.72270 0.97630 0.11100
C 	C 	0.67040 0.82250 0.85210 0.44300
C 	C 	0.65440 0.59330 0.02500 -0.14800
H 	H 	0.71590 0.61490 0.04100 0.08600
H 	H 	0.65240 0.57530 0.99090 0.07600
H 	H 	0.62140 0.55010 0.03810 0.08500
C 	C 	0.66420 0.81010 0.22190 -0.23100
H 	H 	0.68170 0.81220 0.25540 0.11400
H 	H 	0.60600 0.77000 0.21000 0.11400
H 	H 	0.66170 0.85980 0.21850 0.10700
C 	C 	0.42950 0.61200 0.09240 -0.24100
H 	H 	0.37520 0.62140 0.09760 0.11100
H 	H 	0.41840 0.55700 0.08790 0.10800
H 	H 	0.44900 0.62930 0.06400 0.11700
C 	C 	0.85990 0.69210 0.17690 -0.22900
H 	H 	0.91830 0.70620 0.16730 0.10700
H 	H 	0.85770 0.66180 0.20100 0.10500
H 	H 	0.84870 0.73880 0.19010 0.11200
C 	C 	0.64460 0.64860 0.13380 -0.04300
C 	C 	0.55750 0.61640 0.14340 0.12500
C 	C 	0.53270 0.55390 0.16510 -0.09800
C 	C 	0.59610 0.51970 0.17460 0.00800
H 	H 	0.57850 0.47530 0.18730 0.03200
C 	C 	0.68310 0.54830 0.16600 -0.09400
C 	C 	0.70670 0.61410 0.14580 0.11700
C 	C 	0.39500 0.44070 0.16580 -0.19300
H 	H 	0.41780 0.40840 0.14620 0.10200
C 	C 	0.31430 0.40750 0.18220 0.10700
H 	H 	0.28230 0.35390 0.17230 -0.00700
C 	C 	0.32710 0.53470 0.22470 0.08600
H 	H 	0.30440 0.56650 0.24480 0.01600
C 	C 	0.40720 0.56810 0.20640 -0.17600
H 	H 	0.43670 0.62210 0.21340 0.10100
C 	C 	0.20010 0.41560 0.23490 0.38600
C 	C 	0.74930 0.51310 0.18130 0.12600
C 	C 	0.75050 0.49360 0.22570 -0.17200
H 	H 	0.70980 0.50270 0.24530 0.09200
C 	C 	0.80920 0.46160 0.24170 0.07600
H 	H 	0.80960 0.44990 0.27210 0.02100
C 	C 	0.86930 0.44620 0.21170 -0.12000
C 	C 	0.86460 0.46090 0.16610 0.07500
H 	H 	0.90140 0.44790 0.14510 0.02100
C 	C 	0.80580 0.49470 0.15140 -0.16600
H 	H 	0.80410 0.50550 0.12070 0.09800
C 	C 	0.93430 0.40950 0.22880 0.32800
C 	C 	0.22550 0.07250 0.26920 0.33200
C 	C 	0.14130 0.03530 0.28980 -0.14200
C 	C 	0.10840 0.08250 0.32030 0.06700
H 	H 	0.13850 0.13650 0.32830 0.02200
C 	C 	0.03070 0.04960 0.33890 -0.16200
H 	H 	0.00920 0.08140 0.35990 0.09200
C 	C 	0.98590 0.97040 0.32650 0.11200
C 	C 	0.02160 0.92150 0.29760 -0.16200
H 	H 	0.99360 0.86720 0.29080 0.09300
C 	C 	0.09770 0.95530 0.27990 0.07800
H 	H 	0.12120 0.92340 0.26050 0.01600
C 	C 	0.89470 0.93760 0.34140 -0.08000
C 	C 	0.83410 0.97360 0.33310 -0.00600
H 	H 	0.85300 0.01780 0.32030 0.03900
C 	C 	0.74620 0.94780 0.34280 -0.08400
C 	C 	0.72040 0.88200 0.36340 0.11900
C 	C 	0.78080 0.84420 0.37230 -0.04300
C 	C 	0.86550 0.87230 0.36190 0.11700
C 	C 	0.00120 0.87580 0.40760 -0.26100
H 	H 	0.04110 0.84720 0.40900 0.11900
H 	H 	0.98130 0.88420 0.43840 0.12600
H 	H 	0.03230 0.92540 0.40040 0.11700
C 	C 	0.56280 0.81410 0.33520 -0.24500
H 	H 	0.50700 0.79890 0.34760 0.11400
H 	H 	0.57030 0.76840 0.31710 0.11900
H 	H 	0.56200 0.84930 0.31450 0.11000
C 	C 	0.68500 0.98720 0.32900 0.11000
C 	C 	0.68430 0.00620 0.28320 -0.15500
H 	H 	0.72310 0.99550 0.26280 0.08800
C 	C 	0.62600 0.04060 0.26920 0.06500
H 	H 	0.62470 0.05180 0.23860 0.02700
C 	C 	0.56940 0.05930 0.29850 -0.11200
C 	C 	0.57180 0.04280 0.34430 0.06000
H 	H 	0.53410 0.05530 0.36480 0.02700
C 	C 	0.62980 0.00800 0.35910 -0.15200
H 	H 	0.63180 0.99830 0.39000 0.09400
C 	C 	0.50240 0.09460 0.28070 0.32500
C 	C 	0.73270 0.68440 0.28100 -0.26100
H 	H 	0.70730 0.67830 0.24790 0.12400
H 	H 	0.74200 0.63730 0.28480 0.11600
H 	H 	0.78930 0.72750 0.28920 0.12300
C 	C 	0.78400 0.89140 0.48840 -0.22100
H 	H 	0.81450 0.92220 0.52010 0.10200
H 	H 	0.72410 0.85930 0.49020 0.10400
H 	H 	0.78270 0.92550 0.46700 0.10800
C 	C 	0.75080 0.77200 0.39190 -0.05600
C 	C 	0.69740 0.70060 0.36110 0.13500
C 	C 	0.67170 0.62970 0.37630 -0.10200
C 	C 	0.70160 0.63400 0.42430 0.02900
H 	H 	0.68670 0.58790 0.43530 0.02500
C 	C 	0.75340 0.70490 0.45710 -0.12800
C 	C 	0.77770 0.77400 0.43990 0.14900
C 	C 	0.82910 0.66180 0.51850 -0.25700
H 	H 	0.84530 0.63180 0.49360 0.12500
C 	C 	0.85720 0.66430 0.56830 0.17800
H 	H 	0.89840 0.64090 0.57550 -0.01300
C 	C 	0.76550 0.72900 0.59240 0.21400
H 	H 	0.73620 0.74710 0.61610 -0.02800
C 	C 	0.74460 0.73380 0.54560 -0.28500
H 	H 	0.70490 0.75890 0.53900 0.13300
C 	C 	0.85130 0.69420 0.65560 0.47800
C 	C 	0.61300 0.55550 0.34520 0.13500
C 	C 	0.53120 0.54530 0.31960 -0.18000
H 	H 	0.51570 0.58890 0.31800 0.10500
C 	C 	0.47140 0.47150 0.29620 0.10500
H 	H 	0.41620 0.46680 0.27970 0.01200
C 	C 	0.49010 0.40600 0.29630 -0.16300
C 	C 	0.57490 0.41380 0.31720 0.08400
H 	H 	0.59090 0.36970 0.31460 0.02100
C 	C 	0.63850 0.48830 0.34270 -0.16700
H 	H 	0.69520 0.49300 0.35740 0.09200
C 	C 	0.42570 0.32510 0.27040 0.42800
O 	O 	0.04580 0.18780 0.24500 -0.45700
O 	O 	0.94300 0.40620 0.27260 -0.37900
O 	O 	0.97560 0.38380 0.19910 -0.35000
O 	O 	0.16910 0.45750 0.26010 -0.38300
O 	O 	0.16580 0.34170 0.22510 -0.50300
O 	O 	0.25170 0.14590 0.27270 -0.48600
O 	O 	0.26420 0.03040 0.24910 -0.37700
O 	O 	0.71080 0.78810 0.82460 -0.55400
O 	O 	0.63180 0.86530 0.83850 -0.44900
O 	O 	0.34200 0.31720 0.26510 -0.38600
O 	O 	0.45390 0.27350 0.26700 -0.44900
O 	O 	0.49410 0.09650 0.23690 -0.38100
O 	O 	0.45980 0.11910 0.30970 -0.35300
O 	O 	0.90980 0.66320 0.66220 -0.45500
O 	O 	0.81280 0.72000 0.68640 -0.48900
O 	O 	0.49960 0.65520 0.13450 -0.16400
O 	O 	0.79310 0.64700 0.13590 -0.16400
O 	O 	0.61760 0.64820 0.03190 -0.18400
O 	O 	0.72750 0.79310 0.19510 -0.17500
O 	O 	0.67080 0.70010 0.31310 -0.16700
O 	O 	0.83160 0.84310 0.47040 -0.17200
O 	O 	0.63630 0.85270 0.37490 -0.16100
O 	O 	0.92150 0.82990 0.36900 -0.15800
C 	C 	0.28230 0.45360 0.21250 -0.15800
C 	C 	0.78590 0.94270 0.16320 0.15500
C 	C 	0.44120 0.51950 0.17790 0.14100
C 	C 	0.89810 0.09220 0.21130 -0.17600
C 	C 	0.77870 0.70400 0.50890 0.22300
C 	C 	0.82640 0.69910 0.60470 -0.26300
O 	O 	0.93390 0.22940 0.23410 -0.40500
C 	C 	0.96280 0.17380 0.23180 0.37600
Cd	Cd	0.19333 0.22537 0.23173 1.22900
Cd	Cd	0.38215 0.14410 0.24088 1.24300
Cd	Cd	0.04404 0.34534 0.26525 1.24500
Eu	Eu	0.80667 0.77463 0.76827 1.85600
C 	C 	0.18410 0.91940 0.81710 0.13200
H 	H 	0.20250 0.87750 0.81930 -0.00100
C 	C 	0.23650 0.99440 0.84140 -0.22600
H 	H 	0.28920 0.00250 0.86180 0.11000
C 	C 	0.13870 0.04540 0.80520 -0.24100
H 	H 	0.12590 0.08860 0.79950 0.12100
C 	C 	0.08190 0.97270 0.78190 0.14700
H 	H 	0.02990 0.96630 0.76140 -0.02600
C 	C 	0.26700 0.13780 0.86900 -0.11900
C 	C 	0.28690 0.14310 0.91760 0.03100
H 	H 	0.27500 0.09710 0.92860 0.02000
C 	C 	0.32410 0.21420 0.95120 -0.11100
C 	C 	0.34250 0.28170 0.93520 0.14800
C 	C 	0.32800 0.27920 0.88610 -0.06100
C 	C 	0.28860 0.20730 0.85280 0.14500
C 	C 	0.33210 0.21110 0.00360 0.14900
C 	C 	0.37860 0.16730 0.02040 -0.18800
H 	H 	0.41100 0.14530 0.00060 0.10000
C 	C 	0.37540 0.15710 0.06860 0.10400
H 	H 	0.40410 0.12610 0.07990 0.01200
C 	C 	0.33130 0.19180 0.09870 -0.18700
C 	C 	0.28740 0.23460 0.08150 0.11500
H 	H 	0.25600 0.25720 0.10180 -0.00900
C 	C 	0.28710 0.24640 0.03430 -0.19400
H 	H 	0.25750 0.27730 0.02370 0.10300
C 	C 	0.32960 0.17750 0.14790 0.39000
C 	C 	0.34560 0.40670 0.97500 -0.15400
H 	H 	0.28410 0.38510 0.95900 0.08800
H 	H 	0.34760 0.42470 0.00910 0.07900
H 	H 	0.37860 0.44990 0.96190 0.08600
C 	C 	0.33580 0.18990 0.77810 -0.23000
H 	H 	0.31830 0.18780 0.74460 0.11300
H 	H 	0.39400 0.23000 0.79000 0.11300
H 	H 	0.33830 0.14020 0.78150 0.10600
C 	C 	0.57050 0.38800 0.90760 -0.23800
H 	H 	0.62480 0.37860 0.90240 0.11000
H 	H 	0.58160 0.44300 0.91210 0.10700
H 	H 	0.55100 0.37070 0.93600 0.11600
C 	C 	0.14010 0.30790 0.82310 -0.22600
H 	H 	0.08170 0.29380 0.83270 0.10500
H 	H 	0.14230 0.33820 0.79900 0.10400
H 	H 	0.15130 0.26120 0.80990 0.11000
C 	C 	0.35540 0.35140 0.86620 -0.04600
C 	C 	0.44250 0.38360 0.85660 0.13000
C 	C 	0.46730 0.44610 0.83490 -0.10900
C 	C 	0.40390 0.48030 0.82540 0.01400
H 	H 	0.42150 0.52470 0.81270 0.02900
C 	C 	0.31690 0.45170 0.83400 -0.09800
C 	C 	0.29330 0.38590 0.85420 0.12000
C 	C 	0.60500 0.55930 0.83420 -0.23100
H 	H 	0.58220 0.59160 0.85380 0.11300
C 	C 	0.68570 0.59250 0.81780 0.15800
H 	H 	0.71770 0.64610 0.82770 -0.04200
C 	C 	0.67290 0.46530 0.77530 0.11600
H 	H 	0.69560 0.43350 0.75520 0.00500
C 	C 	0.59280 0.43190 0.79360 -0.20300
H 	H 	0.56330 0.37790 0.78660 0.11000
C 	C 	0.79990 0.58440 0.76510 0.43800
C 	C 	0.25070 0.48690 0.81870 0.12900
C 	C 	0.24950 0.50640 0.77430 -0.17500
H 	H 	0.29020 0.49730 0.75470 0.09200
C 	C 	0.19080 0.53840 0.75830 0.07800
H 	H 	0.19040 0.55010 0.72790 0.02100
C 	C 	0.13070 0.55380 0.78830 -0.12200
C 	C 	0.13540 0.53910 0.83390 0.07700
H 	H 	0.09860 0.55210 0.85490 0.02000
C 	C 	0.19420 0.50530 0.84860 -0.16900
H 	H 	0.19590 0.49450 0.87930 0.09900
C 	C 	0.06570 0.59050 0.77120 0.33000
C 	C 	0.77450 0.92750 0.73080 0.37100
C 	C 	0.85870 0.96470 0.71020 -0.18500
C 	C 	0.89160 0.91750 0.67970 0.10600
H 	H 	0.86150 0.86350 0.67170 -0.00200
C 	C 	0.96930 0.95040 0.66110 -0.19400
H 	H 	0.99080 0.91860 0.64010 0.10100
C 	C 	0.01410 0.02960 0.67350 0.13300
C 	C 	0.97840 0.07850 0.70240 -0.19000
H 	H 	0.00640 0.13280 0.70920 0.10300
C 	C 	0.90230 0.04470 0.72010 0.10600
H 	H 	0.87880 0.07660 0.73950 0.00300
C 	C 	0.10530 0.06240 0.65860 -0.08900
C 	C 	0.16590 0.02640 0.66690 -0.00100
H 	H 	0.14700 0.98220 0.67970 0.03600
C 	C 	0.25380 0.05220 0.65720 -0.08600
C 	C 	0.27960 0.11800 0.63660 0.12100
C 	C 	0.21920 0.15580 0.62770 -0.04500
C 	C 	0.13450 0.12770 0.63810 0.12100
C 	C 	0.99880 0.12420 0.59240 -0.26300
H 	H 	0.95890 0.15280 0.59100 0.11900
H 	H 	0.01870 0.11580 0.56160 0.12700
H 	H 	0.96770 0.07460 0.59960 0.11700
C 	C 	0.43720 0.18590 0.66480 -0.24400
H 	H 	0.49300 0.20110 0.65240 0.11300
H 	H 	0.42970 0.23160 0.68290 0.11900
H 	H 	0.43800 0.15070 0.68550 0.11000
C 	C 	0.31500 0.01280 0.67100 0.11100
C 	C 	0.31570 0.99380 0.71680 -0.15600
H 	H 	0.27690 0.00450 0.73720 0.08900
C 	C 	0.37400 0.95940 0.73080 0.06500
H 	H 	0.37530 0.94820 0.76140 0.02700
C 	C 	0.43060 0.94070 0.70150 -0.11300
C 	C 	0.42820 0.95720 0.65570 0.06100
H 	H 	0.46590 0.94470 0.63520 0.02600
C 	C 	0.37020 0.99200 0.64090 -0.15300
H 	H 	0.36820 0.00170 0.61000 0.09400
C 	C 	0.49760 0.90540 0.71930 0.32600
C 	C 	0.26730 0.31560 0.71900 -0.26000
H 	H 	0.29270 0.32170 0.75210 0.12400
H 	H 	0.25800 0.36270 0.71520 0.11600
H 	H 	0.21070 0.27250 0.71080 0.12300
C 	C 	0.21600 0.10860 0.51160 -0.22300
H 	H 	0.18550 0.07780 0.47990 0.10300
H 	H 	0.27590 0.14070 0.50980 0.10500
H 	H 	0.21730 0.07450 0.53300 0.10900
C 	C 	0.24920 0.22800 0.60810 -0.05400
C 	C 	0.30260 0.29940 0.63890 0.13500
C 	C 	0.32830 0.37030 0.62370 -0.10500
C 	C 	0.29840 0.36600 0.57570 0.02600
H 	H 	0.31330 0.41210 0.56470 0.02600
C 	C 	0.24660 0.29510 0.54290 -0.11900
C 	C 	0.22230 0.22600 0.56010 0.14600
C 	C 	0.17090 0.33820 0.48150 -0.23000
H 	H 	0.15470 0.36820 0.50640 0.11600
C 	C 	0.14280 0.33570 0.43170 0.14600
H 	H 	0.10160 0.35910 0.42450 -0.00100
C 	C 	0.23450 0.27100 0.40760 0.17200
H 	H 	0.26380 0.25290 0.38390 -0.00900
C 	C 	0.25540 0.26620 0.45440 -0.25100
H 	H 	0.29510 0.24110 0.46100 0.12200
C 	C 	0.14870 0.30580 0.34440 0.42200
C 	C 	0.38700 0.44450 0.65480 0.14400
C 	C 	0.46880 0.45470 0.68040 -0.19800
H 	H 	0.48430 0.41110 0.68200 0.11100
C 	C 	0.52860 0.52850 0.70380 0.12900
H 	H 	0.58380 0.53320 0.72030 -0.00000
C 	C 	0.50990 0.59400 0.70370 -0.19300
C 	C 	0.42510 0.58620 0.68280 0.10200
H 	H 	0.40910 0.63030 0.68540 0.01400
C 	C 	0.36150 0.51170 0.65730 -0.17900
H 	H 	0.30480 0.50700 0.64260 0.09600
C 	C 	0.57430 0.67490 0.72960 0.47400
O 	O 	0.95420 0.81220 0.75500 -0.56100
O 	O 	0.05700 0.59380 0.72740 -0.37900
O 	O 	0.02440 0.61620 0.80090 -0.35400
O 	O 	0.83090 0.54250 0.73990 -0.40300
O 	O 	0.83420 0.65830 0.77490 -0.59300
O 	O 	0.74830 0.85410 0.72730 -0.56900
O 	O 	0.73580 0.96960 0.75090 -0.39700
O 	O 	0.28920 0.21190 0.17540 -0.45500
O 	O 	0.36820 0.13470 0.16150 -0.42500
O 	O 	0.65800 0.68280 0.73490 -0.46700
O 	O 	0.54610 0.72650 0.73300 -0.47100
O 	O 	0.50590 0.90350 0.76310 -0.38200
O 	O 	0.54020 0.88090 0.69030 -0.35400
O 	O 	0.09020 0.33680 0.33780 -0.43400
O 	O 	0.18720 0.28000 0.31360 -0.40500
O 	O 	0.50040 0.34480 0.86550 -0.16600
O 	O 	0.20690 0.35300 0.86410 -0.16600
O 	O 	0.38240 0.35180 0.96810 -0.18200
O 	O 	0.27250 0.20690 0.80490 -0.17600
O 	O 	0.32920 0.29990 0.68690 -0.16700
O 	O 	0.16840 0.15690 0.52960 -0.17100
O 	O 	0.36370 0.14730 0.62510 -0.16200
O 	O 	0.07850 0.17010 0.63100 -0.15800
C 	C 	0.71770 0.54640 0.78750 -0.20500
C 	C 	0.21410 0.05730 0.83680 0.17400
C 	C 	0.55880 0.48050 0.82210 0.16400
C 	C 	0.10190 0.90780 0.78870 -0.22000
C 	C 	0.22130 0.29600 0.49110 0.19900
C 	C 	0.17360 0.30090 0.39530 -0.21700
O 	O 	0.06610 0.77060 0.76590 -0.42700
C 	C 	0.03720 0.82620 0.76820 0.43100
Cd	Cd	0.61785 0.85590 0.75912 1.23800
Cd	Cd	0.95596 0.65466 0.73475 1.24100
