data_crystal

_cell_length_a 15.95700
_cell_length_b 16.46000
_cell_length_c 17.30000
_cell_angle_alpha 106.07000
_cell_angle_beta  100.85000
_cell_angle_gamma 113.40800

_symmetry_space_group_name_	'P 1'
_symmetry_space_group_name_H-M	'P 1'

loop_
_symmetry_equiv_pos_as_xyz
  x,y,z

loop_
_atom_site_label
_atom_site_type_symbol
_atom_site_fract_x
_atom_site_fract_y
_atom_site_fract_z
_atom_site_charge
Mn	Mn	0.74896 0.59677 0.57339 1.28400
O 	O 	0.61710 0.55650 0.62420 -0.47500
O 	O 	0.74220 0.70960 0.69430 -0.34300
O 	O 	0.61810 0.58990 0.46830 -0.50600
O 	O 	0.76550 0.70380 0.50490 -0.36500
O 	O 	0.53970 0.39190 0.45630 -0.44200
O 	O 	0.70190 0.45310 0.48470 -0.41400
O 	O 	0.83780 0.57320 0.68680 -0.33600
O 	O 	0.91030 0.65260 0.61230 -0.35500
O 	O 	0.27260 0.79730 0.03560 -0.15000
O 	O 	0.57610 0.80800 0.04110 -0.15100
O 	O 	0.47490 0.99200 0.12040 -0.16600
O 	O 	0.45430 0.70110 0.14350 -0.14900
C 	C 	0.44810 0.73000 0.90050 -0.06400
C 	C 	0.35290 0.70930 0.85760 -0.02700
H 	H 	0.32820 0.67930 0.79830 0.04400
C 	C 	0.29350 0.73220 0.90110 -0.06900
C 	C 	0.32870 0.77380 0.98680 0.09500
C 	C 	0.42340 0.80010 0.03680 -0.02700
C 	C 	0.48110 0.77710 0.99150 0.09900
C 	C 	0.60100 0.72890 0.04050 -0.26600
H 	H 	0.64680 0.73090 0.01120 0.12000
H 	H 	0.54320 0.66780 0.01180 0.12300
H 	H 	0.62890 0.73730 0.09830 0.12700
C 	C 	0.24790 0.86400 0.02070 -0.22400
H 	H 	0.30560 0.92160 0.03210 0.11400
H 	H 	0.21320 0.87850 0.05750 0.10800
H 	H 	0.20750 0.83850 0.96220 0.10500
C 	C 	0.56470 0.05190 0.10560 -0.27500
H 	H 	0.54910 0.08180 0.06880 0.12700
H 	H 	0.58990 0.01170 0.07920 0.12400
H 	H 	0.61250 0.10050 0.15930 0.12000
C 	C 	0.34900 0.63560 0.11180 -0.26400
H 	H 	0.33710 0.57870 0.12280 0.11700
H 	H 	0.32350 0.61840 0.05150 0.12100
H 	H 	0.31780 0.66720 0.14060 0.12000
C 	C 	0.46280 0.84920 0.13070 -0.04200
C 	C 	0.48150 0.80300 0.18590 0.11300
C 	C 	0.53270 0.85040 0.26950 -0.08200
C 	C 	0.56130 0.94630 0.30610 0.00900
H 	H 	0.59570 0.97910 0.36440 0.03200
C 	C 	0.54140 0.99550 0.26040 -0.09100
C 	C 	0.49120 0.94590 0.17070 0.13100
C 	C 	0.56670 0.80450 0.32500 0.12100
C 	C 	0.50450 0.71680 0.32580 -0.15400
H 	H 	0.43920 0.68680 0.29330 0.09600
C 	C 	0.63700 0.71370 0.41700 -0.17100
C 	C 	0.69890 0.79750 0.40990 0.10400
H 	H 	0.76540 0.82240 0.43450 0.01200
C 	C 	0.66740 0.84420 0.36950 -0.17300
H 	H 	0.71140 0.90260 0.37070 0.09600
C 	C 	0.67280 0.66920 0.46340 0.35700
C 	C 	0.56070 0.09450 0.30070 0.12500
C 	C 	0.65360 0.16470 0.36350 -0.16000
H 	H 	0.70290 0.14860 0.37510 0.08800
C 	C 	0.67000 0.25990 0.40830 0.07500
H 	H 	0.73190 0.30720 0.44510 0.02000
C 	C 	0.59660 0.28160 0.39780 -0.14700
C 	C 	0.50720 0.21030 0.33650 0.10100
H 	H 	0.45630 0.22470 0.32810 0.01100
C 	C 	0.49100 0.12370 0.28970 -0.18100
H 	H 	0.43050 0.08100 0.24800 0.10600
C 	C 	0.61140 0.38030 0.44680 0.35900
C 	C 	0.50720 0.70980 0.85190 0.09300
C 	C 	0.60150 0.77900 0.86560 -0.13100
H 	H 	0.63080 0.83850 0.91080 0.08600
C 	C 	0.65150 0.75780 0.81070 0.03600
H 	H 	0.71260 0.80420 0.81740 0.03400
C 	C 	0.60640 0.66260 0.74360 -0.10900
C 	C 	0.51760 0.59890 0.73420 0.04900
H 	H 	0.49090 0.53750 0.69220 0.02200
C 	C 	0.46070 0.61750 0.78350 -0.13400
H 	H 	0.39700 0.57240 0.77190 0.08200
C 	C 	0.65910 0.64540 0.68600 0.28300
C 	C 	0.91660 0.62200 0.67620 0.27700
C 	C 	0.00950 0.65090 0.73270 -0.10100
C 	C 	0.09330 0.70040 0.71890 0.04300
H 	H 	0.08900 0.71950 0.67320 0.03400
C 	C 	0.18530 0.72370 0.77000 -0.13000
H 	H 	0.24000 0.75550 0.75690 0.07500
C 	C 	0.19470 0.69850 0.84190 0.08300
C 	C 	0.11130 0.66030 0.86600 -0.12400
H 	H 	0.11710 0.65390 0.91830 0.08400
C 	C 	0.01840 0.63190 0.80810 0.03200
H 	H 	0.96280 0.60040 0.82020 0.03600
C 	C 	0.53680 0.67150 0.37430 0.08500
H 	H 	0.49320 0.61590 0.37760 0.00800
Cd	Cd	0.25104 0.40323 0.42661 1.24500
O 	O 	0.38290 0.44350 0.37580 -0.47100
O 	O 	0.25780 0.29040 0.30570 -0.33800
O 	O 	0.38190 0.41010 0.53170 -0.50200
O 	O 	0.23450 0.29620 0.49510 -0.36000
O 	O 	0.46030 0.60810 0.54370 -0.44100
O 	O 	0.29810 0.54690 0.51530 -0.40900
O 	O 	0.16220 0.42680 0.31320 -0.33100
O 	O 	0.08970 0.34740 0.38770 -0.35000
O 	O 	0.72740 0.20270 0.96440 -0.15000
O 	O 	0.42390 0.19200 0.95890 -0.15100
O 	O 	0.52510 0.00800 0.87960 -0.16600
O 	O 	0.54570 0.29890 0.85650 -0.14900
C 	C 	0.55190 0.27000 0.09950 -0.06400
C 	C 	0.64710 0.29070 0.14240 -0.02700
H 	H 	0.67180 0.32070 0.20170 0.04400
C 	C 	0.70650 0.26780 0.09890 -0.06800
C 	C 	0.67130 0.22620 0.01320 0.09500
C 	C 	0.57660 0.19990 0.96320 -0.02700
C 	C 	0.51890 0.22290 0.00850 0.09900
C 	C 	0.39900 0.27110 0.95950 -0.26600
H 	H 	0.35320 0.26910 0.98880 0.12000
H 	H 	0.45680 0.33220 0.98820 0.12300
H 	H 	0.37110 0.26270 0.90170 0.12700
C 	C 	0.75210 0.13600 0.97930 -0.22400
H 	H 	0.69440 0.07840 0.96790 0.11400
H 	H 	0.78680 0.12150 0.94250 0.10800
H 	H 	0.79250 0.16150 0.03780 0.10500
C 	C 	0.43530 0.94810 0.89440 -0.27500
H 	H 	0.45090 0.91820 0.93120 0.12700
H 	H 	0.41010 0.98830 0.92080 0.12400
H 	H 	0.38750 0.89950 0.84070 0.12000
C 	C 	0.65100 0.36440 0.88820 -0.26400
H 	H 	0.66290 0.42130 0.87720 0.11700
H 	H 	0.67650 0.38160 0.94850 0.12100
H 	H 	0.68220 0.33280 0.85940 0.11900
C 	C 	0.53720 0.15080 0.86930 -0.04200
C 	C 	0.51850 0.19700 0.81410 0.11200
C 	C 	0.46730 0.14960 0.73050 -0.08200
C 	C 	0.43870 0.05370 0.69390 0.00900
H 	H 	0.40430 0.02090 0.63560 0.03200
C 	C 	0.45860 0.00450 0.73960 -0.09000
C 	C 	0.50880 0.05410 0.82930 0.13100
C 	C 	0.43330 0.19550 0.67500 0.12100
C 	C 	0.49550 0.28320 0.67420 -0.15400
H 	H 	0.56080 0.31320 0.70670 0.09600
C 	C 	0.36300 0.28630 0.58300 -0.17100
C 	C 	0.30110 0.20250 0.59010 0.10400
H 	H 	0.23460 0.17760 0.56550 0.01200
C 	C 	0.33260 0.15580 0.63050 -0.17300
H 	H 	0.28860 0.09740 0.62930 0.09600
C 	C 	0.32720 0.33080 0.53660 0.35700
C 	C 	0.43930 0.90550 0.69930 0.12500
C 	C 	0.34640 0.83530 0.63650 -0.15900
H 	H 	0.29710 0.85140 0.62490 0.08800
C 	C 	0.33000 0.74010 0.59170 0.07500
H 	H 	0.26810 0.69280 0.55490 0.02000
C 	C 	0.40340 0.71840 0.60220 -0.14700
C 	C 	0.49280 0.78970 0.66350 0.10100
H 	H 	0.54370 0.77530 0.67190 0.01100
C 	C 	0.50900 0.87630 0.71030 -0.18100
H 	H 	0.56950 0.91900 0.75200 0.10600
C 	C 	0.38860 0.61970 0.55320 0.35900
C 	C 	0.49280 0.29020 0.14810 0.09300
C 	C 	0.39850 0.22100 0.13440 -0.13100
H 	H 	0.36920 0.16150 0.08920 0.08600
C 	C 	0.34850 0.24220 0.18930 0.03600
H 	H 	0.28740 0.19580 0.18260 0.03400
C 	C 	0.39360 0.33740 0.25640 -0.10900
C 	C 	0.48240 0.40110 0.26580 0.04900
H 	H 	0.50910 0.46250 0.30780 0.02200
C 	C 	0.53930 0.38250 0.21650 -0.13400
H 	H 	0.60300 0.42760 0.22810 0.08200
C 	C 	0.34090 0.35460 0.31400 0.28300
C 	C 	0.08340 0.37800 0.32380 0.27700
C 	C 	0.99050 0.34910 0.26730 -0.10000
C 	C 	0.90670 0.29960 0.28110 0.04200
H 	H 	0.91100 0.28050 0.32680 0.03400
C 	C 	0.81470 0.27630 0.23000 -0.13000
H 	H 	0.76000 0.24450 0.24310 0.07500
C 	C 	0.80530 0.30150 0.15810 0.08300
C 	C 	0.88870 0.33970 0.13400 -0.12400
H 	H 	0.88290 0.34610 0.08170 0.08400
C 	C 	0.98160 0.36810 0.19190 0.03100
H 	H 	0.03720 0.39960 0.17980 0.03700
C 	C 	0.46320 0.32850 0.62570 0.08400
H 	H 	0.50680 0.38410 0.62240 0.00800
Mn	Mn	0.50000 0.50000 0.50000 1.30900
