data_crystal

_cell_length_a 15.74400
_cell_length_b 18.34300
_cell_length_c 28.12100
_cell_angle_alpha 104.42200
_cell_angle_beta  92.25200
_cell_angle_gamma 108.12200

_symmetry_space_group_name_	'P 1'
_symmetry_space_group_name_H-M	'P 1'

loop_
_symmetry_equiv_pos_as_xyz
  x,y,z

loop_
_atom_site_label
_atom_site_type_symbol
_atom_site_fract_x
_atom_site_fract_y
_atom_site_fract_z
_atom_site_charge
Cd	Cd	0.52189 0.85982 0.27771 1.24700
Cd	Cd	0.87049 0.64948 0.24077 1.24900
O 	O 	0.63910 0.85780 0.22875 -0.31800
O 	O 	0.64690 0.97570 0.27590 -0.34400
O 	O 	0.97400 0.16250 0.13604 -0.16200
O 	O 	0.27070 0.14690 0.13545 -0.16400
O 	O 	0.09450 0.15020 0.03119 -0.16600
O 	O 	0.20210 0.30290 0.20142 -0.16000
O 	O 	0.21760 0.29170 0.82576 -0.48500
O 	O 	0.13480 0.37260 0.84120 -0.41400
O 	O 	0.40770 0.74320 0.24850 -0.37700
O 	O 	0.52110 0.69570 0.24900 -0.25500
O 	O 	0.46100 0.89620 0.21130 -0.34700
O 	O 	0.41700 0.92540 0.28525 -0.36800
O 	O 	0.82840 0.83000 0.26512 -0.22000
O 	O 	0.94090 0.77820 0.26550 -0.40300
O 	O 	0.15370 0.21520 0.32126 -0.15300
O 	O 	0.33470 0.35370 0.47640 -0.19400
C 	C 	0.30850 0.39650 0.51480 -0.12400
H 	H 	0.28090 0.43030 0.50370 0.06900
H 	H 	0.35990 0.42890 0.53880 0.07200
H 	H 	0.26590 0.36150 0.52950 0.07100
O 	O 	0.33230 0.19580 0.68324 -0.45000
O 	O 	0.43830 0.15200 0.64876 -0.43900
O 	O 	0.41540 0.34490 0.37610 -0.15800
O 	O 	0.12370 0.36930 0.38560 -0.16700
O 	O 	0.93860 0.63270 0.31610 -0.34000
O 	O 	0.98660 0.60350 0.24370 -0.37100
O 	O 	0.75440 0.53530 0.24780 -0.35500
O 	O 	0.73570 0.65340 0.27392 -0.31500
C 	C 	0.91080 0.83440 0.27390 0.33900
C 	C 	0.97790 0.91610 0.29690 -0.11700
C 	C 	0.95860 0.98440 0.29790 0.06000
H 	H 	0.90380 0.98040 0.28200 0.03200
C 	C 	0.01990 0.06010 0.32240 -0.14700
H 	H 	0.00730 0.10600 0.32110 0.09900
C 	C 	0.10040 0.06600 0.34890 0.11600
C 	C 	0.11930 0.99430 0.34570 -0.16200
H 	H 	0.17370 0.99700 0.36150 0.09100
C 	C 	0.06140 0.92310 0.32090 0.06800
H 	H 	0.07640 0.87750 0.31940 0.02400
C 	C 	0.16110 0.14200 0.38120 -0.09000
C 	C 	0.18650 0.21570 0.36880 0.12700
C 	C 	0.24250 0.28490 0.39950 -0.06200
C 	C 	0.27860 0.28510 0.44620 0.15600
C 	C 	0.25460 0.21460 0.46020 -0.13000
C 	C 	0.19660 0.14510 0.42840 0.02400
H 	H 	0.18050 0.09870 0.43860 0.02700
C 	C 	0.21180 0.20290 0.28470 -0.26000
H 	H 	0.18050 0.19280 0.25250 0.12600
H 	H 	0.22960 0.15790 0.28620 0.11700
H 	H 	0.26420 0.24960 0.29080 0.12300
C 	C 	0.28890 0.21060 0.51070 0.21600
C 	C 	0.24000 0.21260 0.54770 -0.25900
H 	H 	0.18440 0.21950 0.54330 0.12300
C 	C 	0.26820 0.20480 0.59300 0.16600
H 	H 	0.23340 0.20900 0.61890 -0.01400
C 	C 	0.34550 0.19140 0.59910 -0.20700
C 	C 	0.40260 0.19740 0.56480 0.14600
H 	H 	0.45950 0.19310 0.56950 -0.00500
C 	C 	0.36980 0.21060 0.52040 -0.24600
H 	H 	0.40940 0.21980 0.49720 0.12300
C 	C 	0.37440 0.17760 0.64820 0.42100
C 	C 	0.27010 0.35840 0.38270 -0.04100
C 	C 	0.35830 0.38670 0.37070 0.11700
C 	C 	0.38700 0.45380 0.35240 -0.07900
C 	C 	0.32250 0.48950 0.34580 -0.00800
H 	H 	0.33960 0.53350 0.33320 0.03800
C 	C 	0.23410 0.46360 0.35670 -0.08000
C 	C 	0.20930 0.39630 0.37460 0.12400
C 	C 	0.10590 0.37810 0.43370 -0.18000
H 	H 	0.13100 0.34590 0.44820 0.09300
H 	H 	0.04200 0.36150 0.43440 0.09200
H 	H 	0.13250 0.43310 0.45220 0.08400
C 	C 	0.49630 0.38750 0.40930 -0.23700
H 	H 	0.53500 0.35550 0.40610 0.11000
H 	H 	0.48210 0.39910 0.44260 0.11900
H 	H 	0.52640 0.43640 0.40150 0.10800
C 	C 	0.17120 0.50220 0.34230 0.11000
C 	C 	0.17480 0.51820 0.29540 -0.15000
H 	H 	0.21690 0.50580 0.27550 0.08900
C 	C 	0.11660 0.55180 0.27930 0.06000
H 	H 	0.11910 0.56130 0.24830 0.03000
C 	C 	0.05410 0.57190 0.30890 -0.10900
C 	C 	0.05090 0.55750 0.35510 0.05700
H 	H 	0.00980 0.57120 0.37530 0.02400
C 	C 	0.10890 0.52280 0.37110 -0.14200
H 	H 	0.10580 0.51310 0.40210 0.08600
C 	C 	0.98930 0.60560 0.28960 0.31200
C 	C 	0.47330 0.48280 0.33440 0.10000
C 	C 	0.50790 0.43290 0.30030 -0.14300
H 	H 	0.47830 0.37800 0.29140 0.08700
C 	C 	0.58310 0.46230 0.28010 0.04600
H 	H 	0.60420 0.42730 0.25780 0.03000
C 	C 	0.63120 0.54650 0.29210 -0.09500
C 	C 	0.59770 0.59510 0.32690 0.04700
H 	H 	0.62790 0.64980 0.33650 0.04500
C 	C 	0.52010 0.56440 0.34800 -0.14100
H 	H 	0.49960 0.59870 0.37120 0.08500
C 	C 	0.71170 0.57710 0.26910 0.29600
C 	C 	0.67650 0.93410 0.24260 0.30600
C 	C 	0.75480 0.96820 0.21800 -0.09900
C 	C 	0.78590 0.91870 0.18310 0.05700
H 	H 	0.75380 0.86440 0.17200 0.04700
C 	C 	0.86550 0.95040 0.16430 -0.15000
H 	H 	0.88550 0.91720 0.14010 0.08800
C 	C 	0.91490 0.03010 0.18120 0.11200
C 	C 	0.88100 0.07950 0.21450 -0.14800
H 	H 	0.91170 0.13410 0.22380 0.09300
C 	C 	0.80360 0.05060 0.23450 0.05200
H 	H 	0.78380 0.08460 0.25840 0.03000
C 	C 	0.00620 0.06040 0.16600 -0.08300
C 	C 	0.06870 0.02620 0.17580 -0.00300
H 	H 	0.05110 0.98270 0.18880 0.03700
C 	C 	0.15930 0.05510 0.16660 -0.08400
C 	C 	0.18310 0.11780 0.14690 0.11800
C 	C 	0.12190 0.15360 0.13610 -0.05000
C 	C 	0.03340 0.12380 0.14460 0.12000
C 	C 	0.90860 0.11980 0.09500 -0.22100
H 	H 	0.86820 0.14880 0.09220 0.10700
H 	H 	0.87540 0.06860 0.09910 0.10200
H 	H 	0.93750 0.11260 0.06550 0.11100
C 	C 	0.33600 0.19460 0.17610 -0.22600
H 	H 	0.39480 0.20580 0.16540 0.10700
H 	H 	0.33310 0.16670 0.20100 0.10400
H 	H 	0.32470 0.24370 0.18950 0.11200
C 	C 	0.15040 0.22610 0.11710 -0.04300
C 	C 	0.18830 0.29950 0.15070 0.11600
C 	C 	0.21240 0.37090 0.13720 -0.07700
C 	C 	0.19730 0.36510 0.08770 -0.00200
H 	H 	0.21190 0.41180 0.07790 0.03600
C 	C 	0.16110 0.29220 0.05140 -0.07900
C 	C 	0.13620 0.22100 0.06680 0.12300
C 	C 	0.13340 0.32030 0.22960 -0.26800
H 	H 	0.14760 0.32180 0.26340 0.13000
H 	H 	0.07640 0.27950 0.21600 0.12900
H 	H 	0.13000 0.37110 0.22810 0.12200
C 	C 	0.26310 0.44960 0.17040 0.10700
C 	C 	0.33870 0.46180 0.20280 -0.13900
H 	H 	0.35080 0.41810 0.20870 0.09100
C 	C 	0.39780 0.54020 0.22690 0.04900
H 	H 	0.45080 0.54800 0.24630 0.03500
C 	C 	0.37470 0.60510 0.22090 -0.11500
C 	C 	0.29490 0.59170 0.19230 0.06000
H 	H 	0.27770 0.63500 0.19020 0.03000
C 	C 	0.24000 0.51560 0.16660 -0.15100
H 	H 	0.18770 0.50840 0.14690 0.08800
C 	C 	0.43610 0.68570 0.24050 0.31400
C 	C 	0.15400 0.29360 0.99870 0.12900
C 	C 	0.11400 0.34220 0.98390 -0.17500
H 	H 	0.08350 0.36850 0.00590 0.09600
C 	C 	0.11760 0.35340 0.93690 0.08900
H 	H 	0.08840 0.38540 0.92740 0.01500
C 	C 	0.16610 0.31570 0.90360 -0.16500
C 	C 	0.20600 0.26430 0.91880 0.08900
H 	H 	0.23720 0.23820 0.89720 -0.01000
C 	C 	0.19920 0.25270 0.96490 -0.17000
H 	H 	0.22440 0.21770 0.97410 0.09400
C 	C 	0.17170 0.32730 0.85440 0.36600
C 	C 	0.22400 0.01770 0.18380 0.10600
C 	C 	0.28840 0.00050 0.15620 -0.14200
H 	H 	0.29180 0.00990 0.12520 0.09200
C 	C 	0.34960 0.96890 0.17420 0.04700
H 	H 	0.39170 0.95590 0.15450 0.03300
C 	C 	0.34790 0.95710 0.22030 -0.09700
C 	C 	0.28080 0.97410 0.24910 0.04800
H 	H 	0.27820 0.96620 0.28050 0.03100
C 	C 	0.21980 0.00240 0.23000 -0.14500
H 	H 	0.17440 0.01170 0.24830 0.08600
C 	C 	0.41470 0.92400 0.24020 0.31600
C 	C 	0.13690 0.08900 0.02300 -0.23600
H 	H 	0.14130 0.07130 0.98830 0.10200
H 	H 	0.10130 0.04480 0.03390 0.11100
H 	H 	0.19610 0.11060 0.04120 0.11500
La	La	0.32351 0.26539 0.76871 1.59900
Cd	Cd	0.47811 0.14018 0.72229 1.23800
Cd	Cd	0.12951 0.35052 0.75923 1.23900
O 	O 	0.36090 0.14220 0.77125 -0.51400
O 	O 	0.35310 0.02430 0.72410 -0.36800
O 	O 	0.02600 0.83750 0.86396 -0.16600
O 	O 	0.72930 0.85310 0.86455 -0.16700
O 	O 	0.90550 0.84980 0.96881 -0.16300
O 	O 	0.79790 0.69710 0.79858 -0.16100
O 	O 	0.78240 0.70830 0.17424 -0.25600
O 	O 	0.86520 0.62740 0.15880 -0.37600
O 	O 	0.59230 0.25680 0.75150 -0.41200
O 	O 	0.47890 0.30430 0.75100 -0.48100
O 	O 	0.53900 0.10380 0.78870 -0.35800
O 	O 	0.58300 0.07460 0.71475 -0.36800
O 	O 	0.17160 0.17000 0.73488 -0.41400
O 	O 	0.05910 0.22180 0.73450 -0.44100
O 	O 	0.84630 0.78480 0.67874 -0.15300
O 	O 	0.66530 0.64630 0.52360 -0.19200
C 	C 	0.69150 0.60350 0.48520 -0.12700
H 	H 	0.71910 0.56970 0.49630 0.07000
H 	H 	0.64010 0.57110 0.46120 0.07300
H 	H 	0.73410 0.63850 0.47050 0.07300
O 	O 	0.66770 0.80420 0.31676 -0.24900
O 	O 	0.56170 0.84800 0.35124 -0.40600
O 	O 	0.58460 0.65510 0.62390 -0.15900
O 	O 	0.87630 0.63070 0.61440 -0.16700
O 	O 	0.06140 0.36730 0.68390 -0.34100
O 	O 	0.01340 0.39650 0.75630 -0.37100
O 	O 	0.24560 0.46470 0.75220 -0.38600
O 	O 	0.26430 0.34660 0.72608 -0.50900
C 	C 	0.08920 0.16560 0.72610 0.39700
C 	C 	0.02210 0.08390 0.70310 -0.15500
C 	C 	0.04140 0.01560 0.70210 0.08700
H 	H 	0.09620 0.01960 0.71800 0.01700
C 	C 	0.98010 0.93990 0.67760 -0.16500
H 	H 	0.99270 0.89400 0.67890 0.10500
C 	C 	0.89960 0.93400 0.65110 0.12600
C 	C 	0.88070 0.00570 0.65430 -0.17800
H 	H 	0.82630 0.00300 0.63850 0.09700
C 	C 	0.93860 0.07690 0.67910 0.09500
H 	H 	0.92360 0.12250 0.68060 0.01500
C 	C 	0.83890 0.85800 0.61880 -0.09100
C 	C 	0.81350 0.78430 0.63120 0.12600
C 	C 	0.75750 0.71510 0.60050 -0.05900
C 	C 	0.72140 0.71490 0.55380 0.15000
C 	C 	0.74540 0.78540 0.53980 -0.11500
C 	C 	0.80340 0.85490 0.57160 0.01800
H 	H 	0.81950 0.90130 0.56140 0.02900
C 	C 	0.78820 0.79710 0.71530 -0.26000
H 	H 	0.81950 0.80720 0.74750 0.12500
H 	H 	0.77040 0.84210 0.71380 0.11600
H 	H 	0.73580 0.75040 0.70920 0.12200
C 	C 	0.71110 0.78940 0.48930 0.17900
C 	C 	0.76000 0.78740 0.45230 -0.21200
H 	H 	0.81560 0.78050 0.45670 0.10700
C 	C 	0.73180 0.79520 0.40700 0.10800
H 	H 	0.76660 0.79100 0.38110 0.01900
C 	C 	0.65450 0.80860 0.40090 -0.14200
C 	C 	0.59740 0.80260 0.43520 0.09700
H 	H 	0.54050 0.80690 0.43050 0.01300
C 	C 	0.63020 0.78940 0.47960 -0.20400
H 	H 	0.59060 0.78020 0.50280 0.11000
C 	C 	0.62560 0.82240 0.35180 0.34400
C 	C 	0.72990 0.64160 0.61730 -0.04400
C 	C 	0.64170 0.61330 0.62930 0.12100
C 	C 	0.61300 0.54620 0.64760 -0.08800
C 	C 	0.67750 0.51050 0.65420 -0.00200
H 	H 	0.66040 0.46650 0.66680 0.03600
C 	C 	0.76590 0.53640 0.64330 -0.08300
C 	C 	0.79070 0.60370 0.62540 0.12600
C 	C 	0.89410 0.62190 0.56630 -0.18000
H 	H 	0.86900 0.65410 0.55180 0.09300
H 	H 	0.95800 0.63850 0.56560 0.09300
H 	H 	0.86750 0.56690 0.54780 0.08400
C 	C 	0.50370 0.61250 0.59070 -0.23600
H 	H 	0.46500 0.64450 0.59390 0.11000
H 	H 	0.51790 0.60090 0.55740 0.11900
H 	H 	0.47360 0.56360 0.59850 0.10800
C 	C 	0.82880 0.49780 0.65770 0.11200
C 	C 	0.82520 0.48180 0.70460 -0.15100
H 	H 	0.78310 0.49420 0.72450 0.09000
C 	C 	0.88340 0.44820 0.72070 0.06000
H 	H 	0.88090 0.43870 0.75170 0.03000
C 	C 	0.94590 0.42810 0.69110 -0.10900
C 	C 	0.94910 0.44250 0.64490 0.05700
H 	H 	0.99020 0.42880 0.62470 0.02500
C 	C 	0.89110 0.47720 0.62890 -0.14300
H 	H 	0.89420 0.48690 0.59790 0.08700
C 	C 	0.01070 0.39440 0.71040 0.31100
C 	C 	0.52670 0.51720 0.66560 0.12000
C 	C 	0.49210 0.56710 0.69970 -0.17100
H 	H 	0.52170 0.62200 0.70860 0.09600
C 	C 	0.41690 0.53770 0.71990 0.07800
H 	H 	0.39580 0.57270 0.74220 0.01300
C 	C 	0.36880 0.45350 0.70790 -0.16000
C 	C 	0.40230 0.40490 0.67310 0.07700
H 	H 	0.37210 0.35020 0.66350 0.00800
C 	C 	0.47990 0.43560 0.65200 -0.16900
H 	H 	0.50040 0.40130 0.62880 0.09300
C 	C 	0.28830 0.42290 0.73090 0.33500
C 	C 	0.32350 0.06590 0.75740 0.36800
C 	C 	0.24520 0.03180 0.78200 -0.17800
C 	C 	0.21410 0.08130 0.81690 0.12800
H 	H 	0.24620 0.13560 0.82800 -0.03900
C 	C 	0.13450 0.04960 0.83570 -0.20600
H 	H 	0.11450 0.08280 0.85990 0.10500
C 	C 	0.08510 0.96990 0.81880 0.14700
C 	C 	0.11900 0.92050 0.78550 -0.19200
H 	H 	0.08830 0.86590 0.77620 0.10800
C 	C 	0.19640 0.94940 0.76550 0.10500
H 	H 	0.21620 0.91540 0.74160 0.01000
C 	C 	0.99380 0.93960 0.83400 -0.09700
C 	C 	0.93130 0.97380 0.82420 0.00400
H 	H 	0.94890 0.01730 0.81120 0.03500
C 	C 	0.84070 0.94490 0.83340 -0.09000
C 	C 	0.81690 0.88220 0.85310 0.12200
C 	C 	0.87810 0.84640 0.86390 -0.05400
C 	C 	0.96660 0.87620 0.85540 0.12800
C 	C 	0.09140 0.88020 0.90500 -0.21400
H 	H 	0.13180 0.85120 0.90780 0.10500
H 	H 	0.12460 0.93140 0.90090 0.09900
H 	H 	0.06250 0.88740 0.93450 0.10800
C 	C 	0.66400 0.80540 0.82390 -0.22100
H 	H 	0.60520 0.79420 0.83460 0.10400
H 	H 	0.66690 0.83330 0.79900 0.10200
H 	H 	0.67530 0.75630 0.81050 0.10900
C 	C 	0.84960 0.77390 0.88290 -0.04200
C 	C 	0.81170 0.70050 0.84930 0.11700
C 	C 	0.78760 0.62910 0.86280 -0.08500
C 	C 	0.80270 0.63490 0.91230 -0.00300
H 	H 	0.78810 0.58820 0.92210 0.03400
C 	C 	0.83890 0.70780 0.94860 -0.07300
C 	C 	0.86380 0.77900 0.93320 0.12000
C 	C 	0.86660 0.67970 0.77040 -0.26700
H 	H 	0.85240 0.67820 0.73660 0.13000
H 	H 	0.92360 0.72050 0.78400 0.12900
H 	H 	0.87000 0.62890 0.77190 0.12200
C 	C 	0.73690 0.55040 0.82960 0.12500
C 	C 	0.66130 0.53820 0.79720 -0.17000
H 	H 	0.64920 0.58190 0.79130 0.09700
C 	C 	0.60220 0.45980 0.77310 0.07900
H 	H 	0.54920 0.45200 0.75370 0.00300
C 	C 	0.62530 0.39490 0.77910 -0.17900
C 	C 	0.70510 0.40830 0.80770 0.09400
H 	H 	0.72230 0.36500 0.80980 0.01400
C 	C 	0.76000 0.48440 0.83340 -0.18000
H 	H 	0.81230 0.49160 0.85310 0.09700
C 	C 	0.56390 0.31430 0.75950 0.37900
C 	C 	0.84600 0.70640 0.00130 0.10700
C 	C 	0.88600 0.65780 0.01610 -0.14000
H 	H 	0.91650 0.63150 0.99410 0.08300
C 	C 	0.88240 0.64660 0.06310 0.04700
H 	H 	0.91160 0.61460 0.07260 0.03200
C 	C 	0.83390 0.68430 0.09640 -0.10100
C 	C 	0.79400 0.73570 0.08120 0.04600
H 	H 	0.76280 0.76180 0.10280 0.03300
C 	C 	0.80080 0.74730 0.03510 -0.13400
H 	H 	0.77560 0.78230 0.02590 0.08500
C 	C 	0.82830 0.67270 0.14560 0.29500
C 	C 	0.77600 0.98230 0.81620 0.11200
C 	C 	0.71160 0.99950 0.84380 -0.15100
H 	H 	0.70820 0.99010 0.87480 0.09400
C 	C 	0.65040 0.03110 0.82580 0.05600
H 	H 	0.60830 0.04410 0.84550 0.02800
C 	C 	0.65210 0.04290 0.77970 -0.10400
C 	C 	0.71920 0.02590 0.75090 0.05700
H 	H 	0.72180 0.03380 0.71950 0.02800
C 	C 	0.78020 0.99760 0.77000 -0.15400
H 	H 	0.82560 0.98830 0.75170 0.08800
C 	C 	0.58530 0.07600 0.75980 0.32100
C 	C 	0.86310 0.91100 0.97700 -0.24400
H 	H 	0.85870 0.92870 0.01170 0.10700
H 	H 	0.89870 0.95520 0.96610 0.11300
H 	H 	0.80390 0.88940 0.95880 0.11700
