data_crystal

_cell_length_a 15.78500
_cell_length_b 18.27500
_cell_length_c 28.06600
_cell_angle_alpha 104.47800
_cell_angle_beta  92.04800
_cell_angle_gamma 107.86000

_symmetry_space_group_name_	'P 1'
_symmetry_space_group_name_H-M	'P 1'

loop_
_symmetry_equiv_pos_as_xyz
  x,y,z

loop_
_atom_site_label
_atom_site_type_symbol
_atom_site_fract_x
_atom_site_fract_y
_atom_site_fract_z
_atom_site_charge
C 	C 	0.94460 0.18570 0.24070 0.45500
C 	C 	0.87760 0.10450 0.21960 -0.21000
C 	C 	0.79940 0.09340 0.19150 0.11800
H 	H 	0.78390 0.13760 0.18910 0.00200
C 	C 	0.74280 0.01700 0.16670 -0.20200
H 	H 	0.69090 0.01070 0.14710 0.10300
C 	C 	0.76340 0.95020 0.17090 0.14200
C 	C 	0.84010 0.96140 0.20180 -0.19500
H 	H 	0.85250 0.91700 0.20670 0.10400
C 	C 	0.89910 0.03820 0.22570 0.10600
H 	H 	0.95130 0.04490 0.24520 -0.01200
C 	C 	0.71480 0.87060 0.13670 -0.10400
C 	C 	0.69910 0.86490 0.08680 0.02000
H 	H 	0.71310 0.91160 0.07670 0.02200
C 	C 	0.66350 0.79270 0.05170 -0.10500
C 	C 	0.63900 0.72140 0.06640 0.13400
C 	C 	0.65270 0.72700 0.11780 -0.05300
C 	C 	0.69000 0.79970 0.15060 0.13100
C 	C 	0.65680 0.79300 0.99890 0.16000
C 	C 	0.61610 0.84160 0.98300 -0.21600
H 	H 	0.58550 0.86870 0.00470 0.10700
C 	C 	0.62030 0.85040 0.93630 0.13900
H 	H 	0.59080 0.88190 0.92630 -0.00500
C 	C 	0.66820 0.81300 0.90310 -0.22800
C 	C 	0.70780 0.76390 0.91770 0.14300
H 	H 	0.73920 0.73790 0.89590 -0.03600
C 	C 	0.70150 0.75250 0.96510 -0.21500
H 	H 	0.72710 0.71780 0.97420 0.10700
C 	C 	0.67360 0.82540 0.85340 0.44600
C 	C 	0.63660 0.59010 0.02380 -0.18900
H 	H 	0.59960 0.54620 0.03460 0.09500
H 	H 	0.69510 0.61030 0.04240 0.09800
H 	H 	0.64170 0.57210 0.98920 0.08800
C 	C 	0.63300 0.82210 0.22780 -0.25300
H 	H 	0.64690 0.82740 0.26240 0.11900
H 	H 	0.57700 0.78030 0.21520 0.12000
H 	H 	0.62870 0.87160 0.22380 0.11500
C 	C 	0.41100 0.61900 0.09460 -0.21200
H 	H 	0.37330 0.64990 0.09020 0.10200
H 	H 	0.37510 0.56950 0.09990 0.09800
H 	H 	0.44020 0.60820 0.06550 0.10700
C 	C 	0.83930 0.69640 0.17700 -0.21900
H 	H 	0.89580 0.71590 0.16500 0.10100
H 	H 	0.84500 0.66520 0.19910 0.10200
H 	H 	0.82180 0.74080 0.19440 0.10800
C 	C 	0.62280 0.65300 0.13560 -0.04900
C 	C 	0.53540 0.62430 0.14510 0.12500
C 	C 	0.50940 0.55920 0.16550 -0.09800
C 	C 	0.57230 0.52700 0.17620 0.00800
H 	H 	0.55490 0.48490 0.19050 0.03300
C 	C 	0.66150 0.55320 0.16690 -0.09200
C 	C 	0.68620 0.61780 0.14660 0.11900
C 	C 	0.41730 0.52920 0.18070 0.14600
C 	C 	0.37100 0.44730 0.16480 -0.21800
H 	H 	0.39290 0.41300 0.14220 0.10800
C 	C 	0.29060 0.41830 0.18400 0.15500
H 	H 	0.25730 0.36430 0.17260 -0.05300
C 	C 	0.38210 0.57970 0.21380 -0.19700
H 	H 	0.41140 0.63460 0.22270 0.10600
C 	C 	0.30510 0.54960 0.23350 0.11500
H 	H 	0.28290 0.58350 0.25630 0.00300
C 	C 	0.26020 0.46700 0.21870 -0.20200
C 	C 	0.18240 0.43680 0.24350 0.37000
C 	C 	0.72600 0.51760 0.18380 0.11800
C 	C 	0.72460 0.50220 0.22950 -0.16600
H 	H 	0.68000 0.51210 0.24840 0.09100
C 	C 	0.78390 0.47370 0.24890 0.07500
H 	H 	0.78110 0.46590 0.28030 0.02000
C 	C 	0.84980 0.45650 0.21980 -0.12700
C 	C 	0.85390 0.47040 0.17360 0.07200
H 	H 	0.89740 0.45900 0.15430 0.01900
C 	C 	0.79390 0.50110 0.15620 -0.15900
H 	H 	0.79820 0.51130 0.12540 0.09600
C 	C 	0.91400 0.42350 0.23830 0.32100
C 	C 	0.20780 0.07510 0.27010 0.34000
C 	C 	0.12700 0.04740 0.29210 -0.20500
C 	C 	0.09590 0.09370 0.32630 0.14400
H 	H 	0.12640 0.14840 0.33620 -0.01900
C 	C 	0.02170 0.06480 0.34750 -0.21200
H 	H 	0.00190 0.09950 0.37110 0.10700
C 	C 	0.97360 0.98080 0.33370 0.14200
C 	C 	0.00830 0.93130 0.30010 -0.19800
H 	H 	0.97930 0.87640 0.29120 0.10500
C 	C 	0.08380 0.96130 0.27970 0.10000
H 	H 	0.10750 0.92720 0.25810 0.00100
C 	C 	0.88720 0.95220 0.35090 -0.09800
C 	C 	0.82050 0.98890 0.34490 0.00500
H 	H 	0.83730 0.03330 0.33260 0.03300
C 	C 	0.73530 0.96430 0.35570 -0.08800
C 	C 	0.71100 0.89860 0.37550 0.11800
C 	C 	0.77190 0.85910 0.38240 -0.04100
C 	C 	0.85860 0.88750 0.37140 0.12200
C 	C 	0.99450 0.88630 0.40920 -0.22900
H 	H 	0.02590 0.85030 0.41290 0.10800
H 	H 	0.97910 0.91000 0.44080 0.11400
H 	H 	0.03210 0.92750 0.39650 0.10500
C 	C 	0.54360 0.83110 0.35570 -0.21000
H 	H 	0.53840 0.86040 0.33230 0.09900
H 	H 	0.49430 0.82700 0.37500 0.10200
H 	H 	0.54270 0.77840 0.33820 0.10900
C 	C 	0.67210 0.00300 0.34220 0.12300
C 	C 	0.67590 0.01860 0.29590 -0.16300
H 	H 	0.71890 0.00670 0.27640 0.09300
C 	C 	0.61660 0.05180 0.27830 0.06700
H 	H 	0.61910 0.05970 0.24680 0.02600
C 	C 	0.55320 0.07320 0.30790 -0.12700
C 	C 	0.55180 0.05700 0.35470 0.07200
H 	H 	0.50950 0.06860 0.37480 0.02000
C 	C 	0.61140 0.02470 0.37130 -0.16700
H 	H 	0.61020 0.01740 0.40290 0.09900
C 	C 	0.70910 0.70200 0.28470 -0.23900
H 	H 	0.67890 0.69570 0.25290 0.11900
H 	H 	0.72350 0.65460 0.28450 0.11000
H 	H 	0.76330 0.74700 0.29160 0.11600
C 	C 	0.81130 0.90450 0.50940 -0.11000
H 	H 	0.76600 0.91970 0.49450 0.07400
H 	H 	0.86240 0.95120 0.52380 0.06600
H 	H 	0.78790 0.88000 0.53480 0.07200
C 	C 	0.74100 0.78430 0.39850 -0.05900
C 	C 	0.68550 0.71370 0.36730 0.14000
C 	C 	0.65990 0.64160 0.37970 -0.10300
C 	C 	0.69510 0.64430 0.42810 0.02700
H 	H 	0.67860 0.59770 0.43830 0.02600
C 	C 	0.75370 0.71450 0.46050 -0.13000
C 	C 	0.77660 0.78470 0.44570 0.15500
C 	C 	0.78670 0.70990 0.51060 0.22800
C 	C 	0.86970 0.71070 0.52060 -0.27500
H 	H 	0.90960 0.71960 0.49740 0.13400
C 	C 	0.89970 0.69860 0.56440 0.19300
H 	H 	0.95680 0.69500 0.56910 -0.02300
C 	C 	0.84420 0.69220 0.60020 -0.26700
C 	C 	0.76570 0.70360 0.59310 0.20500
H 	H 	0.73040 0.70640 0.61880 -0.02900
C 	C 	0.73530 0.71130 0.54750 -0.28000
H 	H 	0.67950 0.71740 0.54290 0.13400
C 	C 	0.87260 0.68000 0.64770 0.48500
C 	C 	0.59950 0.56640 0.34900 0.13200
C 	C 	0.51640 0.56070 0.32470 -0.17300
H 	H 	0.50170 0.60640 0.32520 0.10200
C 	C 	0.45740 0.48540 0.30000 0.09900
H 	H 	0.40460 0.48260 0.28280 0.01100
C 	C 	0.47150 0.41660 0.29940 -0.15600
C 	C 	0.55840 0.42120 0.32090 0.07700
H 	H 	0.57440 0.37540 0.31760 0.02000
C 	C 	0.61700 0.49570 0.34650 -0.17100
H 	H 	0.67080 0.49850 0.36280 0.09400
C 	C 	0.40620 0.33380 0.27460 0.41700
C 	C 	0.49100 0.10520 0.28920 0.31200
O 	O 	0.02500 0.19250 0.24770 -0.59200
O 	O 	0.91650 0.24470 0.24730 -0.44000
O 	O 	0.92140 0.42530 0.28470 -0.36500
O 	O 	0.96460 0.39750 0.21100 -0.35700
O 	O 	0.14970 0.47550 0.27640 -0.37600
O 	O 	0.14400 0.35470 0.22952 -0.56800
O 	O 	0.23540 0.15680 0.27410 -0.56700
O 	O 	0.25400 0.03710 0.24820 -0.39700
O 	O 	0.72000 0.78890 0.82470 -0.58500
O 	O 	0.63530 0.86760 0.83990 -0.45500
O 	O 	0.32430 0.32970 0.26597 -0.48300
O 	O 	0.43880 0.27750 0.26490 -0.44300
O 	O 	0.48540 0.10260 0.24310 -0.37100
O 	O 	0.43660 0.13220 0.31520 -0.33800
O 	O 	0.93630 0.65240 0.64880 -0.45200
O 	O 	0.83230 0.69850 0.68380 -0.53100
O 	O 	0.47570 0.66210 0.13570 -0.16700
O 	O 	0.77360 0.64830 0.13650 -0.16800
O 	O 	0.59840 0.64980 0.03140 -0.17500
O 	O 	0.70310 0.80270 0.20100 -0.16800
O 	O 	0.65270 0.71520 0.32160 -0.16900
O 	O 	0.83530 0.85430 0.47600 -0.19200
O 	O 	0.62340 0.87050 0.38670 -0.16000
O 	O 	0.91540 0.84380 0.37580 -0.15900
Nd	Nd	0.17786 0.23449 0.23224 2.09400
Cd	Cd	0.36935 0.14893 0.24110 1.23900
Cd	Cd	0.02574 0.36105 0.27778 1.23800
C 	C 	0.05540 0.81430 0.75930 0.45500
C 	C 	0.12240 0.89550 0.78040 -0.21000
C 	C 	0.20060 0.90660 0.80850 0.11800
H 	H 	0.21610 0.86240 0.81090 0.00200
C 	C 	0.25720 0.98300 0.83330 -0.20200
H 	H 	0.30910 0.98930 0.85290 0.10300
C 	C 	0.23660 0.04980 0.82910 0.14200
C 	C 	0.15990 0.03860 0.79820 -0.19500
H 	H 	0.14750 0.08300 0.79330 0.10400
C 	C 	0.10090 0.96180 0.77430 0.10600
H 	H 	0.04870 0.95510 0.75480 -0.01200
C 	C 	0.28520 0.12940 0.86330 -0.10400
C 	C 	0.30090 0.13510 0.91320 0.02000
H 	H 	0.28690 0.08840 0.92330 0.02200
C 	C 	0.33650 0.20730 0.94830 -0.10500
C 	C 	0.36100 0.27860 0.93360 0.13400
C 	C 	0.34730 0.27300 0.88220 -0.05300
C 	C 	0.31000 0.20030 0.84940 0.13100
C 	C 	0.34320 0.20700 0.00110 0.16000
C 	C 	0.38390 0.15840 0.01700 -0.21600
H 	H 	0.41450 0.13130 0.99530 0.10700
C 	C 	0.37970 0.14960 0.06370 0.13900
H 	H 	0.40920 0.11810 0.07370 -0.00500
C 	C 	0.33180 0.18700 0.09690 -0.22800
C 	C 	0.29220 0.23610 0.08230 0.14300
H 	H 	0.26080 0.26210 0.10410 -0.03600
C 	C 	0.29850 0.24750 0.03490 -0.21500
H 	H 	0.27290 0.28220 0.02580 0.10700
C 	C 	0.32640 0.17460 0.14660 0.44600
C 	C 	0.36340 0.40990 0.97620 -0.18900
H 	H 	0.40040 0.45380 0.96540 0.09500
H 	H 	0.30490 0.38970 0.95760 0.09800
H 	H 	0.35830 0.42790 0.01080 0.08800
C 	C 	0.36700 0.17790 0.77220 -0.25300
H 	H 	0.35310 0.17260 0.73760 0.11900
H 	H 	0.42300 0.21970 0.78480 0.12000
H 	H 	0.37130 0.12840 0.77620 0.11500
C 	C 	0.58900 0.38100 0.90540 -0.21200
H 	H 	0.62670 0.35010 0.90980 0.10200
H 	H 	0.62490 0.43050 0.90010 0.09800
H 	H 	0.55980 0.39180 0.93450 0.10700
C 	C 	0.16070 0.30360 0.82300 -0.21900
H 	H 	0.10420 0.28410 0.83500 0.10100
H 	H 	0.15500 0.33480 0.80090 0.10200
H 	H 	0.17820 0.25920 0.80560 0.10800
C 	C 	0.37720 0.34700 0.86440 -0.04900
C 	C 	0.46460 0.37570 0.85490 0.12500
C 	C 	0.49060 0.44080 0.83450 -0.09800
C 	C 	0.42770 0.47300 0.82380 0.00800
H 	H 	0.44510 0.51510 0.80950 0.03300
C 	C 	0.33850 0.44680 0.83310 -0.09200
C 	C 	0.31380 0.38220 0.85340 0.11900
C 	C 	0.58270 0.47080 0.81930 0.14600
C 	C 	0.62900 0.55270 0.83520 -0.21800
H 	H 	0.60710 0.58700 0.85780 0.10800
C 	C 	0.70940 0.58170 0.81600 0.15500
H 	H 	0.74270 0.63570 0.82740 -0.05300
C 	C 	0.61790 0.42030 0.78620 -0.19700
H 	H 	0.58860 0.36540 0.77730 0.10600
C 	C 	0.69490 0.45040 0.76650 0.11500
H 	H 	0.71710 0.41650 0.74370 0.00300
C 	C 	0.73980 0.53300 0.78130 -0.20200
C 	C 	0.81760 0.56320 0.75650 0.37000
C 	C 	0.27400 0.48240 0.81620 0.11800
C 	C 	0.27540 0.49780 0.77050 -0.16600
H 	H 	0.32000 0.48790 0.75160 0.09100
C 	C 	0.21610 0.52630 0.75110 0.07500
H 	H 	0.21890 0.53410 0.71970 0.02000
C 	C 	0.15020 0.54350 0.78020 -0.12700
C 	C 	0.14610 0.52960 0.82640 0.07200
H 	H 	0.10260 0.54100 0.84570 0.01900
C 	C 	0.20610 0.49890 0.84380 -0.15900
H 	H 	0.20180 0.48870 0.87460 0.09600
C 	C 	0.08600 0.57650 0.76170 0.32100
C 	C 	0.79220 0.92490 0.72990 0.34000
C 	C 	0.87300 0.95260 0.70790 -0.20500
C 	C 	0.90410 0.90630 0.67370 0.14400
H 	H 	0.87360 0.85160 0.66380 -0.01900
C 	C 	0.97830 0.93520 0.65250 -0.21200
H 	H 	0.99810 0.90050 0.62890 0.10700
C 	C 	0.02640 0.01920 0.66630 0.14200
C 	C 	0.99170 0.06870 0.69990 -0.19800
H 	H 	0.02070 0.12360 0.70880 0.10500
C 	C 	0.91620 0.03870 0.72030 0.10000
H 	H 	0.89250 0.07280 0.74190 0.00100
C 	C 	0.11280 0.04780 0.64910 -0.09800
C 	C 	0.17950 0.01110 0.65510 0.00500
H 	H 	0.16270 0.96670 0.66740 0.03300
C 	C 	0.26470 0.03570 0.64430 -0.08800
C 	C 	0.28900 0.10140 0.62450 0.11800
C 	C 	0.22810 0.14090 0.61760 -0.04100
C 	C 	0.14140 0.11250 0.62860 0.12200
C 	C 	0.00550 0.11370 0.59080 -0.22900
H 	H 	0.97410 0.14970 0.58710 0.10800
H 	H 	0.02090 0.09000 0.55920 0.11400
H 	H 	0.96790 0.07250 0.60350 0.10500
C 	C 	0.45640 0.16890 0.64430 -0.21000
H 	H 	0.46160 0.13960 0.66770 0.09900
H 	H 	0.50570 0.17300 0.62500 0.10200
H 	H 	0.45730 0.22160 0.66180 0.10900
C 	C 	0.32790 0.99700 0.65780 0.12300
C 	C 	0.32410 0.98140 0.70410 -0.16300
H 	H 	0.28110 0.99330 0.72360 0.09300
C 	C 	0.38340 0.94820 0.72170 0.06700
H 	H 	0.38090 0.94030 0.75320 0.02600
C 	C 	0.44680 0.92680 0.69210 -0.12700
C 	C 	0.44820 0.94300 0.64530 0.07200
H 	H 	0.49050 0.93140 0.62520 0.02000
C 	C 	0.38860 0.97530 0.62870 -0.16700
H 	H 	0.38980 0.98260 0.59710 0.09900
C 	C 	0.29090 0.29800 0.71530 -0.23900
H 	H 	0.32110 0.30430 0.74710 0.11900
H 	H 	0.27650 0.34540 0.71550 0.11000
H 	H 	0.23670 0.25300 0.70840 0.11600
C 	C 	0.18870 0.09550 0.49060 -0.11000
H 	H 	0.23400 0.08030 0.50550 0.07400
H 	H 	0.13760 0.04880 0.47620 0.06600
H 	H 	0.21210 0.12000 0.46520 0.07200
C 	C 	0.25900 0.21570 0.60150 -0.05900
C 	C 	0.31450 0.28630 0.63270 0.14000
C 	C 	0.34010 0.35840 0.62030 -0.10300
C 	C 	0.30490 0.35570 0.57190 0.02700
H 	H 	0.32140 0.40230 0.56170 0.02600
C 	C 	0.24630 0.28550 0.53950 -0.13000
C 	C 	0.22340 0.21530 0.55430 0.15500
C 	C 	0.21330 0.29010 0.48940 0.22800
C 	C 	0.13030 0.28930 0.47940 -0.27500
H 	H 	0.09040 0.28040 0.50260 0.13400
C 	C 	0.10030 0.30140 0.43560 0.19300
H 	H 	0.04320 0.30500 0.43090 -0.02300
C 	C 	0.15580 0.30780 0.39980 -0.26700
C 	C 	0.23430 0.29640 0.40690 0.20500
H 	H 	0.26960 0.29360 0.38120 -0.02900
C 	C 	0.26470 0.28870 0.45250 -0.28000
H 	H 	0.32050 0.28260 0.45710 0.13400
C 	C 	0.12740 0.32000 0.35230 0.48500
C 	C 	0.40050 0.43360 0.65100 0.13200
C 	C 	0.48360 0.43930 0.67530 -0.17300
H 	H 	0.49830 0.39360 0.67480 0.10200
C 	C 	0.54260 0.51460 0.70000 0.09900
H 	H 	0.59540 0.51740 0.71720 0.01100
C 	C 	0.52850 0.58340 0.70060 -0.15600
C 	C 	0.44160 0.57880 0.67910 0.07700
H 	H 	0.42560 0.62460 0.68240 0.02000
C 	C 	0.38300 0.50430 0.65350 -0.17100
H 	H 	0.32920 0.50150 0.63720 0.09400
C 	C 	0.59380 0.66620 0.72540 0.41700
C 	C 	0.50900 0.89480 0.71080 0.31200
O 	O 	0.97500 0.80750 0.75230 -0.59200
O 	O 	0.08350 0.75530 0.75270 -0.44000
O 	O 	0.07860 0.57470 0.71530 -0.36500
O 	O 	0.03540 0.60250 0.78900 -0.35700
O 	O 	0.85030 0.52450 0.72360 -0.37600
O 	O 	0.85600 0.64530 0.77048 -0.56800
O 	O 	0.76460 0.84320 0.72590 -0.56700
O 	O 	0.74600 0.96290 0.75180 -0.39700
O 	O 	0.28000 0.21110 0.17530 -0.58500
O 	O 	0.36470 0.13240 0.16010 -0.45500
O 	O 	0.67570 0.67030 0.73403 -0.48300
O 	O 	0.56120 0.72250 0.73510 -0.44300
O 	O 	0.51460 0.89740 0.75690 -0.37100
O 	O 	0.56340 0.86780 0.68480 -0.33800
O 	O 	0.06370 0.34760 0.35120 -0.45200
O 	O 	0.16770 0.30150 0.31620 -0.53100
O 	O 	0.52430 0.33790 0.86430 -0.16700
O 	O 	0.22640 0.35170 0.86350 -0.16800
O 	O 	0.40160 0.35020 0.96860 -0.17500
O 	O 	0.29690 0.19730 0.79900 -0.16800
O 	O 	0.34730 0.28480 0.67840 -0.16900
O 	O 	0.16470 0.14570 0.52400 -0.19200
O 	O 	0.37660 0.12950 0.61330 -0.16000
O 	O 	0.08460 0.15620 0.62420 -0.15900
Nd	Nd	0.82214 0.76551 0.76776 2.09400
Cd	Cd	0.63065 0.85107 0.75890 1.23900
Cd	Cd	0.97426 0.63895 0.72222 1.23800
