data_crystal

_cell_length_a 18.65100
_cell_length_b 18.65100
_cell_length_c 18.65100
_cell_angle_alpha 60.00000
_cell_angle_beta  60.00000
_cell_angle_gamma 60.00000

_symmetry_space_group_name_	'P 1'
_symmetry_space_group_name_H-M	'P 1'

loop_
_symmetry_equiv_pos_as_xyz
  x,y,z

loop_
_atom_site_label
_atom_site_type_symbol
_atom_site_fract_x
_atom_site_fract_y
_atom_site_fract_z
_atom_site_charge
Cu	Cu	0.06986 0.50000 0.50000 0.90300
Cu	Cu	0.50000 0.06986 0.93014 0.90300
Cu	Cu	0.50000 0.93014 0.06986 0.90300
Cu	Cu	0.93014 0.50000 0.50000 0.90300
Cu	Cu	0.06986 0.50000 0.93014 0.90300
Cu	Cu	0.50000 0.93014 0.50000 0.90300
Cu	Cu	0.50000 0.06986 0.50000 0.90300
Cu	Cu	0.93014 0.50000 0.06986 0.90300
Cu	Cu	0.06986 0.93014 0.50000 0.90300
Cu	Cu	0.50000 0.50000 0.06986 0.90300
Cu	Cu	0.50000 0.50000 0.93014 0.90300
Cu	Cu	0.93014 0.06986 0.50000 0.90300
H 	H 	0.77260 0.46740 0.77260 0.04200
H 	H 	0.46740 0.77260 0.98740 0.04100
H 	H 	0.77260 0.98740 0.77260 0.04200
H 	H 	0.98740 0.77260 0.46740 0.04100
H 	H 	0.77260 0.77260 0.98740 0.04200
H 	H 	0.46740 0.98740 0.77260 0.04100
H 	H 	0.77260 0.77260 0.46740 0.04200
H 	H 	0.98740 0.46740 0.77260 0.04100
H 	H 	0.77260 0.98740 0.46740 0.04100
H 	H 	0.46740 0.77260 0.77260 0.04200
H 	H 	0.77260 0.46740 0.98740 0.04100
H 	H 	0.98740 0.77260 0.77260 0.04200
H 	H 	0.53260 0.22740 0.22740 0.04200
H 	H 	0.22740 0.53260 0.01260 0.04100
H 	H 	0.01260 0.22740 0.22740 0.04200
H 	H 	0.22740 0.01260 0.53260 0.04100
H 	H 	0.22740 0.22740 0.01260 0.04200
H 	H 	0.01260 0.53260 0.22740 0.04100
H 	H 	0.22740 0.22740 0.53260 0.04200
H 	H 	0.53260 0.01260 0.22740 0.04100
H 	H 	0.01260 0.22740 0.53260 0.04100
H 	H 	0.22740 0.53260 0.22740 0.04200
H 	H 	0.53260 0.22740 0.01260 0.04100
H 	H 	0.22740 0.01260 0.22740 0.04200
C 	C 	0.93090 0.47426 0.66394 0.36600
C 	C 	0.88740 0.46712 0.75808 -0.12200
C 	C 	0.47426 0.93090 0.93090 0.35400
C 	C 	0.46712 0.88740 0.88740 -0.11900
C 	C 	0.66394 0.93090 0.93090 0.34500
C 	C 	0.75808 0.88740 0.88740 -0.11400
C 	C 	0.93090 0.66394 0.47426 0.36600
C 	C 	0.88740 0.75808 0.46712 -0.12200
C 	C 	0.93090 0.66394 0.93090 0.34500
C 	C 	0.88740 0.75808 0.88740 -0.11400
C 	C 	0.47426 0.93090 0.66394 0.36600
C 	C 	0.46712 0.88740 0.75808 -0.12200
C 	C 	0.66394 0.93090 0.47426 0.36600
C 	C 	0.75808 0.88740 0.46712 -0.12200
C 	C 	0.93090 0.47426 0.93090 0.35400
C 	C 	0.88740 0.46712 0.88740 -0.11900
C 	C 	0.93090 0.93090 0.47426 0.35400
C 	C 	0.88740 0.88740 0.46712 -0.11900
C 	C 	0.47426 0.66394 0.93090 0.36600
C 	C 	0.46712 0.75808 0.88740 -0.12200
C 	C 	0.66394 0.47426 0.93090 0.36600
C 	C 	0.75808 0.46712 0.88740 -0.12200
C 	C 	0.93090 0.93090 0.66394 0.34500
C 	C 	0.88740 0.88740 0.75808 -0.11400
C 	C 	0.52574 0.06910 0.33606 0.36600
C 	C 	0.53288 0.11260 0.24192 -0.12200
C 	C 	0.06910 0.52574 0.06910 0.35400
C 	C 	0.11260 0.53288 0.11260 -0.11900
C 	C 	0.06910 0.33606 0.06910 0.34500
C 	C 	0.11260 0.24192 0.11260 -0.11400
C 	C 	0.33606 0.06910 0.52574 0.36600
C 	C 	0.24192 0.11260 0.53288 -0.12200
C 	C 	0.33606 0.06910 0.06910 0.34500
C 	C 	0.24192 0.11260 0.11260 -0.11400
C 	C 	0.06910 0.52574 0.33606 0.36600
C 	C 	0.11260 0.53288 0.24192 -0.12200
C 	C 	0.06910 0.33606 0.52574 0.36600
C 	C 	0.11260 0.24192 0.53288 -0.12200
C 	C 	0.52574 0.06910 0.06910 0.35400
C 	C 	0.53288 0.11260 0.11260 -0.11900
C 	C 	0.06910 0.06910 0.52574 0.35400
C 	C 	0.11260 0.11260 0.53288 -0.11900
C 	C 	0.33606 0.52574 0.06910 0.36600
C 	C 	0.24192 0.53288 0.11260 -0.12200
C 	C 	0.52574 0.33606 0.06910 0.36600
C 	C 	0.53288 0.24192 0.11260 -0.12200
C 	C 	0.06910 0.06910 0.33606 0.34500
C 	C 	0.11260 0.11260 0.24192 -0.11400
C 	C 	0.80150 0.46722 0.80150 0.06700
C 	C 	0.46722 0.80150 0.92978 0.06500
C 	C 	0.80150 0.92978 0.80150 0.05700
C 	C 	0.92978 0.80150 0.46722 0.06500
C 	C 	0.80150 0.80150 0.92978 0.05700
C 	C 	0.46722 0.92978 0.80150 0.06500
C 	C 	0.80150 0.80150 0.46722 0.06700
C 	C 	0.92978 0.46722 0.80150 0.06500
C 	C 	0.80150 0.92978 0.46722 0.06500
C 	C 	0.46722 0.80150 0.80150 0.06700
C 	C 	0.80150 0.46722 0.92978 0.06500
C 	C 	0.92978 0.80150 0.80150 0.05700
C 	C 	0.53278 0.19850 0.19850 0.06700
C 	C 	0.19850 0.53278 0.07022 0.06500
C 	C 	0.07022 0.19850 0.19850 0.05700
C 	C 	0.19850 0.07022 0.53278 0.06500
C 	C 	0.19850 0.19850 0.07022 0.05700
C 	C 	0.07022 0.53278 0.19850 0.06500
C 	C 	0.19850 0.19850 0.53278 0.06700
C 	C 	0.53278 0.07022 0.19850 0.06500
C 	C 	0.07022 0.19850 0.53278 0.06500
C 	C 	0.19850 0.53278 0.19850 0.06700
C 	C 	0.53278 0.19850 0.07022 0.06500
C 	C 	0.19850 0.07022 0.19850 0.05700
O 	O 	0.00740 0.47868 0.62646 -0.40100
O 	O 	0.47868 0.00740 0.88746 -0.39500
O 	O 	0.62646 0.88746 0.00740 -0.39100
O 	O 	0.88746 0.62646 0.47868 -0.40300
O 	O 	0.00740 0.62646 0.88746 -0.39100
O 	O 	0.47868 0.88746 0.62646 -0.40300
O 	O 	0.62646 0.00740 0.47868 -0.40100
O 	O 	0.88746 0.47868 0.00740 -0.39500
O 	O 	0.00740 0.88746 0.47868 -0.39500
O 	O 	0.47868 0.62646 0.00740 -0.40100
O 	O 	0.62646 0.47868 0.88746 -0.40300
O 	O 	0.88746 0.00740 0.62646 -0.39100
O 	O 	0.52132 0.99260 0.37354 -0.40100
O 	O 	0.99260 0.52132 0.11254 -0.39500
O 	O 	0.11254 0.37354 0.99260 -0.39100
O 	O 	0.37354 0.11254 0.52132 -0.40300
O 	O 	0.37354 0.99260 0.11254 -0.39100
O 	O 	0.11254 0.52132 0.37354 -0.40300
O 	O 	0.99260 0.37354 0.52132 -0.40100
O 	O 	0.52132 0.11254 0.99260 -0.39500
O 	O 	0.11254 0.99260 0.52132 -0.39500
O 	O 	0.37354 0.52132 0.99260 -0.40100
O 	O 	0.52132 0.37354 0.11254 -0.40300
O 	O 	0.99260 0.11254 0.37354 -0.39100
O 	O 	0.99260 0.52132 0.37354 -0.40100
O 	O 	0.52132 0.99260 0.11254 -0.39500
O 	O 	0.37354 0.11254 0.99260 -0.39100
O 	O 	0.11254 0.37354 0.52132 -0.40300
O 	O 	0.99260 0.37354 0.11254 -0.39100
O 	O 	0.52132 0.11254 0.37354 -0.40300
O 	O 	0.37354 0.99260 0.52132 -0.40100
O 	O 	0.11254 0.52132 0.99260 -0.39500
O 	O 	0.99260 0.11254 0.52132 -0.39500
O 	O 	0.52132 0.37354 0.99260 -0.40100
O 	O 	0.37354 0.52132 0.11254 -0.40300
O 	O 	0.11254 0.99260 0.37354 -0.39100
O 	O 	0.47868 0.00740 0.62646 -0.40100
O 	O 	0.00740 0.47868 0.88746 -0.39500
O 	O 	0.88746 0.62646 0.00740 -0.39100
O 	O 	0.62646 0.88746 0.47868 -0.40300
O 	O 	0.62646 0.00740 0.88746 -0.39100
O 	O 	0.88746 0.47868 0.62646 -0.40300
O 	O 	0.00740 0.62646 0.47868 -0.40100
O 	O 	0.47868 0.88746 0.00740 -0.39500
O 	O 	0.88746 0.00740 0.47868 -0.39500
O 	O 	0.62646 0.47868 0.00740 -0.40100
O 	O 	0.47868 0.62646 0.88746 -0.40300
O 	O 	0.00740 0.88746 0.62646 -0.39100
