data_crystal

_cell_length_a 18.66260
_cell_length_b 18.66260
_cell_length_c 18.66260
_cell_angle_alpha 60.00000
_cell_angle_beta  60.00000
_cell_angle_gamma 60.00000

_symmetry_space_group_name_	'P 1'
_symmetry_space_group_name_H-M	'P 1'

loop_
_symmetry_equiv_pos_as_xyz
  x,y,z

loop_
_atom_site_label
_atom_site_type_symbol
_atom_site_fract_x
_atom_site_fract_y
_atom_site_fract_z
_atom_site_charge
Cu	Cu	0.50000 0.06986 0.93014 0.90400
Cu	Cu	0.06986 0.50000 0.50000 0.90400
Cu	Cu	0.93014 0.50000 0.50000 0.90400
Cu	Cu	0.50000 0.93014 0.06986 0.90400
Cu	Cu	0.50000 0.93014 0.50000 0.90400
Cu	Cu	0.06986 0.50000 0.93014 0.90400
Cu	Cu	0.93014 0.50000 0.06986 0.90400
Cu	Cu	0.50000 0.06986 0.50000 0.90400
Cu	Cu	0.50000 0.50000 0.06986 0.90400
Cu	Cu	0.06986 0.93014 0.50000 0.90400
Cu	Cu	0.93014 0.06986 0.50000 0.90400
Cu	Cu	0.50000 0.50000 0.93014 0.90400
H 	H 	0.46820 0.98820 0.77180 0.04600
H 	H 	0.98820 0.46820 0.77180 0.04600
H 	H 	0.77180 0.77180 0.46820 0.04700
H 	H 	0.77180 0.77180 0.98820 0.04700
H 	H 	0.46820 0.77180 0.77180 0.04700
H 	H 	0.98820 0.77180 0.77180 0.04700
H 	H 	0.77180 0.46820 0.98820 0.04600
H 	H 	0.77180 0.98820 0.46820 0.04600
H 	H 	0.46820 0.77180 0.98820 0.04600
H 	H 	0.98820 0.77180 0.46820 0.04600
H 	H 	0.77180 0.98820 0.77180 0.04700
H 	H 	0.77180 0.46820 0.77180 0.04700
H 	H 	0.01180 0.53180 0.22820 0.04600
H 	H 	0.53180 0.01180 0.22820 0.04600
H 	H 	0.22820 0.22820 0.53180 0.04700
H 	H 	0.22820 0.22820 0.01180 0.04700
H 	H 	0.22820 0.53180 0.22820 0.04700
H 	H 	0.22820 0.01180 0.22820 0.04700
H 	H 	0.53180 0.22820 0.01180 0.04600
H 	H 	0.01180 0.22820 0.53180 0.04600
H 	H 	0.22820 0.53180 0.01180 0.04600
H 	H 	0.22820 0.01180 0.53180 0.04600
H 	H 	0.01180 0.22820 0.22820 0.04700
H 	H 	0.53180 0.22820 0.22820 0.04700
C 	C 	0.46734 0.93086 0.80090 0.04900
C 	C 	0.93086 0.46734 0.80090 0.04900
C 	C 	0.80090 0.80090 0.46734 0.05000
C 	C 	0.80090 0.80090 0.93086 0.04100
C 	C 	0.46734 0.80090 0.80090 0.05000
C 	C 	0.93086 0.80090 0.80090 0.04100
C 	C 	0.80090 0.46734 0.93086 0.04900
C 	C 	0.80090 0.93086 0.46734 0.04900
C 	C 	0.46734 0.80090 0.93086 0.04900
C 	C 	0.93086 0.80090 0.46734 0.04900
C 	C 	0.80090 0.93086 0.80090 0.04100
C 	C 	0.80090 0.46734 0.80090 0.05000
C 	C 	0.06914 0.53266 0.19910 0.04900
C 	C 	0.53266 0.06914 0.19910 0.04900
C 	C 	0.19910 0.19910 0.53266 0.05000
C 	C 	0.19910 0.19910 0.06914 0.04100
C 	C 	0.19910 0.53266 0.19910 0.05000
C 	C 	0.19910 0.06914 0.19910 0.04100
C 	C 	0.53266 0.19910 0.06914 0.04900
C 	C 	0.06914 0.19910 0.53266 0.04900
C 	C 	0.19910 0.53266 0.06914 0.04900
C 	C 	0.19910 0.06914 0.53266 0.04900
C 	C 	0.06914 0.19910 0.19910 0.04100
C 	C 	0.53266 0.19910 0.19910 0.05000
C 	C 	0.46676 0.88740 0.88740 -0.10300
C 	C 	0.47428 0.93120 0.93120 0.34700
C 	C 	0.88740 0.46676 0.75844 -0.10500
C 	C 	0.93120 0.47428 0.66332 0.35900
C 	C 	0.88740 0.75844 0.46676 -0.10500
C 	C 	0.93120 0.66332 0.47428 0.35900
C 	C 	0.75844 0.88740 0.88740 -0.09800
C 	C 	0.66332 0.93120 0.93120 0.33900
C 	C 	0.46676 0.88740 0.75844 -0.10500
C 	C 	0.47428 0.93120 0.66332 0.35900
C 	C 	0.88740 0.75844 0.88740 -0.09800
C 	C 	0.93120 0.66332 0.93120 0.33900
C 	C 	0.88740 0.46676 0.88740 -0.10300
C 	C 	0.93120 0.47428 0.93120 0.34700
C 	C 	0.75844 0.88740 0.46676 -0.10500
C 	C 	0.66332 0.93120 0.47428 0.35900
C 	C 	0.46676 0.75844 0.88740 -0.10500
C 	C 	0.47428 0.66332 0.93120 0.35900
C 	C 	0.88740 0.88740 0.46676 -0.10300
C 	C 	0.93120 0.93120 0.47428 0.34700
C 	C 	0.88740 0.88740 0.75844 -0.09800
C 	C 	0.93120 0.93120 0.66332 0.33900
C 	C 	0.75844 0.46676 0.88740 -0.10500
C 	C 	0.66332 0.47428 0.93120 0.35900
C 	C 	0.11260 0.53324 0.11260 -0.10300
C 	C 	0.06880 0.52572 0.06880 0.34700
C 	C 	0.53324 0.11260 0.24156 -0.10500
C 	C 	0.52572 0.06880 0.33668 0.35900
C 	C 	0.24156 0.11260 0.53324 -0.10500
C 	C 	0.33668 0.06880 0.52572 0.35900
C 	C 	0.11260 0.24156 0.11260 -0.09800
C 	C 	0.06880 0.33668 0.06880 0.33900
C 	C 	0.11260 0.53324 0.24156 -0.10500
C 	C 	0.06880 0.52572 0.33668 0.35900
C 	C 	0.24156 0.11260 0.11260 -0.09800
C 	C 	0.33668 0.06880 0.06880 0.33900
C 	C 	0.53324 0.11260 0.11260 -0.10300
C 	C 	0.52572 0.06880 0.06880 0.34700
C 	C 	0.11260 0.24156 0.53324 -0.10500
C 	C 	0.06880 0.33668 0.52572 0.35900
C 	C 	0.24156 0.53324 0.11260 -0.10500
C 	C 	0.33668 0.52572 0.06880 0.35900
C 	C 	0.11260 0.11260 0.53324 -0.10300
C 	C 	0.06880 0.06880 0.52572 0.34700
C 	C 	0.11260 0.11260 0.24156 -0.09800
C 	C 	0.06880 0.06880 0.33668 0.33900
C 	C 	0.53324 0.24156 0.11260 -0.10500
C 	C 	0.52572 0.33668 0.06880 0.35900
O 	O 	0.47880 0.00756 0.88758 -0.39500
O 	O 	0.00756 0.47880 0.62606 -0.40000
O 	O 	0.88758 0.62606 0.47880 -0.40200
O 	O 	0.62606 0.88758 0.00756 -0.39100
O 	O 	0.47880 0.88758 0.62606 -0.40200
O 	O 	0.00756 0.62606 0.88758 -0.39100
O 	O 	0.88758 0.47880 0.00756 -0.39500
O 	O 	0.62606 0.00756 0.47880 -0.40000
O 	O 	0.47880 0.62606 0.00756 -0.40000
O 	O 	0.00756 0.88758 0.47880 -0.39500
O 	O 	0.88758 0.00756 0.62606 -0.39100
O 	O 	0.62606 0.47880 0.88758 -0.40200
O 	O 	0.99244 0.52120 0.11242 -0.39500
O 	O 	0.52120 0.99244 0.37394 -0.40000
O 	O 	0.37394 0.11242 0.52120 -0.40200
O 	O 	0.11242 0.37394 0.99244 -0.39100
O 	O 	0.11242 0.52120 0.37394 -0.40200
O 	O 	0.37394 0.99244 0.11242 -0.39100
O 	O 	0.52120 0.11242 0.99244 -0.39500
O 	O 	0.99244 0.37394 0.52120 -0.40000
O 	O 	0.37394 0.52120 0.99244 -0.40000
O 	O 	0.11242 0.99244 0.52120 -0.39500
O 	O 	0.99244 0.11242 0.37394 -0.39100
O 	O 	0.52120 0.37394 0.11242 -0.40200
O 	O 	0.52120 0.99244 0.11242 -0.39500
O 	O 	0.99244 0.52120 0.37394 -0.40000
O 	O 	0.11242 0.37394 0.52120 -0.40200
O 	O 	0.37394 0.11242 0.99244 -0.39100
O 	O 	0.52120 0.11242 0.37394 -0.40200
O 	O 	0.99244 0.37394 0.11242 -0.39100
O 	O 	0.11242 0.52120 0.99244 -0.39500
O 	O 	0.37394 0.99244 0.52120 -0.40000
O 	O 	0.52120 0.37394 0.99244 -0.40000
O 	O 	0.99244 0.11242 0.52120 -0.39500
O 	O 	0.11242 0.99244 0.37394 -0.39100
O 	O 	0.37394 0.52120 0.11242 -0.40200
O 	O 	0.00756 0.47880 0.88758 -0.39500
O 	O 	0.47880 0.00756 0.62606 -0.40000
O 	O 	0.62606 0.88758 0.47880 -0.40200
O 	O 	0.88758 0.62606 0.00756 -0.39100
O 	O 	0.88758 0.47880 0.62606 -0.40200
O 	O 	0.62606 0.00756 0.88758 -0.39100
O 	O 	0.47880 0.88758 0.00756 -0.39500
O 	O 	0.00756 0.62606 0.47880 -0.40000
O 	O 	0.62606 0.47880 0.00756 -0.40000
O 	O 	0.88758 0.00756 0.47880 -0.39500
O 	O 	0.00756 0.88758 0.62606 -0.39100
O 	O 	0.47880 0.62606 0.88758 -0.40200
