data_crystal

_cell_length_a 11.75000
_cell_length_b 9.83200
_cell_length_c 14.63000
_cell_angle_alpha 90.00000
_cell_angle_beta  97.73000
_cell_angle_gamma 90.00000

_symmetry_space_group_name_	'P 1'
_symmetry_space_group_name_H-M	'P 1'

loop_
_symmetry_equiv_pos_as_xyz
  x,y,z

loop_
_atom_site_label
_atom_site_type_symbol
_atom_site_fract_x
_atom_site_fract_y
_atom_site_fract_z
_atom_site_charge
C 	C 	0.27500 0.14060 0.21870 0.26900
C 	C 	0.15000 0.12290 0.22170 -0.01600
C 	C 	0.09290 0.20860 0.27600 -0.01400
H 	H 	0.13340 0.27450 0.31260 0.08400
C 	C 	0.97580 0.19540 0.27530 -0.02000
H 	H 	0.93780 0.25230 0.31200 0.09400
C 	C 	0.91430 0.09850 0.22050 -0.01600
C 	C 	0.97200 0.00740 0.16860 0.00000
C 	C 	0.08890 0.01960 0.16930 -0.01600
H 	H 	0.12750 0.95960 0.13510 0.09100
C 	C 	0.91470 0.89250 0.10890 0.26700
C 	C 	0.78570 0.09270 0.21820 0.28500
O 	O 	0.48850 0.96730 0.91120 -0.04400
O 	O 	0.33970 0.20080 0.28110 -0.17700
O 	O 	0.31930 0.08870 0.15130 -0.16000
O 	O 	0.93180 0.76930 0.13410 -0.14800
O 	O 	0.85910 0.92570 0.03100 -0.16700
O 	O 	0.73020 0.00490 0.16840 -0.16600
O 	O 	0.73630 0.17450 0.26370 -0.17100
U 	U 	0.34567 0.03086 0.99113 0.01400
U 	U 	0.47242 0.85483 0.77893 0.01500
C 	C 	0.22500 0.64060 0.28130 0.26700
C 	C 	0.35000 0.62290 0.27830 -0.01600
C 	C 	0.40710 0.70860 0.22400 -0.01500
H 	H 	0.36660 0.77450 0.18740 0.08300
C 	C 	0.52420 0.69540 0.22470 -0.01900
H 	H 	0.56220 0.75230 0.18800 0.09300
C 	C 	0.58570 0.59850 0.27950 -0.01600
C 	C 	0.52800 0.50740 0.33140 0.00000
C 	C 	0.41110 0.51960 0.33070 -0.01800
H 	H 	0.37250 0.45960 0.36490 0.09200
C 	C 	0.58530 0.39250 0.39110 0.26700
C 	C 	0.71430 0.59270 0.28180 0.28500
O 	O 	0.01150 0.46730 0.58880 -0.04400
O 	O 	0.16030 0.70080 0.21890 -0.17700
O 	O 	0.18070 0.58870 0.34870 -0.16000
O 	O 	0.56820 0.26930 0.36590 -0.14800
O 	O 	0.64090 0.42570 0.46900 -0.16700
O 	O 	0.76980 0.50490 0.33160 -0.16700
O 	O 	0.76370 0.67450 0.23630 -0.17100
U 	U 	0.15433 0.53086 0.50887 0.01400
U 	U 	0.02758 0.35483 0.72107 0.01500
C 	C 	0.72500 0.85940 0.78130 0.26800
C 	C 	0.85000 0.87710 0.77830 -0.01700
C 	C 	0.90710 0.79140 0.72400 -0.01500
H 	H 	0.86660 0.72550 0.68740 0.08300
C 	C 	0.02420 0.80460 0.72470 -0.02000
H 	H 	0.06220 0.74770 0.68800 0.09400
C 	C 	0.08570 0.90150 0.77950 -0.01600
C 	C 	0.02800 0.99260 0.83140 0.00000
C 	C 	0.91110 0.98040 0.83070 -0.01600
H 	H 	0.87250 0.04040 0.86490 0.09100
C 	C 	0.08530 0.10750 0.89110 0.26700
C 	C 	0.21430 0.90730 0.78180 0.28500
O 	O 	0.51150 0.03270 0.08880 -0.04400
O 	O 	0.66030 0.79920 0.71890 -0.17700
O 	O 	0.68070 0.91130 0.84870 -0.16000
O 	O 	0.06820 0.23070 0.86590 -0.14800
O 	O 	0.14090 0.07430 0.96900 -0.16700
O 	O 	0.26980 0.99510 0.83160 -0.16600
O 	O 	0.26370 0.82550 0.73630 -0.17100
U 	U 	0.65433 0.96914 0.00887 0.01400
U 	U 	0.52758 0.14517 0.22107 0.01500
C 	C 	0.77500 0.35940 0.71870 0.26700
C 	C 	0.65000 0.37710 0.72170 -0.01600
C 	C 	0.59290 0.29140 0.77600 -0.01500
H 	H 	0.63340 0.22550 0.81260 0.08300
C 	C 	0.47580 0.30460 0.77530 -0.01900
H 	H 	0.43780 0.24770 0.81200 0.09300
C 	C 	0.41430 0.40150 0.72050 -0.01600
C 	C 	0.47200 0.49260 0.66860 0.00000
C 	C 	0.58890 0.48040 0.66930 -0.01800
H 	H 	0.62750 0.54040 0.63510 0.09200
C 	C 	0.41470 0.60750 0.60890 0.26700
C 	C 	0.28570 0.40730 0.71820 0.28500
O 	O 	0.98850 0.53270 0.41120 -0.04400
O 	O 	0.83970 0.29920 0.78110 -0.17700
O 	O 	0.81930 0.41130 0.65130 -0.16000
O 	O 	0.43180 0.73070 0.63410 -0.14800
O 	O 	0.35910 0.57430 0.53100 -0.16700
O 	O 	0.23020 0.49510 0.66840 -0.16700
O 	O 	0.23630 0.32550 0.76370 -0.17100
U 	U 	0.84567 0.46914 0.49113 0.01400
U 	U 	0.97242 0.64517 0.27893 0.01500
