data_crystal

_cell_length_a 24.08700
_cell_length_b 36.32950
_cell_length_c 36.32950
_cell_angle_alpha 90.00000
_cell_angle_beta  90.00000
_cell_angle_gamma 90.00000

_symmetry_space_group_name_	'P 1'
_symmetry_space_group_name_H-M	'P 1'

loop_
_symmetry_equiv_pos_as_xyz
  x,y,z

loop_
_atom_site_label
_atom_site_type_symbol
_atom_site_fract_x
_atom_site_fract_y
_atom_site_fract_z
_atom_site_charge
Cu	Cu	0.50000 0.18713 0.50653 0.90500
Cu	Cu	0.50000 0.81287 0.49347 0.90500
Cu	Cu	0.50000 0.49347 0.18713 0.90500
Cu	Cu	0.50000 0.50653 0.81287 0.90500
Cu	Cu	-0.00000 0.31287 0.00653 0.88300
Cu	Cu	-0.00000 0.68713 0.99347 0.88300
Cu	Cu	-0.00000 0.00653 0.68713 0.88300
Cu	Cu	-0.00000 0.99347 0.31287 0.88300
Cu	Cu	-0.00000 0.38493 0.01118 0.88400
Cu	Cu	-0.00000 0.61507 0.98882 0.88400
Cu	Cu	-0.00000 0.98882 0.38493 0.88400
Cu	Cu	0.00000 0.01118 0.61507 0.88400
Cu	Cu	0.50000 0.11507 0.51118 0.90500
Cu	Cu	0.50000 0.88493 0.48882 0.90500
Cu	Cu	0.50000 0.51118 0.88493 0.90500
Cu	Cu	0.50000 0.48882 0.11507 0.90500
H 	H 	0.33020 0.23090 0.74650 0.01800
H 	H 	0.37130 0.10300 0.59290 -0.00300
H 	H 	0.19800 0.41000 0.88630 0.11600
H 	H 	0.12790 0.40930 0.92920 -0.00700
H 	H 	0.37290 0.21260 0.58700 -0.00400
H 	H 	0.17030 0.28770 0.76820 0.02800
H 	H 	0.12860 0.29950 0.92780 -0.00600
H 	H 	0.30100 0.10620 0.63590 0.11900
H 	H 	0.17300 0.33500 0.81150 0.08200
H 	H 	0.32970 0.18690 0.70310 0.09500
H 	H 	0.19900 0.30050 0.88460 0.11400
H 	H 	0.30170 0.21520 0.62870 0.11500
H 	H 	0.33020 0.76910 0.25350 0.01800
H 	H 	0.37130 0.89700 0.40710 -0.00300
H 	H 	0.19800 0.59000 0.11370 0.11600
H 	H 	0.12790 0.59070 0.07080 -0.00700
H 	H 	0.37290 0.78740 0.41300 -0.00400
H 	H 	0.17030 0.71230 0.23180 0.02800
H 	H 	0.12860 0.70050 0.07220 -0.00600
H 	H 	0.30100 0.89380 0.36410 0.11900
H 	H 	0.17300 0.66500 0.18850 0.08200
H 	H 	0.32970 0.81310 0.29690 0.09500
H 	H 	0.19900 0.69950 0.11540 0.11400
H 	H 	0.30170 0.78480 0.37130 0.11500
H 	H 	0.33020 0.25350 0.23090 0.01800
H 	H 	0.37130 0.40710 0.10300 -0.00300
H 	H 	0.19800 0.11370 0.41000 0.11600
H 	H 	0.12790 0.07080 0.40930 -0.00700
H 	H 	0.37290 0.41300 0.21260 -0.00400
H 	H 	0.17030 0.23180 0.28770 0.02800
H 	H 	0.12860 0.07220 0.29950 -0.00600
H 	H 	0.30100 0.36410 0.10620 0.11900
H 	H 	0.17300 0.18850 0.33500 0.08200
H 	H 	0.32970 0.29690 0.18690 0.09500
H 	H 	0.19900 0.11540 0.30050 0.11400
H 	H 	0.30170 0.37130 0.21520 0.11500
H 	H 	0.33020 0.74650 0.76910 0.01800
H 	H 	0.37130 0.59290 0.89700 -0.00300
H 	H 	0.19800 0.88630 0.59000 0.11600
H 	H 	0.12790 0.92920 0.59070 -0.00700
H 	H 	0.37290 0.58700 0.78740 -0.00400
H 	H 	0.17030 0.76820 0.71230 0.02800
H 	H 	0.12860 0.92780 0.70050 -0.00600
H 	H 	0.30100 0.63590 0.89380 0.11900
H 	H 	0.17300 0.81150 0.66500 0.08200
H 	H 	0.32970 0.70310 0.81310 0.09500
H 	H 	0.19900 0.88460 0.69950 0.11400
H 	H 	0.30170 0.62870 0.78480 0.11500
H 	H 	0.16980 0.26910 0.24650 0.01400
H 	H 	0.12870 0.39700 0.09290 -0.00800
H 	H 	0.30200 0.09000 0.38630 0.11700
H 	H 	0.37210 0.09070 0.42920 -0.00100
H 	H 	0.12710 0.28740 0.08700 -0.00900
H 	H 	0.32970 0.21230 0.26820 0.03300
H 	H 	0.37140 0.20050 0.42780 -0.00100
H 	H 	0.19900 0.39380 0.13590 0.11800
H 	H 	0.32700 0.16500 0.31150 0.08700
H 	H 	0.17030 0.31310 0.20310 0.09000
H 	H 	0.30100 0.19950 0.38460 0.11300
H 	H 	0.19830 0.28480 0.12870 0.11600
H 	H 	0.16980 0.73090 0.75350 0.01400
H 	H 	0.12870 0.60300 0.90710 -0.00800
H 	H 	0.30200 0.91000 0.61370 0.11700
H 	H 	0.37210 0.90930 0.57080 -0.00100
H 	H 	0.12710 0.71260 0.91300 -0.00900
H 	H 	0.32970 0.78770 0.73180 0.03300
H 	H 	0.37140 0.79950 0.57220 -0.00100
H 	H 	0.19900 0.60620 0.86410 0.11800
H 	H 	0.32700 0.83500 0.68850 0.08700
H 	H 	0.17030 0.68690 0.79690 0.09000
H 	H 	0.30100 0.80050 0.61540 0.11300
H 	H 	0.19830 0.71520 0.87130 0.11600
H 	H 	0.16980 0.24650 0.73090 0.01400
H 	H 	0.12870 0.09290 0.60300 -0.00800
H 	H 	0.30200 0.38630 0.91000 0.11700
H 	H 	0.37210 0.42920 0.90930 -0.00100
H 	H 	0.12710 0.08700 0.71260 -0.00900
H 	H 	0.32970 0.26820 0.78770 0.03300
H 	H 	0.37140 0.42780 0.79950 -0.00100
H 	H 	0.19900 0.13590 0.60620 0.11800
H 	H 	0.32700 0.31150 0.83500 0.08700
H 	H 	0.17030 0.20310 0.68690 0.09000
H 	H 	0.30100 0.38460 0.80050 0.11300
H 	H 	0.19830 0.12870 0.71520 0.11600
H 	H 	0.16980 0.75350 0.26910 0.01400
H 	H 	0.12870 0.90710 0.39700 -0.00800
H 	H 	0.30200 0.61370 0.09000 0.11700
H 	H 	0.37210 0.57080 0.09070 -0.00100
H 	H 	0.12710 0.91300 0.28740 -0.00900
H 	H 	0.32970 0.73180 0.21230 0.03300
H 	H 	0.37140 0.57220 0.20050 -0.00100
H 	H 	0.19900 0.86410 0.39380 0.11800
H 	H 	0.32700 0.68850 0.16500 0.08700
H 	H 	0.17030 0.79690 0.31310 0.09000
H 	H 	0.30100 0.61540 0.19950 0.11300
H 	H 	0.19830 0.87130 0.28480 0.11600
H 	H 	0.66980 0.76910 0.25350 0.01900
H 	H 	0.62870 0.89700 0.40710 -0.00200
H 	H 	0.80200 0.59000 0.11370 0.11800
H 	H 	0.87210 0.59070 0.07080 0.00600
H 	H 	0.62710 0.78740 0.41300 -0.00200
H 	H 	0.82970 0.71230 0.23180 0.03800
H 	H 	0.87140 0.70050 0.07220 0.00700
H 	H 	0.69900 0.89380 0.36410 0.12000
H 	H 	0.82700 0.66500 0.18850 0.09200
H 	H 	0.67030 0.81310 0.29690 0.09600
H 	H 	0.80100 0.69950 0.11540 0.11600
H 	H 	0.69830 0.78480 0.37130 0.11900
H 	H 	0.66980 0.23090 0.74650 0.01900
H 	H 	0.62870 0.10300 0.59290 -0.00200
H 	H 	0.80200 0.41000 0.88630 0.11800
H 	H 	0.87210 0.40930 0.92920 0.00600
H 	H 	0.62710 0.21260 0.58700 -0.00200
H 	H 	0.82970 0.28770 0.76820 0.03800
H 	H 	0.87140 0.29950 0.92780 0.00700
H 	H 	0.69900 0.10620 0.63590 0.12000
H 	H 	0.82700 0.33500 0.81150 0.09200
H 	H 	0.67030 0.18690 0.70310 0.09600
H 	H 	0.80100 0.30050 0.88460 0.11600
H 	H 	0.69830 0.21520 0.62870 0.11900
H 	H 	0.66980 0.74650 0.76910 0.01900
H 	H 	0.62870 0.59290 0.89700 -0.00200
H 	H 	0.80200 0.88630 0.59000 0.11800
H 	H 	0.87210 0.92920 0.59070 0.00600
H 	H 	0.62710 0.58700 0.78740 -0.00200
H 	H 	0.82970 0.76820 0.71230 0.03800
H 	H 	0.87140 0.92780 0.70050 0.00700
H 	H 	0.69900 0.63590 0.89380 0.12000
H 	H 	0.82700 0.81150 0.66500 0.09200
H 	H 	0.67030 0.70310 0.81310 0.09600
H 	H 	0.80100 0.88460 0.69950 0.11600
H 	H 	0.69830 0.62870 0.78480 0.11900
H 	H 	0.66980 0.25350 0.23090 0.01900
H 	H 	0.62870 0.40710 0.10300 -0.00200
H 	H 	0.80200 0.11370 0.41000 0.11800
H 	H 	0.87210 0.07080 0.40930 0.00600
H 	H 	0.62710 0.41300 0.21260 -0.00200
H 	H 	0.82970 0.23180 0.28770 0.03800
H 	H 	0.87140 0.07220 0.29950 0.00700
H 	H 	0.69900 0.36410 0.10620 0.12000
H 	H 	0.82700 0.18850 0.33500 0.09200
H 	H 	0.67030 0.29690 0.18690 0.09600
H 	H 	0.80100 0.11540 0.30050 0.11600
H 	H 	0.69830 0.37130 0.21520 0.11900
H 	H 	0.83020 0.73090 0.75350 0.02300
H 	H 	0.87130 0.60300 0.90710 0.00400
H 	H 	0.69800 0.91000 0.61370 0.11800
H 	H 	0.62790 0.90930 0.57080 -0.00100
H 	H 	0.87290 0.71260 0.91300 0.00400
H 	H 	0.67030 0.78770 0.73180 0.03300
H 	H 	0.62860 0.79950 0.57220 0.00100
H 	H 	0.80100 0.60620 0.86410 0.12100
H 	H 	0.67300 0.83500 0.68850 0.08700
H 	H 	0.82970 0.68690 0.79690 0.10000
H 	H 	0.69900 0.80050 0.61540 0.11700
H 	H 	0.80170 0.71520 0.87130 0.11700
H 	H 	0.83020 0.26910 0.24650 0.02300
H 	H 	0.87130 0.39700 0.09290 0.00400
H 	H 	0.69800 0.09000 0.38630 0.11800
H 	H 	0.62790 0.09070 0.42920 -0.00100
H 	H 	0.87290 0.28740 0.08700 0.00400
H 	H 	0.67030 0.21230 0.26820 0.03300
H 	H 	0.62860 0.20050 0.42780 0.00100
H 	H 	0.80100 0.39380 0.13590 0.12100
H 	H 	0.67300 0.16500 0.31150 0.08700
H 	H 	0.82970 0.31310 0.20310 0.10000
H 	H 	0.69900 0.19950 0.38460 0.11700
H 	H 	0.80170 0.28480 0.12870 0.11700
H 	H 	0.83020 0.75350 0.26910 0.02300
H 	H 	0.87130 0.90710 0.39700 0.00400
H 	H 	0.69800 0.61370 0.09000 0.11800
H 	H 	0.62790 0.57080 0.09070 -0.00100
H 	H 	0.87290 0.91300 0.28740 0.00400
H 	H 	0.67030 0.73180 0.21230 0.03300
H 	H 	0.62860 0.57220 0.20050 0.00100
H 	H 	0.80100 0.86410 0.39380 0.12100
H 	H 	0.67300 0.68850 0.16500 0.08700
H 	H 	0.82970 0.79690 0.31310 0.10000
H 	H 	0.69900 0.61540 0.19950 0.11700
H 	H 	0.80170 0.87130 0.28480 0.11700
H 	H 	0.83020 0.24650 0.73090 0.02300
H 	H 	0.87130 0.09290 0.60300 0.00400
H 	H 	0.69800 0.38630 0.91000 0.11800
H 	H 	0.62790 0.42920 0.90930 -0.00100
H 	H 	0.87290 0.08700 0.71260 0.00400
H 	H 	0.67030 0.26820 0.78770 0.03300
H 	H 	0.62860 0.42780 0.79950 0.00100
H 	H 	0.80100 0.13590 0.60620 0.12100
H 	H 	0.67300 0.31150 0.83500 0.08700
H 	H 	0.82970 0.20310 0.68690 0.10000
H 	H 	0.69900 0.38460 0.80050 0.11700
H 	H 	0.80170 0.12870 0.71520 0.11700
C 	C 	0.29699 0.22542 0.73466 0.03200
C 	C 	0.37988 0.15755 0.58538 -0.19300
C 	C 	0.29449 0.16042 0.63690 0.20400
C 	C 	0.35777 0.12581 0.60021 0.13900
C 	C 	0.20599 0.35556 0.88146 0.19900
C 	C 	0.12076 0.35403 0.93313 -0.19600
C 	C 	0.18424 0.38764 0.89467 -0.24000
C 	C 	0.14212 0.38724 0.92035 0.13700
C 	C 	0.35842 0.19090 0.59663 0.14100
C 	C 	0.20318 0.29272 0.78067 -0.00900
C 	C 	0.14240 0.32191 0.91960 0.13600
C 	C 	0.31535 0.12782 0.62595 -0.24200
C 	C 	0.20452 0.32078 0.80751 -0.14900
C 	C 	0.29683 0.19914 0.70857 -0.17500
C 	C 	0.18481 0.32254 0.89369 -0.23200
C 	C 	0.31610 0.19245 0.62173 -0.23600
C 	C 	0.42483 0.15538 0.55745 0.40500
C 	C 	0.07552 0.35362 0.96050 0.40100
C 	C 	0.29699 0.77458 0.26534 0.03200
C 	C 	0.37988 0.84245 0.41462 -0.19300
C 	C 	0.29449 0.83958 0.36310 0.20400
C 	C 	0.35777 0.87419 0.39979 0.13900
C 	C 	0.20599 0.64444 0.11854 0.19900
C 	C 	0.12076 0.64597 0.06687 -0.19600
C 	C 	0.18424 0.61236 0.10533 -0.24000
C 	C 	0.14212 0.61276 0.07965 0.13700
C 	C 	0.35842 0.80910 0.40337 0.14100
C 	C 	0.20318 0.70728 0.21933 -0.00900
C 	C 	0.14240 0.67809 0.08040 0.13600
C 	C 	0.31535 0.87218 0.37405 -0.24200
C 	C 	0.20452 0.67922 0.19249 -0.14900
C 	C 	0.29683 0.80086 0.29143 -0.17500
C 	C 	0.18481 0.67746 0.10631 -0.23200
C 	C 	0.31610 0.80755 0.37827 -0.23600
C 	C 	0.42483 0.84462 0.44255 0.40500
C 	C 	0.07552 0.64638 0.03950 0.40100
C 	C 	0.29699 0.26534 0.22542 0.03200
C 	C 	0.37988 0.41462 0.15755 -0.19300
C 	C 	0.29449 0.36310 0.16042 0.20400
C 	C 	0.35777 0.39979 0.12581 0.13900
C 	C 	0.20599 0.11854 0.35556 0.19900
C 	C 	0.12076 0.06687 0.35403 -0.19600
C 	C 	0.18424 0.10533 0.38764 -0.24000
C 	C 	0.14212 0.07965 0.38724 0.13700
C 	C 	0.35842 0.40337 0.19090 0.14100
C 	C 	0.20318 0.21933 0.29272 -0.00900
C 	C 	0.14240 0.08040 0.32191 0.13600
C 	C 	0.31535 0.37405 0.12782 -0.24200
C 	C 	0.20452 0.19249 0.32078 -0.14900
C 	C 	0.29683 0.29143 0.19914 -0.17500
C 	C 	0.18481 0.10631 0.32254 -0.23200
C 	C 	0.31610 0.37827 0.19245 -0.23600
C 	C 	0.42483 0.44255 0.15538 0.40500
C 	C 	0.07552 0.03950 0.35362 0.40100
C 	C 	0.29699 0.73466 0.77458 0.03200
C 	C 	0.37988 0.58538 0.84245 -0.19300
C 	C 	0.29449 0.63690 0.83958 0.20400
C 	C 	0.35777 0.60021 0.87419 0.13900
C 	C 	0.20599 0.88146 0.64444 0.19900
C 	C 	0.12076 0.93313 0.64597 -0.19600
C 	C 	0.18424 0.89467 0.61236 -0.24000
C 	C 	0.14212 0.92035 0.61276 0.13700
C 	C 	0.35842 0.59663 0.80910 0.14100
C 	C 	0.20318 0.78067 0.70728 -0.00900
C 	C 	0.14240 0.91960 0.67809 0.13600
C 	C 	0.31535 0.62595 0.87218 -0.24200
C 	C 	0.20452 0.80751 0.67922 -0.14900
C 	C 	0.29683 0.70857 0.80086 -0.17500
C 	C 	0.18481 0.89369 0.67746 -0.23200
C 	C 	0.31610 0.62173 0.80755 -0.23600
C 	C 	0.42483 0.55745 0.84462 0.40500
C 	C 	0.07552 0.96050 0.64638 0.40100
C 	C 	0.20301 0.27458 0.23466 0.03100
C 	C 	0.12012 0.34245 0.08538 -0.20100
C 	C 	0.20551 0.33958 0.13690 0.20600
C 	C 	0.14223 0.37419 0.10021 0.14200
C 	C 	0.29401 0.14444 0.38146 0.19700
C 	C 	0.37924 0.14597 0.43313 -0.18900
C 	C 	0.31576 0.11236 0.39467 -0.23600
C 	C 	0.35788 0.11276 0.42035 0.13400
C 	C 	0.14158 0.30910 0.09663 0.14400
C 	C 	0.29682 0.20728 0.28067 -0.00800
C 	C 	0.35760 0.17809 0.41960 0.13300
C 	C 	0.18465 0.37218 0.12595 -0.24700
C 	C 	0.29548 0.17922 0.30751 -0.14800
C 	C 	0.20317 0.30086 0.20857 -0.17600
C 	C 	0.31519 0.17746 0.39369 -0.22800
C 	C 	0.18390 0.30755 0.12173 -0.24100
C 	C 	0.07517 0.34462 0.05745 0.40600
C 	C 	0.42448 0.14638 0.46050 0.40000
C 	C 	0.20301 0.72542 0.76534 0.03100
C 	C 	0.12012 0.65755 0.91462 -0.20100
C 	C 	0.20551 0.66042 0.86310 0.20600
C 	C 	0.14223 0.62581 0.89979 0.14200
C 	C 	0.29401 0.85556 0.61854 0.19700
C 	C 	0.37924 0.85403 0.56687 -0.18900
C 	C 	0.31576 0.88764 0.60533 -0.23600
C 	C 	0.35788 0.88724 0.57965 0.13400
C 	C 	0.14158 0.69090 0.90337 0.14400
C 	C 	0.29682 0.79272 0.71933 -0.00800
C 	C 	0.35760 0.82191 0.58040 0.13300
C 	C 	0.18465 0.62782 0.87405 -0.24700
C 	C 	0.29548 0.82078 0.69249 -0.14800
C 	C 	0.20317 0.69914 0.79143 -0.17600
C 	C 	0.31519 0.82254 0.60631 -0.22800
C 	C 	0.18390 0.69245 0.87827 -0.24100
C 	C 	0.07517 0.65538 0.94255 0.40600
C 	C 	0.42448 0.85362 0.53950 0.40000
C 	C 	0.20301 0.23466 0.72542 0.03100
C 	C 	0.12012 0.08538 0.65755 -0.20100
C 	C 	0.20551 0.13690 0.66042 0.20600
C 	C 	0.14223 0.10021 0.62581 0.14200
C 	C 	0.29401 0.38146 0.85556 0.19700
C 	C 	0.37924 0.43313 0.85403 -0.18900
C 	C 	0.31576 0.39467 0.88764 -0.23600
C 	C 	0.35788 0.42035 0.88724 0.13400
C 	C 	0.14158 0.09663 0.69090 0.14400
C 	C 	0.29682 0.28067 0.79272 -0.00800
C 	C 	0.35760 0.41960 0.82191 0.13300
C 	C 	0.18465 0.12595 0.62782 -0.24700
C 	C 	0.29548 0.30751 0.82078 -0.14800
C 	C 	0.20317 0.20857 0.69914 -0.17600
C 	C 	0.31519 0.39369 0.82254 -0.22800
C 	C 	0.18390 0.12173 0.69245 -0.24100
C 	C 	0.07517 0.05745 0.65538 0.40600
C 	C 	0.42448 0.46050 0.85362 0.40000
C 	C 	0.20301 0.76534 0.27458 0.03100
C 	C 	0.12012 0.91462 0.34245 -0.20100
C 	C 	0.20551 0.86310 0.33958 0.20600
C 	C 	0.14223 0.89979 0.37419 0.14200
C 	C 	0.29401 0.61854 0.14444 0.19700
C 	C 	0.37924 0.56687 0.14597 -0.18900
C 	C 	0.31576 0.60533 0.11236 -0.23600
C 	C 	0.35788 0.57965 0.11276 0.13400
C 	C 	0.14158 0.90337 0.30910 0.14400
C 	C 	0.29682 0.71933 0.20728 -0.00800
C 	C 	0.35760 0.58040 0.17809 0.13300
C 	C 	0.18465 0.87405 0.37218 -0.24700
C 	C 	0.29548 0.69249 0.17922 -0.14800
C 	C 	0.20317 0.79143 0.30086 -0.17600
C 	C 	0.31519 0.60631 0.17746 -0.22800
C 	C 	0.18390 0.87827 0.30755 -0.24100
C 	C 	0.07517 0.94255 0.34462 0.40600
C 	C 	0.42448 0.53950 0.14638 0.40000
C 	C 	0.70301 0.77458 0.26534 0.03300
C 	C 	0.62012 0.84245 0.41462 -0.19200
C 	C 	0.70551 0.83958 0.36310 0.20600
C 	C 	0.64223 0.87419 0.39979 0.14100
C 	C 	0.79401 0.64444 0.11854 0.19700
C 	C 	0.87924 0.64597 0.06687 -0.17800
C 	C 	0.81576 0.61236 0.10533 -0.22900
C 	C 	0.85788 0.61276 0.07965 0.13100
C 	C 	0.64158 0.80910 0.40337 0.14200
C 	C 	0.79682 0.70728 0.21933 -0.00600
C 	C 	0.85760 0.67809 0.08040 0.12900
C 	C 	0.68465 0.87218 0.37405 -0.24300
C 	C 	0.79548 0.67922 0.19249 -0.14700
C 	C 	0.70317 0.80086 0.29143 -0.17400
C 	C 	0.81519 0.67746 0.10631 -0.22200
C 	C 	0.68390 0.80755 0.37827 -0.23600
C 	C 	0.57517 0.84462 0.44255 0.40500
C 	C 	0.92448 0.64638 0.03950 0.39400
C 	C 	0.70301 0.22542 0.73466 0.03300
C 	C 	0.62012 0.15755 0.58538 -0.19200
C 	C 	0.70551 0.16042 0.63690 0.20600
C 	C 	0.64223 0.12581 0.60021 0.14100
C 	C 	0.79401 0.35556 0.88146 0.19700
C 	C 	0.87924 0.35403 0.93313 -0.17800
C 	C 	0.81576 0.38764 0.89467 -0.22900
C 	C 	0.85788 0.38724 0.92035 0.13100
C 	C 	0.64158 0.19090 0.59663 0.14200
C 	C 	0.79682 0.29272 0.78067 -0.00600
C 	C 	0.85760 0.32191 0.91960 0.12900
C 	C 	0.68465 0.12782 0.62595 -0.24300
C 	C 	0.79548 0.32078 0.80751 -0.14700
C 	C 	0.70317 0.19914 0.70857 -0.17400
C 	C 	0.81519 0.32254 0.89369 -0.22200
C 	C 	0.68390 0.19245 0.62173 -0.23600
C 	C 	0.57517 0.15538 0.55745 0.40500
C 	C 	0.92448 0.35362 0.96050 0.39400
C 	C 	0.70301 0.73466 0.77458 0.03300
C 	C 	0.62012 0.58538 0.84245 -0.19200
C 	C 	0.70551 0.63690 0.83958 0.20600
C 	C 	0.64223 0.60021 0.87419 0.14100
C 	C 	0.79401 0.88146 0.64444 0.19700
C 	C 	0.87924 0.93313 0.64597 -0.17800
C 	C 	0.81576 0.89467 0.61236 -0.22900
C 	C 	0.85788 0.92035 0.61276 0.13100
C 	C 	0.64158 0.59663 0.80910 0.14200
C 	C 	0.79682 0.78067 0.70728 -0.00600
C 	C 	0.85760 0.91960 0.67809 0.12900
C 	C 	0.68465 0.62595 0.87218 -0.24300
C 	C 	0.79548 0.80751 0.67922 -0.14700
C 	C 	0.70317 0.70857 0.80086 -0.17400
C 	C 	0.81519 0.89369 0.67746 -0.22200
C 	C 	0.68390 0.62173 0.80755 -0.23600
C 	C 	0.57517 0.55745 0.84462 0.40500
C 	C 	0.92448 0.96050 0.64638 0.39400
C 	C 	0.70301 0.26534 0.22542 0.03300
C 	C 	0.62012 0.41462 0.15755 -0.19200
C 	C 	0.70551 0.36310 0.16042 0.20600
C 	C 	0.64223 0.39979 0.12581 0.14100
C 	C 	0.79401 0.11854 0.35556 0.19700
C 	C 	0.87924 0.06687 0.35403 -0.17800
C 	C 	0.81576 0.10533 0.38764 -0.22900
C 	C 	0.85788 0.07965 0.38724 0.13100
C 	C 	0.64158 0.40337 0.19090 0.14200
C 	C 	0.79682 0.21933 0.29272 -0.00600
C 	C 	0.85760 0.08040 0.32191 0.12900
C 	C 	0.68465 0.37405 0.12782 -0.24300
C 	C 	0.79548 0.19249 0.32078 -0.14700
C 	C 	0.70317 0.29143 0.19914 -0.17400
C 	C 	0.81519 0.10631 0.32254 -0.22200
C 	C 	0.68390 0.37827 0.19245 -0.23600
C 	C 	0.57517 0.44255 0.15538 0.40500
C 	C 	0.92448 0.03950 0.35362 0.39400
C 	C 	0.79699 0.72542 0.76534 0.03400
C 	C 	0.87988 0.65755 0.91462 -0.18100
C 	C 	0.79449 0.66042 0.86310 0.20300
C 	C 	0.85777 0.62581 0.89979 0.13600
C 	C 	0.70599 0.85556 0.61854 0.19900
C 	C 	0.62076 0.85403 0.56687 -0.18800
C 	C 	0.68424 0.88764 0.60533 -0.23600
C 	C 	0.64212 0.88724 0.57965 0.13600
C 	C 	0.85842 0.69090 0.90337 0.13700
C 	C 	0.70318 0.79272 0.71933 -0.00700
C 	C 	0.64240 0.82191 0.58040 0.13500
C 	C 	0.81535 0.62782 0.87405 -0.23600
C 	C 	0.70452 0.82078 0.69249 -0.14800
C 	C 	0.79683 0.69914 0.79143 -0.17400
C 	C 	0.68481 0.82254 0.60631 -0.22800
C 	C 	0.81610 0.69245 0.87827 -0.23000
C 	C 	0.92483 0.65538 0.94255 0.39900
C 	C 	0.57552 0.85362 0.53950 0.40000
C 	C 	0.79699 0.27458 0.23466 0.03400
C 	C 	0.87988 0.34245 0.08538 -0.18100
C 	C 	0.79449 0.33958 0.13690 0.20300
C 	C 	0.85777 0.37419 0.10021 0.13600
C 	C 	0.70599 0.14444 0.38146 0.19900
C 	C 	0.62076 0.14597 0.43313 -0.18800
C 	C 	0.68424 0.11236 0.39467 -0.23600
C 	C 	0.64212 0.11276 0.42035 0.13600
C 	C 	0.85842 0.30910 0.09663 0.13700
C 	C 	0.70318 0.20728 0.28067 -0.00700
C 	C 	0.64240 0.17809 0.41960 0.13500
C 	C 	0.81535 0.37218 0.12595 -0.23600
C 	C 	0.70452 0.17922 0.30751 -0.14800
C 	C 	0.79683 0.30086 0.20857 -0.17400
C 	C 	0.68481 0.17746 0.39369 -0.22800
C 	C 	0.81610 0.30755 0.12173 -0.23000
C 	C 	0.92483 0.34462 0.05745 0.39900
C 	C 	0.57552 0.14638 0.46050 0.40000
C 	C 	0.79699 0.76534 0.27458 0.03400
C 	C 	0.87988 0.91462 0.34245 -0.18100
C 	C 	0.79449 0.86310 0.33958 0.20300
C 	C 	0.85777 0.89979 0.37419 0.13600
C 	C 	0.70599 0.61854 0.14444 0.19900
C 	C 	0.62076 0.56687 0.14597 -0.18800
C 	C 	0.68424 0.60533 0.11236 -0.23600
C 	C 	0.64212 0.57965 0.11276 0.13600
C 	C 	0.85842 0.90337 0.30910 0.13700
C 	C 	0.70318 0.71933 0.20728 -0.00700
C 	C 	0.64240 0.58040 0.17809 0.13500
C 	C 	0.81535 0.87405 0.37218 -0.23600
C 	C 	0.70452 0.69249 0.17922 -0.14800
C 	C 	0.79683 0.79143 0.30086 -0.17400
C 	C 	0.68481 0.60631 0.17746 -0.22800
C 	C 	0.81610 0.87827 0.30755 -0.23000
C 	C 	0.92483 0.94255 0.34462 0.39900
C 	C 	0.57552 0.53950 0.14638 0.40000
C 	C 	0.79699 0.23466 0.72542 0.03400
C 	C 	0.87988 0.08538 0.65755 -0.18100
C 	C 	0.79449 0.13690 0.66042 0.20300
C 	C 	0.85777 0.10021 0.62581 0.13600
C 	C 	0.70599 0.38146 0.85556 0.19900
C 	C 	0.62076 0.43313 0.85403 -0.18800
C 	C 	0.68424 0.39467 0.88764 -0.23600
C 	C 	0.64212 0.42035 0.88724 0.13600
C 	C 	0.85842 0.09663 0.69090 0.13700
C 	C 	0.70318 0.28067 0.79272 -0.00700
C 	C 	0.64240 0.41960 0.82191 0.13500
C 	C 	0.81535 0.12595 0.62782 -0.23600
C 	C 	0.70452 0.30751 0.82078 -0.14800
C 	C 	0.79683 0.20857 0.69914 -0.17400
C 	C 	0.68481 0.39369 0.82254 -0.22800
C 	C 	0.81610 0.12173 0.69245 -0.23000
C 	C 	0.92483 0.05745 0.65538 0.39900
C 	C 	0.57552 0.46050 0.85362 0.40000
C 	C 	0.25000 0.32727 0.82727 0.14400
C 	C 	0.25000 0.27303 0.77303 -0.00100
C 	C 	0.25000 0.24457 0.74457 -0.04100
C 	C 	0.25000 0.18998 0.68998 0.16100
C 	C 	0.25000 0.67273 0.17273 0.14400
C 	C 	0.25000 0.72697 0.22697 -0.00100
C 	C 	0.25000 0.75543 0.25543 -0.04100
C 	C 	0.25000 0.81002 0.31002 0.16100
C 	C 	0.25000 0.17273 0.32727 0.14400
C 	C 	0.25000 0.22697 0.27303 -0.00100
C 	C 	0.25000 0.25543 0.24457 -0.04100
C 	C 	0.25000 0.31002 0.18998 0.16100
C 	C 	0.25000 0.82727 0.67273 0.14400
C 	C 	0.25000 0.77303 0.72697 -0.00100
C 	C 	0.25000 0.74457 0.75543 -0.04100
C 	C 	0.25000 0.68998 0.81002 0.16100
C 	C 	0.75000 0.67273 0.17273 0.14700
C 	C 	0.75000 0.72697 0.22697 0.00100
C 	C 	0.75000 0.75543 0.25543 -0.03900
C 	C 	0.75000 0.81002 0.31002 0.16400
C 	C 	0.75000 0.32727 0.82727 0.14700
C 	C 	0.75000 0.27303 0.77303 0.00100
C 	C 	0.75000 0.24457 0.74457 -0.03900
C 	C 	0.75000 0.18998 0.68998 0.16400
C 	C 	0.75000 0.82727 0.67273 0.14700
C 	C 	0.75000 0.77303 0.72697 0.00100
C 	C 	0.75000 0.74457 0.75543 -0.03900
C 	C 	0.75000 0.68998 0.81002 0.16400
C 	C 	0.75000 0.17273 0.32727 0.14700
C 	C 	0.75000 0.22697 0.27303 0.00100
C 	C 	0.75000 0.25543 0.24457 -0.03900
C 	C 	0.75000 0.31002 0.18998 0.16400
N 	N 	0.25000 0.35516 0.85516 -0.19500
N 	N 	0.25000 0.16249 0.66249 -0.20300
N 	N 	0.25000 0.64484 0.14484 -0.19500
N 	N 	0.25000 0.83751 0.33751 -0.20300
N 	N 	0.25000 0.14484 0.35516 -0.19500
N 	N 	0.25000 0.33751 0.16249 -0.20300
N 	N 	0.25000 0.85516 0.64484 -0.19500
N 	N 	0.25000 0.66249 0.83751 -0.20300
N 	N 	0.75000 0.64484 0.14484 -0.19400
N 	N 	0.75000 0.83751 0.33751 -0.20200
N 	N 	0.75000 0.35516 0.85516 -0.19400
N 	N 	0.75000 0.16249 0.66249 -0.20200
N 	N 	0.75000 0.85516 0.64484 -0.19400
N 	N 	0.75000 0.66249 0.83751 -0.20200
N 	N 	0.75000 0.14484 0.35516 -0.19400
N 	N 	0.75000 0.33751 0.16249 -0.20200
O 	O 	0.44241 0.18537 0.54470 -0.41700
O 	O 	0.05789 0.38314 0.97318 -0.43100
O 	O 	0.44202 0.12440 0.54816 -0.42300
O 	O 	0.05769 0.32197 0.96956 -0.42800
O 	O 	0.44241 0.81463 0.45530 -0.41700
O 	O 	0.05789 0.61686 0.02682 -0.43100
O 	O 	0.44202 0.87560 0.45184 -0.42300
O 	O 	0.05769 0.67803 0.03044 -0.42800
O 	O 	0.44241 0.45530 0.18537 -0.41700
O 	O 	0.05789 0.02682 0.38314 -0.43100
O 	O 	0.44202 0.45184 0.12440 -0.42300
O 	O 	0.05769 0.03044 0.32197 -0.42800
O 	O 	0.44241 0.54470 0.81463 -0.41700
O 	O 	0.05789 0.97318 0.61686 -0.43100
O 	O 	0.44202 0.54816 0.87560 -0.42300
O 	O 	0.05769 0.96956 0.67803 -0.42800
O 	O 	0.05759 0.31463 0.04470 -0.42900
O 	O 	0.44211 0.11686 0.47318 -0.41900
O 	O 	0.05798 0.37560 0.04816 -0.43400
O 	O 	0.44231 0.17803 0.46956 -0.41600
O 	O 	0.05759 0.68537 0.95530 -0.42900
O 	O 	0.44211 0.88314 0.52682 -0.41900
O 	O 	0.05798 0.62440 0.95184 -0.43400
O 	O 	0.44231 0.82197 0.53044 -0.41600
O 	O 	0.05759 0.04470 0.68537 -0.42900
O 	O 	0.44211 0.47318 0.88314 -0.41900
O 	O 	0.05798 0.04816 0.62440 -0.43400
O 	O 	0.44231 0.46956 0.82197 -0.41600
O 	O 	0.05759 0.95530 0.31463 -0.42900
O 	O 	0.44211 0.52682 0.11686 -0.41900
O 	O 	0.05798 0.95184 0.37560 -0.43400
O 	O 	0.44231 0.53044 0.17803 -0.41600
O 	O 	0.55759 0.81463 0.45530 -0.41600
O 	O 	0.94211 0.61686 0.02682 -0.39500
O 	O 	0.55798 0.87560 0.45184 -0.42200
O 	O 	0.94231 0.67803 0.03044 -0.39300
O 	O 	0.55759 0.18537 0.54470 -0.41600
O 	O 	0.94211 0.38314 0.97318 -0.39500
O 	O 	0.55798 0.12440 0.54816 -0.42200
O 	O 	0.94231 0.32197 0.96956 -0.39300
O 	O 	0.55759 0.54470 0.81463 -0.41600
O 	O 	0.94211 0.97318 0.61686 -0.39500
O 	O 	0.55798 0.54816 0.87560 -0.42200
O 	O 	0.94231 0.96956 0.67803 -0.39300
O 	O 	0.55759 0.45530 0.18537 -0.41600
O 	O 	0.94211 0.02682 0.38314 -0.39500
O 	O 	0.55798 0.45184 0.12440 -0.42200
O 	O 	0.94231 0.03044 0.32197 -0.39300
O 	O 	0.94241 0.68537 0.95530 -0.39300
O 	O 	0.55789 0.88314 0.52682 -0.41900
O 	O 	0.94202 0.62440 0.95184 -0.39900
O 	O 	0.55769 0.82197 0.53044 -0.41500
O 	O 	0.94241 0.31463 0.04470 -0.39300
O 	O 	0.55789 0.11686 0.47318 -0.41900
O 	O 	0.94202 0.37560 0.04816 -0.39900
O 	O 	0.55769 0.17803 0.46956 -0.41500
O 	O 	0.94241 0.95530 0.31463 -0.39300
O 	O 	0.55789 0.52682 0.11686 -0.41900
O 	O 	0.94202 0.95184 0.37560 -0.39900
O 	O 	0.55769 0.53044 0.17803 -0.41500
O 	O 	0.94241 0.04470 0.68537 -0.39300
O 	O 	0.55789 0.47318 0.88314 -0.41900
O 	O 	0.94202 0.04816 0.62440 -0.39900
O 	O 	0.55769 0.46956 0.82197 -0.41500
