data_crystal

_cell_length_a 20.48300
_cell_length_b 20.48300
_cell_length_c 20.48300
_cell_angle_alpha 90.00000
_cell_angle_beta  90.00000
_cell_angle_gamma 90.00000

_symmetry_space_group_name_	'P 1'
_symmetry_space_group_name_H-M	'P 1'

loop_
_symmetry_equiv_pos_as_xyz
  x,y,z

loop_
_atom_site_label
_atom_site_type_symbol
_atom_site_fract_x
_atom_site_fract_y
_atom_site_fract_z
_atom_site_charge
Zn	Zn	0.60872 0.84965 0.82729 1.23000
Zn	Zn	0.44002 0.75388 0.98928 1.22500
Zn	Zn	0.48448 0.88522 0.90397 1.14900
Zn	Zn	0.89128 0.15035 0.32729 1.23000
Zn	Zn	0.05998 0.24612 0.48928 1.22500
Zn	Zn	0.01552 0.11478 0.40397 1.15000
Zn	Zn	0.39128 0.34965 0.67271 1.23000
Zn	Zn	0.55998 0.25388 0.51072 1.22400
Zn	Zn	0.51552 0.38522 0.59603 1.14900
Zn	Zn	0.10872 0.65035 0.17271 1.23000
Zn	Zn	0.94002 0.74612 0.01072 1.22300
Zn	Zn	0.98448 0.61478 0.09603 1.14900
Zn	Zn	0.82729 0.60872 0.84965 1.22900
Zn	Zn	0.98928 0.44002 0.75388 1.22400
Zn	Zn	0.90397 0.48448 0.88522 1.14800
Zn	Zn	0.32729 0.89128 0.15035 1.22900
Zn	Zn	0.48928 0.05998 0.24612 1.22400
Zn	Zn	0.40397 0.01552 0.11478 1.14900
Zn	Zn	0.67271 0.39128 0.34965 1.22900
Zn	Zn	0.51072 0.55998 0.25388 1.22300
Zn	Zn	0.59603 0.51552 0.38522 1.14800
Zn	Zn	0.17271 0.10872 0.65035 1.22900
Zn	Zn	0.01072 0.94002 0.74612 1.22200
Zn	Zn	0.09603 0.98448 0.61478 1.14800
Zn	Zn	0.84965 0.82729 0.60872 1.22900
Zn	Zn	0.75388 0.98928 0.44002 1.22400
Zn	Zn	0.88522 0.90397 0.48448 1.14800
Zn	Zn	0.15035 0.32729 0.89128 1.22900
Zn	Zn	0.24612 0.48928 0.05998 1.22400
Zn	Zn	0.11478 0.40397 0.01552 1.14900
Zn	Zn	0.34965 0.67271 0.39128 1.22900
Zn	Zn	0.25388 0.51072 0.55998 1.22300
Zn	Zn	0.38522 0.59603 0.51552 1.14800
Zn	Zn	0.65035 0.17271 0.10872 1.22900
Zn	Zn	0.74612 0.01072 0.94002 1.22200
Zn	Zn	0.61478 0.09603 0.98448 1.14800
Zn	Zn	0.39128 0.15035 0.17271 1.22900
Zn	Zn	0.55998 0.24612 0.01072 1.22400
Zn	Zn	0.51552 0.11478 0.09603 1.14800
Zn	Zn	0.10872 0.84965 0.67271 1.22900
Zn	Zn	0.94002 0.75388 0.51072 1.22400
Zn	Zn	0.98448 0.88522 0.59603 1.14900
Zn	Zn	0.60872 0.65035 0.32729 1.22900
Zn	Zn	0.44002 0.74612 0.48928 1.22300
Zn	Zn	0.48448 0.61478 0.40397 1.14800
Zn	Zn	0.89128 0.34965 0.82729 1.22900
Zn	Zn	0.05998 0.25388 0.98928 1.22200
Zn	Zn	0.01552 0.38522 0.90397 1.14800
Zn	Zn	0.17271 0.39128 0.15035 1.22900
Zn	Zn	0.01072 0.55998 0.24612 1.22400
Zn	Zn	0.09603 0.51552 0.11478 1.14800
Zn	Zn	0.67271 0.10872 0.84965 1.22900
Zn	Zn	0.51072 0.94002 0.75388 1.22400
Zn	Zn	0.59603 0.98448 0.88522 1.14900
Zn	Zn	0.32729 0.60872 0.65035 1.22900
Zn	Zn	0.48928 0.44002 0.74612 1.22300
Zn	Zn	0.40397 0.48448 0.61478 1.14800
Zn	Zn	0.82729 0.89128 0.34965 1.22900
Zn	Zn	0.98928 0.05998 0.25388 1.22200
Zn	Zn	0.90397 0.01552 0.38522 1.14800
Zn	Zn	0.15035 0.17271 0.39128 1.22900
Zn	Zn	0.24612 0.01072 0.55998 1.22400
Zn	Zn	0.11478 0.09603 0.51552 1.14800
Zn	Zn	0.84965 0.67271 0.10872 1.22900
Zn	Zn	0.75388 0.51072 0.94002 1.22400
Zn	Zn	0.88522 0.59603 0.98448 1.14900
Zn	Zn	0.65035 0.32729 0.60872 1.22900
Zn	Zn	0.74612 0.48928 0.44002 1.22300
Zn	Zn	0.61478 0.40397 0.48448 1.14800
Zn	Zn	0.34965 0.82729 0.89128 1.22900
Zn	Zn	0.25388 0.98928 0.05998 1.22200
Zn	Zn	0.38522 0.90397 0.01552 1.14800
H 	H 	0.62220 0.69570 0.88740 0.07000
H 	H 	0.65950 0.69050 0.00470 0.09300
H 	H 	0.69390 0.79690 0.00980 0.05500
H 	H 	0.76800 0.79510 0.89370 0.08700
H 	H 	0.87780 0.30430 0.38740 0.07000
H 	H 	0.84050 0.30950 0.50470 0.09400
H 	H 	0.80610 0.20310 0.50980 0.05800
H 	H 	0.73200 0.20490 0.39370 0.08600
H 	H 	0.37780 0.19570 0.61260 0.07000
H 	H 	0.34050 0.19050 0.49530 0.09400
H 	H 	0.30610 0.29690 0.49020 0.05800
H 	H 	0.23200 0.29510 0.60630 0.08600
H 	H 	0.12220 0.80430 0.11260 0.07000
H 	H 	0.15950 0.80950 0.99530 0.09400
H 	H 	0.19390 0.70310 0.99020 0.05800
H 	H 	0.26800 0.70490 0.10630 0.08600
H 	H 	0.88740 0.62220 0.69570 0.07000
H 	H 	0.00470 0.65950 0.69050 0.09300
H 	H 	0.00980 0.69390 0.79690 0.05500
H 	H 	0.89370 0.76800 0.79510 0.08700
H 	H 	0.38740 0.87780 0.30430 0.07000
H 	H 	0.50470 0.84050 0.30950 0.09400
H 	H 	0.50980 0.80610 0.20310 0.05800
H 	H 	0.39370 0.73200 0.20490 0.08600
H 	H 	0.61260 0.37780 0.19570 0.07000
H 	H 	0.49530 0.34050 0.19050 0.09400
H 	H 	0.49020 0.30610 0.29690 0.05800
H 	H 	0.60630 0.23200 0.29510 0.08600
H 	H 	0.11260 0.12220 0.80430 0.07000
H 	H 	0.99530 0.15950 0.80950 0.09400
H 	H 	0.99020 0.19390 0.70310 0.05800
H 	H 	0.10630 0.26800 0.70490 0.08600
H 	H 	0.69570 0.88740 0.62220 0.07000
H 	H 	0.69050 0.00470 0.65950 0.09300
H 	H 	0.79690 0.00980 0.69390 0.05500
H 	H 	0.79510 0.89370 0.76800 0.08700
H 	H 	0.30430 0.38740 0.87780 0.07000
H 	H 	0.30950 0.50470 0.84050 0.09400
H 	H 	0.20310 0.50980 0.80610 0.05800
H 	H 	0.20490 0.39370 0.73200 0.08600
H 	H 	0.19570 0.61260 0.37780 0.07000
H 	H 	0.19050 0.49530 0.34050 0.09400
H 	H 	0.29690 0.49020 0.30610 0.05800
H 	H 	0.29510 0.60630 0.23200 0.08600
H 	H 	0.80430 0.11260 0.12220 0.07000
H 	H 	0.80950 0.99530 0.15950 0.09400
H 	H 	0.70310 0.99020 0.19390 0.05800
H 	H 	0.70490 0.10630 0.26800 0.08600
H 	H 	0.37780 0.30430 0.11260 0.07000
H 	H 	0.34050 0.30950 0.99530 0.09300
H 	H 	0.30610 0.20310 0.99020 0.05500
H 	H 	0.23200 0.20490 0.10630 0.08700
H 	H 	0.12220 0.69570 0.61260 0.07000
H 	H 	0.15950 0.69050 0.49530 0.09400
H 	H 	0.19390 0.79690 0.49020 0.05800
H 	H 	0.26800 0.79510 0.60630 0.08600
H 	H 	0.62220 0.80430 0.38740 0.07000
H 	H 	0.65950 0.80950 0.50470 0.09400
H 	H 	0.69390 0.70310 0.50980 0.05800
H 	H 	0.76800 0.70490 0.39370 0.08600
H 	H 	0.87780 0.19570 0.88740 0.07000
H 	H 	0.84050 0.19050 0.00470 0.09400
H 	H 	0.80610 0.29690 0.00980 0.05800
H 	H 	0.73200 0.29510 0.89370 0.08600
H 	H 	0.11260 0.37780 0.30430 0.07000
H 	H 	0.99530 0.34050 0.30950 0.09300
H 	H 	0.99020 0.30610 0.20310 0.05500
H 	H 	0.10630 0.23200 0.20490 0.08700
H 	H 	0.61260 0.12220 0.69570 0.07000
H 	H 	0.49530 0.15950 0.69050 0.09400
H 	H 	0.49020 0.19390 0.79690 0.05800
H 	H 	0.60630 0.26800 0.79510 0.08600
H 	H 	0.38740 0.62220 0.80430 0.07000
H 	H 	0.50470 0.65950 0.80950 0.09400
H 	H 	0.50980 0.69390 0.70310 0.05800
H 	H 	0.39370 0.76800 0.70490 0.08600
H 	H 	0.88740 0.87780 0.19570 0.07000
H 	H 	0.00470 0.84050 0.19050 0.09400
H 	H 	0.00980 0.80610 0.29690 0.05800
H 	H 	0.89370 0.73200 0.29510 0.08600
H 	H 	0.30430 0.11260 0.37780 0.07000
H 	H 	0.30950 0.99530 0.34050 0.09300
H 	H 	0.20310 0.99020 0.30610 0.05500
H 	H 	0.20490 0.10630 0.23200 0.08700
H 	H 	0.69570 0.61260 0.12220 0.07000
H 	H 	0.69050 0.49530 0.15950 0.09400
H 	H 	0.79690 0.49020 0.19390 0.05800
H 	H 	0.79510 0.60630 0.26800 0.08600
H 	H 	0.80430 0.38740 0.62220 0.07000
H 	H 	0.80950 0.50470 0.65950 0.09400
H 	H 	0.70310 0.50980 0.69390 0.05800
H 	H 	0.70490 0.39370 0.76800 0.08600
H 	H 	0.19570 0.88740 0.87780 0.07000
H 	H 	0.19050 0.00470 0.84050 0.09400
H 	H 	0.29690 0.00980 0.80610 0.05800
H 	H 	0.29510 0.89370 0.73200 0.08600
C 	C 	0.63530 0.73200 0.91570 -0.05300
C 	C 	0.57410 0.76490 0.94280 0.41700
C 	C 	0.68200 0.70740 0.96590 -0.11900
C 	C 	0.72230 0.65490 0.93220 0.39400
C 	C 	0.72040 0.76960 0.98080 -0.07200
C 	C 	0.78590 0.75610 0.01500 0.35800
C 	C 	0.72620 0.80460 0.91480 -0.05700
C 	C 	0.71500 0.87790 0.92080 0.39000
C 	C 	0.86470 0.26800 0.41570 -0.05300
C 	C 	0.92590 0.23510 0.44280 0.41700
C 	C 	0.81800 0.29260 0.46590 -0.12000
C 	C 	0.77770 0.34510 0.43220 0.39400
C 	C 	0.77960 0.23040 0.48080 -0.08000
C 	C 	0.71410 0.24390 0.51500 0.36600
C 	C 	0.77380 0.19540 0.41480 -0.05500
C 	C 	0.78500 0.12210 0.42080 0.38900
C 	C 	0.36470 0.23200 0.58430 -0.05300
C 	C 	0.42590 0.26490 0.55720 0.41700
C 	C 	0.31800 0.20740 0.53410 -0.12000
C 	C 	0.27770 0.15490 0.56780 0.39400
C 	C 	0.27960 0.26960 0.51920 -0.08000
C 	C 	0.21410 0.25610 0.48500 0.36600
C 	C 	0.27380 0.30460 0.58520 -0.05500
C 	C 	0.28500 0.37790 0.57920 0.38900
C 	C 	0.13530 0.76800 0.08430 -0.05300
C 	C 	0.07410 0.73510 0.05720 0.41700
C 	C 	0.18200 0.79260 0.03410 -0.12000
C 	C 	0.22230 0.84510 0.06780 0.39400
C 	C 	0.22040 0.73040 0.01920 -0.07900
C 	C 	0.28590 0.74390 0.98500 0.36600
C 	C 	0.22620 0.69540 0.08520 -0.05500
C 	C 	0.21500 0.62210 0.07920 0.38900
C 	C 	0.91570 0.63530 0.73200 -0.05300
C 	C 	0.94280 0.57410 0.76490 0.41700
C 	C 	0.96590 0.68200 0.70740 -0.11900
C 	C 	0.93220 0.72230 0.65490 0.39400
C 	C 	0.98080 0.72040 0.76960 -0.07200
C 	C 	0.01500 0.78590 0.75610 0.35800
C 	C 	0.91480 0.72620 0.80460 -0.05700
C 	C 	0.92080 0.71500 0.87790 0.39000
C 	C 	0.41570 0.86470 0.26800 -0.05300
C 	C 	0.44280 0.92590 0.23510 0.41700
C 	C 	0.46590 0.81800 0.29260 -0.12000
C 	C 	0.43220 0.77770 0.34510 0.39400
C 	C 	0.48080 0.77960 0.23040 -0.08000
C 	C 	0.51500 0.71410 0.24390 0.36600
C 	C 	0.41480 0.77380 0.19540 -0.05500
C 	C 	0.42080 0.78500 0.12210 0.38900
C 	C 	0.58430 0.36470 0.23200 -0.05300
C 	C 	0.55720 0.42590 0.26490 0.41700
C 	C 	0.53410 0.31800 0.20740 -0.12000
C 	C 	0.56780 0.27770 0.15490 0.39400
C 	C 	0.51920 0.27960 0.26960 -0.08000
C 	C 	0.48500 0.21410 0.25610 0.36600
C 	C 	0.58520 0.27380 0.30460 -0.05500
C 	C 	0.57920 0.28500 0.37790 0.38900
C 	C 	0.08430 0.13530 0.76800 -0.05300
C 	C 	0.05720 0.07410 0.73510 0.41700
C 	C 	0.03410 0.18200 0.79260 -0.12000
C 	C 	0.06780 0.22230 0.84510 0.39400
C 	C 	0.01920 0.22040 0.73040 -0.07900
C 	C 	0.98500 0.28590 0.74390 0.36600
C 	C 	0.08520 0.22620 0.69540 -0.05500
C 	C 	0.07920 0.21500 0.62210 0.38900
C 	C 	0.73200 0.91570 0.63530 -0.05300
C 	C 	0.76490 0.94280 0.57410 0.41700
C 	C 	0.70740 0.96590 0.68200 -0.11900
C 	C 	0.65490 0.93220 0.72230 0.39400
C 	C 	0.76960 0.98080 0.72040 -0.07200
C 	C 	0.75610 0.01500 0.78590 0.35800
C 	C 	0.80460 0.91480 0.72620 -0.05700
C 	C 	0.87790 0.92080 0.71500 0.39000
C 	C 	0.26800 0.41570 0.86470 -0.05300
C 	C 	0.23510 0.44280 0.92590 0.41700
C 	C 	0.29260 0.46590 0.81800 -0.12000
C 	C 	0.34510 0.43220 0.77770 0.39400
C 	C 	0.23040 0.48080 0.77960 -0.08000
C 	C 	0.24390 0.51500 0.71410 0.36600
C 	C 	0.19540 0.41480 0.77380 -0.05500
C 	C 	0.12210 0.42080 0.78500 0.38900
C 	C 	0.23200 0.58430 0.36470 -0.05300
C 	C 	0.26490 0.55720 0.42590 0.41700
C 	C 	0.20740 0.53410 0.31800 -0.12000
C 	C 	0.15490 0.56780 0.27770 0.39400
C 	C 	0.26960 0.51920 0.27960 -0.08000
C 	C 	0.25610 0.48500 0.21410 0.36600
C 	C 	0.30460 0.58520 0.27380 -0.05500
C 	C 	0.37790 0.57920 0.28500 0.38900
C 	C 	0.76800 0.08430 0.13530 -0.05300
C 	C 	0.73510 0.05720 0.07410 0.41700
C 	C 	0.79260 0.03410 0.18200 -0.12000
C 	C 	0.84510 0.06780 0.22230 0.39400
C 	C 	0.73040 0.01920 0.22040 -0.07900
C 	C 	0.74390 0.98500 0.28590 0.36600
C 	C 	0.69540 0.08520 0.22620 -0.05500
C 	C 	0.62210 0.07920 0.21500 0.38900
C 	C 	0.36470 0.26800 0.08430 -0.05300
C 	C 	0.42590 0.23510 0.05720 0.41700
C 	C 	0.31800 0.29260 0.03410 -0.11900
C 	C 	0.27770 0.34510 0.06780 0.39400
C 	C 	0.27960 0.23040 0.01920 -0.07200
C 	C 	0.21410 0.24390 0.98500 0.35800
C 	C 	0.27380 0.19540 0.08520 -0.05700
C 	C 	0.28500 0.12210 0.07920 0.39000
C 	C 	0.13530 0.73200 0.58430 -0.05300
C 	C 	0.07410 0.76490 0.55720 0.41700
C 	C 	0.18200 0.70740 0.53410 -0.12000
C 	C 	0.22230 0.65490 0.56780 0.39400
C 	C 	0.22040 0.76960 0.51920 -0.08000
C 	C 	0.28590 0.75610 0.48500 0.36600
C 	C 	0.22620 0.80460 0.58520 -0.05500
C 	C 	0.21500 0.87790 0.57920 0.38900
C 	C 	0.63530 0.76800 0.41570 -0.05300
C 	C 	0.57410 0.73510 0.44280 0.41700
C 	C 	0.68200 0.79260 0.46590 -0.12000
C 	C 	0.72230 0.84510 0.43220 0.39400
C 	C 	0.72040 0.73040 0.48080 -0.08000
C 	C 	0.78590 0.74390 0.51500 0.36600
C 	C 	0.72620 0.69540 0.41480 -0.05500
C 	C 	0.71500 0.62210 0.42080 0.38900
C 	C 	0.86470 0.23200 0.91570 -0.05300
C 	C 	0.92590 0.26490 0.94280 0.41700
C 	C 	0.81800 0.20740 0.96590 -0.12000
C 	C 	0.77770 0.15490 0.93220 0.39400
C 	C 	0.77960 0.26960 0.98080 -0.07900
C 	C 	0.71410 0.25610 0.01500 0.36600
C 	C 	0.77380 0.30460 0.91480 -0.05500
C 	C 	0.78500 0.37790 0.92080 0.38900
C 	C 	0.08430 0.36470 0.26800 -0.05300
C 	C 	0.05720 0.42590 0.23510 0.41700
C 	C 	0.03410 0.31800 0.29260 -0.11900
C 	C 	0.06780 0.27770 0.34510 0.39400
C 	C 	0.01920 0.27960 0.23040 -0.07200
C 	C 	0.98500 0.21410 0.24390 0.35800
C 	C 	0.08520 0.27380 0.19540 -0.05700
C 	C 	0.07920 0.28500 0.12210 0.39000
C 	C 	0.58430 0.13530 0.73200 -0.05300
C 	C 	0.55720 0.07410 0.76490 0.41700
C 	C 	0.53410 0.18200 0.70740 -0.12000
C 	C 	0.56780 0.22230 0.65490 0.39400
C 	C 	0.51920 0.22040 0.76960 -0.08000
C 	C 	0.48500 0.28590 0.75610 0.36600
C 	C 	0.58520 0.22620 0.80460 -0.05500
C 	C 	0.57920 0.21500 0.87790 0.38900
C 	C 	0.41570 0.63530 0.76800 -0.05300
C 	C 	0.44280 0.57410 0.73510 0.41700
C 	C 	0.46590 0.68200 0.79260 -0.12000
C 	C 	0.43220 0.72230 0.84510 0.39400
C 	C 	0.48080 0.72040 0.73040 -0.08000
C 	C 	0.51500 0.78590 0.74390 0.36600
C 	C 	0.41480 0.72620 0.69540 -0.05500
C 	C 	0.42080 0.71500 0.62210 0.38900
C 	C 	0.91570 0.86470 0.23200 -0.05300
C 	C 	0.94280 0.92590 0.26490 0.41700
C 	C 	0.96590 0.81800 0.20740 -0.12000
C 	C 	0.93220 0.77770 0.15490 0.39400
C 	C 	0.98080 0.77960 0.26960 -0.07900
C 	C 	0.01500 0.71410 0.25610 0.36600
C 	C 	0.91480 0.77380 0.30460 -0.05500
C 	C 	0.92080 0.78500 0.37790 0.38900
C 	C 	0.26800 0.08430 0.36470 -0.05300
C 	C 	0.23510 0.05720 0.42590 0.41700
C 	C 	0.29260 0.03410 0.31800 -0.11900
C 	C 	0.34510 0.06780 0.27770 0.39400
C 	C 	0.23040 0.01920 0.27960 -0.07200
C 	C 	0.24390 0.98500 0.21410 0.35800
C 	C 	0.19540 0.08520 0.27380 -0.05700
C 	C 	0.12210 0.07920 0.28500 0.39000
C 	C 	0.73200 0.58430 0.13530 -0.05300
C 	C 	0.76490 0.55720 0.07410 0.41700
C 	C 	0.70740 0.53410 0.18200 -0.12000
C 	C 	0.65490 0.56780 0.22230 0.39400
C 	C 	0.76960 0.51920 0.22040 -0.08000
C 	C 	0.75610 0.48500 0.28590 0.36600
C 	C 	0.80460 0.58520 0.22620 -0.05500
C 	C 	0.87790 0.57920 0.21500 0.38900
C 	C 	0.76800 0.41570 0.63530 -0.05300
C 	C 	0.73510 0.44280 0.57410 0.41700
C 	C 	0.79260 0.46590 0.68200 -0.12000
C 	C 	0.84510 0.43220 0.72230 0.39400
C 	C 	0.73040 0.48080 0.72040 -0.08000
C 	C 	0.74390 0.51500 0.78590 0.36600
C 	C 	0.69540 0.41480 0.72620 -0.05500
C 	C 	0.62210 0.42080 0.71500 0.38900
C 	C 	0.23200 0.91570 0.86470 -0.05300
C 	C 	0.26490 0.94280 0.92590 0.41700
C 	C 	0.20740 0.96590 0.81800 -0.12000
C 	C 	0.15490 0.93220 0.77770 0.39400
C 	C 	0.26960 0.98080 0.77960 -0.07900
C 	C 	0.25610 0.01500 0.71410 0.36600
C 	C 	0.30460 0.91480 0.77380 -0.05500
C 	C 	0.37790 0.92080 0.78500 0.38900
O 	O 	0.67170 0.78010 0.87660 -0.26100
O 	O 	0.55640 0.81440 0.91350 -0.63900
O 	O 	0.54310 0.73680 0.98620 -0.43800
O 	O 	0.70180 0.59490 0.94380 -0.44700
O 	O 	0.76730 0.66830 0.89790 -0.49600
O 	O 	0.78050 0.72240 0.06570 -0.47300
O 	O 	0.83900 0.77740 0.99300 -0.41100
O 	O 	0.75890 0.91250 0.94800 -0.42600
O 	O 	0.66330 0.90260 0.90180 -0.61400
O 	O 	0.54370 0.92150 0.84140 -0.95400
O 	O 	0.82830 0.21990 0.37660 -0.26100
O 	O 	0.94360 0.18560 0.41350 -0.64000
O 	O 	0.95690 0.26320 0.48620 -0.43900
O 	O 	0.79820 0.40510 0.44380 -0.44700
O 	O 	0.73270 0.33170 0.39790 -0.49600
O 	O 	0.71950 0.27760 0.56570 -0.47400
O 	O 	0.66100 0.22260 0.49300 -0.41500
O 	O 	0.74110 0.08750 0.44800 -0.42800
O 	O 	0.83670 0.09740 0.40180 -0.61500
O 	O 	0.95630 0.07850 0.34140 -0.95500
O 	O 	0.32830 0.28010 0.62340 -0.26100
O 	O 	0.44360 0.31440 0.58650 -0.63900
O 	O 	0.45690 0.23680 0.51380 -0.43900
O 	O 	0.29820 0.09490 0.55620 -0.44700
O 	O 	0.23270 0.16830 0.60210 -0.49600
O 	O 	0.21950 0.22240 0.43430 -0.47400
O 	O 	0.16100 0.27740 0.50700 -0.41500
O 	O 	0.24110 0.41250 0.55200 -0.42800
O 	O 	0.33670 0.40260 0.59820 -0.61500
O 	O 	0.45630 0.42150 0.65860 -0.95400
O 	O 	0.17170 0.71990 0.12340 -0.26100
O 	O 	0.05640 0.68560 0.08650 -0.63900
O 	O 	0.04310 0.76320 0.01380 -0.43900
O 	O 	0.20180 0.90510 0.05620 -0.44800
O 	O 	0.26730 0.83170 0.10210 -0.49600
O 	O 	0.28050 0.77760 0.93430 -0.47400
O 	O 	0.33900 0.72260 0.00700 -0.41500
O 	O 	0.25890 0.58750 0.05200 -0.42800
O 	O 	0.16330 0.59740 0.09820 -0.61500
O 	O 	0.04370 0.57850 0.15860 -0.95400
O 	O 	0.87660 0.67170 0.78010 -0.26100
O 	O 	0.91350 0.55640 0.81440 -0.63900
O 	O 	0.98620 0.54310 0.73680 -0.43800
O 	O 	0.94380 0.70180 0.59490 -0.44700
O 	O 	0.89790 0.76730 0.66830 -0.49600
O 	O 	0.06570 0.78050 0.72240 -0.47300
O 	O 	0.99300 0.83900 0.77740 -0.41100
O 	O 	0.94800 0.75890 0.91250 -0.42600
O 	O 	0.90180 0.66330 0.90260 -0.61400
O 	O 	0.84140 0.54370 0.92150 -0.95400
O 	O 	0.37660 0.82830 0.21990 -0.26100
O 	O 	0.41350 0.94360 0.18560 -0.64000
O 	O 	0.48620 0.95690 0.26320 -0.43900
O 	O 	0.44380 0.79820 0.40510 -0.44700
O 	O 	0.39790 0.73270 0.33170 -0.49600
O 	O 	0.56570 0.71950 0.27760 -0.47400
O 	O 	0.49300 0.66100 0.22260 -0.41500
O 	O 	0.44800 0.74110 0.08750 -0.42800
O 	O 	0.40180 0.83670 0.09740 -0.61500
O 	O 	0.34140 0.95630 0.07850 -0.95500
O 	O 	0.62340 0.32830 0.28010 -0.26100
O 	O 	0.58650 0.44360 0.31440 -0.63900
O 	O 	0.51380 0.45690 0.23680 -0.43900
O 	O 	0.55620 0.29820 0.09490 -0.44700
O 	O 	0.60210 0.23270 0.16830 -0.49600
O 	O 	0.43430 0.21950 0.22240 -0.47400
O 	O 	0.50700 0.16100 0.27740 -0.41500
O 	O 	0.55200 0.24110 0.41250 -0.42800
O 	O 	0.59820 0.33670 0.40260 -0.61500
O 	O 	0.65860 0.45630 0.42150 -0.95400
O 	O 	0.12340 0.17170 0.71990 -0.26100
O 	O 	0.08650 0.05640 0.68560 -0.63900
O 	O 	0.01380 0.04310 0.76320 -0.43900
O 	O 	0.05620 0.20180 0.90510 -0.44800
O 	O 	0.10210 0.26730 0.83170 -0.49600
O 	O 	0.93430 0.28050 0.77760 -0.47400
O 	O 	0.00700 0.33900 0.72260 -0.41500
O 	O 	0.05200 0.25890 0.58750 -0.42800
O 	O 	0.09820 0.16330 0.59740 -0.61500
O 	O 	0.15860 0.04370 0.57850 -0.95400
O 	O 	0.78010 0.87660 0.67170 -0.26100
O 	O 	0.81440 0.91350 0.55640 -0.63900
O 	O 	0.73680 0.98620 0.54310 -0.43800
O 	O 	0.59490 0.94380 0.70180 -0.44700
O 	O 	0.66830 0.89790 0.76730 -0.49600
O 	O 	0.72240 0.06570 0.78050 -0.47300
O 	O 	0.77740 0.99300 0.83900 -0.41100
O 	O 	0.91250 0.94800 0.75890 -0.42600
O 	O 	0.90260 0.90180 0.66330 -0.61400
O 	O 	0.92150 0.84140 0.54370 -0.95400
O 	O 	0.21990 0.37660 0.82830 -0.26100
O 	O 	0.18560 0.41350 0.94360 -0.64000
O 	O 	0.26320 0.48620 0.95690 -0.43900
O 	O 	0.40510 0.44380 0.79820 -0.44700
O 	O 	0.33170 0.39790 0.73270 -0.49600
O 	O 	0.27760 0.56570 0.71950 -0.47400
O 	O 	0.22260 0.49300 0.66100 -0.41500
O 	O 	0.08750 0.44800 0.74110 -0.42800
O 	O 	0.09740 0.40180 0.83670 -0.61500
O 	O 	0.07850 0.34140 0.95630 -0.95500
O 	O 	0.28010 0.62340 0.32830 -0.26100
O 	O 	0.31440 0.58650 0.44360 -0.63900
O 	O 	0.23680 0.51380 0.45690 -0.43900
O 	O 	0.09490 0.55620 0.29820 -0.44700
O 	O 	0.16830 0.60210 0.23270 -0.49600
O 	O 	0.22240 0.43430 0.21950 -0.47400
O 	O 	0.27740 0.50700 0.16100 -0.41500
O 	O 	0.41250 0.55200 0.24110 -0.42800
O 	O 	0.40260 0.59820 0.33670 -0.61500
O 	O 	0.42150 0.65860 0.45630 -0.95400
O 	O 	0.71990 0.12340 0.17170 -0.26100
O 	O 	0.68560 0.08650 0.05640 -0.63900
O 	O 	0.76320 0.01380 0.04310 -0.43900
O 	O 	0.90510 0.05620 0.20180 -0.44800
O 	O 	0.83170 0.10210 0.26730 -0.49600
O 	O 	0.77760 0.93430 0.28050 -0.47400
O 	O 	0.72260 0.00700 0.33900 -0.41500
O 	O 	0.58750 0.05200 0.25890 -0.42800
O 	O 	0.59740 0.09820 0.16330 -0.61500
O 	O 	0.57850 0.15860 0.04370 -0.95400
O 	O 	0.32830 0.21990 0.12340 -0.26100
O 	O 	0.44360 0.18560 0.08650 -0.63900
O 	O 	0.45690 0.26320 0.01380 -0.43800
O 	O 	0.29820 0.40510 0.05620 -0.44700
O 	O 	0.23270 0.33170 0.10210 -0.49600
O 	O 	0.21950 0.27760 0.93430 -0.47300
O 	O 	0.16100 0.22260 0.00700 -0.41100
O 	O 	0.24110 0.08750 0.05200 -0.42600
O 	O 	0.33670 0.09740 0.09820 -0.61400
O 	O 	0.45630 0.07850 0.15860 -0.95400
O 	O 	0.17170 0.78010 0.62340 -0.26100
O 	O 	0.05640 0.81440 0.58650 -0.64000
O 	O 	0.04310 0.73680 0.51380 -0.43900
O 	O 	0.20180 0.59490 0.55620 -0.44700
O 	O 	0.26730 0.66830 0.60210 -0.49600
O 	O 	0.28050 0.72240 0.43430 -0.47400
O 	O 	0.33900 0.77740 0.50700 -0.41500
O 	O 	0.25890 0.91250 0.55200 -0.42800
O 	O 	0.16330 0.90260 0.59820 -0.61500
O 	O 	0.04370 0.92150 0.65860 -0.95500
O 	O 	0.67170 0.71990 0.37660 -0.26100
O 	O 	0.55640 0.68560 0.41350 -0.63900
O 	O 	0.54310 0.76320 0.48620 -0.43900
O 	O 	0.70180 0.90510 0.44380 -0.44700
O 	O 	0.76730 0.83170 0.39790 -0.49600
O 	O 	0.78050 0.77760 0.56570 -0.47400
O 	O 	0.83900 0.72260 0.49300 -0.41500
O 	O 	0.75890 0.58750 0.44800 -0.42800
O 	O 	0.66330 0.59740 0.40180 -0.61500
O 	O 	0.54370 0.57850 0.34140 -0.95400
O 	O 	0.82830 0.28010 0.87660 -0.26100
O 	O 	0.94360 0.31440 0.91350 -0.63900
O 	O 	0.95690 0.23680 0.98620 -0.43900
O 	O 	0.79820 0.09490 0.94380 -0.44800
O 	O 	0.73270 0.16830 0.89790 -0.49600
O 	O 	0.71950 0.22240 0.06570 -0.47400
O 	O 	0.66100 0.27740 0.99300 -0.41500
O 	O 	0.74110 0.41250 0.94800 -0.42800
O 	O 	0.83670 0.40260 0.90180 -0.61500
O 	O 	0.95630 0.42150 0.84140 -0.95400
O 	O 	0.12340 0.32830 0.21990 -0.26100
O 	O 	0.08650 0.44360 0.18560 -0.63900
O 	O 	0.01380 0.45690 0.26320 -0.43800
O 	O 	0.05620 0.29820 0.40510 -0.44700
O 	O 	0.10210 0.23270 0.33170 -0.49600
O 	O 	0.93430 0.21950 0.27760 -0.47300
O 	O 	0.00700 0.16100 0.22260 -0.41100
O 	O 	0.05200 0.24110 0.08750 -0.42600
O 	O 	0.09820 0.33670 0.09740 -0.61400
O 	O 	0.15860 0.45630 0.07850 -0.95400
O 	O 	0.62340 0.17170 0.78010 -0.26100
O 	O 	0.58650 0.05640 0.81440 -0.64000
O 	O 	0.51380 0.04310 0.73680 -0.43900
O 	O 	0.55620 0.20180 0.59490 -0.44700
O 	O 	0.60210 0.26730 0.66830 -0.49600
O 	O 	0.43430 0.28050 0.72240 -0.47400
O 	O 	0.50700 0.33900 0.77740 -0.41500
O 	O 	0.55200 0.25890 0.91250 -0.42800
O 	O 	0.59820 0.16330 0.90260 -0.61500
O 	O 	0.65860 0.04370 0.92150 -0.95500
O 	O 	0.37660 0.67170 0.71990 -0.26100
O 	O 	0.41350 0.55640 0.68560 -0.63900
O 	O 	0.48620 0.54310 0.76320 -0.43900
O 	O 	0.44380 0.70180 0.90510 -0.44700
O 	O 	0.39790 0.76730 0.83170 -0.49600
O 	O 	0.56570 0.78050 0.77760 -0.47400
O 	O 	0.49300 0.83900 0.72260 -0.41500
O 	O 	0.44800 0.75890 0.58750 -0.42800
O 	O 	0.40180 0.66330 0.59740 -0.61500
O 	O 	0.34140 0.54370 0.57850 -0.95400
O 	O 	0.87660 0.82830 0.28010 -0.26100
O 	O 	0.91350 0.94360 0.31440 -0.63900
O 	O 	0.98620 0.95690 0.23680 -0.43900
O 	O 	0.94380 0.79820 0.09490 -0.44800
O 	O 	0.89790 0.73270 0.16830 -0.49600
O 	O 	0.06570 0.71950 0.22240 -0.47400
O 	O 	0.99300 0.66100 0.27740 -0.41500
O 	O 	0.94800 0.74110 0.41250 -0.42800
O 	O 	0.90180 0.83670 0.40260 -0.61500
O 	O 	0.84140 0.95630 0.42150 -0.95400
O 	O 	0.21990 0.12340 0.32830 -0.26100
O 	O 	0.18560 0.08650 0.44360 -0.63900
O 	O 	0.26320 0.01380 0.45690 -0.43800
O 	O 	0.40510 0.05620 0.29820 -0.44700
O 	O 	0.33170 0.10210 0.23270 -0.49600
O 	O 	0.27760 0.93430 0.21950 -0.47300
O 	O 	0.22260 0.00700 0.16100 -0.41100
O 	O 	0.08750 0.05200 0.24110 -0.42600
O 	O 	0.09740 0.09820 0.33670 -0.61400
O 	O 	0.07850 0.15860 0.45630 -0.95400
O 	O 	0.78010 0.62340 0.17170 -0.26100
O 	O 	0.81440 0.58650 0.05640 -0.64000
O 	O 	0.73680 0.51380 0.04310 -0.43900
O 	O 	0.59490 0.55620 0.20180 -0.44700
O 	O 	0.66830 0.60210 0.26730 -0.49600
O 	O 	0.72240 0.43430 0.28050 -0.47400
O 	O 	0.77740 0.50700 0.33900 -0.41500
O 	O 	0.91250 0.55200 0.25890 -0.42800
O 	O 	0.90260 0.59820 0.16330 -0.61500
O 	O 	0.92150 0.65860 0.04370 -0.95500
O 	O 	0.71990 0.37660 0.67170 -0.26100
O 	O 	0.68560 0.41350 0.55640 -0.63900
O 	O 	0.76320 0.48620 0.54310 -0.43900
O 	O 	0.90510 0.44380 0.70180 -0.44700
O 	O 	0.83170 0.39790 0.76730 -0.49600
O 	O 	0.77760 0.56570 0.78050 -0.47400
O 	O 	0.72260 0.49300 0.83900 -0.41500
O 	O 	0.58750 0.44800 0.75890 -0.42800
O 	O 	0.59740 0.40180 0.66330 -0.61500
O 	O 	0.57850 0.34140 0.54370 -0.95400
O 	O 	0.28010 0.87660 0.82830 -0.26100
O 	O 	0.31440 0.91350 0.94360 -0.63900
O 	O 	0.23680 0.98620 0.95690 -0.43900
O 	O 	0.09490 0.94380 0.79820 -0.44800
O 	O 	0.16830 0.89790 0.73270 -0.49600
O 	O 	0.22240 0.06570 0.71950 -0.47400
O 	O 	0.27740 0.99300 0.66100 -0.41500
O 	O 	0.41250 0.94800 0.74110 -0.42800
O 	O 	0.40260 0.90180 0.83670 -0.61500
O 	O 	0.42150 0.84140 0.95630 -0.95400
