data_crystal

_cell_length_a 20.44800
_cell_length_b 20.44800
_cell_length_c 20.44800
_cell_angle_alpha 90.00000
_cell_angle_beta  90.00000
_cell_angle_gamma 90.00000

_symmetry_space_group_name_	'P 1'
_symmetry_space_group_name_H-M	'P 1'

loop_
_symmetry_equiv_pos_as_xyz
  x,y,z

loop_
_atom_site_label
_atom_site_type_symbol
_atom_site_fract_x
_atom_site_fract_y
_atom_site_fract_z
_atom_site_charge
Co	Co	0.83867 0.60157 0.85682 1.20000
Co	Co	0.99393 0.43875 0.72403 1.18100
Co	Co	0.66133 0.39843 0.35682 1.20000
Co	Co	0.50607 0.56125 0.22403 1.18100
Co	Co	0.16133 0.10157 0.64318 1.20000
Co	Co	0.00607 0.93875 0.77597 1.17900
Co	Co	0.33867 0.89843 0.14318 1.19900
Co	Co	0.49393 0.06125 0.27597 1.18100
Co	Co	0.85682 0.83867 0.60157 1.20000
Co	Co	0.72403 0.99393 0.43875 1.18100
Co	Co	0.35682 0.66133 0.39843 1.20000
Co	Co	0.22403 0.50607 0.56125 1.18100
Co	Co	0.64318 0.16133 0.10157 1.20000
Co	Co	0.77597 0.00607 0.93875 1.17900
Co	Co	0.14318 0.33867 0.89843 1.19900
Co	Co	0.27597 0.49393 0.06125 1.18100
Co	Co	0.60157 0.85682 0.83867 1.20000
Co	Co	0.43875 0.72403 0.99393 1.18100
Co	Co	0.39843 0.35682 0.66133 1.20000
Co	Co	0.56125 0.22403 0.50607 1.18100
Co	Co	0.10157 0.64318 0.16133 1.20000
Co	Co	0.93875 0.77597 0.00607 1.17900
Co	Co	0.89843 0.14318 0.33867 1.19900
Co	Co	0.06125 0.27597 0.49393 1.18100
Co	Co	0.16133 0.39843 0.14318 1.20000
Co	Co	0.00607 0.56125 0.27597 1.18100
Co	Co	0.33867 0.60157 0.64318 1.20000
Co	Co	0.49393 0.43875 0.77597 1.18100
Co	Co	0.83867 0.89843 0.35682 1.20000
Co	Co	0.99393 0.06125 0.22403 1.17900
Co	Co	0.66133 0.10157 0.85682 1.19800
Co	Co	0.50607 0.93875 0.72403 1.18000
Co	Co	0.14318 0.16133 0.39843 1.19900
Co	Co	0.27597 0.00607 0.56125 1.18000
Co	Co	0.64318 0.33867 0.60157 1.19900
Co	Co	0.77597 0.49393 0.43875 1.18000
Co	Co	0.35682 0.83867 0.89843 1.19900
Co	Co	0.22403 0.99393 0.06125 1.17800
Co	Co	0.85682 0.66133 0.10157 1.19800
Co	Co	0.72403 0.50607 0.93875 1.18000
Co	Co	0.39843 0.14318 0.16133 1.19900
Co	Co	0.56125 0.27597 0.00607 1.18000
Co	Co	0.60157 0.64318 0.33867 1.19900
Co	Co	0.43875 0.77597 0.49393 1.18000
Co	Co	0.89843 0.35682 0.83867 1.19900
Co	Co	0.06125 0.22403 0.99393 1.17800
Co	Co	0.10157 0.85682 0.66133 1.19800
Co	Co	0.93875 0.72403 0.50607 1.18000
H 	H 	0.87880 0.62200 0.69900 0.05900
H 	H 	0.99740 0.66120 0.69200 0.09100
H 	H 	0.00850 0.69930 0.79320 0.07400
H 	H 	0.88890 0.76320 0.80490 0.07700
H 	H 	0.85330 0.49460 0.92310 0.23000
H 	H 	0.84150 0.55170 0.97320 0.23400
H 	H 	0.62120 0.37800 0.19900 0.06000
H 	H 	0.50260 0.33880 0.19200 0.08800
H 	H 	0.49150 0.30070 0.29320 0.08000
H 	H 	0.61110 0.23680 0.30490 0.07600
H 	H 	0.64670 0.50540 0.42310 0.23000
H 	H 	0.65850 0.44830 0.47320 0.23300
H 	H 	0.12120 0.12200 0.80100 0.06000
H 	H 	0.00260 0.16120 0.80800 0.08900
H 	H 	0.99150 0.19930 0.70680 0.07900
H 	H 	0.11110 0.26320 0.69510 0.07600
H 	H 	0.14670 0.99460 0.57690 0.22800
H 	H 	0.15850 0.05170 0.52680 0.23300
H 	H 	0.37880 0.87800 0.30100 0.05900
H 	H 	0.49740 0.83880 0.30800 0.08800
H 	H 	0.50850 0.80070 0.20680 0.08000
H 	H 	0.38890 0.73680 0.19510 0.07600
H 	H 	0.35330 0.00540 0.07690 0.23300
H 	H 	0.34150 0.94830 0.02680 0.23300
H 	H 	0.69900 0.87880 0.62200 0.05900
H 	H 	0.69200 0.99740 0.66120 0.09100
H 	H 	0.79320 0.00850 0.69930 0.07400
H 	H 	0.80490 0.88890 0.76320 0.07700
H 	H 	0.92310 0.85330 0.49460 0.23000
H 	H 	0.97320 0.84150 0.55170 0.23400
H 	H 	0.19900 0.62120 0.37800 0.06000
H 	H 	0.19200 0.50260 0.33880 0.08800
H 	H 	0.29320 0.49150 0.30070 0.08000
H 	H 	0.30490 0.61110 0.23680 0.07600
H 	H 	0.42310 0.64670 0.50540 0.23000
H 	H 	0.47320 0.65850 0.44830 0.23300
H 	H 	0.80100 0.12120 0.12200 0.06000
H 	H 	0.80800 0.00260 0.16120 0.08900
H 	H 	0.70680 0.99150 0.19930 0.07900
H 	H 	0.69510 0.11110 0.26320 0.07600
H 	H 	0.57690 0.14670 0.99460 0.22800
H 	H 	0.52680 0.15850 0.05170 0.23300
H 	H 	0.30100 0.37880 0.87800 0.05900
H 	H 	0.30800 0.49740 0.83880 0.08800
H 	H 	0.20680 0.50850 0.80070 0.08000
H 	H 	0.19510 0.38890 0.73680 0.07600
H 	H 	0.07690 0.35330 0.00540 0.23300
H 	H 	0.02680 0.34150 0.94830 0.23300
H 	H 	0.62200 0.69900 0.87880 0.05900
H 	H 	0.66120 0.69200 0.99740 0.09100
H 	H 	0.69930 0.79320 0.00850 0.07400
H 	H 	0.76320 0.80490 0.88890 0.07700
H 	H 	0.49460 0.92310 0.85330 0.23000
H 	H 	0.55170 0.97320 0.84150 0.23400
H 	H 	0.37800 0.19900 0.62120 0.06000
H 	H 	0.33880 0.19200 0.50260 0.08800
H 	H 	0.30070 0.29320 0.49150 0.08000
H 	H 	0.23680 0.30490 0.61110 0.07600
H 	H 	0.50540 0.42310 0.64670 0.23000
H 	H 	0.44830 0.47320 0.65850 0.23300
H 	H 	0.12200 0.80100 0.12120 0.06000
H 	H 	0.16120 0.80800 0.00260 0.08900
H 	H 	0.19930 0.70680 0.99150 0.07900
H 	H 	0.26320 0.69510 0.11110 0.07600
H 	H 	0.99460 0.57690 0.14670 0.22800
H 	H 	0.05170 0.52680 0.15850 0.23300
H 	H 	0.87800 0.30100 0.37880 0.05900
H 	H 	0.83880 0.30800 0.49740 0.08800
H 	H 	0.80070 0.20680 0.50850 0.08000
H 	H 	0.73680 0.19510 0.38890 0.07600
H 	H 	0.00540 0.07690 0.35330 0.23300
H 	H 	0.94830 0.02680 0.34150 0.23300
H 	H 	0.12120 0.37800 0.30100 0.05900
H 	H 	0.00260 0.33880 0.30800 0.09100
H 	H 	0.99150 0.30070 0.20680 0.07400
H 	H 	0.11110 0.23680 0.19510 0.07700
H 	H 	0.14670 0.50540 0.07690 0.23000
H 	H 	0.15850 0.44830 0.02680 0.23400
H 	H 	0.37880 0.62200 0.80100 0.06000
H 	H 	0.49740 0.66120 0.80800 0.08800
H 	H 	0.50850 0.69930 0.70680 0.08000
H 	H 	0.38890 0.76320 0.69510 0.07600
H 	H 	0.35330 0.49460 0.57690 0.23000
H 	H 	0.34150 0.55170 0.52680 0.23300
H 	H 	0.87880 0.87800 0.19900 0.06000
H 	H 	0.99740 0.83880 0.19200 0.08900
H 	H 	0.00850 0.80070 0.29320 0.07900
H 	H 	0.88890 0.73680 0.30490 0.07600
H 	H 	0.85330 0.00540 0.42310 0.22800
H 	H 	0.84150 0.94830 0.47320 0.23300
H 	H 	0.62120 0.12200 0.69900 0.05900
H 	H 	0.50260 0.16120 0.69200 0.08800
H 	H 	0.49150 0.19930 0.79320 0.08000
H 	H 	0.61110 0.26320 0.80490 0.07600
H 	H 	0.64670 0.99460 0.92310 0.23300
H 	H 	0.65850 0.05170 0.97320 0.23300
H 	H 	0.30100 0.12120 0.37800 0.05900
H 	H 	0.30800 0.00260 0.33880 0.09100
H 	H 	0.20680 0.99150 0.30070 0.07400
H 	H 	0.19510 0.11110 0.23680 0.07700
H 	H 	0.07690 0.14670 0.50540 0.23000
H 	H 	0.02680 0.15850 0.44830 0.23400
H 	H 	0.80100 0.37880 0.62200 0.06000
H 	H 	0.80800 0.49740 0.66120 0.08800
H 	H 	0.70680 0.50850 0.69930 0.08000
H 	H 	0.69510 0.38890 0.76320 0.07600
H 	H 	0.57690 0.35330 0.49460 0.23000
H 	H 	0.52680 0.34150 0.55170 0.23300
H 	H 	0.19900 0.87880 0.87800 0.06000
H 	H 	0.19200 0.99740 0.83880 0.08900
H 	H 	0.29320 0.00850 0.80070 0.07900
H 	H 	0.30490 0.88890 0.73680 0.07600
H 	H 	0.42310 0.85330 0.00540 0.22800
H 	H 	0.47320 0.84150 0.94830 0.23300
H 	H 	0.69900 0.62120 0.12200 0.05900
H 	H 	0.69200 0.50260 0.16120 0.08800
H 	H 	0.79320 0.49150 0.19930 0.08000
H 	H 	0.80490 0.61110 0.26320 0.07600
H 	H 	0.92310 0.64670 0.99460 0.23300
H 	H 	0.97320 0.65850 0.05170 0.23300
H 	H 	0.37800 0.30100 0.12120 0.05900
H 	H 	0.33880 0.30800 0.00260 0.09100
H 	H 	0.30070 0.20680 0.99150 0.07400
H 	H 	0.23680 0.19510 0.11110 0.07700
H 	H 	0.50540 0.07690 0.14670 0.23000
H 	H 	0.44830 0.02680 0.15850 0.23400
H 	H 	0.62200 0.80100 0.37880 0.06000
H 	H 	0.66120 0.80800 0.49740 0.08800
H 	H 	0.69930 0.70680 0.50850 0.08000
H 	H 	0.76320 0.69510 0.38890 0.07600
H 	H 	0.49460 0.57690 0.35330 0.23000
H 	H 	0.55170 0.52680 0.34150 0.23300
H 	H 	0.87800 0.19900 0.87880 0.06000
H 	H 	0.83880 0.19200 0.99740 0.08900
H 	H 	0.80070 0.29320 0.00850 0.07900
H 	H 	0.73680 0.30490 0.88890 0.07600
H 	H 	0.00540 0.42310 0.85330 0.22800
H 	H 	0.94830 0.47320 0.84150 0.23300
H 	H 	0.12200 0.69900 0.62120 0.05900
H 	H 	0.16120 0.69200 0.50260 0.08800
H 	H 	0.19930 0.79320 0.49150 0.08000
H 	H 	0.26320 0.80490 0.61110 0.07600
H 	H 	0.99460 0.92310 0.64670 0.23300
H 	H 	0.05170 0.97320 0.65850 0.23300
C 	C 	0.90900 0.63360 0.73430 -0.03200
C 	C 	0.93820 0.57120 0.76200 0.34000
C 	C 	0.95820 0.68370 0.70820 -0.12700
C 	C 	0.92590 0.72120 0.65320 0.42100
C 	C 	0.97510 0.72380 0.76900 -0.08800
C 	C 	0.00370 0.79120 0.75390 0.38700
C 	C 	0.91250 0.72180 0.80990 -0.03800
C 	C 	0.92610 0.70980 0.88160 0.34600
C 	C 	0.59100 0.36640 0.23430 -0.03300
C 	C 	0.56180 0.42880 0.26200 0.34100
C 	C 	0.54180 0.31630 0.20820 -0.12300
C 	C 	0.57410 0.27880 0.15320 0.41900
C 	C 	0.52490 0.27620 0.26900 -0.10000
C 	C 	0.49630 0.20880 0.25390 0.39700
C 	C 	0.58750 0.27820 0.30990 -0.03400
C 	C 	0.57390 0.29020 0.38160 0.34500
C 	C 	0.09100 0.13360 0.76570 -0.03300
C 	C 	0.06180 0.07120 0.73800 0.34100
C 	C 	0.04180 0.18370 0.79180 -0.12300
C 	C 	0.07410 0.22120 0.84680 0.41900
C 	C 	0.02490 0.22380 0.73100 -0.09900
C 	C 	0.99630 0.29120 0.74610 0.39800
C 	C 	0.08750 0.22180 0.69010 -0.03400
C 	C 	0.07390 0.20980 0.61840 0.34500
C 	C 	0.40900 0.86640 0.26570 -0.03300
C 	C 	0.43820 0.92880 0.23800 0.34100
C 	C 	0.45820 0.81630 0.29180 -0.12300
C 	C 	0.42590 0.77880 0.34680 0.41900
C 	C 	0.47510 0.77620 0.23100 -0.10000
C 	C 	0.50370 0.70880 0.24610 0.39700
C 	C 	0.41250 0.77820 0.19010 -0.03400
C 	C 	0.42610 0.79020 0.11840 0.34500
C 	C 	0.73430 0.90900 0.63360 -0.03200
C 	C 	0.76200 0.93820 0.57120 0.34000
C 	C 	0.70820 0.95820 0.68370 -0.12700
C 	C 	0.65320 0.92590 0.72120 0.42100
C 	C 	0.76900 0.97510 0.72380 -0.08800
C 	C 	0.75390 0.00370 0.79120 0.38700
C 	C 	0.80990 0.91250 0.72180 -0.03800
C 	C 	0.88160 0.92610 0.70980 0.34600
C 	C 	0.23430 0.59100 0.36640 -0.03300
C 	C 	0.26200 0.56180 0.42880 0.34100
C 	C 	0.20820 0.54180 0.31630 -0.12300
C 	C 	0.15320 0.57410 0.27880 0.41900
C 	C 	0.26900 0.52490 0.27620 -0.10000
C 	C 	0.25390 0.49630 0.20880 0.39700
C 	C 	0.30990 0.58750 0.27820 -0.03400
C 	C 	0.38160 0.57390 0.29020 0.34500
C 	C 	0.76570 0.09100 0.13360 -0.03300
C 	C 	0.73800 0.06180 0.07120 0.34100
C 	C 	0.79180 0.04180 0.18370 -0.12300
C 	C 	0.84680 0.07410 0.22120 0.41900
C 	C 	0.73100 0.02490 0.22380 -0.09900
C 	C 	0.74610 0.99630 0.29120 0.39800
C 	C 	0.69010 0.08750 0.22180 -0.03400
C 	C 	0.61840 0.07390 0.20980 0.34500
C 	C 	0.26570 0.40900 0.86640 -0.03300
C 	C 	0.23800 0.43820 0.92880 0.34100
C 	C 	0.29180 0.45820 0.81630 -0.12300
C 	C 	0.34680 0.42590 0.77880 0.41900
C 	C 	0.23100 0.47510 0.77620 -0.10000
C 	C 	0.24610 0.50370 0.70880 0.39700
C 	C 	0.19010 0.41250 0.77820 -0.03400
C 	C 	0.11840 0.42610 0.79020 0.34500
C 	C 	0.63360 0.73430 0.90900 -0.03200
C 	C 	0.57120 0.76200 0.93820 0.34000
C 	C 	0.68370 0.70820 0.95820 -0.12700
C 	C 	0.72120 0.65320 0.92590 0.42100
C 	C 	0.72380 0.76900 0.97510 -0.08800
C 	C 	0.79120 0.75390 0.00370 0.38700
C 	C 	0.72180 0.80990 0.91250 -0.03800
C 	C 	0.70980 0.88160 0.92610 0.34600
C 	C 	0.36640 0.23430 0.59100 -0.03300
C 	C 	0.42880 0.26200 0.56180 0.34100
C 	C 	0.31630 0.20820 0.54180 -0.12300
C 	C 	0.27880 0.15320 0.57410 0.41900
C 	C 	0.27620 0.26900 0.52490 -0.10000
C 	C 	0.20880 0.25390 0.49630 0.39700
C 	C 	0.27820 0.30990 0.58750 -0.03400
C 	C 	0.29020 0.38160 0.57390 0.34500
C 	C 	0.13360 0.76570 0.09100 -0.03300
C 	C 	0.07120 0.73800 0.06180 0.34100
C 	C 	0.18370 0.79180 0.04180 -0.12300
C 	C 	0.22120 0.84680 0.07410 0.41900
C 	C 	0.22380 0.73100 0.02490 -0.09900
C 	C 	0.29120 0.74610 0.99630 0.39800
C 	C 	0.22180 0.69010 0.08750 -0.03400
C 	C 	0.20980 0.61840 0.07390 0.34500
C 	C 	0.86640 0.26570 0.40900 -0.03300
C 	C 	0.92880 0.23800 0.43820 0.34100
C 	C 	0.81630 0.29180 0.45820 -0.12300
C 	C 	0.77880 0.34680 0.42590 0.41900
C 	C 	0.77620 0.23100 0.47510 -0.10000
C 	C 	0.70880 0.24610 0.50370 0.39700
C 	C 	0.77820 0.19010 0.41250 -0.03400
C 	C 	0.79020 0.11840 0.42610 0.34500
C 	C 	0.09100 0.36640 0.26570 -0.03200
C 	C 	0.06180 0.42880 0.23800 0.34000
C 	C 	0.04180 0.31630 0.29180 -0.12700
C 	C 	0.07410 0.27880 0.34680 0.42100
C 	C 	0.02490 0.27620 0.23100 -0.08800
C 	C 	0.99630 0.20880 0.24610 0.38700
C 	C 	0.08750 0.27820 0.19010 -0.03800
C 	C 	0.07390 0.29020 0.11840 0.34600
C 	C 	0.40900 0.63360 0.76570 -0.03300
C 	C 	0.43820 0.57120 0.73800 0.34100
C 	C 	0.45820 0.68370 0.79180 -0.12300
C 	C 	0.42590 0.72120 0.84680 0.41900
C 	C 	0.47510 0.72380 0.73100 -0.10000
C 	C 	0.50370 0.79120 0.74610 0.39700
C 	C 	0.41250 0.72180 0.69010 -0.03400
C 	C 	0.42610 0.70980 0.61840 0.34500
C 	C 	0.90900 0.86640 0.23430 -0.03300
C 	C 	0.93820 0.92880 0.26200 0.34100
C 	C 	0.95820 0.81630 0.20820 -0.12300
C 	C 	0.92590 0.77880 0.15320 0.41900
C 	C 	0.97510 0.77620 0.26900 -0.09900
C 	C 	0.00370 0.70880 0.25390 0.39800
C 	C 	0.91250 0.77820 0.30990 -0.03400
C 	C 	0.92610 0.79020 0.38160 0.34500
C 	C 	0.59100 0.13360 0.73430 -0.03300
C 	C 	0.56180 0.07120 0.76200 0.34100
C 	C 	0.54180 0.18370 0.70820 -0.12300
C 	C 	0.57410 0.22120 0.65320 0.41900
C 	C 	0.52490 0.22380 0.76900 -0.10000
C 	C 	0.49630 0.29120 0.75390 0.39700
C 	C 	0.58750 0.22180 0.80990 -0.03400
C 	C 	0.57390 0.20980 0.88160 0.34500
C 	C 	0.26570 0.09100 0.36640 -0.03200
C 	C 	0.23800 0.06180 0.42880 0.34000
C 	C 	0.29180 0.04180 0.31630 -0.12700
C 	C 	0.34680 0.07410 0.27880 0.42100
C 	C 	0.23100 0.02490 0.27620 -0.08800
C 	C 	0.24610 0.99630 0.20880 0.38700
C 	C 	0.19010 0.08750 0.27820 -0.03800
C 	C 	0.11840 0.07390 0.29020 0.34600
C 	C 	0.76570 0.40900 0.63360 -0.03300
C 	C 	0.73800 0.43820 0.57120 0.34100
C 	C 	0.79180 0.45820 0.68370 -0.12300
C 	C 	0.84680 0.42590 0.72120 0.41900
C 	C 	0.73100 0.47510 0.72380 -0.10000
C 	C 	0.74610 0.50370 0.79120 0.39700
C 	C 	0.69010 0.41250 0.72180 -0.03400
C 	C 	0.61840 0.42610 0.70980 0.34500
C 	C 	0.23430 0.90900 0.86640 -0.03300
C 	C 	0.26200 0.93820 0.92880 0.34100
C 	C 	0.20820 0.95820 0.81630 -0.12300
C 	C 	0.15320 0.92590 0.77880 0.41900
C 	C 	0.26900 0.97510 0.77620 -0.09900
C 	C 	0.25390 0.00370 0.70880 0.39800
C 	C 	0.30990 0.91250 0.77820 -0.03400
C 	C 	0.38160 0.92610 0.79020 0.34500
C 	C 	0.73430 0.59100 0.13360 -0.03300
C 	C 	0.76200 0.56180 0.07120 0.34100
C 	C 	0.70820 0.54180 0.18370 -0.12300
C 	C 	0.65320 0.57410 0.22120 0.41900
C 	C 	0.76900 0.52490 0.22380 -0.10000
C 	C 	0.75390 0.49630 0.29120 0.39700
C 	C 	0.80990 0.58750 0.22180 -0.03400
C 	C 	0.88160 0.57390 0.20980 0.34500
C 	C 	0.36640 0.26570 0.09100 -0.03200
C 	C 	0.42880 0.23800 0.06180 0.34000
C 	C 	0.31630 0.29180 0.04180 -0.12700
C 	C 	0.27880 0.34680 0.07410 0.42100
C 	C 	0.27620 0.23100 0.02490 -0.08800
C 	C 	0.20880 0.24610 0.99630 0.38700
C 	C 	0.27820 0.19010 0.08750 -0.03800
C 	C 	0.29020 0.11840 0.07390 0.34600
C 	C 	0.63360 0.76570 0.40900 -0.03300
C 	C 	0.57120 0.73800 0.43820 0.34100
C 	C 	0.68370 0.79180 0.45820 -0.12300
C 	C 	0.72120 0.84680 0.42590 0.41900
C 	C 	0.72380 0.73100 0.47510 -0.10000
C 	C 	0.79120 0.74610 0.50370 0.39700
C 	C 	0.72180 0.69010 0.41250 -0.03400
C 	C 	0.70980 0.61840 0.42610 0.34500
C 	C 	0.86640 0.23430 0.90900 -0.03300
C 	C 	0.92880 0.26200 0.93820 0.34100
C 	C 	0.81630 0.20820 0.95820 -0.12300
C 	C 	0.77880 0.15320 0.92590 0.41900
C 	C 	0.77620 0.26900 0.97510 -0.09900
C 	C 	0.70880 0.25390 0.00370 0.39800
C 	C 	0.77820 0.30990 0.91250 -0.03400
C 	C 	0.79020 0.38160 0.92610 0.34500
C 	C 	0.13360 0.73430 0.59100 -0.03300
C 	C 	0.07120 0.76200 0.56180 0.34100
C 	C 	0.18370 0.70820 0.54180 -0.12300
C 	C 	0.22120 0.65320 0.57410 0.41900
C 	C 	0.22380 0.76900 0.52490 -0.10000
C 	C 	0.29120 0.75390 0.49630 0.39700
C 	C 	0.22180 0.80990 0.58750 -0.03400
C 	C 	0.20980 0.88160 0.57390 0.34500
O 	O 	0.87310 0.66888 0.78384 -0.26100
O 	O 	0.91920 0.55140 0.81680 -0.42400
O 	O 	0.97720 0.54100 0.72600 -0.39600
O 	O 	0.92930 0.69410 0.59850 -0.46900
O 	O 	0.89680 0.77230 0.66550 -0.43200
O 	O 	0.05130 0.79050 0.71510 -0.43800
O 	O 	0.98070 0.84040 0.78150 -0.42500
O 	O 	0.95740 0.75410 0.91020 -0.40300
O 	O 	0.90660 0.65840 0.90820 -0.42500
O 	O 	0.82700 0.53310 0.93210 -0.67600
O 	O 	0.62690 0.33112 0.28384 -0.26100
O 	O 	0.58080 0.44860 0.31680 -0.42400
O 	O 	0.52280 0.45900 0.22600 -0.39700
O 	O 	0.57070 0.30590 0.09850 -0.46900
O 	O 	0.60320 0.22770 0.16550 -0.43200
O 	O 	0.44870 0.20950 0.21510 -0.44000
O 	O 	0.51930 0.15960 0.28150 -0.43100
O 	O 	0.54260 0.24590 0.41020 -0.40500
O 	O 	0.59340 0.34160 0.40820 -0.42500
O 	O 	0.67300 0.46690 0.43210 -0.67600
O 	O 	0.12690 0.16888 0.71616 -0.26100
O 	O 	0.08080 0.05140 0.68320 -0.42300
O 	O 	0.02280 0.04100 0.77400 -0.39600
O 	O 	0.07070 0.19410 0.90150 -0.47000
O 	O 	0.10320 0.27230 0.83450 -0.43200
O 	O 	0.94870 0.29050 0.78490 -0.44000
O 	O 	0.01930 0.34040 0.71850 -0.43100
O 	O 	0.04260 0.25410 0.58980 -0.40400
O 	O 	0.09340 0.15840 0.59180 -0.42500
O 	O 	0.17300 0.03310 0.56790 -0.67400
O 	O 	0.37310 0.83112 0.21616 -0.26100
O 	O 	0.41920 0.94860 0.18320 -0.42500
O 	O 	0.47720 0.95900 0.27400 -0.39700
O 	O 	0.42930 0.80590 0.40150 -0.46900
O 	O 	0.39680 0.72770 0.33450 -0.43200
O 	O 	0.55130 0.70950 0.28490 -0.44000
O 	O 	0.48070 0.65960 0.21850 -0.43100
O 	O 	0.45740 0.74590 0.08980 -0.40500
O 	O 	0.40660 0.84160 0.09180 -0.42600
O 	O 	0.32700 0.96690 0.06790 -0.68000
O 	O 	0.78384 0.87310 0.66888 -0.26100
O 	O 	0.81680 0.91920 0.55140 -0.42400
O 	O 	0.72600 0.97720 0.54100 -0.39600
O 	O 	0.59850 0.92930 0.69410 -0.46900
O 	O 	0.66550 0.89680 0.77230 -0.43200
O 	O 	0.71510 0.05130 0.79050 -0.43800
O 	O 	0.78150 0.98070 0.84040 -0.42500
O 	O 	0.91020 0.95740 0.75410 -0.40300
O 	O 	0.90820 0.90660 0.65840 -0.42500
O 	O 	0.93210 0.82700 0.53310 -0.67600
O 	O 	0.28384 0.62690 0.33112 -0.26100
O 	O 	0.31680 0.58080 0.44860 -0.42400
O 	O 	0.22600 0.52280 0.45900 -0.39700
O 	O 	0.09850 0.57070 0.30590 -0.46900
O 	O 	0.16550 0.60320 0.22770 -0.43200
O 	O 	0.21510 0.44870 0.20950 -0.44000
O 	O 	0.28150 0.51930 0.15960 -0.43100
O 	O 	0.41020 0.54260 0.24590 -0.40500
O 	O 	0.40820 0.59340 0.34160 -0.42500
O 	O 	0.43210 0.67300 0.46690 -0.67600
O 	O 	0.71616 0.12690 0.16888 -0.26100
O 	O 	0.68320 0.08080 0.05140 -0.42300
O 	O 	0.77400 0.02280 0.04100 -0.39600
O 	O 	0.90150 0.07070 0.19410 -0.47000
O 	O 	0.83450 0.10320 0.27230 -0.43200
O 	O 	0.78490 0.94870 0.29050 -0.44000
O 	O 	0.71850 0.01930 0.34040 -0.43100
O 	O 	0.58980 0.04260 0.25410 -0.40400
O 	O 	0.59180 0.09340 0.15840 -0.42500
O 	O 	0.56790 0.17300 0.03310 -0.67400
O 	O 	0.21616 0.37310 0.83112 -0.26100
O 	O 	0.18320 0.41920 0.94860 -0.42500
O 	O 	0.27400 0.47720 0.95900 -0.39700
O 	O 	0.40150 0.42930 0.80590 -0.46900
O 	O 	0.33450 0.39680 0.72770 -0.43200
O 	O 	0.28490 0.55130 0.70950 -0.44000
O 	O 	0.21850 0.48070 0.65960 -0.43100
O 	O 	0.08980 0.45740 0.74590 -0.40500
O 	O 	0.09180 0.40660 0.84160 -0.42600
O 	O 	0.06790 0.32700 0.96690 -0.68000
O 	O 	0.66888 0.78384 0.87310 -0.26100
O 	O 	0.55140 0.81680 0.91920 -0.42400
O 	O 	0.54100 0.72600 0.97720 -0.39600
O 	O 	0.69410 0.59850 0.92930 -0.46900
O 	O 	0.77230 0.66550 0.89680 -0.43200
O 	O 	0.79050 0.71510 0.05130 -0.43800
O 	O 	0.84040 0.78150 0.98070 -0.42500
O 	O 	0.75410 0.91020 0.95740 -0.40300
O 	O 	0.65840 0.90820 0.90660 -0.42500
O 	O 	0.53310 0.93210 0.82700 -0.67600
O 	O 	0.33112 0.28384 0.62690 -0.26100
O 	O 	0.44860 0.31680 0.58080 -0.42400
O 	O 	0.45900 0.22600 0.52280 -0.39700
O 	O 	0.30590 0.09850 0.57070 -0.46900
O 	O 	0.22770 0.16550 0.60320 -0.43200
O 	O 	0.20950 0.21510 0.44870 -0.44000
O 	O 	0.15960 0.28150 0.51930 -0.43100
O 	O 	0.24590 0.41020 0.54260 -0.40500
O 	O 	0.34160 0.40820 0.59340 -0.42500
O 	O 	0.46690 0.43210 0.67300 -0.67600
O 	O 	0.16888 0.71616 0.12690 -0.26100
O 	O 	0.05140 0.68320 0.08080 -0.42300
O 	O 	0.04100 0.77400 0.02280 -0.39600
O 	O 	0.19410 0.90150 0.07070 -0.47000
O 	O 	0.27230 0.83450 0.10320 -0.43200
O 	O 	0.29050 0.78490 0.94870 -0.44000
O 	O 	0.34040 0.71850 0.01930 -0.43100
O 	O 	0.25410 0.58980 0.04260 -0.40400
O 	O 	0.15840 0.59180 0.09340 -0.42500
O 	O 	0.03310 0.56790 0.17300 -0.67400
O 	O 	0.83112 0.21616 0.37310 -0.26100
O 	O 	0.94860 0.18320 0.41920 -0.42500
O 	O 	0.95900 0.27400 0.47720 -0.39700
O 	O 	0.80590 0.40150 0.42930 -0.46900
O 	O 	0.72770 0.33450 0.39680 -0.43200
O 	O 	0.70950 0.28490 0.55130 -0.44000
O 	O 	0.65960 0.21850 0.48070 -0.43100
O 	O 	0.74590 0.08980 0.45740 -0.40500
O 	O 	0.84160 0.09180 0.40660 -0.42600
O 	O 	0.96690 0.06790 0.32700 -0.68000
O 	O 	0.12690 0.33112 0.21616 -0.26100
O 	O 	0.08080 0.44860 0.18320 -0.42400
O 	O 	0.02280 0.45900 0.27400 -0.39600
O 	O 	0.07070 0.30590 0.40150 -0.46900
O 	O 	0.10320 0.22770 0.33450 -0.43200
O 	O 	0.94870 0.20950 0.28490 -0.43800
O 	O 	0.01930 0.15960 0.21850 -0.42500
O 	O 	0.04260 0.24590 0.08980 -0.40300
O 	O 	0.09340 0.34160 0.09180 -0.42500
O 	O 	0.17300 0.46690 0.06790 -0.67600
O 	O 	0.37310 0.66888 0.71616 -0.26100
O 	O 	0.41920 0.55140 0.68320 -0.42400
O 	O 	0.47720 0.54100 0.77400 -0.39700
O 	O 	0.42930 0.69410 0.90150 -0.46900
O 	O 	0.39680 0.77230 0.83450 -0.43200
O 	O 	0.55130 0.79050 0.78490 -0.44000
O 	O 	0.48070 0.84040 0.71850 -0.43100
O 	O 	0.45740 0.75410 0.58980 -0.40500
O 	O 	0.40660 0.65840 0.59180 -0.42500
O 	O 	0.32700 0.53310 0.56790 -0.67600
O 	O 	0.87310 0.83112 0.28384 -0.26100
O 	O 	0.91920 0.94860 0.31680 -0.42300
O 	O 	0.97720 0.95900 0.22600 -0.39600
O 	O 	0.92930 0.80590 0.09850 -0.47000
O 	O 	0.89680 0.72770 0.16550 -0.43200
O 	O 	0.05130 0.70950 0.21510 -0.44000
O 	O 	0.98070 0.65960 0.28150 -0.43100
O 	O 	0.95740 0.74590 0.41020 -0.40400
O 	O 	0.90660 0.84160 0.40820 -0.42500
O 	O 	0.82700 0.96690 0.43210 -0.67400
O 	O 	0.62690 0.16888 0.78384 -0.26100
O 	O 	0.58080 0.05140 0.81680 -0.42500
O 	O 	0.52280 0.04100 0.72600 -0.39700
O 	O 	0.57070 0.19410 0.59850 -0.46900
O 	O 	0.60320 0.27230 0.66550 -0.43200
O 	O 	0.44870 0.29050 0.71510 -0.44000
O 	O 	0.51930 0.34040 0.78150 -0.43100
O 	O 	0.54260 0.25410 0.91020 -0.40500
O 	O 	0.59340 0.15840 0.90820 -0.42600
O 	O 	0.67300 0.03310 0.93210 -0.68000
O 	O 	0.21616 0.12690 0.33112 -0.26100
O 	O 	0.18320 0.08080 0.44860 -0.42400
O 	O 	0.27400 0.02280 0.45900 -0.39600
O 	O 	0.40150 0.07070 0.30590 -0.46900
O 	O 	0.33450 0.10320 0.22770 -0.43200
O 	O 	0.28490 0.94870 0.20950 -0.43800
O 	O 	0.21850 0.01930 0.15960 -0.42500
O 	O 	0.08980 0.04260 0.24590 -0.40300
O 	O 	0.09180 0.09340 0.34160 -0.42500
O 	O 	0.06790 0.17300 0.46690 -0.67600
O 	O 	0.71616 0.37310 0.66888 -0.26100
O 	O 	0.68320 0.41920 0.55140 -0.42400
O 	O 	0.77400 0.47720 0.54100 -0.39700
O 	O 	0.90150 0.42930 0.69410 -0.46900
O 	O 	0.83450 0.39680 0.77230 -0.43200
O 	O 	0.78490 0.55130 0.79050 -0.44000
O 	O 	0.71850 0.48070 0.84040 -0.43100
O 	O 	0.58980 0.45740 0.75410 -0.40500
O 	O 	0.59180 0.40660 0.65840 -0.42500
O 	O 	0.56790 0.32700 0.53310 -0.67600
O 	O 	0.28384 0.87310 0.83112 -0.26100
O 	O 	0.31680 0.91920 0.94860 -0.42300
O 	O 	0.22600 0.97720 0.95900 -0.39600
O 	O 	0.09850 0.92930 0.80590 -0.47000
O 	O 	0.16550 0.89680 0.72770 -0.43200
O 	O 	0.21510 0.05130 0.70950 -0.44000
O 	O 	0.28150 0.98070 0.65960 -0.43100
O 	O 	0.41020 0.95740 0.74590 -0.40400
O 	O 	0.40820 0.90660 0.84160 -0.42500
O 	O 	0.43210 0.82700 0.96690 -0.67400
O 	O 	0.78384 0.62690 0.16888 -0.26100
O 	O 	0.81680 0.58080 0.05140 -0.42500
O 	O 	0.72600 0.52280 0.04100 -0.39700
O 	O 	0.59850 0.57070 0.19410 -0.46900
O 	O 	0.66550 0.60320 0.27230 -0.43200
O 	O 	0.71510 0.44870 0.29050 -0.44000
O 	O 	0.78150 0.51930 0.34040 -0.43100
O 	O 	0.91020 0.54260 0.25410 -0.40500
O 	O 	0.90820 0.59340 0.15840 -0.42600
O 	O 	0.93210 0.67300 0.03310 -0.68000
O 	O 	0.33112 0.21616 0.12690 -0.26100
O 	O 	0.44860 0.18320 0.08080 -0.42400
O 	O 	0.45900 0.27400 0.02280 -0.39600
O 	O 	0.30590 0.40150 0.07070 -0.46900
O 	O 	0.22770 0.33450 0.10320 -0.43200
O 	O 	0.20950 0.28490 0.94870 -0.43800
O 	O 	0.15960 0.21850 0.01930 -0.42500
O 	O 	0.24590 0.08980 0.04260 -0.40300
O 	O 	0.34160 0.09180 0.09340 -0.42500
O 	O 	0.46690 0.06790 0.17300 -0.67600
O 	O 	0.66888 0.71616 0.37310 -0.26100
O 	O 	0.55140 0.68320 0.41920 -0.42400
O 	O 	0.54100 0.77400 0.47720 -0.39700
O 	O 	0.69410 0.90150 0.42930 -0.46900
O 	O 	0.77230 0.83450 0.39680 -0.43200
O 	O 	0.79050 0.78490 0.55130 -0.44000
O 	O 	0.84040 0.71850 0.48070 -0.43100
O 	O 	0.75410 0.58980 0.45740 -0.40500
O 	O 	0.65840 0.59180 0.40660 -0.42500
O 	O 	0.53310 0.56790 0.32700 -0.67600
O 	O 	0.83112 0.28384 0.87310 -0.26100
O 	O 	0.94860 0.31680 0.91920 -0.42300
O 	O 	0.95900 0.22600 0.97720 -0.39600
O 	O 	0.80590 0.09850 0.92930 -0.47000
O 	O 	0.72770 0.16550 0.89680 -0.43200
O 	O 	0.70950 0.21510 0.05130 -0.44000
O 	O 	0.65960 0.28150 0.98070 -0.43100
O 	O 	0.74590 0.41020 0.95740 -0.40400
O 	O 	0.84160 0.40820 0.90660 -0.42500
O 	O 	0.96690 0.43210 0.82700 -0.67400
O 	O 	0.16888 0.78384 0.62690 -0.26100
O 	O 	0.05140 0.81680 0.58080 -0.42500
O 	O 	0.04100 0.72600 0.52280 -0.39700
O 	O 	0.19410 0.59850 0.57070 -0.46900
O 	O 	0.27230 0.66550 0.60320 -0.43200
O 	O 	0.29050 0.71510 0.44870 -0.44000
O 	O 	0.34040 0.78150 0.51930 -0.43100
O 	O 	0.25410 0.91020 0.54260 -0.40500
O 	O 	0.15840 0.90820 0.59340 -0.42600
O 	O 	0.03310 0.93210 0.67300 -0.68000
