data_crystal

_cell_length_a 20.49500
_cell_length_b 20.49500
_cell_length_c 20.49500
_cell_angle_alpha 90.00000
_cell_angle_beta  90.00000
_cell_angle_gamma 90.00000

_symmetry_space_group_name_	'P 1'
_symmetry_space_group_name_H-M	'P 1'

loop_
_symmetry_equiv_pos_as_xyz
  x,y,z

loop_
_atom_site_label
_atom_site_type_symbol
_atom_site_fract_x
_atom_site_fract_y
_atom_site_fract_z
_atom_site_charge
Co	Co	0.83854 0.60175 0.85682 1.19700
Co	Co	0.99374 0.43919 0.72419 1.17800
Co	Co	0.66146 0.39825 0.35682 1.19700
Co	Co	0.50626 0.56081 0.22419 1.17800
Co	Co	0.16146 0.10175 0.64318 1.19700
Co	Co	0.00626 0.93919 0.77581 1.17600
Co	Co	0.33854 0.89825 0.14318 1.19700
Co	Co	0.49374 0.06081 0.27581 1.17800
Co	Co	0.85682 0.83854 0.60175 1.19700
Co	Co	0.72419 0.99374 0.43919 1.17800
Co	Co	0.35682 0.66146 0.39825 1.19700
Co	Co	0.22419 0.50626 0.56081 1.17800
Co	Co	0.64318 0.16146 0.10175 1.19700
Co	Co	0.77581 0.00626 0.93919 1.17600
Co	Co	0.14318 0.33854 0.89825 1.19700
Co	Co	0.27581 0.49374 0.06081 1.17800
Co	Co	0.60175 0.85682 0.83854 1.19700
Co	Co	0.43919 0.72419 0.99374 1.17800
Co	Co	0.39825 0.35682 0.66146 1.19700
Co	Co	0.56081 0.22419 0.50626 1.17800
Co	Co	0.10175 0.64318 0.16146 1.19700
Co	Co	0.93919 0.77581 0.00626 1.17600
Co	Co	0.89825 0.14318 0.33854 1.19700
Co	Co	0.06081 0.27581 0.49374 1.17800
Co	Co	0.16146 0.39825 0.14318 1.19700
Co	Co	0.00626 0.56081 0.27581 1.17800
Co	Co	0.33854 0.60175 0.64318 1.19700
Co	Co	0.49374 0.43919 0.77581 1.17800
Co	Co	0.83854 0.89825 0.35682 1.19700
Co	Co	0.99374 0.06081 0.22419 1.17600
Co	Co	0.66146 0.10175 0.85682 1.19700
Co	Co	0.50626 0.93919 0.72419 1.17800
Co	Co	0.14318 0.16146 0.39825 1.19700
Co	Co	0.27581 0.00626 0.56081 1.17800
Co	Co	0.64318 0.33854 0.60175 1.19700
Co	Co	0.77581 0.49374 0.43919 1.17800
Co	Co	0.35682 0.83854 0.89825 1.19700
Co	Co	0.22419 0.99374 0.06081 1.17600
Co	Co	0.85682 0.66146 0.10175 1.19700
Co	Co	0.72419 0.50626 0.93919 1.17800
Co	Co	0.39825 0.14318 0.16146 1.19700
Co	Co	0.56081 0.27581 0.00626 1.17800
Co	Co	0.60175 0.64318 0.33854 1.19800
Co	Co	0.43919 0.77581 0.49374 1.17900
Co	Co	0.89825 0.35682 0.83854 1.19800
Co	Co	0.06081 0.22419 0.99374 1.17700
Co	Co	0.10175 0.85682 0.66146 1.19800
Co	Co	0.93919 0.72419 0.50626 1.17900
H 	H 	0.87940 0.62240 0.69900 0.05900
H 	H 	0.99750 0.66150 0.69250 0.09100
H 	H 	0.00790 0.69950 0.79360 0.07200
H 	H 	0.88840 0.76310 0.80540 0.07800
H 	H 	0.85320 0.49490 0.92290 0.23000
H 	H 	0.84170 0.55190 0.97300 0.23300
H 	H 	0.62060 0.37760 0.19900 0.05900
H 	H 	0.50250 0.33850 0.19250 0.08900
H 	H 	0.49210 0.30050 0.29360 0.07800
H 	H 	0.61160 0.23690 0.30540 0.07700
H 	H 	0.64680 0.50510 0.42290 0.23000
H 	H 	0.65830 0.44810 0.47300 0.23200
H 	H 	0.12060 0.12240 0.80100 0.05900
H 	H 	0.00250 0.16150 0.80750 0.08900
H 	H 	0.99210 0.19950 0.70640 0.07700
H 	H 	0.11160 0.26310 0.69460 0.07700
H 	H 	0.14680 0.99490 0.57710 0.22900
H 	H 	0.15830 0.05190 0.52700 0.23200
H 	H 	0.37940 0.87760 0.30100 0.05900
H 	H 	0.49750 0.83850 0.30750 0.08900
H 	H 	0.50790 0.80050 0.20640 0.07800
H 	H 	0.38840 0.73690 0.19460 0.07700
H 	H 	0.35320 0.00510 0.07710 0.23400
H 	H 	0.34170 0.94810 0.02700 0.23200
H 	H 	0.69900 0.87940 0.62240 0.05900
H 	H 	0.69250 0.99750 0.66150 0.09100
H 	H 	0.79360 0.00790 0.69950 0.07200
H 	H 	0.80540 0.88840 0.76310 0.07800
H 	H 	0.92290 0.85320 0.49490 0.23000
H 	H 	0.97300 0.84170 0.55190 0.23300
H 	H 	0.19900 0.62060 0.37760 0.05900
H 	H 	0.19250 0.50250 0.33850 0.08900
H 	H 	0.29360 0.49210 0.30050 0.07800
H 	H 	0.30540 0.61160 0.23690 0.07700
H 	H 	0.42290 0.64680 0.50510 0.23000
H 	H 	0.47300 0.65830 0.44810 0.23200
H 	H 	0.80100 0.12060 0.12240 0.05900
H 	H 	0.80750 0.00250 0.16150 0.08900
H 	H 	0.70640 0.99210 0.19950 0.07700
H 	H 	0.69460 0.11160 0.26310 0.07700
H 	H 	0.57710 0.14680 0.99490 0.22900
H 	H 	0.52700 0.15830 0.05190 0.23200
H 	H 	0.30100 0.37940 0.87760 0.05900
H 	H 	0.30750 0.49750 0.83850 0.08900
H 	H 	0.20640 0.50790 0.80050 0.07800
H 	H 	0.19460 0.38840 0.73690 0.07700
H 	H 	0.07710 0.35320 0.00510 0.23400
H 	H 	0.02700 0.34170 0.94810 0.23200
H 	H 	0.62240 0.69900 0.87940 0.05900
H 	H 	0.66150 0.69250 0.99750 0.09100
H 	H 	0.69950 0.79360 0.00790 0.07200
H 	H 	0.76310 0.80540 0.88840 0.07800
H 	H 	0.49490 0.92290 0.85320 0.23000
H 	H 	0.55190 0.97300 0.84170 0.23300
H 	H 	0.37760 0.19900 0.62060 0.05900
H 	H 	0.33850 0.19250 0.50250 0.08900
H 	H 	0.30050 0.29360 0.49210 0.07800
H 	H 	0.23690 0.30540 0.61160 0.07700
H 	H 	0.50510 0.42290 0.64680 0.23000
H 	H 	0.44810 0.47300 0.65830 0.23200
H 	H 	0.12240 0.80100 0.12060 0.05900
H 	H 	0.16150 0.80750 0.00250 0.08900
H 	H 	0.19950 0.70640 0.99210 0.07700
H 	H 	0.26310 0.69460 0.11160 0.07700
H 	H 	0.99490 0.57710 0.14680 0.22900
H 	H 	0.05190 0.52700 0.15830 0.23200
H 	H 	0.87760 0.30100 0.37940 0.05900
H 	H 	0.83850 0.30750 0.49750 0.08900
H 	H 	0.80050 0.20640 0.50790 0.07800
H 	H 	0.73690 0.19460 0.38840 0.07700
H 	H 	0.00510 0.07710 0.35320 0.23400
H 	H 	0.94810 0.02700 0.34170 0.23200
H 	H 	0.12060 0.37760 0.30100 0.05900
H 	H 	0.00250 0.33850 0.30750 0.09100
H 	H 	0.99210 0.30050 0.20640 0.07200
H 	H 	0.11160 0.23690 0.19460 0.07800
H 	H 	0.14680 0.50510 0.07710 0.23000
H 	H 	0.15830 0.44810 0.02700 0.23300
H 	H 	0.37940 0.62240 0.80100 0.05900
H 	H 	0.49750 0.66150 0.80750 0.08900
H 	H 	0.50790 0.69950 0.70640 0.07800
H 	H 	0.38840 0.76310 0.69460 0.07700
H 	H 	0.35320 0.49490 0.57710 0.23000
H 	H 	0.34170 0.55190 0.52700 0.23200
H 	H 	0.87940 0.87760 0.19900 0.05900
H 	H 	0.99750 0.83850 0.19250 0.08900
H 	H 	0.00790 0.80050 0.29360 0.07700
H 	H 	0.88840 0.73690 0.30540 0.07700
H 	H 	0.85320 0.00510 0.42290 0.22900
H 	H 	0.84170 0.94810 0.47300 0.23200
H 	H 	0.62060 0.12240 0.69900 0.05900
H 	H 	0.50250 0.16150 0.69250 0.08900
H 	H 	0.49210 0.19950 0.79360 0.07800
H 	H 	0.61160 0.26310 0.80540 0.07700
H 	H 	0.64680 0.99490 0.92290 0.23400
H 	H 	0.65830 0.05190 0.97300 0.23200
H 	H 	0.30100 0.12060 0.37760 0.05900
H 	H 	0.30750 0.00250 0.33850 0.09100
H 	H 	0.20640 0.99210 0.30050 0.07200
H 	H 	0.19460 0.11160 0.23690 0.07800
H 	H 	0.07710 0.14680 0.50510 0.23000
H 	H 	0.02700 0.15830 0.44810 0.23300
H 	H 	0.80100 0.37940 0.62240 0.05900
H 	H 	0.80750 0.49750 0.66150 0.08900
H 	H 	0.70640 0.50790 0.69950 0.07800
H 	H 	0.69460 0.38840 0.76310 0.07700
H 	H 	0.57710 0.35320 0.49490 0.23000
H 	H 	0.52700 0.34170 0.55190 0.23200
H 	H 	0.19900 0.87940 0.87760 0.05900
H 	H 	0.19250 0.99750 0.83850 0.08900
H 	H 	0.29360 0.00790 0.80050 0.07700
H 	H 	0.30540 0.88840 0.73690 0.07700
H 	H 	0.42290 0.85320 0.00510 0.22900
H 	H 	0.47300 0.84170 0.94810 0.23200
H 	H 	0.69900 0.62060 0.12240 0.05900
H 	H 	0.69250 0.50250 0.16150 0.08900
H 	H 	0.79360 0.49210 0.19950 0.07800
H 	H 	0.80540 0.61160 0.26310 0.07700
H 	H 	0.92290 0.64680 0.99490 0.23400
H 	H 	0.97300 0.65830 0.05190 0.23200
H 	H 	0.37760 0.30100 0.12060 0.05900
H 	H 	0.33850 0.30750 0.00250 0.09100
H 	H 	0.30050 0.20640 0.99210 0.07200
H 	H 	0.23690 0.19460 0.11160 0.07800
H 	H 	0.50510 0.07710 0.14680 0.23000
H 	H 	0.44810 0.02700 0.15830 0.23300
H 	H 	0.62240 0.80100 0.37940 0.05900
H 	H 	0.66150 0.80750 0.49750 0.08900
H 	H 	0.69950 0.70640 0.50790 0.07800
H 	H 	0.76310 0.69460 0.38840 0.07700
H 	H 	0.49490 0.57710 0.35320 0.23000
H 	H 	0.55190 0.52700 0.34170 0.23200
H 	H 	0.87760 0.19900 0.87940 0.05900
H 	H 	0.83850 0.19250 0.99750 0.08900
H 	H 	0.80050 0.29360 0.00790 0.07700
H 	H 	0.73690 0.30540 0.88840 0.07700
H 	H 	0.00510 0.42290 0.85320 0.22900
H 	H 	0.94810 0.47300 0.84170 0.23200
H 	H 	0.12240 0.69900 0.62060 0.05900
H 	H 	0.16150 0.69250 0.50250 0.08900
H 	H 	0.19950 0.79360 0.49210 0.07800
H 	H 	0.26310 0.80540 0.61160 0.07700
H 	H 	0.99490 0.92290 0.64680 0.23400
H 	H 	0.05190 0.97300 0.65830 0.23200
C 	C 	0.90940 0.63390 0.73440 -0.03200
C 	C 	0.93840 0.57100 0.76200 0.34400
C 	C 	0.95830 0.68370 0.70850 -0.12800
C 	C 	0.92590 0.72120 0.65310 0.42500
C 	C 	0.97460 0.72380 0.76940 -0.08200
C 	C 	0.00360 0.79180 0.75370 0.38500
C 	C 	0.91190 0.72180 0.81030 -0.04000
C 	C 	0.92580 0.70950 0.88200 0.34900
C 	C 	0.59060 0.36610 0.23440 -0.03300
C 	C 	0.56160 0.42900 0.26200 0.34400
C 	C 	0.54170 0.31630 0.20850 -0.12400
C 	C 	0.57410 0.27880 0.15310 0.42300
C 	C 	0.52540 0.27620 0.26940 -0.09300
C 	C 	0.49640 0.20820 0.25370 0.39500
C 	C 	0.58810 0.27820 0.31030 -0.03700
C 	C 	0.57420 0.29050 0.38200 0.34800
C 	C 	0.09060 0.13390 0.76560 -0.03300
C 	C 	0.06160 0.07100 0.73800 0.34400
C 	C 	0.04170 0.18370 0.79150 -0.12500
C 	C 	0.07410 0.22120 0.84690 0.42300
C 	C 	0.02540 0.22380 0.73060 -0.09200
C 	C 	0.99640 0.29180 0.74630 0.39500
C 	C 	0.08810 0.22180 0.68970 -0.03700
C 	C 	0.07420 0.20950 0.61800 0.34800
C 	C 	0.40940 0.86610 0.26560 -0.03300
C 	C 	0.43840 0.92900 0.23800 0.34400
C 	C 	0.45830 0.81630 0.29150 -0.12500
C 	C 	0.42590 0.77880 0.34690 0.42300
C 	C 	0.47460 0.77620 0.23060 -0.09300
C 	C 	0.50360 0.70820 0.24630 0.39500
C 	C 	0.41190 0.77820 0.18970 -0.03700
C 	C 	0.42580 0.79050 0.11800 0.34800
C 	C 	0.73440 0.90940 0.63390 -0.03200
C 	C 	0.76200 0.93840 0.57100 0.34400
C 	C 	0.70850 0.95830 0.68370 -0.12800
C 	C 	0.65310 0.92590 0.72120 0.42500
C 	C 	0.76940 0.97460 0.72380 -0.08200
C 	C 	0.75370 0.00360 0.79180 0.38500
C 	C 	0.81030 0.91190 0.72180 -0.04000
C 	C 	0.88200 0.92580 0.70950 0.34900
C 	C 	0.23440 0.59060 0.36610 -0.03300
C 	C 	0.26200 0.56160 0.42900 0.34400
C 	C 	0.20850 0.54170 0.31630 -0.12400
C 	C 	0.15310 0.57410 0.27880 0.42300
C 	C 	0.26940 0.52540 0.27620 -0.09300
C 	C 	0.25370 0.49640 0.20820 0.39500
C 	C 	0.31030 0.58810 0.27820 -0.03700
C 	C 	0.38200 0.57420 0.29050 0.34800
C 	C 	0.76560 0.09060 0.13390 -0.03300
C 	C 	0.73800 0.06160 0.07100 0.34400
C 	C 	0.79150 0.04170 0.18370 -0.12500
C 	C 	0.84690 0.07410 0.22120 0.42300
C 	C 	0.73060 0.02540 0.22380 -0.09200
C 	C 	0.74630 0.99640 0.29180 0.39500
C 	C 	0.68970 0.08810 0.22180 -0.03700
C 	C 	0.61800 0.07420 0.20950 0.34800
C 	C 	0.26560 0.40940 0.86610 -0.03300
C 	C 	0.23800 0.43840 0.92900 0.34400
C 	C 	0.29150 0.45830 0.81630 -0.12500
C 	C 	0.34690 0.42590 0.77880 0.42300
C 	C 	0.23060 0.47460 0.77620 -0.09300
C 	C 	0.24630 0.50360 0.70820 0.39500
C 	C 	0.18970 0.41190 0.77820 -0.03700
C 	C 	0.11800 0.42580 0.79050 0.34800
C 	C 	0.63390 0.73440 0.90940 -0.03200
C 	C 	0.57100 0.76200 0.93840 0.34400
C 	C 	0.68370 0.70850 0.95830 -0.12800
C 	C 	0.72120 0.65310 0.92590 0.42500
C 	C 	0.72380 0.76940 0.97460 -0.08200
C 	C 	0.79180 0.75370 0.00360 0.38500
C 	C 	0.72180 0.81030 0.91190 -0.04000
C 	C 	0.70950 0.88200 0.92580 0.34900
C 	C 	0.36610 0.23440 0.59060 -0.03300
C 	C 	0.42900 0.26200 0.56160 0.34400
C 	C 	0.31630 0.20850 0.54170 -0.12400
C 	C 	0.27880 0.15310 0.57410 0.42300
C 	C 	0.27620 0.26940 0.52540 -0.09300
C 	C 	0.20820 0.25370 0.49640 0.39500
C 	C 	0.27820 0.31030 0.58810 -0.03700
C 	C 	0.29050 0.38200 0.57420 0.34800
C 	C 	0.13390 0.76560 0.09060 -0.03300
C 	C 	0.07100 0.73800 0.06160 0.34400
C 	C 	0.18370 0.79150 0.04170 -0.12500
C 	C 	0.22120 0.84690 0.07410 0.42300
C 	C 	0.22380 0.73060 0.02540 -0.09200
C 	C 	0.29180 0.74630 0.99640 0.39500
C 	C 	0.22180 0.68970 0.08810 -0.03700
C 	C 	0.20950 0.61800 0.07420 0.34800
C 	C 	0.86610 0.26560 0.40940 -0.03300
C 	C 	0.92900 0.23800 0.43840 0.34400
C 	C 	0.81630 0.29150 0.45830 -0.12500
C 	C 	0.77880 0.34690 0.42590 0.42300
C 	C 	0.77620 0.23060 0.47460 -0.09300
C 	C 	0.70820 0.24630 0.50360 0.39500
C 	C 	0.77820 0.18970 0.41190 -0.03700
C 	C 	0.79050 0.11800 0.42580 0.34800
C 	C 	0.09060 0.36610 0.26560 -0.03200
C 	C 	0.06160 0.42900 0.23800 0.34400
C 	C 	0.04170 0.31630 0.29150 -0.12800
C 	C 	0.07410 0.27880 0.34690 0.42500
C 	C 	0.02540 0.27620 0.23060 -0.08200
C 	C 	0.99640 0.20820 0.24630 0.38500
C 	C 	0.08810 0.27820 0.18970 -0.04000
C 	C 	0.07420 0.29050 0.11800 0.34900
C 	C 	0.40940 0.63390 0.76560 -0.03300
C 	C 	0.43840 0.57100 0.73800 0.34400
C 	C 	0.45830 0.68370 0.79150 -0.12400
C 	C 	0.42590 0.72120 0.84690 0.42300
C 	C 	0.47460 0.72380 0.73060 -0.09300
C 	C 	0.50360 0.79180 0.74630 0.39500
C 	C 	0.41190 0.72180 0.68970 -0.03700
C 	C 	0.42580 0.70950 0.61800 0.34800
C 	C 	0.90940 0.86610 0.23440 -0.03300
C 	C 	0.93840 0.92900 0.26200 0.34400
C 	C 	0.95830 0.81630 0.20850 -0.12500
C 	C 	0.92590 0.77880 0.15310 0.42300
C 	C 	0.97460 0.77620 0.26940 -0.09200
C 	C 	0.00360 0.70820 0.25370 0.39500
C 	C 	0.91190 0.77820 0.31030 -0.03700
C 	C 	0.92580 0.79050 0.38200 0.34800
C 	C 	0.59060 0.13390 0.73440 -0.03300
C 	C 	0.56160 0.07100 0.76200 0.34400
C 	C 	0.54170 0.18370 0.70850 -0.12500
C 	C 	0.57410 0.22120 0.65310 0.42300
C 	C 	0.52540 0.22380 0.76940 -0.09300
C 	C 	0.49640 0.29180 0.75370 0.39500
C 	C 	0.58810 0.22180 0.81030 -0.03700
C 	C 	0.57420 0.20950 0.88200 0.34800
C 	C 	0.26560 0.09060 0.36610 -0.03200
C 	C 	0.23800 0.06160 0.42900 0.34400
C 	C 	0.29150 0.04170 0.31630 -0.12800
C 	C 	0.34690 0.07410 0.27880 0.42500
C 	C 	0.23060 0.02540 0.27620 -0.08200
C 	C 	0.24630 0.99640 0.20820 0.38500
C 	C 	0.18970 0.08810 0.27820 -0.04000
C 	C 	0.11800 0.07420 0.29050 0.34900
C 	C 	0.76560 0.40940 0.63390 -0.03300
C 	C 	0.73800 0.43840 0.57100 0.34400
C 	C 	0.79150 0.45830 0.68370 -0.12400
C 	C 	0.84690 0.42590 0.72120 0.42300
C 	C 	0.73060 0.47460 0.72380 -0.09300
C 	C 	0.74630 0.50360 0.79180 0.39500
C 	C 	0.68970 0.41190 0.72180 -0.03700
C 	C 	0.61800 0.42580 0.70950 0.34800
C 	C 	0.23440 0.90940 0.86610 -0.03300
C 	C 	0.26200 0.93840 0.92900 0.34400
C 	C 	0.20850 0.95830 0.81630 -0.12500
C 	C 	0.15310 0.92590 0.77880 0.42300
C 	C 	0.26940 0.97460 0.77620 -0.09200
C 	C 	0.25370 0.00360 0.70820 0.39500
C 	C 	0.31030 0.91190 0.77820 -0.03700
C 	C 	0.38200 0.92580 0.79050 0.34800
C 	C 	0.73440 0.59060 0.13390 -0.03300
C 	C 	0.76200 0.56160 0.07100 0.34400
C 	C 	0.70850 0.54170 0.18370 -0.12500
C 	C 	0.65310 0.57410 0.22120 0.42300
C 	C 	0.76940 0.52540 0.22380 -0.09300
C 	C 	0.75370 0.49640 0.29180 0.39500
C 	C 	0.81030 0.58810 0.22180 -0.03700
C 	C 	0.88200 0.57420 0.20950 0.34800
C 	C 	0.36610 0.26560 0.09060 -0.03200
C 	C 	0.42900 0.23800 0.06160 0.34400
C 	C 	0.31630 0.29150 0.04170 -0.12800
C 	C 	0.27880 0.34690 0.07410 0.42500
C 	C 	0.27620 0.23060 0.02540 -0.08200
C 	C 	0.20820 0.24630 0.99640 0.38500
C 	C 	0.27820 0.18970 0.08810 -0.04000
C 	C 	0.29050 0.11800 0.07420 0.34900
C 	C 	0.63390 0.76560 0.40940 -0.03300
C 	C 	0.57100 0.73800 0.43840 0.34400
C 	C 	0.68370 0.79150 0.45830 -0.12400
C 	C 	0.72120 0.84690 0.42590 0.42300
C 	C 	0.72380 0.73060 0.47460 -0.09300
C 	C 	0.79180 0.74630 0.50360 0.39500
C 	C 	0.72180 0.68970 0.41190 -0.03700
C 	C 	0.70950 0.61800 0.42580 0.34800
C 	C 	0.86610 0.23440 0.90940 -0.03300
C 	C 	0.92900 0.26200 0.93840 0.34400
C 	C 	0.81630 0.20850 0.95830 -0.12500
C 	C 	0.77880 0.15310 0.92590 0.42300
C 	C 	0.77620 0.26940 0.97460 -0.09200
C 	C 	0.70820 0.25370 0.00360 0.39500
C 	C 	0.77820 0.31030 0.91190 -0.03700
C 	C 	0.79050 0.38200 0.92580 0.34800
C 	C 	0.13390 0.73440 0.59060 -0.03300
C 	C 	0.07100 0.76200 0.56160 0.34400
C 	C 	0.18370 0.70850 0.54170 -0.12500
C 	C 	0.22120 0.65310 0.57410 0.42300
C 	C 	0.22380 0.76940 0.52540 -0.09300
C 	C 	0.29180 0.75370 0.49640 0.39500
C 	C 	0.22180 0.81030 0.58810 -0.03700
C 	C 	0.20950 0.88200 0.57420 0.34800
O 	O 	0.87290 0.66920 0.78390 -0.26000
O 	O 	0.91900 0.55170 0.81700 -0.42300
O 	O 	0.97750 0.54160 0.72680 -0.39900
O 	O 	0.92970 0.69460 0.59900 -0.47300
O 	O 	0.89660 0.77220 0.66570 -0.43200
O 	O 	0.05070 0.79060 0.71490 -0.43700
O 	O 	0.98100 0.84080 0.78180 -0.42300
O 	O 	0.95710 0.75370 0.91060 -0.40400
O 	O 	0.90630 0.65840 0.90820 -0.42700
O 	O 	0.82710 0.53330 0.93200 -0.67500
O 	O 	0.62710 0.33080 0.28390 -0.26000
O 	O 	0.58100 0.44830 0.31700 -0.42300
O 	O 	0.52250 0.45840 0.22680 -0.40000
O 	O 	0.57030 0.30540 0.09900 -0.47300
O 	O 	0.60340 0.22780 0.16570 -0.43200
O 	O 	0.44930 0.20940 0.21490 -0.43900
O 	O 	0.51900 0.15920 0.28180 -0.42900
O 	O 	0.54290 0.24630 0.41060 -0.40600
O 	O 	0.59370 0.34160 0.40820 -0.42700
O 	O 	0.67290 0.46670 0.43200 -0.67500
O 	O 	0.12710 0.16920 0.71610 -0.26000
O 	O 	0.08100 0.05170 0.68300 -0.42200
O 	O 	0.02250 0.04160 0.77320 -0.40000
O 	O 	0.07030 0.19460 0.90100 -0.47400
O 	O 	0.10340 0.27220 0.83430 -0.43200
O 	O 	0.94930 0.29060 0.78510 -0.43900
O 	O 	0.01900 0.34080 0.71820 -0.42900
O 	O 	0.04290 0.25370 0.58940 -0.40500
O 	O 	0.09370 0.15840 0.59180 -0.42700
O 	O 	0.17290 0.03330 0.56800 -0.67300
O 	O 	0.37290 0.83080 0.21610 -0.26000
O 	O 	0.41900 0.94830 0.18300 -0.42400
O 	O 	0.47750 0.95840 0.27320 -0.40100
O 	O 	0.42970 0.80540 0.40100 -0.47300
O 	O 	0.39660 0.72780 0.33430 -0.43200
O 	O 	0.55070 0.70940 0.28510 -0.43900
O 	O 	0.48100 0.65920 0.21820 -0.42900
O 	O 	0.45710 0.74630 0.08940 -0.40600
O 	O 	0.40630 0.84160 0.09180 -0.42800
O 	O 	0.32710 0.96670 0.06800 -0.67800
O 	O 	0.78390 0.87290 0.66920 -0.26000
O 	O 	0.81700 0.91900 0.55170 -0.42300
O 	O 	0.72680 0.97750 0.54160 -0.39900
O 	O 	0.59900 0.92970 0.69460 -0.47300
O 	O 	0.66570 0.89660 0.77220 -0.43200
O 	O 	0.71490 0.05070 0.79060 -0.43700
O 	O 	0.78180 0.98100 0.84080 -0.42300
O 	O 	0.91060 0.95710 0.75370 -0.40400
O 	O 	0.90820 0.90630 0.65840 -0.42700
O 	O 	0.93200 0.82710 0.53330 -0.67500
O 	O 	0.28390 0.62710 0.33080 -0.26000
O 	O 	0.31700 0.58100 0.44830 -0.42300
O 	O 	0.22680 0.52250 0.45840 -0.40000
O 	O 	0.09900 0.57030 0.30540 -0.47300
O 	O 	0.16570 0.60340 0.22780 -0.43200
O 	O 	0.21490 0.44930 0.20940 -0.43900
O 	O 	0.28180 0.51900 0.15920 -0.42900
O 	O 	0.41060 0.54290 0.24630 -0.40600
O 	O 	0.40820 0.59370 0.34160 -0.42700
O 	O 	0.43200 0.67290 0.46670 -0.67500
O 	O 	0.71610 0.12710 0.16920 -0.26000
O 	O 	0.68300 0.08100 0.05170 -0.42200
O 	O 	0.77320 0.02250 0.04160 -0.40000
O 	O 	0.90100 0.07030 0.19460 -0.47400
O 	O 	0.83430 0.10340 0.27220 -0.43200
O 	O 	0.78510 0.94930 0.29060 -0.43900
O 	O 	0.71820 0.01900 0.34080 -0.42900
O 	O 	0.58940 0.04290 0.25370 -0.40500
O 	O 	0.59180 0.09370 0.15840 -0.42700
O 	O 	0.56800 0.17290 0.03330 -0.67300
O 	O 	0.21610 0.37290 0.83080 -0.26000
O 	O 	0.18300 0.41900 0.94830 -0.42400
O 	O 	0.27320 0.47750 0.95840 -0.40100
O 	O 	0.40100 0.42970 0.80540 -0.47300
O 	O 	0.33430 0.39660 0.72780 -0.43200
O 	O 	0.28510 0.55070 0.70940 -0.43900
O 	O 	0.21820 0.48100 0.65920 -0.42900
O 	O 	0.08940 0.45710 0.74630 -0.40600
O 	O 	0.09180 0.40630 0.84160 -0.42800
O 	O 	0.06800 0.32710 0.96670 -0.67800
O 	O 	0.66920 0.78390 0.87290 -0.26000
O 	O 	0.55170 0.81700 0.91900 -0.42300
O 	O 	0.54160 0.72680 0.97750 -0.39900
O 	O 	0.69460 0.59900 0.92970 -0.47300
O 	O 	0.77220 0.66570 0.89660 -0.43200
O 	O 	0.79060 0.71490 0.05070 -0.43700
O 	O 	0.84080 0.78180 0.98100 -0.42300
O 	O 	0.75370 0.91060 0.95710 -0.40400
O 	O 	0.65840 0.90820 0.90630 -0.42700
O 	O 	0.53330 0.93200 0.82710 -0.67500
O 	O 	0.33080 0.28390 0.62710 -0.26000
O 	O 	0.44830 0.31700 0.58100 -0.42300
O 	O 	0.45840 0.22680 0.52250 -0.40000
O 	O 	0.30540 0.09900 0.57030 -0.47300
O 	O 	0.22780 0.16570 0.60340 -0.43200
O 	O 	0.20940 0.21490 0.44930 -0.43900
O 	O 	0.15920 0.28180 0.51900 -0.42900
O 	O 	0.24630 0.41060 0.54290 -0.40600
O 	O 	0.34160 0.40820 0.59370 -0.42700
O 	O 	0.46670 0.43200 0.67290 -0.67500
O 	O 	0.16920 0.71610 0.12710 -0.26000
O 	O 	0.05170 0.68300 0.08100 -0.42200
O 	O 	0.04160 0.77320 0.02250 -0.40000
O 	O 	0.19460 0.90100 0.07030 -0.47400
O 	O 	0.27220 0.83430 0.10340 -0.43200
O 	O 	0.29060 0.78510 0.94930 -0.43900
O 	O 	0.34080 0.71820 0.01900 -0.42900
O 	O 	0.25370 0.58940 0.04290 -0.40500
O 	O 	0.15840 0.59180 0.09370 -0.42700
O 	O 	0.03330 0.56800 0.17290 -0.67300
O 	O 	0.83080 0.21610 0.37290 -0.26000
O 	O 	0.94830 0.18300 0.41900 -0.42400
O 	O 	0.95840 0.27320 0.47750 -0.40100
O 	O 	0.80540 0.40100 0.42970 -0.47300
O 	O 	0.72780 0.33430 0.39660 -0.43200
O 	O 	0.70940 0.28510 0.55070 -0.43900
O 	O 	0.65920 0.21820 0.48100 -0.42900
O 	O 	0.74630 0.08940 0.45710 -0.40600
O 	O 	0.84160 0.09180 0.40630 -0.42800
O 	O 	0.96670 0.06800 0.32710 -0.67800
O 	O 	0.12710 0.33080 0.21610 -0.26000
O 	O 	0.08100 0.44830 0.18300 -0.42300
O 	O 	0.02250 0.45840 0.27320 -0.39900
O 	O 	0.07030 0.30540 0.40100 -0.47300
O 	O 	0.10340 0.22780 0.33430 -0.43200
O 	O 	0.94930 0.20940 0.28510 -0.43700
O 	O 	0.01900 0.15920 0.21820 -0.42300
O 	O 	0.04290 0.24630 0.08940 -0.40400
O 	O 	0.09370 0.34160 0.09180 -0.42700
O 	O 	0.17290 0.46670 0.06800 -0.67500
O 	O 	0.37290 0.66920 0.71610 -0.26000
O 	O 	0.41900 0.55170 0.68300 -0.42300
O 	O 	0.47750 0.54160 0.77320 -0.40000
O 	O 	0.42970 0.69460 0.90100 -0.47300
O 	O 	0.39660 0.77220 0.83430 -0.43200
O 	O 	0.55070 0.79060 0.78510 -0.43900
O 	O 	0.48100 0.84080 0.71820 -0.42900
O 	O 	0.45710 0.75370 0.58940 -0.40600
O 	O 	0.40630 0.65840 0.59180 -0.42700
O 	O 	0.32710 0.53330 0.56800 -0.67500
O 	O 	0.87290 0.83080 0.28390 -0.26000
O 	O 	0.91900 0.94830 0.31700 -0.42200
O 	O 	0.97750 0.95840 0.22680 -0.40000
O 	O 	0.92970 0.80540 0.09900 -0.47400
O 	O 	0.89660 0.72780 0.16570 -0.43200
O 	O 	0.05070 0.70940 0.21490 -0.43900
O 	O 	0.98100 0.65920 0.28180 -0.42900
O 	O 	0.95710 0.74630 0.41060 -0.40500
O 	O 	0.90630 0.84160 0.40820 -0.42700
O 	O 	0.82710 0.96670 0.43200 -0.67300
O 	O 	0.62710 0.16920 0.78390 -0.26000
O 	O 	0.58100 0.05170 0.81700 -0.42400
O 	O 	0.52250 0.04160 0.72680 -0.40100
O 	O 	0.57030 0.19460 0.59900 -0.47300
O 	O 	0.60340 0.27220 0.66570 -0.43200
O 	O 	0.44930 0.29060 0.71490 -0.43900
O 	O 	0.51900 0.34080 0.78180 -0.42900
O 	O 	0.54290 0.25370 0.91060 -0.40600
O 	O 	0.59370 0.15840 0.90820 -0.42800
O 	O 	0.67290 0.03330 0.93200 -0.67800
O 	O 	0.21610 0.12710 0.33080 -0.26000
O 	O 	0.18300 0.08100 0.44830 -0.42300
O 	O 	0.27320 0.02250 0.45840 -0.39900
O 	O 	0.40100 0.07030 0.30540 -0.47300
O 	O 	0.33430 0.10340 0.22780 -0.43200
O 	O 	0.28510 0.94930 0.20940 -0.43700
O 	O 	0.21820 0.01900 0.15920 -0.42300
O 	O 	0.08940 0.04290 0.24630 -0.40400
O 	O 	0.09180 0.09370 0.34160 -0.42700
O 	O 	0.06800 0.17290 0.46670 -0.67500
O 	O 	0.71610 0.37290 0.66920 -0.26000
O 	O 	0.68300 0.41900 0.55170 -0.42300
O 	O 	0.77320 0.47750 0.54160 -0.40000
O 	O 	0.90100 0.42970 0.69460 -0.47300
O 	O 	0.83430 0.39660 0.77220 -0.43200
O 	O 	0.78510 0.55070 0.79060 -0.43900
O 	O 	0.71820 0.48100 0.84080 -0.42900
O 	O 	0.58940 0.45710 0.75370 -0.40600
O 	O 	0.59180 0.40630 0.65840 -0.42700
O 	O 	0.56800 0.32710 0.53330 -0.67500
O 	O 	0.28390 0.87290 0.83080 -0.26000
O 	O 	0.31700 0.91900 0.94830 -0.42200
O 	O 	0.22680 0.97750 0.95840 -0.40000
O 	O 	0.09900 0.92970 0.80540 -0.47400
O 	O 	0.16570 0.89660 0.72780 -0.43200
O 	O 	0.21490 0.05070 0.70940 -0.43900
O 	O 	0.28180 0.98100 0.65920 -0.42900
O 	O 	0.41060 0.95710 0.74630 -0.40500
O 	O 	0.40820 0.90630 0.84160 -0.42700
O 	O 	0.43200 0.82710 0.96670 -0.67300
O 	O 	0.78390 0.62710 0.16920 -0.26000
O 	O 	0.81700 0.58100 0.05170 -0.42400
O 	O 	0.72680 0.52250 0.04160 -0.40100
O 	O 	0.59900 0.57030 0.19460 -0.47300
O 	O 	0.66570 0.60340 0.27220 -0.43200
O 	O 	0.71490 0.44930 0.29060 -0.43900
O 	O 	0.78180 0.51900 0.34080 -0.42900
O 	O 	0.91060 0.54290 0.25370 -0.40600
O 	O 	0.90820 0.59370 0.15840 -0.42800
O 	O 	0.93200 0.67290 0.03330 -0.67800
O 	O 	0.33080 0.21610 0.12710 -0.26000
O 	O 	0.44830 0.18300 0.08100 -0.42300
O 	O 	0.45840 0.27320 0.02250 -0.39900
O 	O 	0.30540 0.40100 0.07030 -0.47300
O 	O 	0.22780 0.33430 0.10340 -0.43200
O 	O 	0.20940 0.28510 0.94930 -0.43700
O 	O 	0.15920 0.21820 0.01900 -0.42300
O 	O 	0.24630 0.08940 0.04290 -0.40400
O 	O 	0.34160 0.09180 0.09370 -0.42700
O 	O 	0.46670 0.06800 0.17290 -0.67500
O 	O 	0.66920 0.71610 0.37290 -0.26000
O 	O 	0.55170 0.68300 0.41900 -0.42300
O 	O 	0.54160 0.77320 0.47750 -0.40000
O 	O 	0.69460 0.90100 0.42970 -0.47300
O 	O 	0.77220 0.83430 0.39660 -0.43200
O 	O 	0.79060 0.78510 0.55070 -0.43900
O 	O 	0.84080 0.71820 0.48100 -0.42900
O 	O 	0.75370 0.58940 0.45710 -0.40600
O 	O 	0.65840 0.59180 0.40630 -0.42700
O 	O 	0.53330 0.56800 0.32710 -0.67500
O 	O 	0.83080 0.28390 0.87290 -0.26000
O 	O 	0.94830 0.31700 0.91900 -0.42200
O 	O 	0.95840 0.22680 0.97750 -0.40000
O 	O 	0.80540 0.09900 0.92970 -0.47400
O 	O 	0.72780 0.16570 0.89660 -0.43200
O 	O 	0.70940 0.21490 0.05070 -0.43900
O 	O 	0.65920 0.28180 0.98100 -0.42900
O 	O 	0.74630 0.41060 0.95710 -0.40500
O 	O 	0.84160 0.40820 0.90630 -0.42700
O 	O 	0.96670 0.43200 0.82710 -0.67300
O 	O 	0.16920 0.78390 0.62710 -0.26000
O 	O 	0.05170 0.81700 0.58100 -0.42400
O 	O 	0.04160 0.72680 0.52250 -0.40100
O 	O 	0.19460 0.59900 0.57030 -0.47300
O 	O 	0.27220 0.66570 0.60340 -0.43200
O 	O 	0.29060 0.71490 0.44930 -0.43900
O 	O 	0.34080 0.78180 0.51900 -0.42900
O 	O 	0.25370 0.91060 0.54290 -0.40600
O 	O 	0.15840 0.90820 0.59370 -0.42800
O 	O 	0.03330 0.93200 0.67290 -0.67800
