data_crystal

_cell_length_a 20.52130
_cell_length_b 20.52130
_cell_length_c 20.52130
_cell_angle_alpha 90.00000
_cell_angle_beta  90.00000
_cell_angle_gamma 90.00000

_symmetry_space_group_name_	'P 1'
_symmetry_space_group_name_H-M	'P 1'

loop_
_symmetry_equiv_pos_as_xyz
  x,y,z

loop_
_atom_site_label
_atom_site_type_symbol
_atom_site_fract_x
_atom_site_fract_y
_atom_site_fract_z
_atom_site_charge
Co	Co	0.83872 0.60162 0.85685 1.19600
Co	Co	0.99403 0.43891 0.72415 1.17600
Co	Co	0.66128 0.39838 0.35685 1.19600
Co	Co	0.50597 0.56109 0.22415 1.17600
Co	Co	0.16128 0.10162 0.64315 1.19600
Co	Co	0.00597 0.93891 0.77585 1.17400
Co	Co	0.33872 0.89838 0.14315 1.19700
Co	Co	0.49403 0.06109 0.27585 1.17700
Co	Co	0.85685 0.83872 0.60162 1.19700
Co	Co	0.72415 0.99403 0.43891 1.17700
Co	Co	0.35685 0.66128 0.39838 1.19700
Co	Co	0.22415 0.50597 0.56109 1.17700
Co	Co	0.64315 0.16128 0.10162 1.19700
Co	Co	0.77585 0.00597 0.93891 1.17500
Co	Co	0.14315 0.33872 0.89838 1.19700
Co	Co	0.27585 0.49403 0.06109 1.17700
Co	Co	0.60162 0.85685 0.83872 1.19700
Co	Co	0.43891 0.72415 0.99403 1.17700
Co	Co	0.39838 0.35685 0.66128 1.19700
Co	Co	0.56109 0.22415 0.50597 1.17700
Co	Co	0.10162 0.64315 0.16128 1.19700
Co	Co	0.93891 0.77585 0.00597 1.17500
Co	Co	0.89838 0.14315 0.33872 1.19700
Co	Co	0.06109 0.27585 0.49403 1.17700
Co	Co	0.16128 0.39838 0.14315 1.19700
Co	Co	0.00597 0.56109 0.27585 1.17700
Co	Co	0.33872 0.60162 0.64315 1.19700
Co	Co	0.49403 0.43891 0.77585 1.17700
Co	Co	0.83872 0.89838 0.35685 1.19700
Co	Co	0.99403 0.06109 0.22415 1.17500
Co	Co	0.66128 0.10162 0.85685 1.19700
Co	Co	0.50597 0.93891 0.72415 1.17700
Co	Co	0.14315 0.16128 0.39838 1.19700
Co	Co	0.27585 0.00597 0.56109 1.17700
Co	Co	0.64315 0.33872 0.60162 1.19700
Co	Co	0.77585 0.49403 0.43891 1.17700
Co	Co	0.35685 0.83872 0.89838 1.19700
Co	Co	0.22415 0.99403 0.06109 1.17500
Co	Co	0.85685 0.66128 0.10162 1.19700
Co	Co	0.72415 0.50597 0.93891 1.17700
Co	Co	0.39838 0.14315 0.16128 1.19700
Co	Co	0.56109 0.27585 0.00597 1.17700
Co	Co	0.60162 0.64315 0.33872 1.19700
Co	Co	0.43891 0.77585 0.49403 1.17700
Co	Co	0.89838 0.35685 0.83872 1.19700
Co	Co	0.06109 0.22415 0.99403 1.17500
Co	Co	0.10162 0.85685 0.66128 1.19700
Co	Co	0.93891 0.72415 0.50597 1.17700
H 	H 	0.87900 0.62230 0.69940 0.05800
H 	H 	0.99750 0.66080 0.69240 0.08900
H 	H 	0.00840 0.69980 0.79340 0.07500
H 	H 	0.88870 0.76290 0.80500 0.07500
H 	H 	0.85350 0.49480 0.92350 0.22900
H 	H 	0.84170 0.55170 0.97340 0.23200
H 	H 	0.62100 0.37770 0.19940 0.05900
H 	H 	0.50250 0.33920 0.19240 0.08700
H 	H 	0.49160 0.30020 0.29340 0.08000
H 	H 	0.61130 0.23710 0.30500 0.07400
H 	H 	0.64650 0.50520 0.42350 0.22900
H 	H 	0.65830 0.44830 0.47340 0.23100
H 	H 	0.12100 0.12230 0.80060 0.05800
H 	H 	0.00250 0.16080 0.80760 0.08700
H 	H 	0.99160 0.19980 0.70660 0.08000
H 	H 	0.11130 0.26290 0.69500 0.07400
H 	H 	0.14650 0.99480 0.57650 0.22800
H 	H 	0.15830 0.05170 0.52660 0.23100
H 	H 	0.37900 0.87770 0.30060 0.05800
H 	H 	0.49750 0.83920 0.30760 0.08700
H 	H 	0.50840 0.80020 0.20660 0.08000
H 	H 	0.38870 0.73710 0.19500 0.07400
H 	H 	0.35350 0.00520 0.07650 0.23300
H 	H 	0.34170 0.94830 0.02660 0.23100
H 	H 	0.69940 0.87900 0.62230 0.05800
H 	H 	0.69240 0.99750 0.66080 0.08900
H 	H 	0.79340 0.00840 0.69980 0.07500
H 	H 	0.80500 0.88870 0.76290 0.07500
H 	H 	0.92350 0.85350 0.49480 0.22900
H 	H 	0.97340 0.84170 0.55170 0.23200
H 	H 	0.19940 0.62100 0.37770 0.05900
H 	H 	0.19240 0.50250 0.33920 0.08700
H 	H 	0.29340 0.49160 0.30020 0.08000
H 	H 	0.30500 0.61130 0.23710 0.07400
H 	H 	0.42350 0.64650 0.50520 0.22900
H 	H 	0.47340 0.65830 0.44830 0.23100
H 	H 	0.80060 0.12100 0.12230 0.05800
H 	H 	0.80760 0.00250 0.16080 0.08700
H 	H 	0.70660 0.99160 0.19980 0.08000
H 	H 	0.69500 0.11130 0.26290 0.07400
H 	H 	0.57650 0.14650 0.99480 0.22800
H 	H 	0.52660 0.15830 0.05170 0.23100
H 	H 	0.30060 0.37900 0.87770 0.05800
H 	H 	0.30760 0.49750 0.83920 0.08700
H 	H 	0.20660 0.50840 0.80020 0.08000
H 	H 	0.19500 0.38870 0.73710 0.07400
H 	H 	0.07650 0.35350 0.00520 0.23300
H 	H 	0.02660 0.34170 0.94830 0.23100
H 	H 	0.62230 0.69940 0.87900 0.05800
H 	H 	0.66080 0.69240 0.99750 0.08900
H 	H 	0.69980 0.79340 0.00840 0.07500
H 	H 	0.76290 0.80500 0.88870 0.07500
H 	H 	0.49480 0.92350 0.85350 0.22900
H 	H 	0.55170 0.97340 0.84170 0.23200
H 	H 	0.37770 0.19940 0.62100 0.05900
H 	H 	0.33920 0.19240 0.50250 0.08700
H 	H 	0.30020 0.29340 0.49160 0.08000
H 	H 	0.23710 0.30500 0.61130 0.07400
H 	H 	0.50520 0.42350 0.64650 0.22900
H 	H 	0.44830 0.47340 0.65830 0.23100
H 	H 	0.12230 0.80060 0.12100 0.05800
H 	H 	0.16080 0.80760 0.00250 0.08700
H 	H 	0.19980 0.70660 0.99160 0.08000
H 	H 	0.26290 0.69500 0.11130 0.07400
H 	H 	0.99480 0.57650 0.14650 0.22800
H 	H 	0.05170 0.52660 0.15830 0.23100
H 	H 	0.87770 0.30060 0.37900 0.05800
H 	H 	0.83920 0.30760 0.49750 0.08700
H 	H 	0.80020 0.20660 0.50840 0.08000
H 	H 	0.73710 0.19500 0.38870 0.07400
H 	H 	0.00520 0.07650 0.35350 0.23300
H 	H 	0.94830 0.02660 0.34170 0.23100
H 	H 	0.12100 0.37770 0.30060 0.05800
H 	H 	0.00250 0.33920 0.30760 0.08900
H 	H 	0.99160 0.30020 0.20660 0.07500
H 	H 	0.11130 0.23710 0.19500 0.07500
H 	H 	0.14650 0.50520 0.07650 0.22900
H 	H 	0.15830 0.44830 0.02660 0.23200
H 	H 	0.37900 0.62230 0.80060 0.05900
H 	H 	0.49750 0.66080 0.80760 0.08700
H 	H 	0.50840 0.69980 0.70660 0.08000
H 	H 	0.38870 0.76290 0.69500 0.07400
H 	H 	0.35350 0.49480 0.57650 0.22900
H 	H 	0.34170 0.55170 0.52660 0.23100
H 	H 	0.87900 0.87770 0.19940 0.05800
H 	H 	0.99750 0.83920 0.19240 0.08700
H 	H 	0.00840 0.80020 0.29340 0.08000
H 	H 	0.88870 0.73710 0.30500 0.07400
H 	H 	0.85350 0.00520 0.42350 0.22800
H 	H 	0.84170 0.94830 0.47340 0.23100
H 	H 	0.62100 0.12230 0.69940 0.05800
H 	H 	0.50250 0.16080 0.69240 0.08700
H 	H 	0.49160 0.19980 0.79340 0.08000
H 	H 	0.61130 0.26290 0.80500 0.07400
H 	H 	0.64650 0.99480 0.92350 0.23300
H 	H 	0.65830 0.05170 0.97340 0.23100
H 	H 	0.30060 0.12100 0.37770 0.05800
H 	H 	0.30760 0.00250 0.33920 0.08900
H 	H 	0.20660 0.99160 0.30020 0.07500
H 	H 	0.19500 0.11130 0.23710 0.07500
H 	H 	0.07650 0.14650 0.50520 0.22900
H 	H 	0.02660 0.15830 0.44830 0.23200
H 	H 	0.80060 0.37900 0.62230 0.05900
H 	H 	0.80760 0.49750 0.66080 0.08700
H 	H 	0.70660 0.50840 0.69980 0.08000
H 	H 	0.69500 0.38870 0.76290 0.07400
H 	H 	0.57650 0.35350 0.49480 0.22900
H 	H 	0.52660 0.34170 0.55170 0.23100
H 	H 	0.19940 0.87900 0.87770 0.05800
H 	H 	0.19240 0.99750 0.83920 0.08700
H 	H 	0.29340 0.00840 0.80020 0.08000
H 	H 	0.30500 0.88870 0.73710 0.07400
H 	H 	0.42350 0.85350 0.00520 0.22800
H 	H 	0.47340 0.84170 0.94830 0.23100
H 	H 	0.69940 0.62100 0.12230 0.05800
H 	H 	0.69240 0.50250 0.16080 0.08700
H 	H 	0.79340 0.49160 0.19980 0.08000
H 	H 	0.80500 0.61130 0.26290 0.07400
H 	H 	0.92350 0.64650 0.99480 0.23300
H 	H 	0.97340 0.65830 0.05170 0.23100
H 	H 	0.37770 0.30060 0.12100 0.05800
H 	H 	0.33920 0.30760 0.00250 0.08900
H 	H 	0.30020 0.20660 0.99160 0.07500
H 	H 	0.23710 0.19500 0.11130 0.07500
H 	H 	0.50520 0.07650 0.14650 0.22900
H 	H 	0.44830 0.02660 0.15830 0.23200
H 	H 	0.62230 0.80060 0.37900 0.05900
H 	H 	0.66080 0.80760 0.49750 0.08700
H 	H 	0.69980 0.70660 0.50840 0.08000
H 	H 	0.76290 0.69500 0.38870 0.07400
H 	H 	0.49480 0.57650 0.35350 0.22900
H 	H 	0.55170 0.52660 0.34170 0.23100
H 	H 	0.87770 0.19940 0.87900 0.05800
H 	H 	0.83920 0.19240 0.99750 0.08700
H 	H 	0.80020 0.29340 0.00840 0.08000
H 	H 	0.73710 0.30500 0.88870 0.07400
H 	H 	0.00520 0.42350 0.85350 0.22800
H 	H 	0.94830 0.47340 0.84170 0.23100
H 	H 	0.12230 0.69940 0.62100 0.05800
H 	H 	0.16080 0.69240 0.50250 0.08700
H 	H 	0.19980 0.79340 0.49160 0.08000
H 	H 	0.26290 0.80500 0.61130 0.07400
H 	H 	0.99480 0.92350 0.64650 0.23300
H 	H 	0.05170 0.97340 0.65830 0.23100
C 	C 	0.90900 0.63387 0.73472 -0.02900
C 	C 	0.93852 0.57092 0.76203 0.33700
C 	C 	0.95851 0.68333 0.70835 -0.12100
C 	C 	0.92588 0.72086 0.65303 0.40600
C 	C 	0.97506 0.72392 0.76910 -0.09000
C 	C 	0.00365 0.79134 0.75367 0.38500
C 	C 	0.91227 0.72167 0.80989 -0.03300
C 	C 	0.92604 0.70963 0.88175 0.33900
C 	C 	0.59100 0.36613 0.23472 -0.03000
C 	C 	0.56148 0.42908 0.26203 0.33700
C 	C 	0.54149 0.31667 0.20835 -0.11700
C 	C 	0.57412 0.27914 0.15303 0.40500
C 	C 	0.52494 0.27608 0.26910 -0.10100
C 	C 	0.49635 0.20866 0.25367 0.39500
C 	C 	0.58773 0.27833 0.30989 -0.03000
C 	C 	0.57396 0.29037 0.38175 0.33800
C 	C 	0.09100 0.13387 0.76528 -0.03000
C 	C 	0.06148 0.07092 0.73797 0.33700
C 	C 	0.04149 0.18333 0.79165 -0.11800
C 	C 	0.07412 0.22086 0.84697 0.40500
C 	C 	0.02494 0.22392 0.73090 -0.10000
C 	C 	0.99635 0.29134 0.74633 0.39600
C 	C 	0.08773 0.22167 0.69011 -0.03000
C 	C 	0.07396 0.20963 0.61825 0.33800
C 	C 	0.40900 0.86613 0.26528 -0.03000
C 	C 	0.43852 0.92908 0.23797 0.33700
C 	C 	0.45851 0.81667 0.29165 -0.11700
C 	C 	0.42588 0.77914 0.34697 0.40500
C 	C 	0.47506 0.77608 0.23090 -0.10100
C 	C 	0.50365 0.70866 0.24633 0.39500
C 	C 	0.41227 0.77833 0.19011 -0.03000
C 	C 	0.42604 0.79037 0.11825 0.33800
C 	C 	0.73472 0.90900 0.63387 -0.02900
C 	C 	0.76203 0.93852 0.57092 0.33700
C 	C 	0.70835 0.95851 0.68333 -0.12100
C 	C 	0.65303 0.92588 0.72086 0.40600
C 	C 	0.76910 0.97506 0.72392 -0.09000
C 	C 	0.75367 0.00365 0.79134 0.38500
C 	C 	0.80989 0.91227 0.72167 -0.03300
C 	C 	0.88175 0.92604 0.70963 0.33900
C 	C 	0.23472 0.59100 0.36613 -0.03000
C 	C 	0.26203 0.56148 0.42908 0.33700
C 	C 	0.20835 0.54149 0.31667 -0.11700
C 	C 	0.15303 0.57412 0.27914 0.40500
C 	C 	0.26910 0.52494 0.27608 -0.10100
C 	C 	0.25367 0.49635 0.20866 0.39500
C 	C 	0.30989 0.58773 0.27833 -0.03000
C 	C 	0.38175 0.57396 0.29037 0.33800
C 	C 	0.76528 0.09100 0.13387 -0.03000
C 	C 	0.73797 0.06148 0.07092 0.33700
C 	C 	0.79165 0.04149 0.18333 -0.11800
C 	C 	0.84697 0.07412 0.22086 0.40500
C 	C 	0.73090 0.02494 0.22392 -0.10000
C 	C 	0.74633 0.99635 0.29134 0.39600
C 	C 	0.69011 0.08773 0.22167 -0.03000
C 	C 	0.61825 0.07396 0.20963 0.33800
C 	C 	0.26528 0.40900 0.86613 -0.03000
C 	C 	0.23797 0.43852 0.92908 0.33700
C 	C 	0.29165 0.45851 0.81667 -0.11700
C 	C 	0.34697 0.42588 0.77914 0.40500
C 	C 	0.23090 0.47506 0.77608 -0.10100
C 	C 	0.24633 0.50365 0.70866 0.39500
C 	C 	0.19011 0.41227 0.77833 -0.03000
C 	C 	0.11825 0.42604 0.79037 0.33800
C 	C 	0.63387 0.73472 0.90900 -0.02900
C 	C 	0.57092 0.76203 0.93852 0.33700
C 	C 	0.68333 0.70835 0.95851 -0.12100
C 	C 	0.72086 0.65303 0.92588 0.40600
C 	C 	0.72392 0.76910 0.97506 -0.09000
C 	C 	0.79134 0.75367 0.00365 0.38500
C 	C 	0.72167 0.80989 0.91227 -0.03300
C 	C 	0.70963 0.88175 0.92604 0.33900
C 	C 	0.36613 0.23472 0.59100 -0.03000
C 	C 	0.42908 0.26203 0.56148 0.33700
C 	C 	0.31667 0.20835 0.54149 -0.11700
C 	C 	0.27914 0.15303 0.57412 0.40500
C 	C 	0.27608 0.26910 0.52494 -0.10100
C 	C 	0.20866 0.25367 0.49635 0.39500
C 	C 	0.27833 0.30989 0.58773 -0.03000
C 	C 	0.29037 0.38175 0.57396 0.33800
C 	C 	0.13387 0.76528 0.09100 -0.03000
C 	C 	0.07092 0.73797 0.06148 0.33700
C 	C 	0.18333 0.79165 0.04149 -0.11800
C 	C 	0.22086 0.84697 0.07412 0.40500
C 	C 	0.22392 0.73090 0.02494 -0.10000
C 	C 	0.29134 0.74633 0.99635 0.39600
C 	C 	0.22167 0.69011 0.08773 -0.03000
C 	C 	0.20963 0.61825 0.07396 0.33800
C 	C 	0.86613 0.26528 0.40900 -0.03000
C 	C 	0.92908 0.23797 0.43852 0.33700
C 	C 	0.81667 0.29165 0.45851 -0.11700
C 	C 	0.77914 0.34697 0.42588 0.40500
C 	C 	0.77608 0.23090 0.47506 -0.10100
C 	C 	0.70866 0.24633 0.50365 0.39500
C 	C 	0.77833 0.19011 0.41227 -0.03000
C 	C 	0.79037 0.11825 0.42604 0.33800
C 	C 	0.09100 0.36613 0.26528 -0.02900
C 	C 	0.06148 0.42908 0.23797 0.33700
C 	C 	0.04149 0.31667 0.29165 -0.12100
C 	C 	0.07412 0.27914 0.34697 0.40600
C 	C 	0.02494 0.27608 0.23090 -0.09000
C 	C 	0.99635 0.20866 0.24633 0.38500
C 	C 	0.08773 0.27833 0.19011 -0.03300
C 	C 	0.07396 0.29037 0.11825 0.33900
C 	C 	0.40900 0.63387 0.76528 -0.03000
C 	C 	0.43852 0.57092 0.73797 0.33700
C 	C 	0.45851 0.68333 0.79165 -0.11700
C 	C 	0.42588 0.72086 0.84697 0.40500
C 	C 	0.47506 0.72392 0.73090 -0.10100
C 	C 	0.50365 0.79134 0.74633 0.39500
C 	C 	0.41227 0.72167 0.69011 -0.03000
C 	C 	0.42604 0.70963 0.61825 0.33800
C 	C 	0.90900 0.86613 0.23472 -0.03000
C 	C 	0.93852 0.92908 0.26203 0.33700
C 	C 	0.95851 0.81667 0.20835 -0.11800
C 	C 	0.92588 0.77914 0.15303 0.40500
C 	C 	0.97506 0.77608 0.26910 -0.10000
C 	C 	0.00365 0.70866 0.25367 0.39600
C 	C 	0.91227 0.77833 0.30989 -0.03000
C 	C 	0.92604 0.79037 0.38175 0.33800
C 	C 	0.59100 0.13387 0.73472 -0.03000
C 	C 	0.56148 0.07092 0.76203 0.33700
C 	C 	0.54149 0.18333 0.70835 -0.11700
C 	C 	0.57412 0.22086 0.65303 0.40500
C 	C 	0.52494 0.22392 0.76910 -0.10100
C 	C 	0.49635 0.29134 0.75367 0.39500
C 	C 	0.58773 0.22167 0.80989 -0.03000
C 	C 	0.57396 0.20963 0.88175 0.33800
C 	C 	0.26528 0.09100 0.36613 -0.02900
C 	C 	0.23797 0.06148 0.42908 0.33700
C 	C 	0.29165 0.04149 0.31667 -0.12100
C 	C 	0.34697 0.07412 0.27914 0.40600
C 	C 	0.23090 0.02494 0.27608 -0.09000
C 	C 	0.24633 0.99635 0.20866 0.38500
C 	C 	0.19011 0.08773 0.27833 -0.03300
C 	C 	0.11825 0.07396 0.29037 0.33900
C 	C 	0.76528 0.40900 0.63387 -0.03000
C 	C 	0.73797 0.43852 0.57092 0.33700
C 	C 	0.79165 0.45851 0.68333 -0.11700
C 	C 	0.84697 0.42588 0.72086 0.40500
C 	C 	0.73090 0.47506 0.72392 -0.10100
C 	C 	0.74633 0.50365 0.79134 0.39500
C 	C 	0.69011 0.41227 0.72167 -0.03000
C 	C 	0.61825 0.42604 0.70963 0.33800
C 	C 	0.23472 0.90900 0.86613 -0.03000
C 	C 	0.26203 0.93852 0.92908 0.33700
C 	C 	0.20835 0.95851 0.81667 -0.11800
C 	C 	0.15303 0.92588 0.77914 0.40500
C 	C 	0.26910 0.97506 0.77608 -0.10000
C 	C 	0.25367 0.00365 0.70866 0.39600
C 	C 	0.30989 0.91227 0.77833 -0.03000
C 	C 	0.38175 0.92604 0.79037 0.33800
C 	C 	0.73472 0.59100 0.13387 -0.03000
C 	C 	0.76203 0.56148 0.07092 0.33700
C 	C 	0.70835 0.54149 0.18333 -0.11700
C 	C 	0.65303 0.57412 0.22086 0.40500
C 	C 	0.76910 0.52494 0.22392 -0.10100
C 	C 	0.75367 0.49635 0.29134 0.39500
C 	C 	0.80989 0.58773 0.22167 -0.03000
C 	C 	0.88175 0.57396 0.20963 0.33800
C 	C 	0.36613 0.26528 0.09100 -0.02900
C 	C 	0.42908 0.23797 0.06148 0.33700
C 	C 	0.31667 0.29165 0.04149 -0.12100
C 	C 	0.27914 0.34697 0.07412 0.40600
C 	C 	0.27608 0.23090 0.02494 -0.09000
C 	C 	0.20866 0.24633 0.99635 0.38500
C 	C 	0.27833 0.19011 0.08773 -0.03300
C 	C 	0.29037 0.11825 0.07396 0.33900
C 	C 	0.63387 0.76528 0.40900 -0.03000
C 	C 	0.57092 0.73797 0.43852 0.33700
C 	C 	0.68333 0.79165 0.45851 -0.11700
C 	C 	0.72086 0.84697 0.42588 0.40500
C 	C 	0.72392 0.73090 0.47506 -0.10100
C 	C 	0.79134 0.74633 0.50365 0.39500
C 	C 	0.72167 0.69011 0.41227 -0.03000
C 	C 	0.70963 0.61825 0.42604 0.33800
C 	C 	0.86613 0.23472 0.90900 -0.03000
C 	C 	0.92908 0.26203 0.93852 0.33700
C 	C 	0.81667 0.20835 0.95851 -0.11800
C 	C 	0.77914 0.15303 0.92588 0.40500
C 	C 	0.77608 0.26910 0.97506 -0.10000
C 	C 	0.70866 0.25367 0.00365 0.39600
C 	C 	0.77833 0.30989 0.91227 -0.03000
C 	C 	0.79037 0.38175 0.92604 0.33800
C 	C 	0.13387 0.73472 0.59100 -0.03000
C 	C 	0.07092 0.76203 0.56148 0.33700
C 	C 	0.18333 0.70835 0.54149 -0.11700
C 	C 	0.22086 0.65303 0.57412 0.40500
C 	C 	0.22392 0.76910 0.52494 -0.10100
C 	C 	0.29134 0.75367 0.49635 0.39500
C 	C 	0.22167 0.80989 0.58773 -0.03000
C 	C 	0.20963 0.88175 0.57396 0.33800
O 	O 	0.87297 0.66902 0.78382 -0.26100
O 	O 	0.91906 0.55165 0.81704 -0.42100
O 	O 	0.97736 0.54141 0.72616 -0.39600
O 	O 	0.92906 0.69403 0.59854 -0.46500
O 	O 	0.89671 0.77267 0.66535 -0.42400
O 	O 	0.05123 0.79021 0.71496 -0.43400
O 	O 	0.98072 0.84040 0.78088 -0.42400
O 	O 	0.95747 0.75345 0.91042 -0.40100
O 	O 	0.90642 0.65787 0.90807 -0.42100
O 	O 	0.82728 0.53310 0.93237 -0.67200
O 	O 	0.62703 0.33098 0.28382 -0.26200
O 	O 	0.58094 0.44835 0.31704 -0.42100
O 	O 	0.52264 0.45859 0.22616 -0.39700
O 	O 	0.57094 0.30597 0.09854 -0.46400
O 	O 	0.60329 0.22733 0.16535 -0.42400
O 	O 	0.44877 0.20979 0.21496 -0.43600
O 	O 	0.51928 0.15960 0.28088 -0.43000
O 	O 	0.54253 0.24655 0.41042 -0.40300
O 	O 	0.59358 0.34213 0.40807 -0.42200
O 	O 	0.67272 0.46690 0.43237 -0.67200
O 	O 	0.12703 0.16902 0.71618 -0.26200
O 	O 	0.08094 0.05165 0.68296 -0.42100
O 	O 	0.02264 0.04141 0.77384 -0.39600
O 	O 	0.07094 0.19403 0.90146 -0.46500
O 	O 	0.10329 0.27267 0.83465 -0.42400
O 	O 	0.94877 0.29021 0.78504 -0.43600
O 	O 	0.01928 0.34040 0.71912 -0.43100
O 	O 	0.04253 0.25345 0.58958 -0.40300
O 	O 	0.09358 0.15787 0.59193 -0.42100
O 	O 	0.17272 0.03310 0.56763 -0.67000
O 	O 	0.37297 0.83098 0.21618 -0.26200
O 	O 	0.41906 0.94835 0.18296 -0.42300
O 	O 	0.47736 0.95859 0.27384 -0.39700
O 	O 	0.42906 0.80597 0.40146 -0.46500
O 	O 	0.39671 0.72733 0.33465 -0.42400
O 	O 	0.55123 0.70979 0.28504 -0.43600
O 	O 	0.48072 0.65960 0.21912 -0.43000
O 	O 	0.45747 0.74655 0.08958 -0.40400
O 	O 	0.40642 0.84213 0.09193 -0.42200
O 	O 	0.32728 0.96690 0.06763 -0.67600
O 	O 	0.78382 0.87297 0.66902 -0.26100
O 	O 	0.81704 0.91906 0.55165 -0.42100
O 	O 	0.72616 0.97736 0.54141 -0.39600
O 	O 	0.59854 0.92906 0.69403 -0.46500
O 	O 	0.66535 0.89671 0.77267 -0.42400
O 	O 	0.71496 0.05123 0.79021 -0.43400
O 	O 	0.78088 0.98072 0.84040 -0.42400
O 	O 	0.91042 0.95747 0.75345 -0.40100
O 	O 	0.90807 0.90642 0.65787 -0.42100
O 	O 	0.93237 0.82728 0.53310 -0.67200
O 	O 	0.28382 0.62703 0.33098 -0.26200
O 	O 	0.31704 0.58094 0.44835 -0.42100
O 	O 	0.22616 0.52264 0.45859 -0.39700
O 	O 	0.09854 0.57094 0.30597 -0.46400
O 	O 	0.16535 0.60329 0.22733 -0.42400
O 	O 	0.21496 0.44877 0.20979 -0.43600
O 	O 	0.28088 0.51928 0.15960 -0.43000
O 	O 	0.41042 0.54253 0.24655 -0.40300
O 	O 	0.40807 0.59358 0.34213 -0.42200
O 	O 	0.43237 0.67272 0.46690 -0.67200
O 	O 	0.71618 0.12703 0.16902 -0.26200
O 	O 	0.68296 0.08094 0.05165 -0.42100
O 	O 	0.77384 0.02264 0.04141 -0.39600
O 	O 	0.90146 0.07094 0.19403 -0.46500
O 	O 	0.83465 0.10329 0.27267 -0.42400
O 	O 	0.78504 0.94877 0.29021 -0.43600
O 	O 	0.71912 0.01928 0.34040 -0.43100
O 	O 	0.58958 0.04253 0.25345 -0.40300
O 	O 	0.59193 0.09358 0.15787 -0.42100
O 	O 	0.56763 0.17272 0.03310 -0.67000
O 	O 	0.21618 0.37297 0.83098 -0.26200
O 	O 	0.18296 0.41906 0.94835 -0.42300
O 	O 	0.27384 0.47736 0.95859 -0.39700
O 	O 	0.40146 0.42906 0.80597 -0.46500
O 	O 	0.33465 0.39671 0.72733 -0.42400
O 	O 	0.28504 0.55123 0.70979 -0.43600
O 	O 	0.21912 0.48072 0.65960 -0.43000
O 	O 	0.08958 0.45747 0.74655 -0.40400
O 	O 	0.09193 0.40642 0.84213 -0.42200
O 	O 	0.06763 0.32728 0.96690 -0.67600
O 	O 	0.66902 0.78382 0.87297 -0.26100
O 	O 	0.55165 0.81704 0.91906 -0.42100
O 	O 	0.54141 0.72616 0.97736 -0.39600
O 	O 	0.69403 0.59854 0.92906 -0.46500
O 	O 	0.77267 0.66535 0.89671 -0.42400
O 	O 	0.79021 0.71496 0.05123 -0.43400
O 	O 	0.84040 0.78088 0.98072 -0.42400
O 	O 	0.75345 0.91042 0.95747 -0.40100
O 	O 	0.65787 0.90807 0.90642 -0.42100
O 	O 	0.53310 0.93237 0.82728 -0.67200
O 	O 	0.33098 0.28382 0.62703 -0.26200
O 	O 	0.44835 0.31704 0.58094 -0.42100
O 	O 	0.45859 0.22616 0.52264 -0.39700
O 	O 	0.30597 0.09854 0.57094 -0.46400
O 	O 	0.22733 0.16535 0.60329 -0.42400
O 	O 	0.20979 0.21496 0.44877 -0.43600
O 	O 	0.15960 0.28088 0.51928 -0.43000
O 	O 	0.24655 0.41042 0.54253 -0.40300
O 	O 	0.34213 0.40807 0.59358 -0.42200
O 	O 	0.46690 0.43237 0.67272 -0.67200
O 	O 	0.16902 0.71618 0.12703 -0.26200
O 	O 	0.05165 0.68296 0.08094 -0.42100
O 	O 	0.04141 0.77384 0.02264 -0.39600
O 	O 	0.19403 0.90146 0.07094 -0.46500
O 	O 	0.27267 0.83465 0.10329 -0.42400
O 	O 	0.29021 0.78504 0.94877 -0.43600
O 	O 	0.34040 0.71912 0.01928 -0.43100
O 	O 	0.25345 0.58958 0.04253 -0.40300
O 	O 	0.15787 0.59193 0.09358 -0.42100
O 	O 	0.03310 0.56763 0.17272 -0.67000
O 	O 	0.83098 0.21618 0.37297 -0.26200
O 	O 	0.94835 0.18296 0.41906 -0.42300
O 	O 	0.95859 0.27384 0.47736 -0.39700
O 	O 	0.80597 0.40146 0.42906 -0.46500
O 	O 	0.72733 0.33465 0.39671 -0.42400
O 	O 	0.70979 0.28504 0.55123 -0.43600
O 	O 	0.65960 0.21912 0.48072 -0.43000
O 	O 	0.74655 0.08958 0.45747 -0.40400
O 	O 	0.84213 0.09193 0.40642 -0.42200
O 	O 	0.96690 0.06763 0.32728 -0.67600
O 	O 	0.12703 0.33098 0.21618 -0.26100
O 	O 	0.08094 0.44835 0.18296 -0.42100
O 	O 	0.02264 0.45859 0.27384 -0.39600
O 	O 	0.07094 0.30597 0.40146 -0.46500
O 	O 	0.10329 0.22733 0.33465 -0.42400
O 	O 	0.94877 0.20979 0.28504 -0.43400
O 	O 	0.01928 0.15960 0.21912 -0.42400
O 	O 	0.04253 0.24655 0.08958 -0.40100
O 	O 	0.09358 0.34213 0.09193 -0.42100
O 	O 	0.17272 0.46690 0.06763 -0.67200
O 	O 	0.37297 0.66902 0.71618 -0.26200
O 	O 	0.41906 0.55165 0.68296 -0.42100
O 	O 	0.47736 0.54141 0.77384 -0.39700
O 	O 	0.42906 0.69403 0.90146 -0.46400
O 	O 	0.39671 0.77267 0.83465 -0.42400
O 	O 	0.55123 0.79021 0.78504 -0.43600
O 	O 	0.48072 0.84040 0.71912 -0.43000
O 	O 	0.45747 0.75345 0.58958 -0.40300
O 	O 	0.40642 0.65787 0.59193 -0.42200
O 	O 	0.32728 0.53310 0.56763 -0.67200
O 	O 	0.87297 0.83098 0.28382 -0.26200
O 	O 	0.91906 0.94835 0.31704 -0.42100
O 	O 	0.97736 0.95859 0.22616 -0.39600
O 	O 	0.92906 0.80597 0.09854 -0.46500
O 	O 	0.89671 0.72733 0.16535 -0.42400
O 	O 	0.05123 0.70979 0.21496 -0.43600
O 	O 	0.98072 0.65960 0.28088 -0.43100
O 	O 	0.95747 0.74655 0.41042 -0.40300
O 	O 	0.90642 0.84213 0.40807 -0.42100
O 	O 	0.82728 0.96690 0.43237 -0.67000
O 	O 	0.62703 0.16902 0.78382 -0.26200
O 	O 	0.58094 0.05165 0.81704 -0.42300
O 	O 	0.52264 0.04141 0.72616 -0.39700
O 	O 	0.57094 0.19403 0.59854 -0.46500
O 	O 	0.60329 0.27267 0.66535 -0.42400
O 	O 	0.44877 0.29021 0.71496 -0.43600
O 	O 	0.51928 0.34040 0.78088 -0.43000
O 	O 	0.54253 0.25345 0.91042 -0.40400
O 	O 	0.59358 0.15787 0.90807 -0.42200
O 	O 	0.67272 0.03310 0.93237 -0.67600
O 	O 	0.21618 0.12703 0.33098 -0.26100
O 	O 	0.18296 0.08094 0.44835 -0.42100
O 	O 	0.27384 0.02264 0.45859 -0.39600
O 	O 	0.40146 0.07094 0.30597 -0.46500
O 	O 	0.33465 0.10329 0.22733 -0.42400
O 	O 	0.28504 0.94877 0.20979 -0.43400
O 	O 	0.21912 0.01928 0.15960 -0.42400
O 	O 	0.08958 0.04253 0.24655 -0.40100
O 	O 	0.09193 0.09358 0.34213 -0.42100
O 	O 	0.06763 0.17272 0.46690 -0.67200
O 	O 	0.71618 0.37297 0.66902 -0.26200
O 	O 	0.68296 0.41906 0.55165 -0.42100
O 	O 	0.77384 0.47736 0.54141 -0.39700
O 	O 	0.90146 0.42906 0.69403 -0.46400
O 	O 	0.83465 0.39671 0.77267 -0.42400
O 	O 	0.78504 0.55123 0.79021 -0.43600
O 	O 	0.71912 0.48072 0.84040 -0.43000
O 	O 	0.58958 0.45747 0.75345 -0.40300
O 	O 	0.59193 0.40642 0.65787 -0.42200
O 	O 	0.56763 0.32728 0.53310 -0.67200
O 	O 	0.28382 0.87297 0.83098 -0.26200
O 	O 	0.31704 0.91906 0.94835 -0.42100
O 	O 	0.22616 0.97736 0.95859 -0.39600
O 	O 	0.09854 0.92906 0.80597 -0.46500
O 	O 	0.16535 0.89671 0.72733 -0.42400
O 	O 	0.21496 0.05123 0.70979 -0.43600
O 	O 	0.28088 0.98072 0.65960 -0.43100
O 	O 	0.41042 0.95747 0.74655 -0.40300
O 	O 	0.40807 0.90642 0.84213 -0.42100
O 	O 	0.43237 0.82728 0.96690 -0.67000
O 	O 	0.78382 0.62703 0.16902 -0.26200
O 	O 	0.81704 0.58094 0.05165 -0.42300
O 	O 	0.72616 0.52264 0.04141 -0.39700
O 	O 	0.59854 0.57094 0.19403 -0.46500
O 	O 	0.66535 0.60329 0.27267 -0.42400
O 	O 	0.71496 0.44877 0.29021 -0.43600
O 	O 	0.78088 0.51928 0.34040 -0.43000
O 	O 	0.91042 0.54253 0.25345 -0.40400
O 	O 	0.90807 0.59358 0.15787 -0.42200
O 	O 	0.93237 0.67272 0.03310 -0.67600
O 	O 	0.33098 0.21618 0.12703 -0.26100
O 	O 	0.44835 0.18296 0.08094 -0.42100
O 	O 	0.45859 0.27384 0.02264 -0.39600
O 	O 	0.30597 0.40146 0.07094 -0.46500
O 	O 	0.22733 0.33465 0.10329 -0.42400
O 	O 	0.20979 0.28504 0.94877 -0.43400
O 	O 	0.15960 0.21912 0.01928 -0.42400
O 	O 	0.24655 0.08958 0.04253 -0.40100
O 	O 	0.34213 0.09193 0.09358 -0.42100
O 	O 	0.46690 0.06763 0.17272 -0.67200
O 	O 	0.66902 0.71618 0.37297 -0.26200
O 	O 	0.55165 0.68296 0.41906 -0.42100
O 	O 	0.54141 0.77384 0.47736 -0.39700
O 	O 	0.69403 0.90146 0.42906 -0.46400
O 	O 	0.77267 0.83465 0.39671 -0.42400
O 	O 	0.79021 0.78504 0.55123 -0.43600
O 	O 	0.84040 0.71912 0.48072 -0.43000
O 	O 	0.75345 0.58958 0.45747 -0.40300
O 	O 	0.65787 0.59193 0.40642 -0.42200
O 	O 	0.53310 0.56763 0.32728 -0.67200
O 	O 	0.83098 0.28382 0.87297 -0.26200
O 	O 	0.94835 0.31704 0.91906 -0.42100
O 	O 	0.95859 0.22616 0.97736 -0.39600
O 	O 	0.80597 0.09854 0.92906 -0.46500
O 	O 	0.72733 0.16535 0.89671 -0.42400
O 	O 	0.70979 0.21496 0.05123 -0.43600
O 	O 	0.65960 0.28088 0.98072 -0.43100
O 	O 	0.74655 0.41042 0.95747 -0.40300
O 	O 	0.84213 0.40807 0.90642 -0.42100
O 	O 	0.96690 0.43237 0.82728 -0.67000
O 	O 	0.16902 0.78382 0.62703 -0.26200
O 	O 	0.05165 0.81704 0.58094 -0.42300
O 	O 	0.04141 0.72616 0.52264 -0.39700
O 	O 	0.19403 0.59854 0.57094 -0.46500
O 	O 	0.27267 0.66535 0.60329 -0.42400
O 	O 	0.29021 0.71496 0.44877 -0.43600
O 	O 	0.34040 0.78088 0.51928 -0.43000
O 	O 	0.25345 0.91042 0.54253 -0.40400
O 	O 	0.15787 0.90807 0.59358 -0.42200
O 	O 	0.03310 0.93237 0.67272 -0.67600
