data_crystal

_cell_length_a 20.71300
_cell_length_b 20.71300
_cell_length_c 20.71300
_cell_angle_alpha 90.00000
_cell_angle_beta  90.00000
_cell_angle_gamma 90.00000

_symmetry_space_group_name_	'P 1'
_symmetry_space_group_name_H-M	'P 1'

loop_
_symmetry_equiv_pos_as_xyz
  x,y,z

loop_
_atom_site_label
_atom_site_type_symbol
_atom_site_fract_x
_atom_site_fract_y
_atom_site_fract_z
_atom_site_charge
Zn	Zn	0.60043 0.85257 0.82660 1.23900
Zn	Zn	0.44045 0.73624 0.99184 1.22600
Zn	Zn	0.84851 0.88132 0.96617 1.19300
H 	H 	0.61378 0.69139 0.87572 0.03500
H 	H 	0.65129 0.69050 0.00181 0.05700
H 	H 	0.68746 0.79784 0.00799 0.06000
H 	H 	0.76559 0.79757 0.88305 0.02700
C 	C 	0.63010 0.73310 0.90770 -0.01300
C 	C 	0.57080 0.76580 0.93720 0.32900
C 	C 	0.67760 0.70840 0.95690 -0.08800
C 	C 	0.71640 0.65340 0.92590 0.41500
C 	C 	0.71710 0.76810 0.97240 -0.11100
C 	C 	0.78190 0.75480 0.00480 0.41700
C 	C 	0.71740 0.80560 0.90840 -0.02900
C 	C 	0.70660 0.87780 0.91720 0.34800
O 	O 	0.66630 0.77870 0.86930 -0.26500
O 	O 	0.55180 0.81730 0.91320 -0.35800
O 	O 	0.54290 0.73650 0.98250 -0.41200
O 	O 	0.69750 0.59860 0.93720 -0.51300
O 	O 	0.76200 0.66680 0.88820 -0.44400
O 	O 	0.77890 0.71770 0.05140 -0.46700
O 	O 	0.83170 0.78290 0.98570 -0.58300
O 	O 	0.74810 0.90700 0.94990 -0.55300
O 	O 	0.65730 0.90430 0.89340 -0.37400
O 	O 	0.53520 0.92350 0.82700 -0.43200
O 	O 	0.44330 0.64250 0.02320 -0.79600
H 	H 	0.97492 0.44330 0.64250 0.12100
H 	H 	0.02320 0.49158 0.64250 0.10400
H 	H 	0.18158 0.36670 0.63330 0.13500
Zn	Zn	0.82660 0.60043 0.85257 1.24000
Zn	Zn	0.99184 0.44045 0.73624 1.22800
Zn	Zn	0.96617 0.84851 0.88132 1.19600
H 	H 	0.87572 0.61378 0.69139 0.03600
H 	H 	0.00181 0.65129 0.69050 0.05800
H 	H 	0.00799 0.68746 0.79784 0.06000
H 	H 	0.88305 0.76559 0.79757 0.03700
C 	C 	0.90770 0.63010 0.73310 -0.01200
C 	C 	0.93720 0.57080 0.76580 0.33000
C 	C 	0.95690 0.67760 0.70840 -0.08800
C 	C 	0.92590 0.71640 0.65340 0.41600
C 	C 	0.97240 0.71710 0.76810 -0.10700
C 	C 	0.00480 0.78190 0.75480 0.41600
C 	C 	0.90840 0.71740 0.80560 -0.03100
C 	C 	0.91720 0.70660 0.87780 0.34900
O 	O 	0.86930 0.66630 0.77870 -0.26400
O 	O 	0.91320 0.55180 0.81730 -0.35800
O 	O 	0.98250 0.54290 0.73650 -0.41200
O 	O 	0.93720 0.69750 0.59860 -0.51300
O 	O 	0.88820 0.76200 0.66680 -0.44300
O 	O 	0.05140 0.77890 0.71770 -0.46700
O 	O 	0.98570 0.83170 0.78290 -0.57400
O 	O 	0.94990 0.74810 0.90700 -0.55200
O 	O 	0.89340 0.65730 0.90430 -0.37500
O 	O 	0.82700 0.53520 0.92350 -0.43200
O 	O 	0.02320 0.44330 0.64250 -0.79100
H 	H 	0.64250 0.97492 0.44330 0.12200
H 	H 	0.64250 0.02320 0.49158 0.10500
H 	H 	0.63330 0.18158 0.36670 0.13500
Zn	Zn	0.85257 0.82660 0.60043 1.24000
Zn	Zn	0.73624 0.99184 0.44045 1.22700
Zn	Zn	0.88132 0.96617 0.84851 1.19900
H 	H 	0.69139 0.87572 0.61378 0.03600
H 	H 	0.69050 0.00181 0.65129 0.05800
H 	H 	0.79784 0.00799 0.68746 0.06100
H 	H 	0.79757 0.88305 0.76559 0.04200
C 	C 	0.73310 0.90770 0.63010 -0.01200
C 	C 	0.76580 0.93720 0.57080 0.33000
C 	C 	0.70840 0.95690 0.67760 -0.08800
C 	C 	0.65340 0.92590 0.71640 0.41600
C 	C 	0.76810 0.97240 0.71710 -0.10800
C 	C 	0.75480 0.00480 0.78190 0.41700
C 	C 	0.80560 0.90840 0.71740 -0.02900
C 	C 	0.87780 0.91720 0.70660 0.35600
O 	O 	0.77870 0.86930 0.66630 -0.26400
O 	O 	0.81730 0.91320 0.55180 -0.35800
O 	O 	0.73650 0.98250 0.54290 -0.41200
O 	O 	0.59860 0.93720 0.69750 -0.51300
O 	O 	0.66680 0.88820 0.76200 -0.44400
O 	O 	0.71770 0.05140 0.77890 -0.46700
O 	O 	0.78290 0.98570 0.83170 -0.57900
O 	O 	0.90700 0.94990 0.74810 -0.54500
O 	O 	0.90430 0.89340 0.65730 -0.37500
O 	O 	0.92350 0.82700 0.53520 -0.43200
O 	O 	0.64250 0.02320 0.44330 -0.79500
H 	H 	0.44330 0.64250 0.97492 0.12200
H 	H 	0.49158 0.64250 0.02320 0.10500
O 	O 	0.86670 0.86670 0.86670 -0.75800
Zn	Zn	0.89957 0.14743 0.32660 1.23900
Zn	Zn	0.05955 0.26376 0.49184 1.22700
Zn	Zn	0.65149 0.11868 0.46617 1.19300
H 	H 	0.88622 0.30861 0.37572 0.03600
H 	H 	0.84871 0.30950 0.50181 0.05900
H 	H 	0.81254 0.20216 0.50799 0.06500
H 	H 	0.73441 0.20243 0.38305 0.02800
C 	C 	0.86990 0.26690 0.40770 -0.01200
C 	C 	0.92920 0.23420 0.43720 0.32900
C 	C 	0.82240 0.29160 0.45690 -0.08800
C 	C 	0.78360 0.34660 0.42590 0.41600
C 	C 	0.78290 0.23190 0.47240 -0.11900
C 	C 	0.71810 0.24520 0.50480 0.42900
C 	C 	0.78260 0.19440 0.40840 -0.02600
C 	C 	0.79340 0.12220 0.41720 0.34700
O 	O 	0.83370 0.22130 0.36930 -0.26500
O 	O 	0.94820 0.18270 0.41320 -0.35900
O 	O 	0.95710 0.26350 0.48250 -0.41400
O 	O 	0.80250 0.40140 0.43720 -0.51400
O 	O 	0.73800 0.33320 0.38820 -0.44500
O 	O 	0.72110 0.28230 0.55140 -0.46900
O 	O 	0.66830 0.21710 0.48570 -0.58900
O 	O 	0.75190 0.09300 0.44990 -0.55500
O 	O 	0.84270 0.09570 0.39340 -0.37600
O 	O 	0.96480 0.07650 0.32700 -0.43500
O 	O 	0.05670 0.35750 0.52320 -0.79600
H 	H 	0.52508 0.55670 0.14250 0.12100
H 	H 	0.47680 0.50842 0.14250 0.10400
H 	H 	0.31842 0.63330 0.13330 0.13500
Zn	Zn	0.67340 0.39957 0.35257 1.23900
Zn	Zn	0.50816 0.55955 0.23624 1.22800
Zn	Zn	0.53383 0.15149 0.38132 1.19600
H 	H 	0.62428 0.38622 0.19139 0.03600
H 	H 	0.49819 0.34871 0.19050 0.06000
H 	H 	0.49201 0.31254 0.29784 0.06500
H 	H 	0.61695 0.23441 0.29757 0.03700
C 	C 	0.59230 0.36990 0.23310 -0.01200
C 	C 	0.56280 0.42920 0.26580 0.32900
C 	C 	0.54310 0.32240 0.20840 -0.08800
C 	C 	0.57410 0.28360 0.15340 0.41500
C 	C 	0.52760 0.28290 0.26810 -0.11600
C 	C 	0.49520 0.21810 0.25480 0.42700
C 	C 	0.59160 0.28260 0.30560 -0.02900
C 	C 	0.58280 0.29340 0.37780 0.34800
O 	O 	0.63070 0.33370 0.27870 -0.26400
O 	O 	0.58680 0.44820 0.31730 -0.35800
O 	O 	0.51750 0.45710 0.23650 -0.41300
O 	O 	0.56280 0.30250 0.09860 -0.51400
O 	O 	0.61180 0.23800 0.16680 -0.44300
O 	O 	0.44860 0.22110 0.21770 -0.46900
O 	O 	0.51430 0.16830 0.28290 -0.58000
O 	O 	0.55010 0.25190 0.40700 -0.55400
O 	O 	0.60660 0.34270 0.40430 -0.37600
O 	O 	0.67300 0.46480 0.42350 -0.43300
O 	O 	0.47680 0.55670 0.14250 -0.79000
H 	H 	0.85750 0.02508 0.94330 0.11700
H 	H 	0.85750 0.97680 0.99158 0.10700
H 	H 	0.86670 0.81842 0.86670 0.13500
Zn	Zn	0.64743 0.17340 0.10043 1.24000
Zn	Zn	0.76376 0.00816 0.94045 1.22500
Zn	Zn	0.61868 0.03383 0.34851 1.19900
H 	H 	0.80861 0.12428 0.11378 0.03600
H 	H 	0.80950 0.99819 0.15129 0.05900
H 	H 	0.70216 0.99201 0.18746 0.06400
H 	H 	0.70243 0.11695 0.26559 0.04200
C 	C 	0.76690 0.09230 0.13010 -0.01200
C 	C 	0.73420 0.06280 0.07080 0.33000
C 	C 	0.79160 0.04310 0.17760 -0.08800
C 	C 	0.84660 0.07410 0.21640 0.41600
C 	C 	0.73190 0.02760 0.21710 -0.11600
C 	C 	0.74520 0.99520 0.28190 0.42800
C 	C 	0.69440 0.09160 0.21740 -0.02700
C 	C 	0.62220 0.08280 0.20660 0.35600
O 	O 	0.72130 0.13070 0.16630 -0.26400
O 	O 	0.68270 0.08680 0.05180 -0.35800
O 	O 	0.76350 0.01750 0.04290 -0.41300
O 	O 	0.90140 0.06280 0.19750 -0.51500
O 	O 	0.83320 0.11180 0.26200 -0.44500
O 	O 	0.78230 0.94860 0.27890 -0.46900
O 	O 	0.71710 0.01430 0.33170 -0.58600
O 	O 	0.59300 0.05010 0.24810 -0.54600
O 	O 	0.59570 0.10660 0.15730 -0.37600
O 	O 	0.57650 0.17300 0.03520 -0.43200
O 	O 	0.85750 0.97680 0.94330 -0.79000
H 	H 	0.05670 0.35750 0.47492 0.12200
H 	H 	0.00842 0.35750 0.52320 0.10600
O 	O 	0.63330 0.13330 0.36670 -0.75800
Zn	Zn	0.39957 0.35257 0.67340 1.24000
Zn	Zn	0.55955 0.23624 0.50816 1.22700
Zn	Zn	0.15149 0.38132 0.53383 1.19300
H 	H 	0.38622 0.19139 0.62428 0.03600
H 	H 	0.34871 0.19050 0.49819 0.06000
H 	H 	0.31254 0.29784 0.49201 0.06500
H 	H 	0.23441 0.29757 0.61695 0.02800
C 	C 	0.36990 0.23310 0.59230 -0.01200
C 	C 	0.42920 0.26580 0.56280 0.32900
C 	C 	0.32240 0.20840 0.54310 -0.08800
C 	C 	0.28360 0.15340 0.57410 0.41600
C 	C 	0.28290 0.26810 0.52760 -0.11900
C 	C 	0.21810 0.25480 0.49520 0.42900
C 	C 	0.28260 0.30560 0.59160 -0.02600
C 	C 	0.29340 0.37780 0.58280 0.34700
O 	O 	0.33370 0.27870 0.63070 -0.26500
O 	O 	0.44820 0.31730 0.58680 -0.35800
O 	O 	0.45710 0.23650 0.51750 -0.41300
O 	O 	0.30250 0.09860 0.56280 -0.51400
O 	O 	0.23800 0.16680 0.61180 -0.44500
O 	O 	0.22110 0.21770 0.44860 -0.46900
O 	O 	0.16830 0.28290 0.51430 -0.58900
O 	O 	0.25190 0.40700 0.55010 -0.55400
O 	O 	0.34270 0.40430 0.60660 -0.37500
O 	O 	0.46480 0.42350 0.67300 -0.43300
O 	O 	0.55670 0.14250 0.47680 -0.79600
H 	H 	0.02508 0.94330 0.85750 0.11600
H 	H 	0.97680 0.99158 0.85750 0.10700
H 	H 	0.81842 0.86670 0.86670 0.13500
Zn	Zn	0.17340 0.10043 0.64743 1.24000
Zn	Zn	0.00816 0.94045 0.76376 1.22600
Zn	Zn	0.03383 0.34851 0.61868 1.19600
H 	H 	0.12428 0.11378 0.80861 0.03600
H 	H 	0.99819 0.15129 0.80950 0.05900
H 	H 	0.99201 0.18746 0.70216 0.06400
H 	H 	0.11695 0.26559 0.70243 0.03700
C 	C 	0.09230 0.13010 0.76690 -0.01200
C 	C 	0.06280 0.07080 0.73420 0.33000
C 	C 	0.04310 0.17760 0.79160 -0.08800
C 	C 	0.07410 0.21640 0.84660 0.41500
C 	C 	0.02760 0.21710 0.73190 -0.11500
C 	C 	0.99520 0.28190 0.74520 0.42700
C 	C 	0.09160 0.21740 0.69440 -0.02900
C 	C 	0.08280 0.20660 0.62220 0.34800
O 	O 	0.13070 0.16630 0.72130 -0.26400
O 	O 	0.08680 0.05180 0.68270 -0.35700
O 	O 	0.01750 0.04290 0.76350 -0.41300
O 	O 	0.06280 0.19750 0.90140 -0.51500
O 	O 	0.11180 0.26200 0.83320 -0.44300
O 	O 	0.94860 0.27890 0.78230 -0.46900
O 	O 	0.01430 0.33170 0.71710 -0.58100
O 	O 	0.05010 0.24810 0.59300 -0.55400
O 	O 	0.10660 0.15730 0.59570 -0.37600
O 	O 	0.17300 0.03520 0.57650 -0.43200
O 	O 	0.97680 0.94330 0.85750 -0.78500
H 	H 	0.35750 0.47492 0.05670 0.12200
H 	H 	0.35750 0.52320 0.00842 0.10600
H 	H 	0.36670 0.68158 0.13330 0.13500
Zn	Zn	0.14743 0.32660 0.89957 1.23900
Zn	Zn	0.26376 0.49184 0.05955 1.22700
Zn	Zn	0.11868 0.46617 0.65149 1.19900
H 	H 	0.30861 0.37572 0.88622 0.03600
H 	H 	0.30950 0.50181 0.84871 0.06000
H 	H 	0.20216 0.50799 0.81254 0.06500
H 	H 	0.20243 0.38305 0.73441 0.04200
C 	C 	0.26690 0.40770 0.86990 -0.01300
C 	C 	0.23420 0.43720 0.92920 0.33000
C 	C 	0.29160 0.45690 0.82240 -0.08800
C 	C 	0.34660 0.42590 0.78360 0.41600
C 	C 	0.23190 0.47240 0.78290 -0.11700
C 	C 	0.24520 0.50480 0.71810 0.42800
C 	C 	0.19440 0.40840 0.78260 -0.02700
C 	C 	0.12220 0.41720 0.79340 0.35600
O 	O 	0.22130 0.36930 0.83370 -0.26400
O 	O 	0.18270 0.41320 0.94820 -0.35900
O 	O 	0.26350 0.48250 0.95710 -0.41400
O 	O 	0.40140 0.43720 0.80250 -0.51400
O 	O 	0.33320 0.38820 0.73800 -0.44500
O 	O 	0.28230 0.55140 0.72110 -0.46900
O 	O 	0.21710 0.48570 0.66830 -0.58500
O 	O 	0.09300 0.44990 0.75190 -0.54700
O 	O 	0.09570 0.39340 0.84270 -0.37700
O 	O 	0.07650 0.32700 0.96480 -0.43500
O 	O 	0.35750 0.52320 0.05670 -0.79500
H 	H 	0.55670 0.14250 0.52508 0.12200
H 	H 	0.50842 0.14250 0.47680 0.10500
O 	O 	0.13330 0.36670 0.63330 -0.75800
Zn	Zn	0.10043 0.64743 0.17340 1.24000
Zn	Zn	0.94045 0.76376 0.00816 1.22500
Zn	Zn	0.34851 0.61868 0.03383 1.19300
H 	H 	0.11378 0.80861 0.12428 0.03600
H 	H 	0.15129 0.80950 0.99819 0.05900
H 	H 	0.18746 0.70216 0.99201 0.06400
H 	H 	0.26559 0.70243 0.11695 0.02800
C 	C 	0.13010 0.76690 0.09230 -0.01200
C 	C 	0.07080 0.73420 0.06280 0.33000
C 	C 	0.17760 0.79160 0.04310 -0.08800
C 	C 	0.21640 0.84660 0.07410 0.41600
C 	C 	0.21710 0.73190 0.02760 -0.11800
C 	C 	0.28190 0.74520 0.99520 0.42900
C 	C 	0.21740 0.69440 0.09160 -0.02600
C 	C 	0.20660 0.62220 0.08280 0.34700
O 	O 	0.16630 0.72130 0.13070 -0.26500
O 	O 	0.05180 0.68270 0.08680 -0.35700
O 	O 	0.04290 0.76350 0.01750 -0.41300
O 	O 	0.19750 0.90140 0.06280 -0.51500
O 	O 	0.26200 0.83320 0.11180 -0.44500
O 	O 	0.27890 0.78230 0.94860 -0.46900
O 	O 	0.33170 0.71710 0.01430 -0.59000
O 	O 	0.24810 0.59300 0.05010 -0.55400
O 	O 	0.15730 0.59570 0.10660 -0.37500
O 	O 	0.03520 0.57650 0.17300 -0.43200
O 	O 	0.94330 0.85750 0.97680 -0.79100
H 	H 	0.47492 0.05670 0.35750 0.12100
H 	H 	0.52320 0.00842 0.35750 0.10500
H 	H 	0.68158 0.13330 0.36670 0.13500
Zn	Zn	0.32660 0.89957 0.14743 1.23900
Zn	Zn	0.49184 0.05955 0.26376 1.22800
Zn	Zn	0.46617 0.65149 0.11868 1.19600
H 	H 	0.37572 0.88622 0.30861 0.03600
H 	H 	0.50181 0.84871 0.30950 0.06000
H 	H 	0.50799 0.81254 0.20216 0.06400
H 	H 	0.38305 0.73441 0.20243 0.03700
C 	C 	0.40770 0.86990 0.26690 -0.01200
C 	C 	0.43720 0.92920 0.23420 0.32900
C 	C 	0.45690 0.82240 0.29160 -0.08800
C 	C 	0.42590 0.78360 0.34660 0.41500
C 	C 	0.47240 0.78290 0.23190 -0.11600
C 	C 	0.50480 0.71810 0.24520 0.42600
C 	C 	0.40840 0.78260 0.19440 -0.02900
C 	C 	0.41720 0.79340 0.12220 0.34800
O 	O 	0.36930 0.83370 0.22130 -0.26400
O 	O 	0.41320 0.94820 0.18270 -0.35900
O 	O 	0.48250 0.95710 0.26350 -0.41400
O 	O 	0.43720 0.80250 0.40140 -0.51400
O 	O 	0.38820 0.73800 0.33320 -0.44300
O 	O 	0.55140 0.72110 0.28230 -0.46900
O 	O 	0.48570 0.66830 0.21710 -0.58000
O 	O 	0.44990 0.75190 0.09300 -0.55500
O 	O 	0.39340 0.84270 0.09570 -0.37700
O 	O 	0.32700 0.96480 0.07650 -0.43500
O 	O 	0.52320 0.05670 0.35750 -0.79000
H 	H 	0.14250 0.52508 0.55670 0.12200
H 	H 	0.14250 0.47680 0.50842 0.10500
H 	H 	0.13330 0.31842 0.63330 0.13500
Zn	Zn	0.35257 0.67340 0.39957 1.24000
Zn	Zn	0.23624 0.50816 0.55955 1.22700
Zn	Zn	0.38132 0.53383 0.15149 1.19900
H 	H 	0.19139 0.62428 0.38622 0.03600
H 	H 	0.19050 0.49819 0.34871 0.06000
H 	H 	0.29784 0.49201 0.31254 0.06500
H 	H 	0.29757 0.61695 0.23441 0.04200
C 	C 	0.23310 0.59230 0.36990 -0.01200
C 	C 	0.26580 0.56280 0.42920 0.32900
C 	C 	0.20840 0.54310 0.32240 -0.08800
C 	C 	0.15340 0.57410 0.28360 0.41600
C 	C 	0.26810 0.52760 0.28290 -0.11700
C 	C 	0.25480 0.49520 0.21810 0.42800
C 	C 	0.30560 0.59160 0.28260 -0.02700
C 	C 	0.37780 0.58280 0.29340 0.35600
O 	O 	0.27870 0.63070 0.33370 -0.26400
O 	O 	0.31730 0.58680 0.44820 -0.35800
O 	O 	0.23650 0.51750 0.45710 -0.41300
O 	O 	0.09860 0.56280 0.30250 -0.51400
O 	O 	0.16680 0.61180 0.23800 -0.44500
O 	O 	0.21770 0.44860 0.22110 -0.46900
O 	O 	0.28290 0.51430 0.16830 -0.58500
O 	O 	0.40700 0.55010 0.25190 -0.54700
O 	O 	0.40430 0.60660 0.34270 -0.37600
O 	O 	0.42350 0.67300 0.46480 -0.43300
O 	O 	0.14250 0.47680 0.55670 -0.79500
H 	H 	0.94330 0.85750 0.02508 0.11700
H 	H 	0.99158 0.85750 0.97680 0.10700
O 	O 	0.36670 0.63330 0.13330 -0.75800
Zn	Zn	0.39957 0.14743 0.17340 1.24000
Zn	Zn	0.55955 0.26376 0.00816 1.22700
Zn	Zn	0.15149 0.11868 0.03383 1.19400
H 	H 	0.38622 0.30861 0.12428 0.03600
H 	H 	0.34871 0.30950 0.99819 0.05800
H 	H 	0.31254 0.20216 0.99201 0.06100
H 	H 	0.23441 0.20243 0.11695 0.02800
C 	C 	0.36990 0.26690 0.09230 -0.01200
C 	C 	0.42920 0.23420 0.06280 0.33000
C 	C 	0.32240 0.29160 0.04310 -0.08700
C 	C 	0.28360 0.34660 0.07410 0.41600
C 	C 	0.28290 0.23190 0.02760 -0.11000
C 	C 	0.21810 0.24520 0.99520 0.41800
C 	C 	0.28260 0.19440 0.09160 -0.02800
C 	C 	0.29340 0.12220 0.08280 0.34800
O 	O 	0.33370 0.22130 0.13070 -0.26500
O 	O 	0.44820 0.18270 0.08680 -0.35800
O 	O 	0.45710 0.26350 0.01750 -0.41200
O 	O 	0.30250 0.40140 0.06280 -0.51300
O 	O 	0.23800 0.33320 0.11180 -0.44400
O 	O 	0.22110 0.28230 0.94860 -0.46700
O 	O 	0.16830 0.21710 0.01430 -0.58300
O 	O 	0.25190 0.09300 0.05010 -0.55300
O 	O 	0.34270 0.09570 0.10660 -0.37400
O 	O 	0.46480 0.07650 0.17300 -0.43200
O 	O 	0.55670 0.35750 0.97680 -0.79600
H 	H 	0.02508 0.55670 0.35750 0.12100
H 	H 	0.97680 0.50842 0.35750 0.10400
H 	H 	0.81842 0.63330 0.36670 0.13500
Zn	Zn	0.17340 0.39957 0.14743 1.24000
Zn	Zn	0.00816 0.55955 0.26376 1.22800
Zn	Zn	0.03383 0.15149 0.11868 1.19600
H 	H 	0.12428 0.38622 0.30861 0.03600
H 	H 	0.99819 0.34871 0.30950 0.05800
H 	H 	0.99201 0.31254 0.20216 0.06000
H 	H 	0.11695 0.23441 0.20243 0.03700
C 	C 	0.09230 0.36990 0.26690 -0.01200
C 	C 	0.06280 0.42920 0.23420 0.33000
C 	C 	0.04310 0.32240 0.29160 -0.08800
C 	C 	0.07410 0.28360 0.34660 0.41600
C 	C 	0.02760 0.28290 0.23190 -0.10700
C 	C 	0.99520 0.21810 0.24520 0.41600
C 	C 	0.09160 0.28260 0.19440 -0.03100
C 	C 	0.08280 0.29340 0.12220 0.34900
O 	O 	0.13070 0.33370 0.22130 -0.26400
O 	O 	0.08680 0.44820 0.18270 -0.35800
O 	O 	0.01750 0.45710 0.26350 -0.41200
O 	O 	0.06280 0.30250 0.40140 -0.51300
O 	O 	0.11180 0.23800 0.33320 -0.44300
O 	O 	0.94860 0.22110 0.28230 -0.46700
O 	O 	0.01430 0.16830 0.21710 -0.57400
O 	O 	0.05010 0.25190 0.09300 -0.55200
O 	O 	0.10660 0.34270 0.09570 -0.37500
O 	O 	0.17300 0.46480 0.07650 -0.43200
O 	O 	0.97680 0.55670 0.35750 -0.79100
H 	H 	0.35750 0.02508 0.55670 0.12200
H 	H 	0.35750 0.97680 0.50842 0.10500
H 	H 	0.36670 0.81842 0.63330 0.13500
Zn	Zn	0.14743 0.17340 0.39957 1.24000
Zn	Zn	0.26376 0.00816 0.55955 1.22700
Zn	Zn	0.11868 0.03383 0.15149 1.19900
H 	H 	0.30861 0.12428 0.38622 0.03600
H 	H 	0.30950 0.99819 0.34871 0.05800
H 	H 	0.20216 0.99201 0.31254 0.06100
H 	H 	0.20243 0.11695 0.23441 0.04200
C 	C 	0.26690 0.09230 0.36990 -0.01200
C 	C 	0.23420 0.06280 0.42920 0.33000
C 	C 	0.29160 0.04310 0.32240 -0.08800
C 	C 	0.34660 0.07410 0.28360 0.41600
C 	C 	0.23190 0.02760 0.28290 -0.10800
C 	C 	0.24520 0.99520 0.21810 0.41700
C 	C 	0.19440 0.09160 0.28260 -0.02900
C 	C 	0.12220 0.08280 0.29340 0.35600
O 	O 	0.22130 0.13070 0.33370 -0.26400
O 	O 	0.18270 0.08680 0.44820 -0.35800
O 	O 	0.26350 0.01750 0.45710 -0.41200
O 	O 	0.40140 0.06280 0.30250 -0.51300
O 	O 	0.33320 0.11180 0.23800 -0.44400
O 	O 	0.28230 0.94860 0.22110 -0.46700
O 	O 	0.21710 0.01430 0.16830 -0.57900
O 	O 	0.09300 0.05010 0.25190 -0.54500
O 	O 	0.09570 0.10660 0.34270 -0.37500
O 	O 	0.07650 0.17300 0.46480 -0.43200
O 	O 	0.35750 0.97680 0.55670 -0.79500
H 	H 	0.55670 0.35750 0.02508 0.12200
H 	H 	0.50842 0.35750 0.97680 0.10500
O 	O 	0.13330 0.13330 0.13330 -0.75800
Zn	Zn	0.10043 0.85257 0.67340 1.23900
Zn	Zn	0.94045 0.73624 0.50816 1.22700
Zn	Zn	0.34851 0.88132 0.53383 1.19300
H 	H 	0.11378 0.69139 0.62428 0.03600
H 	H 	0.15129 0.69050 0.49819 0.05900
H 	H 	0.18746 0.79784 0.49201 0.06500
H 	H 	0.26559 0.79757 0.61695 0.02800
C 	C 	0.13010 0.73310 0.59230 -0.01200
C 	C 	0.07080 0.76580 0.56280 0.32900
C 	C 	0.17760 0.70840 0.54310 -0.08800
C 	C 	0.21640 0.65340 0.57410 0.41600
C 	C 	0.21710 0.76810 0.52760 -0.11900
C 	C 	0.28190 0.75480 0.49520 0.42900
C 	C 	0.21740 0.80560 0.59160 -0.02600
C 	C 	0.20660 0.87780 0.58280 0.34700
O 	O 	0.16630 0.77870 0.63070 -0.26500
O 	O 	0.05180 0.81730 0.58680 -0.35900
O 	O 	0.04290 0.73650 0.51750 -0.41400
O 	O 	0.19750 0.59860 0.56280 -0.51400
O 	O 	0.26200 0.66680 0.61180 -0.44500
O 	O 	0.27890 0.71770 0.44860 -0.46900
O 	O 	0.33170 0.78290 0.51430 -0.58900
O 	O 	0.24810 0.90700 0.55010 -0.55500
O 	O 	0.15730 0.90430 0.60660 -0.37600
O 	O 	0.03520 0.92350 0.67300 -0.43500
O 	O 	0.94330 0.64250 0.47680 -0.79600
H 	H 	0.47492 0.44330 0.85750 0.12100
H 	H 	0.52320 0.49158 0.85750 0.10400
H 	H 	0.68158 0.36670 0.86670 0.13500
Zn	Zn	0.32660 0.60043 0.64743 1.23900
Zn	Zn	0.49184 0.44045 0.76376 1.22800
Zn	Zn	0.46617 0.84851 0.61868 1.19600
H 	H 	0.37572 0.61378 0.80861 0.03600
H 	H 	0.50181 0.65129 0.80950 0.06000
H 	H 	0.50799 0.68746 0.70216 0.06500
H 	H 	0.38305 0.76559 0.70243 0.03700
C 	C 	0.40770 0.63010 0.76690 -0.01200
C 	C 	0.43720 0.57080 0.73420 0.32900
C 	C 	0.45690 0.67760 0.79160 -0.08800
C 	C 	0.42590 0.71640 0.84660 0.41500
C 	C 	0.47240 0.71710 0.73190 -0.11600
C 	C 	0.50480 0.78190 0.74520 0.42700
C 	C 	0.40840 0.71740 0.69440 -0.02900
C 	C 	0.41720 0.70660 0.62220 0.34800
O 	O 	0.36930 0.66630 0.72130 -0.26400
O 	O 	0.41320 0.55180 0.68270 -0.35800
O 	O 	0.48250 0.54290 0.76350 -0.41300
O 	O 	0.43720 0.69750 0.90140 -0.51400
O 	O 	0.38820 0.76200 0.83320 -0.44300
O 	O 	0.55140 0.77890 0.78230 -0.46900
O 	O 	0.48570 0.83170 0.71710 -0.58000
O 	O 	0.44990 0.74810 0.59300 -0.55400
O 	O 	0.39340 0.65730 0.59570 -0.37600
O 	O 	0.32700 0.53520 0.57650 -0.43300
O 	O 	0.52320 0.44330 0.85750 -0.79000
H 	H 	0.14250 0.97492 0.05670 0.11700
H 	H 	0.14250 0.02320 0.00842 0.10700
H 	H 	0.13330 0.18158 0.13330 0.13500
Zn	Zn	0.35257 0.82660 0.89957 1.24000
Zn	Zn	0.23624 0.99184 0.05955 1.22500
Zn	Zn	0.38132 0.96617 0.65149 1.19900
H 	H 	0.19139 0.87572 0.88622 0.03600
H 	H 	0.19050 0.00181 0.84871 0.05900
H 	H 	0.29784 0.00799 0.81254 0.06400
H 	H 	0.29757 0.88305 0.73441 0.04200
C 	C 	0.23310 0.90770 0.86990 -0.01200
C 	C 	0.26580 0.93720 0.92920 0.33000
C 	C 	0.20840 0.95690 0.82240 -0.08800
C 	C 	0.15340 0.92590 0.78360 0.41600
C 	C 	0.26810 0.97240 0.78290 -0.11600
C 	C 	0.25480 0.00480 0.71810 0.42800
C 	C 	0.30560 0.90840 0.78260 -0.02700
C 	C 	0.37780 0.91720 0.79340 0.35600
O 	O 	0.27870 0.86930 0.83370 -0.26400
O 	O 	0.31730 0.91320 0.94820 -0.35800
O 	O 	0.23650 0.98250 0.95710 -0.41300
O 	O 	0.09860 0.93720 0.80250 -0.51500
O 	O 	0.16680 0.88820 0.73800 -0.44500
O 	O 	0.21770 0.05140 0.72110 -0.46900
O 	O 	0.28290 0.98570 0.66830 -0.58600
O 	O 	0.40700 0.94990 0.75190 -0.54600
O 	O 	0.40430 0.89340 0.84270 -0.37600
O 	O 	0.42350 0.82700 0.96480 -0.43200
O 	O 	0.14250 0.02320 0.05670 -0.79000
H 	H 	0.94330 0.64250 0.52508 0.12200
H 	H 	0.99158 0.64250 0.47680 0.10600
O 	O 	0.36670 0.86670 0.63330 -0.75800
Zn	Zn	0.60043 0.64743 0.32660 1.24000
Zn	Zn	0.44045 0.76376 0.49184 1.22700
Zn	Zn	0.84851 0.61868 0.46617 1.19300
H 	H 	0.61378 0.80861 0.37572 0.03600
H 	H 	0.65129 0.80950 0.50181 0.06000
H 	H 	0.68746 0.70216 0.50799 0.06500
H 	H 	0.76559 0.70243 0.38305 0.02800
C 	C 	0.63010 0.76690 0.40770 -0.01200
C 	C 	0.57080 0.73420 0.43720 0.32900
C 	C 	0.67760 0.79160 0.45690 -0.08800
C 	C 	0.71640 0.84660 0.42590 0.41600
C 	C 	0.71710 0.73190 0.47240 -0.11900
C 	C 	0.78190 0.74520 0.50480 0.42900
C 	C 	0.71740 0.69440 0.40840 -0.02600
C 	C 	0.70660 0.62220 0.41720 0.34700
O 	O 	0.66630 0.72130 0.36930 -0.26500
O 	O 	0.55180 0.68270 0.41320 -0.35800
O 	O 	0.54290 0.76350 0.48250 -0.41300
O 	O 	0.69750 0.90140 0.43720 -0.51400
O 	O 	0.76200 0.83320 0.38820 -0.44500
O 	O 	0.77890 0.78230 0.55140 -0.46900
O 	O 	0.83170 0.71710 0.48570 -0.58900
O 	O 	0.74810 0.59300 0.44990 -0.55400
O 	O 	0.65730 0.59570 0.39340 -0.37500
O 	O 	0.53520 0.57650 0.32700 -0.43300
O 	O 	0.44330 0.85750 0.52320 -0.79600
H 	H 	0.97492 0.05670 0.14250 0.11600
H 	H 	0.02320 0.00842 0.14250 0.10700
H 	H 	0.18158 0.13330 0.13330 0.13500
Zn	Zn	0.82660 0.89957 0.35257 1.24000
Zn	Zn	0.99184 0.05955 0.23624 1.22600
Zn	Zn	0.96617 0.65149 0.38132 1.19600
H 	H 	0.87572 0.88622 0.19139 0.03600
H 	H 	0.00181 0.84871 0.19050 0.05900
H 	H 	0.00799 0.81254 0.29784 0.06400
H 	H 	0.88305 0.73441 0.29757 0.03700
C 	C 	0.90770 0.86990 0.23310 -0.01200
C 	C 	0.93720 0.92920 0.26580 0.33000
C 	C 	0.95690 0.82240 0.20840 -0.08800
C 	C 	0.92590 0.78360 0.15340 0.41500
C 	C 	0.97240 0.78290 0.26810 -0.11500
C 	C 	0.00480 0.71810 0.25480 0.42700
C 	C 	0.90840 0.78260 0.30560 -0.02900
C 	C 	0.91720 0.79340 0.37780 0.34800
O 	O 	0.86930 0.83370 0.27870 -0.26400
O 	O 	0.91320 0.94820 0.31730 -0.35700
O 	O 	0.98250 0.95710 0.23650 -0.41300
O 	O 	0.93720 0.80250 0.09860 -0.51500
O 	O 	0.88820 0.73800 0.16680 -0.44300
O 	O 	0.05140 0.72110 0.21770 -0.46900
O 	O 	0.98570 0.66830 0.28290 -0.58100
O 	O 	0.94990 0.75190 0.40700 -0.55400
O 	O 	0.89340 0.84270 0.40430 -0.37600
O 	O 	0.82700 0.96480 0.42350 -0.43200
O 	O 	0.02320 0.05670 0.14250 -0.78500
H 	H 	0.64250 0.52508 0.94330 0.12200
H 	H 	0.64250 0.47680 0.99158 0.10600
H 	H 	0.63330 0.31842 0.86670 0.13500
Zn	Zn	0.85257 0.67340 0.10043 1.23900
Zn	Zn	0.73624 0.50816 0.94045 1.22700
Zn	Zn	0.88132 0.53383 0.34851 1.19900
H 	H 	0.69139 0.62428 0.11378 0.03600
H 	H 	0.69050 0.49819 0.15129 0.06000
H 	H 	0.79784 0.49201 0.18746 0.06500
H 	H 	0.79757 0.61695 0.26559 0.04200
C 	C 	0.73310 0.59230 0.13010 -0.01300
C 	C 	0.76580 0.56280 0.07080 0.33000
C 	C 	0.70840 0.54310 0.17760 -0.08800
C 	C 	0.65340 0.57410 0.21640 0.41600
C 	C 	0.76810 0.52760 0.21710 -0.11700
C 	C 	0.75480 0.49520 0.28190 0.42800
C 	C 	0.80560 0.59160 0.21740 -0.02700
C 	C 	0.87780 0.58280 0.20660 0.35600
O 	O 	0.77870 0.63070 0.16630 -0.26400
O 	O 	0.81730 0.58680 0.05180 -0.35900
O 	O 	0.73650 0.51750 0.04290 -0.41400
O 	O 	0.59860 0.56280 0.19750 -0.51400
O 	O 	0.66680 0.61180 0.26200 -0.44500
O 	O 	0.71770 0.44860 0.27890 -0.46900
O 	O 	0.78290 0.51430 0.33170 -0.58500
O 	O 	0.90700 0.55010 0.24810 -0.54700
O 	O 	0.90430 0.60660 0.15730 -0.37700
O 	O 	0.92350 0.67300 0.03520 -0.43500
O 	O 	0.64250 0.47680 0.94330 -0.79500
H 	H 	0.44330 0.85750 0.47492 0.12200
H 	H 	0.49158 0.85750 0.52320 0.10500
O 	O 	0.86670 0.63330 0.36670 -0.75800
Zn	Zn	0.89957 0.35257 0.82660 1.24000
Zn	Zn	0.05955 0.23624 0.99184 1.22500
Zn	Zn	0.65149 0.38132 0.96617 1.19300
H 	H 	0.88622 0.19139 0.87572 0.03600
H 	H 	0.84871 0.19050 0.00181 0.05900
H 	H 	0.81254 0.29784 0.00799 0.06400
H 	H 	0.73441 0.29757 0.88305 0.02800
C 	C 	0.86990 0.23310 0.90770 -0.01200
C 	C 	0.92920 0.26580 0.93720 0.33000
C 	C 	0.82240 0.20840 0.95690 -0.08800
C 	C 	0.78360 0.15340 0.92590 0.41600
C 	C 	0.78290 0.26810 0.97240 -0.11800
C 	C 	0.71810 0.25480 0.00480 0.42900
C 	C 	0.78260 0.30560 0.90840 -0.02600
C 	C 	0.79340 0.37780 0.91720 0.34700
O 	O 	0.83370 0.27870 0.86930 -0.26500
O 	O 	0.94820 0.31730 0.91320 -0.35700
O 	O 	0.95710 0.23650 0.98250 -0.41300
O 	O 	0.80250 0.09860 0.93720 -0.51500
O 	O 	0.73800 0.16680 0.88820 -0.44500
O 	O 	0.72110 0.21770 0.05140 -0.46900
O 	O 	0.66830 0.28290 0.98570 -0.59000
O 	O 	0.75190 0.40700 0.94990 -0.55400
O 	O 	0.84270 0.40430 0.89340 -0.37500
O 	O 	0.96480 0.42350 0.82700 -0.43200
O 	O 	0.05670 0.14250 0.02320 -0.79100
H 	H 	0.52508 0.94330 0.64250 0.12100
H 	H 	0.47680 0.99158 0.64250 0.10500
H 	H 	0.31842 0.86670 0.63330 0.13500
Zn	Zn	0.67340 0.10043 0.85257 1.23900
Zn	Zn	0.50816 0.94045 0.73624 1.22800
Zn	Zn	0.53383 0.34851 0.88132 1.19600
H 	H 	0.62428 0.11378 0.69139 0.03600
H 	H 	0.49819 0.15129 0.69050 0.06000
H 	H 	0.49201 0.18746 0.79784 0.06400
H 	H 	0.61695 0.26559 0.79757 0.03700
C 	C 	0.59230 0.13010 0.73310 -0.01200
C 	C 	0.56280 0.07080 0.76580 0.32900
C 	C 	0.54310 0.17760 0.70840 -0.08800
C 	C 	0.57410 0.21640 0.65340 0.41500
C 	C 	0.52760 0.21710 0.76810 -0.11600
C 	C 	0.49520 0.28190 0.75480 0.42600
C 	C 	0.59160 0.21740 0.80560 -0.02900
C 	C 	0.58280 0.20660 0.87780 0.34800
O 	O 	0.63070 0.16630 0.77870 -0.26400
O 	O 	0.58680 0.05180 0.81730 -0.35900
O 	O 	0.51750 0.04290 0.73650 -0.41400
O 	O 	0.56280 0.19750 0.59860 -0.51400
O 	O 	0.61180 0.26200 0.66680 -0.44300
O 	O 	0.44860 0.27890 0.71770 -0.46900
O 	O 	0.51430 0.33170 0.78290 -0.58000
O 	O 	0.55010 0.24810 0.90700 -0.55500
O 	O 	0.60660 0.15730 0.90430 -0.37700
O 	O 	0.67300 0.03520 0.92350 -0.43500
O 	O 	0.47680 0.94330 0.64250 -0.79000
H 	H 	0.85750 0.47492 0.44330 0.12200
H 	H 	0.85750 0.52320 0.49158 0.10500
H 	H 	0.86670 0.68158 0.36670 0.13500
Zn	Zn	0.64743 0.32660 0.60043 1.24000
Zn	Zn	0.76376 0.49184 0.44045 1.22700
Zn	Zn	0.61868 0.46617 0.84851 1.19900
H 	H 	0.80861 0.37572 0.61378 0.03600
H 	H 	0.80950 0.50181 0.65129 0.06000
H 	H 	0.70216 0.50799 0.68746 0.06500
H 	H 	0.70243 0.38305 0.76559 0.04200
C 	C 	0.76690 0.40770 0.63010 -0.01200
C 	C 	0.73420 0.43720 0.57080 0.32900
C 	C 	0.79160 0.45690 0.67760 -0.08800
C 	C 	0.84660 0.42590 0.71640 0.41600
C 	C 	0.73190 0.47240 0.71710 -0.11700
C 	C 	0.74520 0.50480 0.78190 0.42800
C 	C 	0.69440 0.40840 0.71740 -0.02700
C 	C 	0.62220 0.41720 0.70660 0.35600
O 	O 	0.72130 0.36930 0.66630 -0.26400
O 	O 	0.68270 0.41320 0.55180 -0.35800
O 	O 	0.76350 0.48250 0.54290 -0.41300
O 	O 	0.90140 0.43720 0.69750 -0.51400
O 	O 	0.83320 0.38820 0.76200 -0.44500
O 	O 	0.78230 0.55140 0.77890 -0.46900
O 	O 	0.71710 0.48570 0.83170 -0.58500
O 	O 	0.59300 0.44990 0.74810 -0.54700
O 	O 	0.59570 0.39340 0.65730 -0.37600
O 	O 	0.57650 0.32700 0.53520 -0.43300
O 	O 	0.85750 0.52320 0.44330 -0.79500
H 	H 	0.05670 0.14250 0.97492 0.11700
H 	H 	0.00842 0.14250 0.02320 0.10700
O 	O 	0.63330 0.36670 0.86670 -0.75800
