data_crystal

_cell_length_a 11.24200
_cell_length_b 14.36700
_cell_length_c 16.75100
_cell_angle_alpha 90.00000
_cell_angle_beta  109.51800
_cell_angle_gamma 90.00000

_symmetry_space_group_name_	'P 1'
_symmetry_space_group_name_H-M	'P 1'

loop_
_symmetry_equiv_pos_as_xyz
  x,y,z

loop_
_atom_site_label
_atom_site_type_symbol
_atom_site_fract_x
_atom_site_fract_y
_atom_site_fract_z
_atom_site_charge
O 	O 	0.78910 0.13930 0.04120 -0.46600
O 	O 	0.79940 0.20820 0.18140 -0.47000
O 	O 	0.49060 0.11660 0.04170 -0.46600
O 	O 	0.41130 0.97210 0.09810 -0.43800
O 	O 	0.61410 0.04430 0.18280 -0.47600
O 	O 	0.68500 0.29640 0.82660 -0.46700
O 	O 	0.55650 0.24320 0.91450 -0.43100
O 	O 	0.70510 0.37910 0.96460 -0.46000
O 	O 	0.09630 0.99460 0.40560 -0.42300
O 	O 	0.87450 0.04590 0.32530 -0.46000
O 	O 	0.99780 0.12130 0.46440 -0.45800
O 	O 	0.93460 0.27280 0.10360 -0.43100
P 	P 	0.86680 0.18830 0.11980 0.44300
P 	P 	0.48840 0.06120 0.11820 0.44200
P 	P 	0.62080 0.32410 0.88960 0.43300
P 	P 	0.00450 0.07390 0.38600 0.42400
Zn	Zn	0.60823 0.12918 0.98016 1.23400
Zn	Zn	0.74216 0.12539 0.25330 1.22900
Zn	Zn	0.88234 0.37933 0.02751 1.23400
O 	O 	0.21090 0.63930 0.45880 -0.46600
O 	O 	0.20060 0.70820 0.31860 -0.46900
O 	O 	0.50940 0.61660 0.45830 -0.46600
O 	O 	0.58870 0.47210 0.40190 -0.43600
O 	O 	0.38590 0.54430 0.31720 -0.47500
O 	O 	0.31500 0.79640 0.67340 -0.46600
O 	O 	0.44350 0.74320 0.58550 -0.43000
O 	O 	0.29490 0.87910 0.53540 -0.46100
O 	O 	0.90370 0.49460 0.09440 -0.42500
O 	O 	0.12550 0.54590 0.17470 -0.45800
O 	O 	0.00220 0.62130 0.03560 -0.45500
O 	O 	0.06540 0.77280 0.39640 -0.43000
P 	P 	0.13320 0.68830 0.38020 0.44300
P 	P 	0.51160 0.56120 0.38180 0.44100
P 	P 	0.37920 0.82410 0.61040 0.43300
P 	P 	0.99550 0.57390 0.11400 0.42400
Zn	Zn	0.39177 0.62918 0.51984 1.23400
Zn	Zn	0.25784 0.62539 0.24670 1.22900
Zn	Zn	0.11766 0.87933 0.47249 1.23500
O 	O 	0.21090 0.86070 0.95880 -0.46500
O 	O 	0.20060 0.79180 0.81860 -0.46900
O 	O 	0.50940 0.88340 0.95830 -0.46500
O 	O 	0.58870 0.02790 0.90190 -0.43700
O 	O 	0.38590 0.95570 0.81720 -0.47500
O 	O 	0.31500 0.70360 0.17340 -0.46600
O 	O 	0.44350 0.75680 0.08550 -0.43000
O 	O 	0.29490 0.62090 0.03540 -0.45900
O 	O 	0.90370 0.00540 0.59440 -0.42200
O 	O 	0.12550 0.95410 0.67470 -0.45900
O 	O 	0.00220 0.87870 0.53560 -0.45800
O 	O 	0.06540 0.72720 0.89640 -0.43100
P 	P 	0.13320 0.81170 0.88020 0.44300
P 	P 	0.51160 0.93880 0.88180 0.44200
P 	P 	0.37920 0.67590 0.11040 0.43300
P 	P 	0.99550 0.92610 0.61400 0.42400
Zn	Zn	0.39177 0.87082 0.01984 1.23400
Zn	Zn	0.25784 0.87461 0.74670 1.22900
Zn	Zn	0.11766 0.62067 0.97249 1.23400
O 	O 	0.78910 0.36070 0.54120 -0.46600
O 	O 	0.79940 0.29180 0.68140 -0.46900
O 	O 	0.49060 0.38340 0.54170 -0.46600
O 	O 	0.41130 0.52790 0.59810 -0.43600
O 	O 	0.61410 0.45570 0.68280 -0.47500
O 	O 	0.68500 0.20360 0.32660 -0.46600
O 	O 	0.55650 0.25680 0.41450 -0.43000
O 	O 	0.70510 0.12090 0.46460 -0.46100
O 	O 	0.09630 0.50540 0.90560 -0.42500
O 	O 	0.87450 0.45410 0.82530 -0.45800
O 	O 	0.99780 0.37870 0.96440 -0.45500
O 	O 	0.93460 0.22720 0.60360 -0.43000
P 	P 	0.86680 0.31170 0.61980 0.44300
P 	P 	0.48840 0.43880 0.61820 0.44100
P 	P 	0.62080 0.17590 0.38960 0.43300
P 	P 	0.00450 0.42610 0.88600 0.42400
Zn	Zn	0.60823 0.37082 0.48016 1.23400
Zn	Zn	0.74216 0.37461 0.75330 1.22900
Zn	Zn	0.88234 0.12067 0.52751 1.23500
