data_crystal

_cell_length_a 22.28600
_cell_length_b 22.72500
_cell_length_c 14.05600
_cell_angle_alpha 90.00000
_cell_angle_beta  90.00000
_cell_angle_gamma 90.00000

_symmetry_space_group_name_	'P 1'
_symmetry_space_group_name_H-M	'P 1'

loop_
_symmetry_equiv_pos_as_xyz
  x,y,z

loop_
_atom_site_label
_atom_site_type_symbol
_atom_site_fract_x
_atom_site_fract_y
_atom_site_fract_z
_atom_site_charge
Co	Co	0.17447 0.20508 0.96154 1.13200
O 	O 	0.20386 0.28649 0.01352 -0.41000
O 	O 	0.11924 0.34016 0.01750 -0.29100
O 	O 	0.32199 0.33483 0.59665 -0.41000
O 	O 	0.41386 0.32202 0.65786 -0.27900
N 	N 	0.26574 0.18197 0.93620 -0.22500
N 	N 	0.35060 0.13318 0.91085 -0.14300
N 	N 	0.63093 0.80105 0.79349 -0.13800
N 	N 	0.66831 0.74329 0.68188 -0.22600
N 	N 	0.14323 0.12366 0.90379 -0.23800
N 	N 	0.10422 0.06316 0.79712 -0.14000
C 	C 	0.17463 0.33268 0.03020 0.33200
C 	C 	0.20937 0.38382 0.07240 -0.10300
C 	C 	0.26371 0.40509 0.03430 0.04900
C 	C 	0.29404 0.44973 0.08260 -0.10600
H 	H 	0.33040 0.46350 0.05880 0.07000
C 	C 	0.27082 0.47398 0.16570 0.02100
H 	H 	0.29160 0.50380 0.19690 0.02700
C 	C 	0.21732 0.45400 0.20180 -0.09600
H 	H 	0.20180 0.47030 0.25720 0.06400
C 	C 	0.18624 0.40921 0.15530 0.02300
H 	H 	0.14980 0.39610 0.17960 0.03200
C 	C 	0.28820 0.38495 0.94050 0.03600
C 	C 	0.34883 0.37021 0.92990 -0.09800
H 	H 	0.37400 0.37070 0.98270 0.06500
C 	C 	0.37186 0.35479 0.84120 0.01300
H 	H 	0.41220 0.34500 0.83560 0.04000
C 	C 	0.33528 0.35377 0.76080 -0.09300
C 	C 	0.27489 0.36829 0.77140 0.01700
H 	H 	0.24970 0.36740 0.71870 0.03800
C 	C 	0.25182 0.38401 0.85970 -0.09600
H 	H 	0.21150 0.39410 0.86500 0.06500
C 	C 	0.35892 0.33521 0.66410 0.32700
C 	C 	0.29407 0.13147 0.94620 0.10400
H 	H 	0.27720 0.09840 0.97440 -0.01000
C 	C 	0.30611 0.21830 0.89210 0.00000
H 	H 	0.29870 0.25720 0.87550 0.03500
C 	C 	0.35846 0.18955 0.87610 0.00400
H 	H 	0.39280 0.20470 0.84750 0.03600
C 	C 	0.39251 0.08578 0.90560 0.11400
C 	C 	0.45080 0.09604 0.87570 -0.11500
H 	H 	0.46280 0.13400 0.86010 0.07900
C 	C 	0.49134 0.04984 0.86900 -0.01600
H 	H 	0.53040 0.05770 0.84970 0.04200
C 	C 	0.47549 0.99245 0.89010 -0.00200
C 	C 	0.41702 0.98307 0.92250 -0.02300
H 	H 	0.40530 0.94520 0.93920 0.04900
C 	C 	0.37581 0.02878 0.93050 -0.11400
H 	H 	0.33720 0.02130 0.95250 0.07400
C 	C 	0.51844 0.94288 0.87570 0.00800
C 	C 	0.57374 0.95214 0.83240 -0.02000
H 	H 	0.58540 0.99040 0.81780 0.04100
C 	C 	0.61193 0.90614 0.81050 -0.10700
H 	H 	0.64880 0.91360 0.78200 0.07100
C 	C 	0.59514 0.84916 0.83110 0.10700
C 	C 	0.54218 0.83871 0.87820 -0.10200
H 	H 	0.53160 0.80050 0.89480 0.06900
C 	C 	0.50456 0.88506 0.90080 -0.02900
H 	H 	0.46910 0.87750 0.93360 0.05800
C 	C 	0.63224 0.78778 0.69950 0.08300
H 	H 	0.61040 0.80770 0.65320 -0.00500
C 	C 	0.69179 0.72751 0.76970 0.00500
H 	H 	0.71930 0.69740 0.77990 0.03100
C 	C 	0.66839 0.76291 0.83900 0.00300
H 	H 	0.67640 0.76130 0.90390 0.04200
C 	C 	0.11382 0.11953 0.82300 0.09400
H 	H 	0.10110 0.15180 0.78770 -0.01900
C 	C 	0.15268 0.06692 0.93220 0.01100
H 	H 	0.17220 0.05590 0.98780 0.02300
C 	C 	0.12950 0.02927 0.86770 -0.00300
H 	H 	0.13040 0.98840 0.87030 0.03500
C 	C 	0.07416 0.04483 0.71220 0.11700
C 	C 	0.06936 0.98594 0.68990 -0.11800
H 	H 	0.08550 0.95770 0.73040 0.08100
C 	C 	0.04039 0.96874 0.60710 -0.01600
H 	H 	0.03760 0.92880 0.59310 0.04500
C 	C 	0.01532 0.00920 0.54420 -0.00600
C 	C 	0.02065 0.06824 0.56970 -0.01200
H 	H 	0.00430 0.09670 0.52980 0.03300
C 	C 	0.04913 0.08599 0.65120 -0.12200
H 	H 	0.05170 0.12580 0.66570 0.07200
Co	Co	0.32553 0.29492 0.46154 1.13300
O 	O 	0.29614 0.21351 0.51352 -0.40900
O 	O 	0.38076 0.15984 0.51750 -0.29200
O 	O 	0.17801 0.16517 0.09665 -0.40800
O 	O 	0.08614 0.17798 0.15786 -0.27800
N 	N 	0.23426 0.31803 0.43620 -0.22400
N 	N 	0.14940 0.36682 0.41085 -0.14200
N 	N 	0.86907 0.69895 0.29349 -0.13700
N 	N 	0.83169 0.75671 0.18188 -0.22500
N 	N 	0.35677 0.37634 0.40379 -0.23700
N 	N 	0.39578 0.43684 0.29712 -0.13900
C 	C 	0.32537 0.16732 0.53020 0.33300
C 	C 	0.29063 0.11618 0.57240 -0.10200
C 	C 	0.23629 0.09491 0.53430 0.04700
C 	C 	0.20596 0.05027 0.58260 -0.10500
H 	H 	0.16960 0.03650 0.55880 0.06900
C 	C 	0.22918 0.02602 0.66570 0.02000
H 	H 	0.20840 0.99620 0.69690 0.02700
C 	C 	0.28268 0.04600 0.70180 -0.09500
H 	H 	0.29820 0.02970 0.75720 0.06300
C 	C 	0.31376 0.09079 0.65530 0.02300
H 	H 	0.35020 0.10390 0.67960 0.03200
C 	C 	0.21180 0.11505 0.44050 0.03800
C 	C 	0.15117 0.12979 0.42990 -0.09900
H 	H 	0.12600 0.12930 0.48270 0.06600
C 	C 	0.12814 0.14521 0.34120 0.01400
H 	H 	0.08780 0.15500 0.33560 0.04000
C 	C 	0.16472 0.14623 0.26080 -0.09400
C 	C 	0.22511 0.13171 0.27140 0.01800
H 	H 	0.25030 0.13260 0.21870 0.03800
C 	C 	0.24818 0.11599 0.35970 -0.09700
H 	H 	0.28850 0.10590 0.36500 0.06600
C 	C 	0.14108 0.16479 0.16410 0.32700
C 	C 	0.20593 0.36853 0.44620 0.10400
H 	H 	0.22280 0.40160 0.47440 -0.01000
C 	C 	0.19389 0.28170 0.39210 0.00000
H 	H 	0.20130 0.24280 0.37550 0.03500
C 	C 	0.14154 0.31045 0.37610 0.00400
H 	H 	0.10720 0.29530 0.34750 0.03600
C 	C 	0.10749 0.41422 0.40560 0.11500
C 	C 	0.04920 0.40396 0.37570 -0.11700
H 	H 	0.03720 0.36600 0.36010 0.08000
C 	C 	0.00866 0.45016 0.36900 -0.01400
H 	H 	0.96960 0.44230 0.34970 0.04000
C 	C 	0.02451 0.50755 0.39010 -0.00200
C 	C 	0.08298 0.51693 0.42250 -0.02200
H 	H 	0.09470 0.55480 0.43920 0.04900
C 	C 	0.12419 0.47122 0.43050 -0.11400
H 	H 	0.16280 0.47870 0.45250 0.07400
C 	C 	0.98156 0.55712 0.37570 0.00800
C 	C 	0.92626 0.54786 0.33240 -0.02100
H 	H 	0.91460 0.50960 0.31780 0.04100
C 	C 	0.88807 0.59386 0.31050 -0.10700
H 	H 	0.85120 0.58640 0.28200 0.07100
C 	C 	0.90486 0.65084 0.33110 0.10600
C 	C 	0.95782 0.66129 0.37820 -0.10100
H 	H 	0.96840 0.69950 0.39480 0.06800
C 	C 	0.99544 0.61494 0.40080 -0.03000
H 	H 	0.03090 0.62250 0.43360 0.05800
C 	C 	0.86776 0.71222 0.19950 0.08300
H 	H 	0.88960 0.69230 0.15320 -0.00500
C 	C 	0.80821 0.77249 0.26970 0.00500
H 	H 	0.78070 0.80260 0.27990 0.03100
C 	C 	0.83161 0.73709 0.33900 0.00300
H 	H 	0.82360 0.73870 0.40390 0.04200
C 	C 	0.38618 0.38047 0.32300 0.09400
H 	H 	0.39890 0.34820 0.28770 -0.01800
C 	C 	0.34732 0.43308 0.43220 0.01100
H 	H 	0.32780 0.44410 0.48780 0.02400
C 	C 	0.37050 0.47073 0.36770 -0.00300
H 	H 	0.36960 0.51160 0.37030 0.03600
C 	C 	0.42584 0.45517 0.21220 0.11800
C 	C 	0.43064 0.51406 0.18990 -0.11800
H 	H 	0.41450 0.54230 0.23040 0.08200
C 	C 	0.45961 0.53126 0.10710 -0.01600
H 	H 	0.46240 0.57120 0.09310 0.04500
C 	C 	0.48468 0.49080 0.04420 -0.00600
C 	C 	0.47935 0.43176 0.06970 -0.01100
H 	H 	0.49570 0.40330 0.02980 0.03300
C 	C 	0.45087 0.41401 0.15120 -0.12200
H 	H 	0.44830 0.37420 0.16570 0.07200
Co	Co	0.82553 0.79492 0.03846 1.13300
O 	O 	0.79614 0.71351 0.98648 -0.40900
O 	O 	0.88076 0.65984 0.98250 -0.29000
O 	O 	0.67801 0.66517 0.40335 -0.40900
O 	O 	0.58614 0.67798 0.34214 -0.27800
N 	N 	0.73426 0.81803 0.06380 -0.22400
N 	N 	0.64940 0.86682 0.08915 -0.14200
N 	N 	0.36907 0.19895 0.20651 -0.13700
N 	N 	0.33169 0.25671 0.31812 -0.22500
N 	N 	0.85677 0.87634 0.09621 -0.23700
N 	N 	0.89578 0.93684 0.20288 -0.13900
C 	C 	0.82537 0.66732 0.96980 0.33300
C 	C 	0.79063 0.61618 0.92760 -0.10300
C 	C 	0.73629 0.59491 0.96570 0.04900
C 	C 	0.70596 0.55027 0.91740 -0.10600
H 	H 	0.66960 0.53650 0.94120 0.07000
C 	C 	0.72918 0.52602 0.83430 0.02100
H 	H 	0.70840 0.49620 0.80310 0.02700
C 	C 	0.78268 0.54600 0.79820 -0.09600
H 	H 	0.79820 0.52970 0.74280 0.06400
C 	C 	0.81376 0.59079 0.84470 0.02300
H 	H 	0.85020 0.60390 0.82040 0.03200
C 	C 	0.71180 0.61505 0.05950 0.03600
C 	C 	0.65117 0.62979 0.07010 -0.09800
H 	H 	0.62600 0.62930 0.01730 0.06500
C 	C 	0.62814 0.64521 0.15880 0.01300
H 	H 	0.58780 0.65500 0.16440 0.04000
C 	C 	0.66472 0.64623 0.23920 -0.09300
C 	C 	0.72511 0.63171 0.22860 0.01700
H 	H 	0.75030 0.63260 0.28130 0.03800
C 	C 	0.74818 0.61599 0.14030 -0.09600
H 	H 	0.78850 0.60590 0.13500 0.06500
C 	C 	0.64108 0.66479 0.33590 0.32700
C 	C 	0.70593 0.86853 0.05380 0.10400
H 	H 	0.72280 0.90160 0.02560 -0.01000
C 	C 	0.69389 0.78170 0.10790 0.00000
H 	H 	0.70130 0.74280 0.12450 0.03500
C 	C 	0.64154 0.81045 0.12390 0.00400
H 	H 	0.60720 0.79530 0.15250 0.03600
C 	C 	0.60749 0.91422 0.09440 0.11400
C 	C 	0.54920 0.90396 0.12430 -0.11500
H 	H 	0.53720 0.86600 0.13990 0.07900
C 	C 	0.50866 0.95016 0.13100 -0.01600
H 	H 	0.46960 0.94230 0.15030 0.04200
C 	C 	0.52451 0.00755 0.10990 -0.00200
C 	C 	0.58298 0.01693 0.07750 -0.02300
H 	H 	0.59470 0.05480 0.06080 0.04900
C 	C 	0.62419 0.97122 0.06950 -0.11400
H 	H 	0.66280 0.97870 0.04750 0.07400
C 	C 	0.48156 0.05712 0.12430 0.00800
C 	C 	0.42626 0.04786 0.16760 -0.02000
H 	H 	0.41460 0.00960 0.18220 0.04100
C 	C 	0.38807 0.09386 0.18950 -0.10700
H 	H 	0.35120 0.08640 0.21800 0.07100
C 	C 	0.40486 0.15084 0.16890 0.10700
C 	C 	0.45782 0.16129 0.12180 -0.10200
H 	H 	0.46840 0.19950 0.10520 0.06900
C 	C 	0.49544 0.11494 0.09920 -0.02900
H 	H 	0.53090 0.12250 0.06640 0.05800
C 	C 	0.36776 0.21222 0.30050 0.08300
H 	H 	0.38960 0.19230 0.34680 -0.00500
C 	C 	0.30821 0.27249 0.23030 0.00500
H 	H 	0.28070 0.30260 0.22010 0.03100
C 	C 	0.33161 0.23709 0.16100 0.00300
H 	H 	0.32360 0.23870 0.09610 0.04200
C 	C 	0.88618 0.88047 0.17700 0.09400
H 	H 	0.89890 0.84820 0.21230 -0.01900
C 	C 	0.84732 0.93308 0.06780 0.01100
H 	H 	0.82780 0.94410 0.01220 0.02300
C 	C 	0.87050 0.97073 0.13230 -0.00300
H 	H 	0.86960 0.01160 0.12970 0.03500
C 	C 	0.92584 0.95517 0.28780 0.11700
C 	C 	0.93064 0.01406 0.31010 -0.11800
H 	H 	0.91450 0.04230 0.26960 0.08100
C 	C 	0.95961 0.03126 0.39290 -0.01600
H 	H 	0.96240 0.07120 0.40690 0.04500
C 	C 	0.98468 0.99080 0.45580 -0.00600
C 	C 	0.97935 0.93176 0.43030 -0.01200
H 	H 	0.99570 0.90330 0.47020 0.03300
C 	C 	0.95087 0.91401 0.34880 -0.12200
H 	H 	0.94830 0.87420 0.33430 0.07200
Co	Co	0.67447 0.70508 0.53846 1.13300
O 	O 	0.70386 0.78649 0.48648 -0.40900
O 	O 	0.61924 0.84016 0.48250 -0.29200
O 	O 	0.82199 0.83483 0.90335 -0.40800
O 	O 	0.91386 0.82202 0.84214 -0.27800
N 	N 	0.76574 0.68197 0.56380 -0.22400
N 	N 	0.85060 0.63318 0.58915 -0.14200
N 	N 	0.13093 0.30105 0.70651 -0.13700
N 	N 	0.16831 0.24329 0.81812 -0.22500
N 	N 	0.64323 0.62366 0.59621 -0.23700
N 	N 	0.60422 0.56316 0.70288 -0.13900
C 	C 	0.67463 0.83268 0.46980 0.33300
C 	C 	0.70937 0.88382 0.42760 -0.10200
C 	C 	0.76371 0.90509 0.46570 0.04700
C 	C 	0.79404 0.94973 0.41740 -0.10500
H 	H 	0.83040 0.96350 0.44120 0.06900
C 	C 	0.77082 0.97398 0.33430 0.02000
H 	H 	0.79160 0.00380 0.30310 0.02700
C 	C 	0.71732 0.95400 0.29820 -0.09500
H 	H 	0.70180 0.97030 0.24280 0.06300
C 	C 	0.68624 0.90921 0.34470 0.02300
H 	H 	0.64980 0.89610 0.32040 0.03200
C 	C 	0.78820 0.88495 0.55950 0.03800
C 	C 	0.84883 0.87021 0.57010 -0.09900
H 	H 	0.87400 0.87070 0.51730 0.06600
C 	C 	0.87186 0.85479 0.65880 0.01400
H 	H 	0.91220 0.84500 0.66440 0.04000
C 	C 	0.83528 0.85377 0.73920 -0.09400
C 	C 	0.77489 0.86829 0.72860 0.01800
H 	H 	0.74970 0.86740 0.78130 0.03800
C 	C 	0.75182 0.88401 0.64030 -0.09700
H 	H 	0.71150 0.89410 0.63500 0.06600
C 	C 	0.85892 0.83521 0.83590 0.32700
C 	C 	0.79407 0.63147 0.55380 0.10400
H 	H 	0.77720 0.59840 0.52560 -0.01000
C 	C 	0.80611 0.71830 0.60790 0.00000
H 	H 	0.79870 0.75720 0.62450 0.03500
C 	C 	0.85846 0.68955 0.62390 0.00400
H 	H 	0.89280 0.70470 0.65250 0.03600
C 	C 	0.89251 0.58578 0.59440 0.11500
C 	C 	0.95080 0.59604 0.62430 -0.11700
H 	H 	0.96280 0.63400 0.63990 0.08000
C 	C 	0.99134 0.54984 0.63100 -0.01400
H 	H 	0.03040 0.55770 0.65030 0.04000
C 	C 	0.97549 0.49245 0.60990 -0.00200
C 	C 	0.91702 0.48307 0.57750 -0.02200
H 	H 	0.90530 0.44520 0.56080 0.04900
C 	C 	0.87581 0.52878 0.56950 -0.11400
H 	H 	0.83720 0.52130 0.54750 0.07400
C 	C 	0.01844 0.44288 0.62430 0.00800
C 	C 	0.07374 0.45214 0.66760 -0.02100
H 	H 	0.08540 0.49040 0.68220 0.04100
C 	C 	0.11193 0.40614 0.68950 -0.10700
H 	H 	0.14880 0.41360 0.71800 0.07100
C 	C 	0.09514 0.34916 0.66890 0.10600
C 	C 	0.04218 0.33871 0.62180 -0.10100
H 	H 	0.03160 0.30050 0.60520 0.06800
C 	C 	0.00456 0.38506 0.59920 -0.03000
H 	H 	0.96910 0.37750 0.56640 0.05800
C 	C 	0.13224 0.28778 0.80050 0.08300
H 	H 	0.11040 0.30770 0.84680 -0.00500
C 	C 	0.19179 0.22751 0.73030 0.00500
H 	H 	0.21930 0.19740 0.72010 0.03100
C 	C 	0.16839 0.26291 0.66100 0.00300
H 	H 	0.17640 0.26130 0.59610 0.04200
C 	C 	0.61382 0.61953 0.67700 0.09400
H 	H 	0.60110 0.65180 0.71230 -0.01800
C 	C 	0.65268 0.56692 0.56780 0.01100
H 	H 	0.67220 0.55590 0.51220 0.02400
C 	C 	0.62950 0.52927 0.63230 -0.00300
H 	H 	0.63040 0.48840 0.62970 0.03600
C 	C 	0.57416 0.54483 0.78780 0.11800
C 	C 	0.56936 0.48594 0.81010 -0.11800
H 	H 	0.58550 0.45770 0.76960 0.08200
C 	C 	0.54039 0.46874 0.89290 -0.01600
H 	H 	0.53760 0.42880 0.90690 0.04500
C 	C 	0.51532 0.50920 0.95580 -0.00600
C 	C 	0.52065 0.56824 0.93030 -0.01100
H 	H 	0.50430 0.59670 0.97020 0.03300
C 	C 	0.54913 0.58599 0.84880 -0.12200
H 	H 	0.55170 0.62580 0.83430 0.07200
Co	Co	0.82553 0.20508 0.53846 1.13300
O 	O 	0.79614 0.28649 0.48648 -0.40900
O 	O 	0.88076 0.34016 0.48250 -0.29200
O 	O 	0.67801 0.33483 0.90335 -0.40800
O 	O 	0.58614 0.32202 0.84214 -0.27800
N 	N 	0.73426 0.18197 0.56380 -0.22400
N 	N 	0.64940 0.13318 0.58915 -0.14200
N 	N 	0.36907 0.80105 0.70651 -0.13700
N 	N 	0.33169 0.74329 0.81812 -0.22500
N 	N 	0.85677 0.12366 0.59621 -0.23700
N 	N 	0.89578 0.06316 0.70288 -0.13900
C 	C 	0.82537 0.33268 0.46980 0.33300
C 	C 	0.79063 0.38382 0.42760 -0.10200
C 	C 	0.73629 0.40509 0.46570 0.04700
C 	C 	0.70596 0.44973 0.41740 -0.10500
H 	H 	0.66960 0.46350 0.44120 0.06900
C 	C 	0.72918 0.47398 0.33430 0.02000
H 	H 	0.70840 0.50380 0.30310 0.02700
C 	C 	0.78268 0.45400 0.29820 -0.09500
H 	H 	0.79820 0.47030 0.24280 0.06300
C 	C 	0.81376 0.40921 0.34470 0.02300
H 	H 	0.85020 0.39610 0.32040 0.03200
C 	C 	0.71180 0.38495 0.55950 0.03800
C 	C 	0.65117 0.37021 0.57010 -0.10000
H 	H 	0.62600 0.37070 0.51730 0.06600
C 	C 	0.62814 0.35479 0.65880 0.01400
H 	H 	0.58780 0.34500 0.66440 0.03900
C 	C 	0.66472 0.35377 0.73920 -0.09400
C 	C 	0.72511 0.36829 0.72860 0.01800
H 	H 	0.75030 0.36740 0.78130 0.03800
C 	C 	0.74818 0.38401 0.64030 -0.09700
H 	H 	0.78850 0.39410 0.63500 0.06600
C 	C 	0.64108 0.33521 0.83590 0.32700
C 	C 	0.70593 0.13147 0.55380 0.10400
H 	H 	0.72280 0.09840 0.52560 -0.01000
C 	C 	0.69389 0.21830 0.60790 0.00000
H 	H 	0.70130 0.25720 0.62450 0.03500
C 	C 	0.64154 0.18955 0.62390 0.00400
H 	H 	0.60720 0.20470 0.65250 0.03600
C 	C 	0.60749 0.08578 0.59440 0.11400
C 	C 	0.54920 0.09604 0.62430 -0.11500
H 	H 	0.53720 0.13400 0.63990 0.07900
C 	C 	0.50866 0.04984 0.63100 -0.01600
H 	H 	0.46960 0.05770 0.65030 0.04200
C 	C 	0.52451 0.99245 0.60990 -0.00200
C 	C 	0.58298 0.98307 0.57750 -0.02300
H 	H 	0.59470 0.94520 0.56080 0.04900
C 	C 	0.62419 0.02878 0.56950 -0.11400
H 	H 	0.66280 0.02130 0.54750 0.07400
C 	C 	0.48156 0.94288 0.62430 0.00800
C 	C 	0.42626 0.95214 0.66760 -0.02000
H 	H 	0.41460 0.99040 0.68220 0.04100
C 	C 	0.38807 0.90614 0.68950 -0.10700
H 	H 	0.35120 0.91360 0.71800 0.07100
C 	C 	0.40486 0.84916 0.66890 0.10700
C 	C 	0.45782 0.83871 0.62180 -0.10200
H 	H 	0.46840 0.80050 0.60520 0.06900
C 	C 	0.49544 0.88506 0.59920 -0.02900
H 	H 	0.53090 0.87750 0.56640 0.05800
C 	C 	0.36776 0.78778 0.80050 0.08300
H 	H 	0.38960 0.80770 0.84680 -0.00500
C 	C 	0.30821 0.72751 0.73030 0.00500
H 	H 	0.28070 0.69740 0.72010 0.03100
C 	C 	0.33161 0.76291 0.66100 0.00300
H 	H 	0.32360 0.76130 0.59610 0.04200
C 	C 	0.88618 0.11953 0.67700 0.09400
H 	H 	0.89890 0.15180 0.71230 -0.01800
C 	C 	0.84732 0.06692 0.56780 0.01100
H 	H 	0.82780 0.05590 0.51220 0.02400
C 	C 	0.87050 0.02927 0.63230 -0.00300
H 	H 	0.86960 0.98840 0.62970 0.03600
C 	C 	0.92584 0.04483 0.78780 0.11800
C 	C 	0.93064 0.98594 0.81010 -0.11700
H 	H 	0.91450 0.95770 0.76960 0.08200
C 	C 	0.95961 0.96874 0.89290 -0.01600
H 	H 	0.96240 0.92880 0.90690 0.04500
C 	C 	0.98468 0.00920 0.95580 -0.00500
C 	C 	0.97935 0.06824 0.93030 -0.01100
H 	H 	0.99570 0.09670 0.97020 0.03300
C 	C 	0.95087 0.08599 0.84880 -0.12100
H 	H 	0.94830 0.12580 0.83430 0.07200
Co	Co	0.67447 0.29492 0.03846 1.13300
O 	O 	0.70386 0.21351 0.98648 -0.40900
O 	O 	0.61924 0.15984 0.98250 -0.29100
O 	O 	0.82199 0.16517 0.40335 -0.40900
O 	O 	0.91386 0.17798 0.34214 -0.27900
N 	N 	0.76574 0.31803 0.06380 -0.22400
N 	N 	0.85060 0.36682 0.08915 -0.14100
N 	N 	0.13093 0.69895 0.20651 -0.13700
N 	N 	0.16831 0.75671 0.31812 -0.22500
N 	N 	0.64323 0.37634 0.09621 -0.23700
N 	N 	0.60422 0.43684 0.20288 -0.13900
C 	C 	0.67463 0.16732 0.96980 0.33400
C 	C 	0.70937 0.11618 0.92760 -0.10300
C 	C 	0.76371 0.09491 0.96570 0.05000
C 	C 	0.79404 0.05027 0.91740 -0.10600
H 	H 	0.83040 0.03650 0.94120 0.07000
C 	C 	0.77082 0.02602 0.83430 0.02100
H 	H 	0.79160 0.99620 0.80310 0.02700
C 	C 	0.71732 0.04600 0.79820 -0.09600
H 	H 	0.70180 0.02970 0.74280 0.06400
C 	C 	0.68624 0.09079 0.84470 0.02400
H 	H 	0.64980 0.10390 0.82040 0.03100
C 	C 	0.78820 0.11505 0.05950 0.03500
C 	C 	0.84883 0.12979 0.07010 -0.09800
H 	H 	0.87400 0.12930 0.01730 0.06500
C 	C 	0.87186 0.14521 0.15880 0.01300
H 	H 	0.91220 0.15500 0.16440 0.03900
C 	C 	0.83528 0.14623 0.23920 -0.09300
C 	C 	0.77489 0.13171 0.22860 0.01700
H 	H 	0.74970 0.13260 0.28130 0.03800
C 	C 	0.75182 0.11599 0.14030 -0.09600
H 	H 	0.71150 0.10590 0.13500 0.06500
C 	C 	0.85892 0.16479 0.33590 0.32700
C 	C 	0.79407 0.36853 0.05380 0.10400
H 	H 	0.77720 0.40160 0.02560 -0.01000
C 	C 	0.80611 0.28170 0.10790 -0.00000
H 	H 	0.79870 0.24280 0.12450 0.03500
C 	C 	0.85846 0.31045 0.12390 0.00400
H 	H 	0.89280 0.29530 0.15250 0.03600
C 	C 	0.89251 0.41422 0.09440 0.11200
C 	C 	0.95080 0.40396 0.12430 -0.11200
H 	H 	0.96280 0.36600 0.13990 0.07800
C 	C 	0.99134 0.45016 0.13100 -0.02200
H 	H 	0.03040 0.44230 0.15030 0.04500
C 	C 	0.97549 0.50755 0.10990 -0.00000
C 	C 	0.91702 0.51693 0.07750 -0.02400
H 	H 	0.90530 0.55480 0.06080 0.05000
C 	C 	0.87581 0.47122 0.06950 -0.11300
H 	H 	0.83720 0.47870 0.04750 0.07300
C 	C 	0.01844 0.55712 0.12430 0.00600
C 	C 	0.07374 0.54786 0.16760 -0.01800
H 	H 	0.08540 0.50960 0.18220 0.04000
C 	C 	0.11193 0.59386 0.18950 -0.10900
H 	H 	0.14880 0.58640 0.21800 0.07100
C 	C 	0.09514 0.65084 0.16890 0.10900
C 	C 	0.04218 0.66129 0.12180 -0.10600
H 	H 	0.03160 0.69950 0.10520 0.07100
C 	C 	0.00456 0.61494 0.09920 -0.02100
H 	H 	0.96910 0.62250 0.06640 0.05400
C 	C 	0.13224 0.71222 0.30050 0.08300
H 	H 	0.11040 0.69230 0.34680 -0.00500
C 	C 	0.19179 0.77249 0.23030 0.00500
H 	H 	0.21930 0.80260 0.22010 0.03100
C 	C 	0.16839 0.73709 0.16100 0.00300
H 	H 	0.17640 0.73870 0.09610 0.04200
C 	C 	0.61382 0.38047 0.17700 0.09400
H 	H 	0.60110 0.34820 0.21230 -0.01800
C 	C 	0.65268 0.43308 0.06780 0.01100
H 	H 	0.67220 0.44410 0.01220 0.02300
C 	C 	0.62950 0.47073 0.13230 -0.00300
H 	H 	0.63040 0.51160 0.12970 0.03600
C 	C 	0.57416 0.45517 0.28780 0.11800
C 	C 	0.56936 0.51406 0.31010 -0.11800
H 	H 	0.58550 0.54230 0.26960 0.08200
C 	C 	0.54039 0.53126 0.39290 -0.01600
H 	H 	0.53760 0.57120 0.40690 0.04500
C 	C 	0.51532 0.49080 0.45580 -0.00600
C 	C 	0.52065 0.43176 0.43030 -0.01100
H 	H 	0.50430 0.40330 0.47020 0.03200
C 	C 	0.54913 0.41401 0.34880 -0.12200
H 	H 	0.55170 0.37420 0.33430 0.07200
Co	Co	0.17447 0.79492 0.46154 1.13300
O 	O 	0.20386 0.71351 0.51352 -0.40900
O 	O 	0.11924 0.65984 0.51750 -0.29200
O 	O 	0.32199 0.66517 0.09665 -0.40800
O 	O 	0.41386 0.67798 0.15786 -0.27800
N 	N 	0.26574 0.81803 0.43620 -0.22400
N 	N 	0.35060 0.86682 0.41085 -0.14200
N 	N 	0.63093 0.19895 0.29349 -0.13700
N 	N 	0.66831 0.25671 0.18188 -0.22500
N 	N 	0.14323 0.87634 0.40379 -0.23700
N 	N 	0.10422 0.93684 0.29712 -0.13900
C 	C 	0.17463 0.66732 0.53020 0.33300
C 	C 	0.20937 0.61618 0.57240 -0.10200
C 	C 	0.26371 0.59491 0.53430 0.04700
C 	C 	0.29404 0.55027 0.58260 -0.10500
H 	H 	0.33040 0.53650 0.55880 0.06900
C 	C 	0.27082 0.52602 0.66570 0.02000
H 	H 	0.29160 0.49620 0.69690 0.02700
C 	C 	0.21732 0.54600 0.70180 -0.09500
H 	H 	0.20180 0.52970 0.75720 0.06300
C 	C 	0.18624 0.59079 0.65530 0.02300
H 	H 	0.14980 0.60390 0.67960 0.03200
C 	C 	0.28820 0.61505 0.44050 0.03800
C 	C 	0.34883 0.62979 0.42990 -0.10000
H 	H 	0.37400 0.62930 0.48270 0.06600
C 	C 	0.37186 0.64521 0.34120 0.01400
H 	H 	0.41220 0.65500 0.33560 0.03900
C 	C 	0.33528 0.64623 0.26080 -0.09400
C 	C 	0.27489 0.63171 0.27140 0.01800
H 	H 	0.24970 0.63260 0.21870 0.03800
C 	C 	0.25182 0.61599 0.35970 -0.09700
H 	H 	0.21150 0.60590 0.36500 0.06600
C 	C 	0.35892 0.66479 0.16410 0.32700
C 	C 	0.29407 0.86853 0.44620 0.10400
H 	H 	0.27720 0.90160 0.47440 -0.01000
C 	C 	0.30611 0.78170 0.39210 0.00000
H 	H 	0.29870 0.74280 0.37550 0.03500
C 	C 	0.35846 0.81045 0.37610 0.00400
H 	H 	0.39280 0.79530 0.34750 0.03600
C 	C 	0.39251 0.91422 0.40560 0.11400
C 	C 	0.45080 0.90396 0.37570 -0.11500
H 	H 	0.46280 0.86600 0.36010 0.07900
C 	C 	0.49134 0.95016 0.36900 -0.01600
H 	H 	0.53040 0.94230 0.34970 0.04200
C 	C 	0.47549 0.00755 0.39010 -0.00200
C 	C 	0.41702 0.01693 0.42250 -0.02300
H 	H 	0.40530 0.05480 0.43920 0.04900
C 	C 	0.37581 0.97122 0.43050 -0.11400
H 	H 	0.33720 0.97870 0.45250 0.07400
C 	C 	0.51844 0.05712 0.37570 0.00800
C 	C 	0.57374 0.04786 0.33240 -0.02000
H 	H 	0.58540 0.00960 0.31780 0.04100
C 	C 	0.61193 0.09386 0.31050 -0.10700
H 	H 	0.64880 0.08640 0.28200 0.07100
C 	C 	0.59514 0.15084 0.33110 0.10700
C 	C 	0.54218 0.16129 0.37820 -0.10200
H 	H 	0.53160 0.19950 0.39480 0.06900
C 	C 	0.50456 0.11494 0.40080 -0.02900
H 	H 	0.46910 0.12250 0.43360 0.05800
C 	C 	0.63224 0.21222 0.19950 0.08300
H 	H 	0.61040 0.19230 0.15320 -0.00500
C 	C 	0.69179 0.27249 0.26970 0.00500
H 	H 	0.71930 0.30260 0.27990 0.03100
C 	C 	0.66839 0.23709 0.33900 0.00300
H 	H 	0.67640 0.23870 0.40390 0.04200
C 	C 	0.11382 0.88047 0.32300 0.09400
H 	H 	0.10110 0.84820 0.28770 -0.01800
C 	C 	0.15268 0.93308 0.43220 0.01100
H 	H 	0.17220 0.94410 0.48780 0.02400
C 	C 	0.12950 0.97073 0.36770 -0.00300
H 	H 	0.13040 0.01160 0.37030 0.03600
C 	C 	0.07416 0.95517 0.21220 0.11800
C 	C 	0.06936 0.01406 0.18990 -0.11700
H 	H 	0.08550 0.04230 0.23040 0.08200
C 	C 	0.04039 0.03126 0.10710 -0.01600
H 	H 	0.03760 0.07120 0.09310 0.04500
C 	C 	0.01532 0.99080 0.04420 -0.00500
C 	C 	0.02065 0.93176 0.06970 -0.01100
H 	H 	0.00430 0.90330 0.02980 0.03300
C 	C 	0.04913 0.91401 0.15120 -0.12100
H 	H 	0.05170 0.87420 0.16570 0.07200
Co	Co	0.32553 0.70508 0.96154 1.13300
O 	O 	0.29614 0.78649 0.01352 -0.40900
O 	O 	0.38076 0.84016 0.01750 -0.29100
O 	O 	0.17801 0.83483 0.59665 -0.40900
O 	O 	0.08614 0.82202 0.65786 -0.27900
N 	N 	0.23426 0.68197 0.93620 -0.22400
N 	N 	0.14940 0.63318 0.91085 -0.14100
N 	N 	0.86907 0.30105 0.79349 -0.13700
N 	N 	0.83169 0.24329 0.68188 -0.22500
N 	N 	0.35677 0.62366 0.90379 -0.23700
N 	N 	0.39578 0.56316 0.79712 -0.13900
C 	C 	0.32537 0.83268 0.03020 0.33400
C 	C 	0.29063 0.88382 0.07240 -0.10300
C 	C 	0.23629 0.90509 0.03430 0.05000
C 	C 	0.20596 0.94973 0.08260 -0.10600
H 	H 	0.16960 0.96350 0.05880 0.07000
C 	C 	0.22918 0.97398 0.16570 0.02100
H 	H 	0.20840 0.00380 0.19690 0.02700
C 	C 	0.28268 0.95400 0.20180 -0.09600
H 	H 	0.29820 0.97030 0.25720 0.06400
C 	C 	0.31376 0.90921 0.15530 0.02400
H 	H 	0.35020 0.89610 0.17960 0.03100
C 	C 	0.21180 0.88495 0.94050 0.03500
C 	C 	0.15117 0.87021 0.92990 -0.09800
H 	H 	0.12600 0.87070 0.98270 0.06500
C 	C 	0.12814 0.85479 0.84120 0.01300
H 	H 	0.08780 0.84500 0.83560 0.03900
C 	C 	0.16472 0.85377 0.76080 -0.09300
C 	C 	0.22511 0.86829 0.77140 0.01700
H 	H 	0.25030 0.86740 0.71870 0.03800
C 	C 	0.24818 0.88401 0.85970 -0.09600
H 	H 	0.28850 0.89410 0.86500 0.06500
C 	C 	0.14108 0.83521 0.66410 0.32700
C 	C 	0.20593 0.63147 0.94620 0.10400
H 	H 	0.22280 0.59840 0.97440 -0.01000
C 	C 	0.19389 0.71830 0.89210 -0.00000
H 	H 	0.20130 0.75720 0.87550 0.03500
C 	C 	0.14154 0.68955 0.87610 0.00400
H 	H 	0.10720 0.70470 0.84750 0.03600
C 	C 	0.10749 0.58578 0.90560 0.11200
C 	C 	0.04920 0.59604 0.87570 -0.11200
H 	H 	0.03720 0.63400 0.86010 0.07800
C 	C 	0.00866 0.54984 0.86900 -0.02200
H 	H 	0.96960 0.55770 0.84970 0.04500
C 	C 	0.02451 0.49245 0.89010 -0.00000
C 	C 	0.08298 0.48307 0.92250 -0.02400
H 	H 	0.09470 0.44520 0.93920 0.05000
C 	C 	0.12419 0.52878 0.93050 -0.11300
H 	H 	0.16280 0.52130 0.95250 0.07300
C 	C 	0.98156 0.44288 0.87570 0.00600
C 	C 	0.92626 0.45214 0.83240 -0.01800
H 	H 	0.91460 0.49040 0.81780 0.04000
C 	C 	0.88807 0.40614 0.81050 -0.10900
H 	H 	0.85120 0.41360 0.78200 0.07100
C 	C 	0.90486 0.34916 0.83110 0.10900
C 	C 	0.95782 0.33871 0.87820 -0.10600
H 	H 	0.96840 0.30050 0.89480 0.07100
C 	C 	0.99544 0.38506 0.90080 -0.02100
H 	H 	0.03090 0.37750 0.93360 0.05400
C 	C 	0.86776 0.28778 0.69950 0.08300
H 	H 	0.88960 0.30770 0.65320 -0.00500
C 	C 	0.80821 0.22751 0.76970 0.00500
H 	H 	0.78070 0.19740 0.77990 0.03100
C 	C 	0.83161 0.26291 0.83900 0.00300
H 	H 	0.82360 0.26130 0.90390 0.04200
C 	C 	0.38618 0.61953 0.82300 0.09400
H 	H 	0.39890 0.65180 0.78770 -0.01800
C 	C 	0.34732 0.56692 0.93220 0.01100
H 	H 	0.32780 0.55590 0.98780 0.02300
C 	C 	0.37050 0.52927 0.86770 -0.00300
H 	H 	0.36960 0.48840 0.87030 0.03600
C 	C 	0.42584 0.54483 0.71220 0.11800
C 	C 	0.43064 0.48594 0.68990 -0.11800
H 	H 	0.41450 0.45770 0.73040 0.08200
C 	C 	0.45961 0.46874 0.60710 -0.01600
H 	H 	0.46240 0.42880 0.59310 0.04500
C 	C 	0.48468 0.50920 0.54420 -0.00600
C 	C 	0.47935 0.56824 0.56970 -0.01100
H 	H 	0.49570 0.59670 0.52980 0.03200
C 	C 	0.45087 0.58599 0.65120 -0.12200
H 	H 	0.44830 0.62580 0.66570 0.07200
