data_crystal

_cell_length_a 17.61710
_cell_length_b 30.05160
_cell_length_c 30.05160
_cell_angle_alpha 85.07130
_cell_angle_beta  72.95550
_cell_angle_gamma 72.95550

_symmetry_space_group_name_	'P 1'
_symmetry_space_group_name_H-M	'P 1'

loop_
_symmetry_equiv_pos_as_xyz
  x,y,z

loop_
_atom_site_label
_atom_site_type_symbol
_atom_site_fract_x
_atom_site_fract_y
_atom_site_fract_z
_atom_site_charge
Mn	Mn	0.99483 0.08566 0.85720 1.33000
Mn	Mn	0.12004 0.12121 0.96979 1.31600
Mn	Mn	0.78858 0.00319 0.92527 1.32900
Mn	Mn	0.43769 0.41434 0.64280 1.33100
Mn	Mn	0.71104 0.37879 0.53021 1.31700
Mn	Mn	0.21704 0.49681 0.57473 1.33000
Mn	Mn	0.85203 0.14280 0.58566 1.33100
Mn	Mn	0.08983 0.03021 0.62121 1.31700
Mn	Mn	0.71385 0.07473 0.50319 1.33000
Mn	Mn	0.08049 0.35720 0.91434 1.33200
Mn	Mn	0.24125 0.46979 0.87879 1.31700
Mn	Mn	0.79177 0.42527 0.99681 1.33000
Mn	Mn	0.00517 0.91434 0.14280 1.33100
Mn	Mn	0.87996 0.87879 0.03021 1.31700
Mn	Mn	0.21142 0.99681 0.07473 1.32900
Mn	Mn	0.56231 0.58566 0.35720 1.33100
Mn	Mn	0.28896 0.62121 0.46979 1.31700
Mn	Mn	0.78296 0.50319 0.42527 1.33000
Mn	Mn	0.14797 0.85720 0.41434 1.33100
Mn	Mn	0.91017 0.96979 0.37879 1.31700
Mn	Mn	0.28615 0.92527 0.49681 1.33000
Mn	Mn	0.91951 0.64280 0.08566 1.33200
Mn	Mn	0.75875 0.53021 0.12121 1.31700
Mn	Mn	0.20823 0.57473 0.00319 1.33000
H 	H 	0.01150 0.24640 0.90480 0.01800
H 	H 	0.94800 0.30820 0.86240 0.09600
H 	H 	0.88620 0.29270 0.80850 -0.01200
H 	H 	0.87830 0.21710 0.80070 0.12100
H 	H 	0.13480 0.01060 0.96860 0.07200
H 	H 	0.09910 0.97610 0.94770 0.08300
H 	H 	0.25610 0.99660 0.90740 0.10200
H 	H 	0.23960 0.94680 0.90940 0.09900
H 	H 	0.21310 0.98440 0.87180 0.10800
H 	H 	0.18290 0.07710 0.83930 -0.00500
H 	H 	0.30940 0.06810 0.77990 0.08100
H 	H 	0.18430 0.07680 0.68540 0.08800
H 	H 	0.06220 0.08670 0.74690 0.00000
H 	H 	0.32800 0.05330 0.65970 0.06800
H 	H 	0.37640 0.02830 0.69650 0.06100
H 	H 	0.42180 0.01530 0.96830 0.00900
H 	H 	0.51910 0.02800 0.89680 0.09900
H 	H 	0.47460 0.07430 0.84170 -0.02400
H 	H 	0.33640 0.11430 0.85110 0.12700
H 	H 	0.01580 0.07910 0.12470 0.06300
H 	H 	0.98580 0.04680 0.09800 0.07300
H 	H 	0.88070 0.10690 0.08670 0.09700
H 	H 	0.87850 0.10970 0.14010 0.09100
H 	H 	0.91670 0.14410 0.10250 0.10000
H 	H 	0.95960 0.01380 0.75000 0.00600
H 	H 	0.93160 0.96740 0.70100 0.09600
H 	H 	0.84050 0.92420 0.73320 -0.02400
H 	H 	0.77280 0.92590 0.81150 0.11600
H 	H 	0.88590 0.09170 0.99750 0.06400
H 	H 	0.87040 0.13010 0.95850 0.05400
H 	H 	0.73250 0.15200 0.99380 0.10100
H 	H 	0.77950 0.15150 0.03210 0.09500
H 	H 	0.74140 0.10980 0.03000 0.10700
H 	H 	0.61090 0.01190 0.57110 -0.00800
H 	H 	0.49830 0.01720 0.63580 0.09000
H 	H 	0.44560 0.15270 0.63370 0.09500
H 	H 	0.55760 0.14820 0.56620 -0.01300
H 	H 	0.40190 0.09400 0.70900 0.07200
H 	H 	0.34260 0.12360 0.67940 0.07600
H 	H 	0.66270 0.25360 0.59520 0.01800
H 	H 	0.61860 0.19180 0.63760 0.09600
H 	H 	0.48740 0.20730 0.69150 -0.01200
H 	H 	0.39610 0.28290 0.69930 0.12200
H 	H 	0.61400 0.48940 0.53140 0.07100
H 	H 	0.52290 0.52390 0.55230 0.08200
H 	H 	0.66010 0.50340 0.59260 0.10300
H 	H 	0.59580 0.55320 0.59060 0.09900
H 	H 	0.56930 0.51560 0.62820 0.10800
H 	H 	0.59930 0.42290 0.66070 -0.00500
H 	H 	0.65740 0.43190 0.72010 0.08100
H 	H 	0.44650 0.42320 0.81460 0.08800
H 	H 	0.39580 0.41330 0.75310 -0.00000
H 	H 	0.54100 0.44670 0.84030 0.06800
H 	H 	0.60120 0.47170 0.80350 0.06100
H 	H 	0.90540 0.48470 0.53170 0.00900
H 	H 	0.94390 0.47200 0.60320 0.09900
H 	H 	0.89060 0.42570 0.65830 -0.02500
H 	H 	0.80180 0.38570 0.64890 0.12700
H 	H 	0.71960 0.42090 0.37530 0.06300
H 	H 	0.63060 0.45320 0.40200 0.07300
H 	H 	0.57430 0.39310 0.41330 0.09600
H 	H 	0.62830 0.39030 0.35990 0.09000
H 	H 	0.66330 0.35590 0.39750 0.10000
H 	H 	0.22340 0.48620 0.75000 0.00700
H 	H 	0.10000 0.53260 0.79900 0.09600
H 	H 	0.99790 0.57580 0.76680 -0.02400
H 	H 	0.01020 0.57410 0.68850 0.11600
H 	H 	0.47510 0.40830 0.50250 0.06300
H 	H 	0.45900 0.36990 0.54150 0.05200
H 	H 	0.37830 0.34800 0.50620 0.10500
H 	H 	0.46310 0.34850 0.46790 0.09800
H 	H 	0.38120 0.39020 0.47000 0.10900
H 	H 	0.69390 0.48810 0.92890 -0.00800
H 	H 	0.65130 0.48280 0.86420 0.09100
H 	H 	0.73200 0.34730 0.86630 0.09500
H 	H 	0.77200 0.35180 0.93380 -0.01300
H 	H 	0.70490 0.40600 0.79100 0.07200
H 	H 	0.64560 0.37640 0.82060 0.07600
H 	H 	0.91630 0.09520 0.74640 0.01800
H 	H 	0.81040 0.13760 0.80820 0.09600
H 	H 	0.69470 0.19150 0.79270 -0.01200
H 	H 	0.67900 0.19930 0.71710 0.12200
H 	H 	0.10340 0.03140 0.51060 0.07100
H 	H 	0.04680 0.05230 0.47610 0.08200
H 	H 	0.16350 0.09260 0.49660 0.10300
H 	H 	0.14900 0.09060 0.44680 0.09900
H 	H 	0.08490 0.12820 0.48440 0.10900
H 	H 	0.02220 0.16070 0.57710 -0.00400
H 	H 	0.08930 0.22010 0.56810 0.08000
H 	H 	0.86970 0.31460 0.57680 0.08800
H 	H 	0.80910 0.25310 0.58670 0.00000
H 	H 	0.98770 0.34030 0.55330 0.06800
H 	H 	0.07290 0.30350 0.52830 0.06100
H 	H 	0.39010 0.03170 0.51530 0.00900
H 	H 	0.41590 0.10320 0.52800 0.09900
H 	H 	0.31630 0.15830 0.57430 -0.02500
H 	H 	0.18750 0.14890 0.61430 0.12700
H 	H 	0.14050 0.87530 0.57910 0.06300
H 	H 	0.08380 0.90200 0.54680 0.07300
H 	H 	0.96740 0.91330 0.60690 0.09700
H 	H 	0.01860 0.85990 0.60970 0.09000
H 	H 	0.01920 0.89750 0.64410 0.10000
H 	H 	0.70960 0.25000 0.51380 0.00700
H 	H 	0.63260 0.29900 0.46740 0.09500
H 	H 	0.57370 0.26680 0.42420 -0.02400
H 	H 	0.58430 0.18850 0.42590 0.11600
H 	H 	0.88340 0.00250 0.59170 0.06400
H 	H 	0.82890 0.04150 0.63010 0.05300
H 	H 	0.72630 0.00620 0.65200 0.10300
H 	H 	0.81160 0.96790 0.65150 0.09600
H 	H 	0.77140 0.97000 0.60980 0.10800
H 	H 	0.18200 0.42890 0.51190 -0.00800
H 	H 	0.13410 0.36420 0.51720 0.09100
H 	H 	0.07930 0.36630 0.65270 0.09500
H 	H 	0.12380 0.43380 0.64820 -0.01300
H 	H 	0.11090 0.29100 0.59400 0.07300
H 	H 	0.02200 0.32060 0.62360 0.07700
H 	H 	0.25790 0.40480 0.75360 0.01800
H 	H 	0.25620 0.36240 0.69180 0.09600
H 	H 	0.17890 0.30850 0.70730 -0.01200
H 	H 	0.09540 0.30070 0.78290 0.12200
H 	H 	0.14540 0.46860 0.98940 0.07000
H 	H 	0.07520 0.44770 0.02390 0.08100
H 	H 	0.25270 0.40740 0.00340 0.10300
H 	H 	0.18640 0.40940 0.05320 0.10000
H 	H 	0.19750 0.37180 0.01560 0.10900
H 	H 	0.26000 0.33930 0.92290 -0.00500
H 	H 	0.37750 0.27990 0.93190 0.08100
H 	H 	0.26110 0.18540 0.92320 0.08800
H 	H 	0.14890 0.24690 0.91330 -0.00000
H 	H 	0.38130 0.15970 0.94670 0.06800
H 	H 	0.40470 0.19650 0.97170 0.06100
H 	H 	0.43710 0.46830 0.98470 0.00900
H 	H 	0.54710 0.39680 0.97200 0.09900
H 	H 	0.54890 0.34170 0.92570 -0.02500
H 	H 	0.45070 0.35110 0.88570 0.12700
H 	H 	0.09490 0.62470 0.92090 0.06400
H 	H 	0.03260 0.59800 0.95320 0.07400
H 	H 	0.98760 0.58670 0.89310 0.09500
H 	H 	0.98820 0.64010 0.89030 0.08900
H 	H 	0.06080 0.60250 0.85590 0.09900
H 	H 	0.97340 0.25000 0.98620 0.00600
H 	H 	0.89900 0.20100 0.03260 0.09600
H 	H 	0.76470 0.23320 0.07580 -0.02400
H 	H 	0.69870 0.31150 0.07410 0.11600
H 	H 	0.97760 0.49750 0.90830 0.06300
H 	H 	0.00050 0.45850 0.86990 0.05300
H 	H 	0.88450 0.49380 0.84800 0.10400
H 	H 	0.93100 0.53210 0.84850 0.09700
H 	H 	0.85120 0.53000 0.89020 0.10900
H 	H 	0.62280 0.07110 0.98810 -0.00800
H 	H 	0.51550 0.13580 0.98280 0.09000
H 	H 	0.59830 0.13370 0.84730 0.09500
H 	H 	0.70580 0.06620 0.85180 -0.01300
H 	H 	0.49590 0.20900 0.90600 0.07200
H 	H 	0.46620 0.17940 0.87640 0.07600
H 	H 	0.98850 0.75360 0.09520 0.01800
H 	H 	0.05200 0.69180 0.13760 0.09600
H 	H 	0.11380 0.70730 0.19150 -0.01200
H 	H 	0.12170 0.78290 0.19930 0.12100
H 	H 	0.86520 0.98940 0.03140 0.07200
H 	H 	0.90090 0.02390 0.05230 0.08300
H 	H 	0.74390 0.00340 0.09260 0.10200
H 	H 	0.76040 0.05320 0.09060 0.09900
H 	H 	0.78690 0.01560 0.12820 0.10800
H 	H 	0.81710 0.92290 0.16070 -0.00500
H 	H 	0.69060 0.93190 0.22010 0.08100
H 	H 	0.81570 0.92320 0.31460 0.08800
H 	H 	0.93780 0.91330 0.25310 0.00000
H 	H 	0.67200 0.94670 0.34030 0.06800
H 	H 	0.62360 0.97170 0.30350 0.06100
H 	H 	0.57820 0.98470 0.03170 0.00900
H 	H 	0.48090 0.97200 0.10320 0.09900
H 	H 	0.52540 0.92570 0.15830 -0.02400
H 	H 	0.66360 0.88570 0.14890 0.12700
H 	H 	0.98420 0.92090 0.87530 0.06300
H 	H 	0.01420 0.95320 0.90200 0.07300
H 	H 	0.11930 0.89310 0.91330 0.09700
H 	H 	0.12150 0.89030 0.85990 0.09100
H 	H 	0.08330 0.85590 0.89750 0.10000
H 	H 	0.04040 0.98620 0.25000 0.00600
H 	H 	0.06840 0.03260 0.29900 0.09600
H 	H 	0.15950 0.07580 0.26680 -0.02400
H 	H 	0.22720 0.07410 0.18850 0.11600
H 	H 	0.11410 0.90830 0.00250 0.06400
H 	H 	0.12960 0.86990 0.04150 0.05400
H 	H 	0.26750 0.84800 0.00620 0.10100
H 	H 	0.22050 0.84850 0.96790 0.09500
H 	H 	0.25860 0.89020 0.97000 0.10700
H 	H 	0.38910 0.98810 0.42890 -0.00800
H 	H 	0.50170 0.98280 0.36420 0.09000
H 	H 	0.55440 0.84730 0.36630 0.09500
H 	H 	0.44240 0.85180 0.43380 -0.01300
H 	H 	0.59810 0.90600 0.29100 0.07200
H 	H 	0.65740 0.87640 0.32060 0.07600
H 	H 	0.33730 0.74640 0.40480 0.01800
H 	H 	0.38140 0.80820 0.36240 0.09600
H 	H 	0.51260 0.79270 0.30850 -0.01200
H 	H 	0.60390 0.71710 0.30070 0.12200
H 	H 	0.38600 0.51060 0.46860 0.07100
H 	H 	0.47710 0.47610 0.44770 0.08200
H 	H 	0.33990 0.49660 0.40740 0.10300
H 	H 	0.40420 0.44680 0.40940 0.09900
H 	H 	0.43070 0.48440 0.37180 0.10800
H 	H 	0.40070 0.57710 0.33930 -0.00500
H 	H 	0.34260 0.56810 0.27990 0.08100
H 	H 	0.55350 0.57680 0.18540 0.08800
H 	H 	0.60420 0.58670 0.24690 -0.00000
H 	H 	0.45900 0.55330 0.15970 0.06800
H 	H 	0.39880 0.52830 0.19650 0.06100
H 	H 	0.09460 0.51530 0.46830 0.00900
H 	H 	0.05610 0.52800 0.39680 0.09900
H 	H 	0.10940 0.57430 0.34170 -0.02500
H 	H 	0.19820 0.61430 0.35110 0.12700
H 	H 	0.28040 0.57910 0.62470 0.06300
H 	H 	0.36940 0.54680 0.59800 0.07300
H 	H 	0.42570 0.60690 0.58670 0.09600
H 	H 	0.37170 0.60970 0.64010 0.09000
H 	H 	0.33670 0.64410 0.60250 0.10000
H 	H 	0.77660 0.51380 0.25000 0.00700
H 	H 	0.90000 0.46740 0.20100 0.09600
H 	H 	0.00210 0.42420 0.23320 -0.02400
H 	H 	0.98980 0.42590 0.31150 0.11600
H 	H 	0.52490 0.59170 0.49750 0.06300
H 	H 	0.54100 0.63010 0.45850 0.05200
H 	H 	0.62170 0.65200 0.49380 0.10500
H 	H 	0.53690 0.65150 0.53210 0.09800
H 	H 	0.61880 0.60980 0.53000 0.10900
H 	H 	0.30610 0.51190 0.07110 -0.00800
H 	H 	0.34870 0.51720 0.13580 0.09100
H 	H 	0.26800 0.65270 0.13370 0.09500
H 	H 	0.22800 0.64820 0.06620 -0.01300
H 	H 	0.29510 0.59400 0.20900 0.07200
H 	H 	0.35440 0.62360 0.17940 0.07600
H 	H 	0.08370 0.90480 0.25360 0.01800
H 	H 	0.18960 0.86240 0.19180 0.09600
H 	H 	0.30530 0.80850 0.20730 -0.01200
H 	H 	0.32100 0.80070 0.28290 0.12200
H 	H 	0.89660 0.96860 0.48940 0.07100
H 	H 	0.95320 0.94770 0.52390 0.08200
H 	H 	0.83650 0.90740 0.50340 0.10300
H 	H 	0.85100 0.90940 0.55320 0.09900
H 	H 	0.91510 0.87180 0.51560 0.10900
H 	H 	0.97780 0.83930 0.42290 -0.00400
H 	H 	0.91070 0.77990 0.43190 0.08000
H 	H 	0.13030 0.68540 0.42320 0.08800
H 	H 	0.19090 0.74690 0.41330 0.00000
H 	H 	0.01230 0.65970 0.44670 0.06800
H 	H 	0.92710 0.69650 0.47170 0.06100
H 	H 	0.60990 0.96830 0.48470 0.00900
H 	H 	0.58410 0.89680 0.47200 0.09900
H 	H 	0.68370 0.84170 0.42570 -0.02500
H 	H 	0.81250 0.85110 0.38570 0.12700
H 	H 	0.85950 0.12470 0.42090 0.06300
H 	H 	0.91620 0.09800 0.45320 0.07300
H 	H 	0.03260 0.08670 0.39310 0.09700
H 	H 	0.98140 0.14010 0.39030 0.09000
H 	H 	0.98080 0.10250 0.35590 0.10000
H 	H 	0.29040 0.75000 0.48620 0.00700
H 	H 	0.36740 0.70100 0.53260 0.09500
H 	H 	0.42630 0.73320 0.57580 -0.02400
H 	H 	0.41570 0.81150 0.57410 0.11600
H 	H 	0.11660 0.99750 0.40830 0.06400
H 	H 	0.17110 0.95850 0.36990 0.05300
H 	H 	0.27370 0.99380 0.34800 0.10300
H 	H 	0.18840 0.03210 0.34850 0.09600
H 	H 	0.22860 0.03000 0.39020 0.10800
H 	H 	0.81800 0.57110 0.48810 -0.00800
H 	H 	0.86590 0.63580 0.48280 0.09100
H 	H 	0.92070 0.63370 0.34730 0.09500
H 	H 	0.87620 0.56620 0.35180 -0.01300
H 	H 	0.88910 0.70900 0.40600 0.07300
H 	H 	0.97800 0.67940 0.37640 0.07700
H 	H 	0.74210 0.59520 0.24640 0.01800
H 	H 	0.74380 0.63760 0.30820 0.09600
H 	H 	0.82110 0.69150 0.29270 -0.01200
H 	H 	0.90460 0.69930 0.21710 0.12200
H 	H 	0.85460 0.53140 0.01060 0.07000
H 	H 	0.92480 0.55230 0.97610 0.08100
H 	H 	0.74730 0.59260 0.99660 0.10300
H 	H 	0.81360 0.59060 0.94680 0.10000
H 	H 	0.80250 0.62820 0.98440 0.10900
H 	H 	0.74000 0.66070 0.07710 -0.00500
H 	H 	0.62250 0.72010 0.06810 0.08100
H 	H 	0.73890 0.81460 0.07680 0.08800
H 	H 	0.85110 0.75310 0.08670 -0.00000
H 	H 	0.61870 0.84030 0.05330 0.06800
H 	H 	0.59530 0.80350 0.02830 0.06100
H 	H 	0.56290 0.53170 0.01530 0.00900
H 	H 	0.45290 0.60320 0.02800 0.09900
H 	H 	0.45110 0.65830 0.07430 -0.02500
H 	H 	0.54930 0.64890 0.11430 0.12700
H 	H 	0.90510 0.37530 0.07910 0.06400
H 	H 	0.96740 0.40200 0.04680 0.07400
H 	H 	0.01240 0.41330 0.10690 0.09500
H 	H 	0.01180 0.35990 0.10970 0.08900
H 	H 	0.93920 0.39750 0.14410 0.09900
H 	H 	0.02660 0.75000 0.01380 0.00600
H 	H 	0.10100 0.79900 0.96740 0.09600
H 	H 	0.23530 0.76680 0.92420 -0.02400
H 	H 	0.30130 0.68850 0.92590 0.11600
H 	H 	0.02240 0.50250 0.09170 0.06300
H 	H 	0.99950 0.54150 0.13010 0.05300
H 	H 	0.11550 0.50620 0.15200 0.10400
H 	H 	0.06900 0.46790 0.15150 0.09700
H 	H 	0.14880 0.47000 0.10980 0.10900
H 	H 	0.37720 0.92890 0.01190 -0.00800
H 	H 	0.48450 0.86420 0.01720 0.09000
H 	H 	0.40170 0.86630 0.15270 0.09500
H 	H 	0.29420 0.93380 0.14820 -0.01300
H 	H 	0.50410 0.79100 0.09400 0.07200
H 	H 	0.53380 0.82060 0.12360 0.07600
C 	C 	0.94368 0.18602 0.84682 0.27500
C 	C 	0.98265 0.19521 0.87909 -0.22300
C 	C 	0.98450 0.24040 0.88380 0.11000
C 	C 	0.94740 0.27735 0.85825 -0.17300
C 	C 	0.90980 0.26810 0.82670 0.10800
C 	C 	0.90610 0.22280 0.82140 -0.23700
C 	C 	0.02560 0.15835 0.90685 0.28100
C 	C 	0.08512 0.03967 0.91569 0.22300
C 	C 	0.12920 0.00010 0.93970 -0.17600
C 	C 	0.21810 0.98000 0.90360 -0.26300
C 	C 	0.18300 0.07710 0.80770 0.08300
C 	C 	0.25990 0.07090 0.77190 -0.16700
C 	C 	0.26200 0.06870 0.72610 0.12400
C 	C 	0.18650 0.07610 0.71670 -0.17600
C 	C 	0.11310 0.08250 0.75390 0.09000
C 	C 	0.33960 0.05800 0.68900 -0.14300
C 	C 	0.29500 0.09084 0.91796 0.28400
C 	C 	0.31820 0.06000 0.95180 -0.23800
C 	C 	0.40380 0.03560 0.94520 0.11100
C 	C 	0.46170 0.04310 0.90210 -0.20000
C 	C 	0.43510 0.07090 0.87010 0.14800
C 	C 	0.35310 0.09520 0.87540 -0.26700
C 	C 	0.26110 0.05097 0.99523 0.26500
C 	C 	0.05388 0.08547 0.05417 0.20800
C 	C 	0.99280 0.07820 0.09860 -0.15200
C 	C 	0.91020 0.11270 0.10770 -0.24300
C 	C 	0.82690 0.97237 0.83103 0.27200
C 	C 	0.88718 0.99699 0.81065 -0.22500
C 	C 	0.92252 0.99558 0.76318 0.12200
C 	C 	0.90570 0.96830 0.73350 -0.19900
C 	C 	0.85120 0.94320 0.75300 0.12900
C 	C 	0.81080 0.94380 0.79960 -0.23800
C 	C 	0.90520 0.02776 0.83884 0.25300
C 	C 	0.84322 0.07128 0.94948 0.20800
C 	C 	0.84691 0.10699 0.97919 -0.13200
C 	C 	0.76860 0.13220 0.01140 -0.26000
C 	C 	0.57640 0.04170 0.58270 0.11300
C 	C 	0.50850 0.04510 0.62110 -0.19800
C 	C 	0.45570 0.08690 0.63870 0.16600
C 	C 	0.47680 0.12320 0.62020 -0.20600
C 	C 	0.54590 0.12040 0.58000 0.10000
C 	C 	0.38260 0.09300 0.68140 -0.17200
C 	C 	0.47652 0.31398 0.65318 0.27500
C 	C 	0.55695 0.30479 0.62091 -0.22300
C 	C 	0.60870 0.25960 0.61620 0.11100
C 	C 	0.58300 0.22265 0.64175 -0.17300
C 	C 	0.50460 0.23190 0.67330 0.10800
C 	C 	0.45030 0.27720 0.67860 -0.23700
C 	C 	0.59080 0.34165 0.59315 0.28000
C 	C 	0.54048 0.46033 0.58431 0.22200
C 	C 	0.56900 0.49990 0.56030 -0.17200
C 	C 	0.60170 0.52000 0.59640 -0.26600
C 	C 	0.56780 0.42290 0.69230 0.08300
C 	C 	0.60270 0.42910 0.72810 -0.16700
C 	C 	0.55680 0.43130 0.77390 0.12400
C 	C 	0.47930 0.42390 0.78330 -0.17600
C 	C 	0.44950 0.41750 0.74610 0.09000
C 	C 	0.58660 0.44200 0.81100 -0.14300
C 	C 	0.80380 0.40916 0.58204 0.28400
C 	C 	0.83000 0.44000 0.54820 -0.23900
C 	C 	0.88460 0.46440 0.55480 0.11100
C 	C 	0.90690 0.45690 0.59790 -0.20000
C 	C 	0.87610 0.42910 0.62990 0.14800
C 	C 	0.82370 0.40480 0.62460 -0.26700
C 	C 	0.80730 0.44903 0.50477 0.26700
C 	C 	0.69352 0.41453 0.44583 0.20900
C 	C 	0.66960 0.42180 0.40140 -0.15300
C 	C 	0.63060 0.38730 0.39230 -0.24200
C 	C 	0.13030 0.52763 0.66897 0.27200
C 	C 	0.19482 0.50301 0.68935 -0.22500
C 	C 	0.18128 0.50442 0.73682 0.12100
C 	C 	0.10750 0.53170 0.76650 -0.19800
C 	C 	0.04740 0.55680 0.74700 0.12900
C 	C 	0.05420 0.55620 0.70040 -0.23800
C 	C 	0.27180 0.47224 0.66116 0.25400
C 	C 	0.36398 0.42872 0.55052 0.20600
C 	C 	0.43309 0.39301 0.52081 -0.12500
C 	C 	0.41220 0.36780 0.48860 -0.27100
C 	C 	0.70080 0.45830 0.91730 0.11300
C 	C 	0.67470 0.45490 0.87890 -0.19800
C 	C 	0.68130 0.41310 0.86130 0.16600
C 	C 	0.72020 0.37680 0.87980 -0.20600
C 	C 	0.74630 0.37960 0.92000 0.10000
C 	C 	0.65700 0.40700 0.81860 -0.17200
C 	C 	0.79050 0.15318 0.68602 0.27500
C 	C 	0.86174 0.12091 0.69521 -0.22300
C 	C 	0.86830 0.11620 0.74040 0.11100
C 	C 	0.80565 0.14175 0.77735 -0.17300
C 	C 	0.73650 0.17330 0.76810 0.10800
C 	C 	0.72750 0.17860 0.72280 -0.23800
C 	C 	0.93245 0.09315 0.65835 0.28000
C 	C 	0.00081 0.08431 0.53967 0.22300
C 	C 	0.06890 0.06030 0.50010 -0.17200
C 	C 	0.12170 0.09640 0.48000 -0.26600
C 	C 	0.99070 0.19230 0.57710 0.08200
C 	C 	0.03180 0.22810 0.57090 -0.16500
C 	C 	0.98810 0.27390 0.56870 0.12300
C 	C 	0.90320 0.28330 0.57610 -0.17600
C 	C 	0.86700 0.24610 0.58250 0.09000
C 	C 	0.02860 0.31100 0.55800 -0.14100
C 	C 	0.21296 0.08204 0.59084 0.28400
C 	C 	0.27000 0.04820 0.56000 -0.23900
C 	C 	0.34900 0.05480 0.53560 0.11100
C 	C 	0.36380 0.09790 0.54310 -0.20000
C 	C 	0.30520 0.12990 0.57090 0.14800
C 	C 	0.22850 0.12460 0.59520 -0.26700
C 	C 	0.25633 0.00477 0.55097 0.26700
C 	C 	0.10805 0.94583 0.58547 0.20900
C 	C 	0.09140 0.90140 0.57820 -0.15200
C 	C 	0.01790 0.89230 0.61270 -0.24300
C 	C 	0.65793 0.16897 0.47237 0.27200
C 	C 	0.69783 0.18935 0.49699 -0.22500
C 	C 	0.68570 0.23682 0.49558 0.12000
C 	C 	0.63920 0.26650 0.46830 -0.19800
C 	C 	0.60420 0.24700 0.44320 0.12900
C 	C 	0.61040 0.20040 0.44380 -0.23800
C 	C 	0.74404 0.16116 0.52776 0.25400
C 	C 	0.79270 0.05052 0.57128 0.20700
C 	C 	0.82610 0.02081 0.60699 -0.12800
C 	C 	0.78000 0.98860 0.63220 -0.26700
C 	C 	0.15910 0.41730 0.54170 0.11400
C 	C 	0.12960 0.37890 0.54510 -0.19900
C 	C 	0.09440 0.36130 0.58690 0.16600
C 	C 	0.09700 0.37980 0.62320 -0.20700
C 	C 	0.12590 0.42000 0.62040 0.10100
C 	C 	0.06400 0.31860 0.59300 -0.17300
C 	C 	0.12970 0.34682 0.81398 0.27500
C 	C 	0.17786 0.37909 0.80479 -0.22300
C 	C 	0.22490 0.38380 0.75960 0.11100
C 	C 	0.22475 0.35825 0.72265 -0.17300
C 	C 	0.17790 0.32670 0.73190 0.10800
C 	C 	0.12890 0.32140 0.77720 -0.23700
C 	C 	0.18395 0.40685 0.84165 0.28000
C 	C 	0.12479 0.41569 0.96033 0.22200
C 	C 	0.12930 0.43970 0.99990 -0.17000
C 	C 	0.19810 0.40360 0.02000 -0.26700
C 	C 	0.26010 0.30770 0.92290 0.08300
C 	C 	0.33080 0.27190 0.92910 -0.16700
C 	C 	0.33070 0.22610 0.93130 0.12400
C 	C 	0.26260 0.21670 0.92390 -0.17600
C 	C 	0.19560 0.25390 0.91750 0.09000
C 	C 	0.39760 0.18900 0.94200 -0.14300
C 	C 	0.38584 0.41796 0.90916 0.28400
C 	C 	0.37820 0.45180 0.94000 -0.23900
C 	C 	0.43940 0.44520 0.96440 0.11100
C 	C 	0.50480 0.40210 0.95690 -0.20000
C 	C 	0.50600 0.37010 0.92910 0.14800
C 	C 	0.44830 0.37540 0.90480 -0.26700
C 	C 	0.31207 0.49523 0.94903 0.26700
C 	C 	0.13935 0.55417 0.91453 0.20900
C 	C 	0.07100 0.59860 0.92180 -0.15500
C 	C 	0.02290 0.60770 0.88730 -0.23800
C 	C 	0.79927 0.33103 0.02763 0.27200
C 	C 	0.88417 0.31065 0.00301 -0.22500
C 	C 	0.91810 0.26318 0.00442 0.12300
C 	C 	0.87400 0.23350 0.03170 -0.19900
C 	C 	0.79440 0.25300 0.05680 0.13000
C 	C 	0.75460 0.29960 0.05620 -0.23800
C 	C 	0.93296 0.33884 0.97224 0.25300
C 	C 	0.91450 0.44948 0.92872 0.20600
C 	C 	0.95390 0.47919 0.89301 -0.12600
C 	C 	0.90080 0.51140 0.86780 -0.27000
C 	C 	0.61810 0.08270 0.95830 0.11300
C 	C 	0.55360 0.12110 0.95490 -0.19900
C 	C 	0.54260 0.13870 0.91310 0.16600
C 	C 	0.60000 0.12020 0.87680 -0.20600
C 	C 	0.66630 0.08000 0.87960 0.10000
C 	C 	0.47560 0.18140 0.90700 -0.17200
C 	C 	0.05632 0.81398 0.15318 0.27500
C 	C 	0.01735 0.80479 0.12091 -0.22300
C 	C 	0.01550 0.75960 0.11620 0.11000
C 	C 	0.05260 0.72265 0.14175 -0.17300
C 	C 	0.09020 0.73190 0.17330 0.10800
C 	C 	0.09390 0.77720 0.17860 -0.23700
C 	C 	0.97440 0.84165 0.09315 0.28100
C 	C 	0.91488 0.96033 0.08431 0.22300
C 	C 	0.87080 0.99990 0.06030 -0.17600
C 	C 	0.78190 0.02000 0.09640 -0.26300
C 	C 	0.81700 0.92290 0.19230 0.08300
C 	C 	0.74010 0.92910 0.22810 -0.16700
C 	C 	0.73800 0.93130 0.27390 0.12400
C 	C 	0.81350 0.92390 0.28330 -0.17600
C 	C 	0.88690 0.91750 0.24610 0.09000
C 	C 	0.66040 0.94200 0.31100 -0.14300
C 	C 	0.70500 0.90916 0.08204 0.28400
C 	C 	0.68180 0.94000 0.04820 -0.23800
C 	C 	0.59620 0.96440 0.05480 0.11100
C 	C 	0.53830 0.95690 0.09790 -0.20000
C 	C 	0.56490 0.92910 0.12990 0.14800
C 	C 	0.64690 0.90480 0.12460 -0.26700
C 	C 	0.73890 0.94903 0.00477 0.26500
C 	C 	0.94612 0.91453 0.94583 0.20800
C 	C 	0.00720 0.92180 0.90140 -0.15200
C 	C 	0.08980 0.88730 0.89230 -0.24300
C 	C 	0.17310 0.02763 0.16897 0.27200
C 	C 	0.11282 0.00301 0.18935 -0.22500
C 	C 	0.07748 0.00442 0.23682 0.12200
C 	C 	0.09430 0.03170 0.26650 -0.19900
C 	C 	0.14880 0.05680 0.24700 0.12900
C 	C 	0.18920 0.05620 0.20040 -0.23800
C 	C 	0.09480 0.97224 0.16116 0.25300
C 	C 	0.15678 0.92872 0.05052 0.20800
C 	C 	0.15309 0.89301 0.02081 -0.13200
C 	C 	0.23140 0.86780 0.98860 -0.26000
C 	C 	0.42360 0.95830 0.41730 0.11300
C 	C 	0.49150 0.95490 0.37890 -0.19800
C 	C 	0.54430 0.91310 0.36130 0.16600
C 	C 	0.52320 0.87680 0.37980 -0.20600
C 	C 	0.45410 0.87960 0.42000 0.10000
C 	C 	0.61740 0.90700 0.31860 -0.17200
C 	C 	0.52348 0.68602 0.34682 0.27500
C 	C 	0.44305 0.69521 0.37909 -0.22300
C 	C 	0.39130 0.74040 0.38380 0.11100
C 	C 	0.41700 0.77735 0.35825 -0.17300
C 	C 	0.49540 0.76810 0.32670 0.10800
C 	C 	0.54970 0.72280 0.32140 -0.23700
C 	C 	0.40920 0.65835 0.40685 0.28000
C 	C 	0.45952 0.53967 0.41569 0.22200
C 	C 	0.43100 0.50010 0.43970 -0.17200
C 	C 	0.39830 0.48000 0.40360 -0.26600
C 	C 	0.43220 0.57710 0.30770 0.08300
C 	C 	0.39730 0.57090 0.27190 -0.16700
C 	C 	0.44320 0.56870 0.22610 0.12400
C 	C 	0.52070 0.57610 0.21670 -0.17600
C 	C 	0.55050 0.58250 0.25390 0.09000
C 	C 	0.41340 0.55800 0.18900 -0.14300
C 	C 	0.19620 0.59084 0.41796 0.28400
C 	C 	0.17000 0.56000 0.45180 -0.23900
C 	C 	0.11540 0.53560 0.44520 0.11100
C 	C 	0.09310 0.54310 0.40210 -0.20000
C 	C 	0.12390 0.57090 0.37010 0.14800
C 	C 	0.17630 0.59520 0.37540 -0.26700
C 	C 	0.19270 0.55097 0.49523 0.26700
C 	C 	0.30648 0.58547 0.55417 0.20900
C 	C 	0.33040 0.57820 0.59860 -0.15300
C 	C 	0.36940 0.61270 0.60770 -0.24200
C 	C 	0.86970 0.47237 0.33103 0.27200
C 	C 	0.80518 0.49699 0.31065 -0.22500
C 	C 	0.81872 0.49558 0.26318 0.12100
C 	C 	0.89250 0.46830 0.23350 -0.19800
C 	C 	0.95260 0.44320 0.25300 0.12900
C 	C 	0.94580 0.44380 0.29960 -0.23800
C 	C 	0.72820 0.52776 0.33884 0.25400
C 	C 	0.63602 0.57128 0.44948 0.20600
C 	C 	0.56691 0.60699 0.47919 -0.12500
C 	C 	0.58780 0.63220 0.51140 -0.27100
C 	C 	0.29920 0.54170 0.08270 0.11300
C 	C 	0.32530 0.54510 0.12110 -0.19800
C 	C 	0.31870 0.58690 0.13870 0.16600
C 	C 	0.27980 0.62320 0.12020 -0.20600
C 	C 	0.25370 0.62040 0.08000 0.10000
C 	C 	0.34300 0.59300 0.18140 -0.17200
C 	C 	0.20950 0.84682 0.31398 0.27500
C 	C 	0.13826 0.87909 0.30479 -0.22300
C 	C 	0.13170 0.88380 0.25960 0.11100
C 	C 	0.19435 0.85825 0.22265 -0.17300
C 	C 	0.26350 0.82670 0.23190 0.10800
C 	C 	0.27250 0.82140 0.27720 -0.23800
C 	C 	0.06755 0.90685 0.34165 0.28000
C 	C 	0.99919 0.91569 0.46033 0.22300
C 	C 	0.93110 0.93970 0.49990 -0.17200
C 	C 	0.87830 0.90360 0.52000 -0.26600
C 	C 	0.00930 0.80770 0.42290 0.08200
C 	C 	0.96820 0.77190 0.42910 -0.16500
C 	C 	0.01190 0.72610 0.43130 0.12300
C 	C 	0.09680 0.71670 0.42390 -0.17600
C 	C 	0.13300 0.75390 0.41750 0.09000
C 	C 	0.97140 0.68900 0.44200 -0.14100
C 	C 	0.78704 0.91796 0.40916 0.28400
C 	C 	0.73000 0.95180 0.44000 -0.23900
C 	C 	0.65100 0.94520 0.46440 0.11100
C 	C 	0.63620 0.90210 0.45690 -0.20000
C 	C 	0.69480 0.87010 0.42910 0.14800
C 	C 	0.77150 0.87540 0.40480 -0.26700
C 	C 	0.74367 0.99523 0.44903 0.26700
C 	C 	0.89195 0.05417 0.41453 0.20900
C 	C 	0.90860 0.09860 0.42180 -0.15200
C 	C 	0.98210 0.10770 0.38730 -0.24300
C 	C 	0.34207 0.83103 0.52763 0.27200
C 	C 	0.30217 0.81065 0.50301 -0.22500
C 	C 	0.31430 0.76318 0.50442 0.12000
C 	C 	0.36080 0.73350 0.53170 -0.19800
C 	C 	0.39580 0.75300 0.55680 0.12900
C 	C 	0.38960 0.79960 0.55620 -0.23800
C 	C 	0.25596 0.83884 0.47224 0.25400
C 	C 	0.20730 0.94948 0.42872 0.20700
C 	C 	0.17390 0.97919 0.39301 -0.12800
C 	C 	0.22000 0.01140 0.36780 -0.26700
C 	C 	0.84090 0.58270 0.45830 0.11400
C 	C 	0.87040 0.62110 0.45490 -0.19900
C 	C 	0.90560 0.63870 0.41310 0.16600
C 	C 	0.90300 0.62020 0.37680 -0.20700
C 	C 	0.87410 0.58000 0.37960 0.10100
C 	C 	0.93600 0.68140 0.40700 -0.17300
C 	C 	0.87030 0.65318 0.18602 0.27500
C 	C 	0.82214 0.62091 0.19521 -0.22300
C 	C 	0.77510 0.61620 0.24040 0.11100
C 	C 	0.77525 0.64175 0.27735 -0.17300
C 	C 	0.82210 0.67330 0.26810 0.10800
C 	C 	0.87110 0.67860 0.22280 -0.23700
C 	C 	0.81605 0.59315 0.15835 0.28000
C 	C 	0.87521 0.58431 0.03967 0.22200
C 	C 	0.87070 0.56030 0.00010 -0.17000
C 	C 	0.80190 0.59640 0.98000 -0.26700
C 	C 	0.73990 0.69230 0.07710 0.08300
C 	C 	0.66920 0.72810 0.07090 -0.16700
C 	C 	0.66930 0.77390 0.06870 0.12400
C 	C 	0.73740 0.78330 0.07610 -0.17600
C 	C 	0.80440 0.74610 0.08250 0.09000
C 	C 	0.60240 0.81100 0.05800 -0.14300
C 	C 	0.61416 0.58204 0.09084 0.28400
C 	C 	0.62180 0.54820 0.06000 -0.23900
C 	C 	0.56060 0.55480 0.03560 0.11100
C 	C 	0.49520 0.59790 0.04310 -0.20000
C 	C 	0.49400 0.62990 0.07090 0.14800
C 	C 	0.55170 0.62460 0.09520 -0.26700
C 	C 	0.68793 0.50477 0.05097 0.26700
C 	C 	0.86065 0.44583 0.08547 0.20900
C 	C 	0.92900 0.40140 0.07820 -0.15500
C 	C 	0.97710 0.39230 0.11270 -0.23800
C 	C 	0.20073 0.66897 0.97237 0.27200
C 	C 	0.11583 0.68935 0.99699 -0.22500
C 	C 	0.08190 0.73682 0.99558 0.12300
C 	C 	0.12600 0.76650 0.96830 -0.19900
C 	C 	0.20560 0.74700 0.94320 0.13000
C 	C 	0.24540 0.70040 0.94380 -0.23800
C 	C 	0.06704 0.66116 0.02776 0.25300
C 	C 	0.08550 0.55052 0.07128 0.20600
C 	C 	0.04610 0.52081 0.10699 -0.12600
C 	C 	0.09920 0.48860 0.13220 -0.27000
C 	C 	0.38190 0.91730 0.04170 0.11300
C 	C 	0.44640 0.87890 0.04510 -0.19900
C 	C 	0.45740 0.86130 0.08690 0.16600
C 	C 	0.40000 0.87980 0.12320 -0.20600
C 	C 	0.33370 0.92000 0.12040 0.10000
C 	C 	0.52440 0.81860 0.09300 -0.17200
N 	N 	0.03109 0.11474 0.89968 -0.28700
N 	N 	0.07434 0.08183 0.92769 -0.23000
N 	N 	0.11220 0.08286 0.79794 -0.22600
N 	N 	0.18145 0.07315 0.00395 -0.29000
N 	N 	0.13281 0.05997 0.04681 -0.22600
N 	N 	0.86488 0.03411 0.88373 -0.28200
N 	N 	0.88187 0.06847 0.90579 -0.22400
N 	N 	0.59390 0.07930 0.56190 -0.22800
N 	N 	0.54551 0.38526 0.60032 -0.28700
N 	N 	0.58386 0.41817 0.57231 -0.23000
N 	N 	0.49300 0.41714 0.70206 -0.22600
N 	N 	0.75855 0.42685 0.49605 -0.29100
N 	N 	0.73959 0.44003 0.45319 -0.22600
N 	N 	0.28272 0.46589 0.61627 -0.28200
N 	N 	0.35613 0.43153 0.59421 -0.22400
N 	N 	0.73510 0.42070 0.93810 -0.22800
N 	N 	0.93077 0.10032 0.61474 -0.28700
N 	N 	0.00203 0.07231 0.58183 -0.22900
N 	N 	0.91014 0.20206 0.58286 -0.22500
N 	N 	0.18540 0.99605 0.57315 -0.29100
N 	N 	0.17962 0.95319 0.55997 -0.22600
N 	N 	0.74861 0.11627 0.53411 -0.28200
N 	N 	0.78766 0.09421 0.56847 -0.22400
N 	N 	0.15580 0.43810 0.57930 -0.22800
N 	N 	0.14583 0.39968 0.88526 -0.28700
N 	N 	0.15617 0.42769 0.91817 -0.22900
N 	N 	0.19506 0.29794 0.91714 -0.22600
N 	N 	0.25460 0.50395 0.92685 -0.29100
N 	N 	0.19278 0.54681 0.94003 -0.22600
N 	N 	0.89899 0.38373 0.96589 -0.28200
N 	N 	0.95034 0.40579 0.93153 -0.22400
N 	N 	0.67320 0.06190 0.92070 -0.22800
N 	N 	0.96891 0.88526 0.10032 -0.28700
N 	N 	0.92566 0.91817 0.07231 -0.23000
N 	N 	0.88780 0.91714 0.20206 -0.22600
N 	N 	0.81855 0.92685 0.99605 -0.29000
N 	N 	0.86719 0.94003 0.95319 -0.22600
N 	N 	0.13512 0.96589 0.11627 -0.28200
N 	N 	0.11813 0.93153 0.09421 -0.22400
N 	N 	0.40610 0.92070 0.43810 -0.22800
N 	N 	0.45449 0.61474 0.39968 -0.28700
N 	N 	0.41614 0.58183 0.42769 -0.23000
N 	N 	0.50700 0.58286 0.29794 -0.22600
N 	N 	0.24145 0.57315 0.50395 -0.29100
N 	N 	0.26041 0.55997 0.54681 -0.22600
N 	N 	0.71728 0.53411 0.38373 -0.28200
N 	N 	0.64387 0.56847 0.40579 -0.22400
N 	N 	0.26490 0.57930 0.06190 -0.22800
N 	N 	0.06923 0.89968 0.38526 -0.28700
N 	N 	0.99797 0.92769 0.41817 -0.22900
N 	N 	0.08986 0.79794 0.41714 -0.22500
N 	N 	0.81460 0.00395 0.42685 -0.29100
N 	N 	0.82038 0.04681 0.44003 -0.22600
N 	N 	0.25139 0.88373 0.46589 -0.28200
N 	N 	0.21234 0.90579 0.43153 -0.22400
N 	N 	0.84420 0.56190 0.42070 -0.22800
N 	N 	0.85417 0.60032 0.11474 -0.28700
N 	N 	0.84383 0.57231 0.08183 -0.22900
N 	N 	0.80494 0.70206 0.08286 -0.22600
N 	N 	0.74540 0.49605 0.07315 -0.29100
N 	N 	0.80722 0.45319 0.05997 -0.22600
N 	N 	0.10101 0.61627 0.03411 -0.28200
N 	N 	0.04966 0.59421 0.06847 -0.22400
N 	N 	0.32680 0.93810 0.07930 -0.22800
O 	O 	0.93926 0.14352 0.83896 -0.46200
O 	O 	0.05284 0.16993 0.93739 -0.43200
O 	O 	0.05702 0.03048 0.88248 -0.42300
O 	O 	0.21678 0.11785 0.92219 -0.47100
O 	O 	0.29100 0.02215 0.02405 -0.40400
O 	O 	0.03063 0.11607 0.02447 -0.43300
O 	O 	0.78714 0.97137 0.87555 -0.46700
O 	O 	0.96008 0.04962 0.81822 -0.40600
O 	O 	0.79894 0.04285 0.96947 -0.41600
O 	O 	0.42174 0.35648 0.66104 -0.46100
O 	O 	0.66016 0.33007 0.56261 -0.43200
O 	O 	0.46998 0.46952 0.61752 -0.42200
O 	O 	0.75682 0.38215 0.57781 -0.47100
O 	O 	0.83720 0.47785 0.47595 -0.40500
O 	O 	0.67117 0.38393 0.47553 -0.43300
O 	O 	0.13406 0.52863 0.62445 -0.46800
O 	O 	0.32792 0.45038 0.68178 -0.40600
O 	O 	0.31126 0.45715 0.53053 -0.41500
O 	O 	0.77822 0.16104 0.64352 -0.46100
O 	O 	0.99023 0.06261 0.66993 -0.43200
O 	O 	0.93950 0.11752 0.53048 -0.42300
O 	O 	0.13897 0.07781 0.61785 -0.47100
O 	O 	0.31505 0.97595 0.52215 -0.40500
O 	O 	0.05510 0.97553 0.61607 -0.43300
O 	O 	0.66269 0.12445 0.47137 -0.46800
O 	O 	0.77830 0.18178 0.54962 -0.40600
O 	O 	0.76841 0.03053 0.54285 -0.41500
O 	O 	0.08278 0.33896 0.85648 -0.46100
O 	O 	0.22277 0.43739 0.83007 -0.43200
O 	O 	0.08750 0.38248 0.96952 -0.42200
O 	O 	0.33463 0.42219 0.88215 -0.47100
O 	O 	0.31315 0.52405 0.97785 -0.40500
O 	O 	0.14670 0.52447 0.88393 -0.43300
O 	O 	0.75851 0.37555 0.02863 -0.46800
O 	O 	0.00970 0.31822 0.95038 -0.40600
O 	O 	0.84179 0.46947 0.95715 -0.41500
O 	O 	0.06074 0.85648 0.16104 -0.46200
O 	O 	0.94716 0.83007 0.06261 -0.43200
O 	O 	0.94298 0.96952 0.11752 -0.42300
O 	O 	0.78322 0.88215 0.07781 -0.47100
O 	O 	0.70900 0.97785 0.97595 -0.40400
O 	O 	0.96937 0.88393 0.97553 -0.43300
O 	O 	0.21286 0.02863 0.12445 -0.46700
O 	O 	0.03992 0.95038 0.18178 -0.40600
O 	O 	0.20106 0.95715 0.03053 -0.41600
O 	O 	0.57826 0.64352 0.33896 -0.46100
O 	O 	0.33984 0.66993 0.43739 -0.43200
O 	O 	0.53002 0.53048 0.38248 -0.42200
O 	O 	0.24318 0.61785 0.42219 -0.47100
O 	O 	0.16280 0.52215 0.52405 -0.40500
O 	O 	0.32883 0.61607 0.52447 -0.43300
O 	O 	0.86594 0.47137 0.37555 -0.46800
O 	O 	0.67208 0.54962 0.31822 -0.40600
O 	O 	0.68874 0.54285 0.46947 -0.41500
O 	O 	0.22178 0.83896 0.35648 -0.46100
O 	O 	0.00977 0.93739 0.33007 -0.43200
O 	O 	0.06050 0.88248 0.46952 -0.42300
O 	O 	0.86103 0.92219 0.38215 -0.47100
O 	O 	0.68495 0.02405 0.47785 -0.40500
O 	O 	0.94490 0.02447 0.38393 -0.43300
O 	O 	0.33731 0.87555 0.52863 -0.46800
O 	O 	0.22170 0.81822 0.45038 -0.40600
O 	O 	0.23159 0.96947 0.45715 -0.41500
O 	O 	0.91722 0.66104 0.14352 -0.46100
O 	O 	0.77723 0.56261 0.16993 -0.43200
O 	O 	0.91250 0.61752 0.03048 -0.42200
O 	O 	0.66537 0.57781 0.11785 -0.47100
O 	O 	0.68685 0.47595 0.02215 -0.40500
O 	O 	0.85330 0.47553 0.11607 -0.43300
O 	O 	0.24149 0.62445 0.97137 -0.46800
O 	O 	0.99030 0.68178 0.04962 -0.40600
O 	O 	0.15821 0.53053 0.04285 -0.41500
