data_crystal

_cell_length_a 17.74900
_cell_length_b 29.54400
_cell_length_c 29.54400
_cell_angle_alpha 84.82310
_cell_angle_beta  72.51940
_cell_angle_gamma 72.51930

_symmetry_space_group_name_	'P 1'
_symmetry_space_group_name_H-M	'P 1'

loop_
_symmetry_equiv_pos_as_xyz
  x,y,z

loop_
_atom_site_label
_atom_site_type_symbol
_atom_site_fract_x
_atom_site_fract_y
_atom_site_fract_z
_atom_site_charge
Mn	Mn	0.87600 0.87956 0.03372 1.32000
Mn	Mn	0.78114 0.00367 0.92680 1.33200
Mn	Mn	0.01137 0.91510 0.14150 1.33500
Mn	Mn	0.28928 0.62044 0.46628 1.32100
Mn	Mn	0.21160 0.49633 0.57320 1.33200
Mn	Mn	0.56797 0.58490 0.35850 1.33500
Mn	Mn	0.90972 0.96628 0.37956 1.32000
Mn	Mn	0.70793 0.07320 0.50368 1.33200
Mn	Mn	0.15287 0.85850 0.41510 1.33500
Mn	Mn	0.75556 0.53372 0.12044 1.32100
Mn	Mn	0.78481 0.42680 0.99632 1.33200
Mn	Mn	0.92647 0.64150 0.08490 1.33500
Mn	Mn	0.12400 0.12044 0.96628 1.32000
Mn	Mn	0.21886 0.99633 0.07320 1.33200
Mn	Mn	0.98863 0.08490 0.85850 1.33600
Mn	Mn	0.71072 0.37956 0.53372 1.32200
Mn	Mn	0.78840 0.50367 0.42680 1.33300
Mn	Mn	0.43203 0.41510 0.64150 1.33600
Mn	Mn	0.09028 0.03372 0.62044 1.32100
Mn	Mn	0.29207 0.92680 0.49632 1.33300
Mn	Mn	0.84713 0.14150 0.58490 1.33600
Mn	Mn	0.24444 0.46628 0.87956 1.32200
Mn	Mn	0.21519 0.57320 0.00368 1.33300
Mn	Mn	0.07353 0.35850 0.91510 1.33600
H 	H 	0.66190 0.89240 0.15900 0.13600
H 	H 	0.52660 0.93230 0.17170 -0.04100
H 	H 	0.48310 0.97150 0.10710 0.11700
H 	H 	0.57820 0.98440 0.03920 -0.01500
H 	H 	0.04910 0.92440 0.90840 0.22700
H 	H 	0.01860 0.89210 0.88110 0.22400
H 	H 	0.97690 0.94840 0.88420 0.21500
H 	H 	0.76640 0.92660 0.81180 0.12800
H 	H 	0.83090 0.92450 0.73170 -0.02900
H 	H 	0.92050 0.97040 0.69800 0.10000
H 	H 	0.95040 0.01470 0.74930 0.00400
H 	H 	0.79490 0.11640 0.00860 0.23300
H 	H 	0.89170 0.09020 0.99640 0.21800
H 	H 	0.85780 0.13280 0.96360 0.21800
H 	H 	0.61700 0.06660 0.99080 0.00700
H 	H 	0.49380 0.12950 0.98890 0.07700
H 	H 	0.58590 0.13670 0.85110 0.08200
H 	H 	0.69830 0.07100 0.85240 -0.00900
H 	H 	0.47950 0.20500 0.89260 0.04700
H 	H 	0.44870 0.20250 0.94910 0.04400
H 	H 	0.13190 0.78120 0.19520 0.14100
H 	H 	0.12710 0.70580 0.18860 -0.03200
H 	H 	0.05660 0.68940 0.13900 0.11200
H 	H 	0.99130 0.75110 0.09710 0.00600
H 	H 	0.85950 0.99450 0.03410 0.20600
H 	H 	0.92270 0.02080 0.04000 0.20200
H 	H 	0.83630 0.02650 0.07990 0.21300
H 	H 	0.14890 0.24710 0.90070 -0.00500
H 	H 	0.26680 0.18600 0.89580 0.10000
H 	H 	0.35020 0.27780 0.94920 0.08800
H 	H 	0.25370 0.33840 0.92260 -0.01100
H 	H 	0.41650 0.16390 0.88770 0.07800
H 	H 	0.38790 0.15870 0.94370 0.07600
H 	H 	0.21330 0.60760 0.34100 0.13600
H 	H 	0.13060 0.56770 0.32830 -0.04100
H 	H 	0.06170 0.52850 0.39290 0.11800
H 	H 	0.10180 0.51560 0.46080 -0.01500
H 	H 	0.38190 0.57560 0.59160 0.22600
H 	H 	0.29180 0.60790 0.61890 0.22400
H 	H 	0.30950 0.55160 0.61580 0.21500
H 	H 	0.00480 0.57340 0.68820 0.12800
H 	H 	0.98710 0.57550 0.76830 -0.02900
H 	H 	0.08890 0.52960 0.80200 0.10000
H 	H 	0.21440 0.48530 0.75070 0.00500
H 	H 	0.41990 0.38360 0.49140 0.23100
H 	H 	0.47830 0.40980 0.50360 0.21700
H 	H 	0.45420 0.36720 0.53640 0.21700
H 	H 	0.17440 0.43340 0.50920 0.00700
H 	H 	0.11220 0.37050 0.51110 0.07700
H 	H 	0.07370 0.36330 0.64890 0.08300
H 	H 	0.12170 0.42900 0.64760 -0.00900
H 	H 	0.07710 0.29500 0.60740 0.04800
H 	H 	0.10030 0.29750 0.55090 0.04600
H 	H 	0.60830 0.71880 0.30480 0.14100
H 	H 	0.52150 0.79420 0.31140 -0.03200
H 	H 	0.38500 0.81060 0.36100 0.11100
H 	H 	0.33950 0.74890 0.40290 0.00600
H 	H 	0.38810 0.50550 0.46590 0.21000
H 	H 	0.48350 0.47920 0.46000 0.20400
H 	H 	0.44270 0.47350 0.42010 0.21500
H 	H 	0.79670 0.25290 0.59930 -0.00500
H 	H 	0.84860 0.31400 0.60420 0.10000
H 	H 	0.07720 0.22220 0.55080 0.08800
H 	H 	0.01470 0.16160 0.57740 -0.01200
H 	H 	0.96810 0.33610 0.61230 0.07800
H 	H 	0.99030 0.34130 0.55630 0.07500
H 	H 	0.82090 0.84100 0.39240 0.13600
H 	H 	0.69830 0.82830 0.43230 -0.04100
H 	H 	0.59020 0.89290 0.47150 0.11800
H 	H 	0.61740 0.96080 0.48440 -0.01500
H 	H 	0.95750 0.09160 0.42440 0.22700
H 	H 	0.89970 0.11890 0.39210 0.22400
H 	H 	0.86110 0.11580 0.44840 0.21500
H 	H 	0.57820 0.18820 0.42660 0.12800
H 	H 	0.56260 0.26830 0.42450 -0.02900
H 	H 	0.61850 0.30200 0.47040 0.10000
H 	H 	0.69970 0.25070 0.51470 0.00500
H 	H 	0.80350 0.99140 0.61640 0.23100
H 	H 	0.88810 0.00360 0.59020 0.21700
H 	H 	0.82140 0.03640 0.63280 0.21700
H 	H 	0.60780 0.00920 0.56660 0.00700
H 	H 	0.48270 0.01110 0.62950 0.07700
H 	H 	0.43700 0.14890 0.63670 0.08200
H 	H 	0.55070 0.14760 0.57100 -0.00900
H 	H 	0.37210 0.10740 0.70500 0.04700
H 	H 	0.39780 0.05090 0.70250 0.04500
H 	H 	0.32710 0.80480 0.28120 0.14100
H 	H 	0.31570 0.81140 0.20580 -0.03200
H 	H 	0.19560 0.86100 0.18940 0.11100
H 	H 	0.08840 0.90290 0.25110 0.00600
H 	H 	0.89360 0.96590 0.49450 0.21000
H 	H 	0.96270 0.96000 0.52080 0.20400
H 	H 	0.91620 0.92010 0.52650 0.21600
H 	H 	0.04960 0.09930 0.74710 -0.00600
H 	H 	0.16260 0.10420 0.68600 0.10000
H 	H 	0.29940 0.05080 0.77780 0.08800
H 	H 	0.17630 0.07740 0.83840 -0.01100
H 	H 	0.30420 0.11230 0.66390 0.07800
H 	H 	0.33160 0.05630 0.65870 0.07600
H 	H 	0.55430 0.65900 0.10760 0.13600
H 	H 	0.45890 0.67170 0.06770 -0.04100
H 	H 	0.45460 0.60710 0.02850 0.11800
H 	H 	0.56260 0.53920 0.01560 -0.01500
H 	H 	0.97350 0.40840 0.07560 0.22700
H 	H 	0.91070 0.38110 0.10790 0.22400
H 	H 	0.92530 0.38420 0.05160 0.21500
H 	H 	0.69300 0.31180 0.07340 0.12800
H 	H 	0.75540 0.23170 0.07550 -0.02900
H 	H 	0.89090 0.19800 0.02960 0.10000
H 	H 	0.96510 0.24930 0.98530 0.00300
H 	H 	0.91130 0.50860 0.88360 0.23100
H 	H 	0.98190 0.49640 0.90980 0.21700
H 	H 	0.99060 0.46360 0.86720 0.21700
H 	H 	0.68360 0.49080 0.93340 0.00700
H 	H 	0.62330 0.48890 0.87050 0.07700
H 	H 	0.72260 0.35110 0.86330 0.08200
H 	H 	0.76930 0.35240 0.92900 -0.00900
H 	H 	0.68450 0.39260 0.79500 0.04700
H 	H 	0.65120 0.44910 0.79750 0.04500
H 	H 	0.91310 0.69520 0.21880 0.14100
H 	H 	0.83290 0.68860 0.29420 -0.03200
H 	H 	0.74600 0.63900 0.31060 0.11100
H 	H 	0.74240 0.59710 0.24890 0.00600
H 	H 	0.85400 0.53410 0.00550 0.20900
H 	H 	0.94350 0.54000 0.97920 0.20300
H 	H 	0.86280 0.57990 0.97350 0.21500
H 	H 	0.39600 0.40070 0.75290 -0.00500
H 	H 	0.45280 0.39580 0.81400 0.10100
H 	H 	0.62800 0.44920 0.72220 0.08800
H 	H 	0.59210 0.42260 0.66160 -0.01100
H 	H 	0.58040 0.38770 0.83610 0.07800
H 	H 	0.54660 0.44370 0.84130 0.07600
H 	H 	0.33810 0.10760 0.84100 0.13600
H 	H 	0.47340 0.06770 0.82830 -0.04100
H 	H 	0.51690 0.02850 0.89290 0.11700
H 	H 	0.42180 0.01560 0.96080 -0.01500
H 	H 	0.95090 0.07560 0.09160 0.22700
H 	H 	0.98140 0.10790 0.11890 0.22400
H 	H 	0.02310 0.05160 0.11580 0.21500
H 	H 	0.23360 0.07340 0.18820 0.12800
H 	H 	0.16910 0.07550 0.26830 -0.02900
H 	H 	0.07950 0.02960 0.30200 0.10000
H 	H 	0.04960 0.98530 0.25070 0.00400
H 	H 	0.20510 0.88360 0.99140 0.23300
H 	H 	0.10830 0.90980 0.00360 0.21800
H 	H 	0.14220 0.86720 0.03640 0.21800
H 	H 	0.38300 0.93340 0.00920 0.00700
H 	H 	0.50620 0.87050 0.01110 0.07700
H 	H 	0.41410 0.86330 0.14890 0.08200
H 	H 	0.30170 0.92900 0.14760 -0.00900
H 	H 	0.52050 0.79500 0.10740 0.04700
H 	H 	0.55130 0.79750 0.05090 0.04400
H 	H 	0.86810 0.21880 0.80480 0.14100
H 	H 	0.87290 0.29420 0.81140 -0.03200
H 	H 	0.94340 0.31060 0.86100 0.11200
H 	H 	0.00870 0.24890 0.90290 0.00600
H 	H 	0.14050 0.00550 0.96590 0.20600
H 	H 	0.07730 0.97920 0.96000 0.20200
H 	H 	0.16370 0.97350 0.92010 0.21300
H 	H 	0.85110 0.75290 0.09930 -0.00500
H 	H 	0.73320 0.81400 0.10420 0.10000
H 	H 	0.64980 0.72220 0.05080 0.08800
H 	H 	0.74630 0.66160 0.07740 -0.01100
H 	H 	0.58350 0.83610 0.11230 0.07800
H 	H 	0.61210 0.84130 0.05630 0.07600
H 	H 	0.78670 0.39240 0.65900 0.13600
H 	H 	0.86940 0.43230 0.67170 -0.04100
H 	H 	0.93830 0.47150 0.60710 0.11800
H 	H 	0.89820 0.48440 0.53920 -0.01500
H 	H 	0.61810 0.42440 0.40840 0.22600
H 	H 	0.70820 0.39210 0.38110 0.22400
H 	H 	0.69050 0.44840 0.38420 0.21500
H 	H 	0.99520 0.42660 0.31180 0.12800
H 	H 	0.01290 0.42450 0.23170 -0.02900
H 	H 	0.91110 0.47040 0.19800 0.10000
H 	H 	0.78560 0.51470 0.24930 0.00500
H 	H 	0.58010 0.61640 0.50860 0.23100
H 	H 	0.52170 0.59020 0.49640 0.21700
H 	H 	0.54580 0.63280 0.46360 0.21700
H 	H 	0.82560 0.56660 0.49080 0.00700
H 	H 	0.88780 0.62950 0.48890 0.07700
H 	H 	0.92630 0.63670 0.35110 0.08300
H 	H 	0.87830 0.57100 0.35240 -0.00900
H 	H 	0.92290 0.70500 0.39260 0.04800
H 	H 	0.89970 0.70250 0.44910 0.04600
H 	H 	0.39170 0.28120 0.69520 0.14100
H 	H 	0.47850 0.20580 0.68860 -0.03200
H 	H 	0.61500 0.18940 0.63900 0.11100
H 	H 	0.66050 0.25110 0.59710 0.00600
H 	H 	0.61190 0.49450 0.53410 0.21000
H 	H 	0.51650 0.52080 0.54000 0.20400
H 	H 	0.55730 0.52650 0.57990 0.21500
H 	H 	0.20330 0.74710 0.40070 -0.00500
H 	H 	0.15140 0.68600 0.39580 0.10000
H 	H 	0.92280 0.77780 0.44920 0.08800
H 	H 	0.98530 0.83840 0.42260 -0.01200
H 	H 	0.03190 0.66390 0.38770 0.07800
H 	H 	0.00970 0.65870 0.44370 0.07500
H 	H 	0.17910 0.15900 0.60760 0.13600
H 	H 	0.30170 0.17170 0.56770 -0.04100
H 	H 	0.40980 0.10710 0.52850 0.11800
H 	H 	0.38260 0.03920 0.51560 -0.01500
H 	H 	0.04250 0.90840 0.57560 0.22700
H 	H 	0.10030 0.88110 0.60790 0.22400
H 	H 	0.13890 0.88420 0.55160 0.21500
H 	H 	0.42180 0.81180 0.57340 0.12800
H 	H 	0.43740 0.73170 0.57550 -0.02900
H 	H 	0.38150 0.69800 0.52960 0.10000
H 	H 	0.30030 0.74930 0.48530 0.00500
H 	H 	0.19650 0.00860 0.38360 0.23100
H 	H 	0.11190 0.99640 0.40980 0.21700
H 	H 	0.17860 0.96360 0.36720 0.21700
H 	H 	0.39220 0.99080 0.43340 0.00700
H 	H 	0.51730 0.98890 0.37050 0.07700
H 	H 	0.56300 0.85110 0.36330 0.08200
H 	H 	0.44930 0.85240 0.42900 -0.00900
H 	H 	0.62790 0.89260 0.29500 0.04700
H 	H 	0.60220 0.94910 0.29750 0.04500
H 	H 	0.67290 0.19520 0.71880 0.14100
H 	H 	0.68430 0.18860 0.79420 -0.03200
H 	H 	0.80440 0.13900 0.81060 0.11100
H 	H 	0.91160 0.09710 0.74890 0.00600
H 	H 	0.10640 0.03410 0.50550 0.21000
H 	H 	0.03730 0.04000 0.47920 0.20400
H 	H 	0.08380 0.07990 0.47350 0.21600
H 	H 	0.95040 0.90070 0.25290 -0.00600
H 	H 	0.83740 0.89580 0.31400 0.10000
H 	H 	0.70060 0.94920 0.22220 0.08800
H 	H 	0.82370 0.92260 0.16160 -0.01100
H 	H 	0.69580 0.88770 0.33610 0.07800
H 	H 	0.66840 0.94370 0.34130 0.07600
H 	H 	0.44570 0.34100 0.89240 0.13600
H 	H 	0.54110 0.32830 0.93230 -0.04100
H 	H 	0.54540 0.39290 0.97150 0.11800
H 	H 	0.43740 0.46080 0.98440 -0.01500
H 	H 	0.02650 0.59160 0.92440 0.22700
H 	H 	0.08930 0.61890 0.89210 0.22400
H 	H 	0.07470 0.61580 0.94840 0.21500
H 	H 	0.30700 0.68820 0.92660 0.12800
H 	H 	0.24460 0.76830 0.92450 -0.02900
H 	H 	0.10910 0.80200 0.97040 0.10000
H 	H 	0.03490 0.75070 0.01470 0.00300
H 	H 	0.08870 0.49140 0.11640 0.23100
H 	H 	0.01810 0.50360 0.09020 0.21700
H 	H 	0.00940 0.53640 0.13280 0.21700
H 	H 	0.31640 0.50920 0.06660 0.00700
H 	H 	0.37670 0.51110 0.12950 0.07700
H 	H 	0.27740 0.64890 0.13670 0.08200
H 	H 	0.23070 0.64760 0.07100 -0.00900
H 	H 	0.31550 0.60740 0.20500 0.04700
H 	H 	0.34880 0.55090 0.20250 0.04500
H 	H 	0.08690 0.30480 0.78120 0.14100
H 	H 	0.16710 0.31140 0.70580 -0.03200
H 	H 	0.25400 0.36100 0.68940 0.11100
H 	H 	0.25760 0.40290 0.75110 0.00600
H 	H 	0.14600 0.46590 0.99450 0.20900
H 	H 	0.05650 0.46000 0.02080 0.20300
H 	H 	0.13720 0.42010 0.02650 0.21500
H 	H 	0.60400 0.59930 0.24710 -0.00500
H 	H 	0.54720 0.60420 0.18600 0.10100
H 	H 	0.37200 0.55080 0.27780 0.08800
H 	H 	0.40790 0.57740 0.33840 -0.01100
H 	H 	0.41960 0.61230 0.16390 0.07800
H 	H 	0.45340 0.55630 0.15870 0.07600
C 	C 	0.70716 0.91327 0.08981 0.31800
C 	C 	0.64469 0.91098 0.13404 -0.30300
C 	C 	0.56526 0.93330 0.14158 0.19000
C 	C 	0.54020 0.95824 0.10396 -0.25200
C 	C 	0.59655 0.96379 0.06271 0.18400
C 	C 	0.67872 0.94071 0.05385 -0.28100
C 	C 	0.73488 0.94875 0.00849 0.27800
C 	C 	0.93807 0.91407 0.94661 0.35400
C 	C 	0.00123 0.92029 0.90107 -0.69300
C 	C 	0.82095 0.97095 0.83015 0.28800
C 	C 	0.80449 0.94447 0.79935 -0.27000
C 	C 	0.84210 0.94370 0.75150 0.14500
C 	C 	0.89596 0.97013 0.73135 -0.20900
C 	C 	0.91285 0.99659 0.76231 0.13400
C 	C 	0.87803 0.99742 0.81008 -0.23900
C 	C 	0.89879 0.02809 0.83907 0.25700
C 	C 	0.83689 0.07051 0.95197 0.35800
C 	C 	0.84616 0.10560 0.98288 -0.70200
C 	C 	0.60940 0.07920 0.96120 0.07700
C 	C 	0.53613 0.11856 0.96038 -0.15500
C 	C 	0.52966 0.13877 0.91871 0.10900
C 	C 	0.58884 0.12184 0.88068 -0.17100
C 	C 	0.65730 0.08230 0.88130 0.08900
C 	C 	0.45990 0.18500 0.91960 -0.07300
C 	C 	0.06328 0.81314 0.15160 0.31400
C 	C 	0.10237 0.77549 0.17535 -0.29800
C 	C 	0.10005 0.73080 0.17132 0.16800
C 	C 	0.05815 0.72088 0.14190 -0.22000
C 	C 	0.01963 0.75738 0.11736 0.14800
C 	C 	0.02111 0.80424 0.12158 -0.25400
C 	C 	0.97843 0.84117 0.09401 0.27700
C 	C 	0.92182 0.96083 0.08313 0.33100
C 	C 	0.88143 0.00468 0.05686 -0.64700
C 	C 	0.19432 0.25343 0.90687 0.10800
C 	C 	0.26152 0.21667 0.90609 -0.20400
C 	C 	0.32140 0.22564 0.92076 0.12900
C 	C 	0.31402 0.27161 0.93415 -0.18700
C 	C 	0.25123 0.30656 0.92398 0.10800
C 	C 	0.40390 0.18060 0.91780 -0.17400
C 	C 	0.21024 0.58673 0.41019 0.31900
C 	C 	0.18971 0.58902 0.36596 -0.30300
C 	C 	0.14014 0.56670 0.35842 0.19100
C 	C 	0.10240 0.54176 0.39604 -0.25300
C 	C 	0.12305 0.53621 0.43729 0.18500
C 	C 	0.17328 0.55929 0.44615 -0.28200
C 	C 	0.19212 0.55125 0.49151 0.28100
C 	C 	0.29875 0.58593 0.55339 0.35400
C 	C 	0.32259 0.57971 0.59893 -0.69400
C 	C 	0.12205 0.52905 0.66985 0.28800
C 	C 	0.04831 0.55553 0.70065 -0.27000
C 	C 	0.03730 0.55630 0.74850 0.14500
C 	C 	0.09744 0.52987 0.76865 -0.20900
C 	C 	0.17175 0.50341 0.73769 0.13400
C 	C 	0.18553 0.50258 0.68992 -0.23900
C 	C 	0.26595 0.47191 0.66093 0.25800
C 	C 	0.35937 0.42949 0.54803 0.35700
C 	C 	0.43464 0.39440 0.51712 -0.69700
C 	C 	0.14980 0.42080 0.53880 0.07800
C 	C 	0.11507 0.38144 0.53962 -0.15600
C 	C 	0.08714 0.36123 0.58129 0.11100
C 	C 	0.09136 0.37816 0.61932 -0.17200
C 	C 	0.12090 0.41770 0.61870 0.08900
C 	C 	0.06450 0.31500 0.58040 -0.07800
C 	C 	0.52802 0.68686 0.34840 0.31400
C 	C 	0.55321 0.72451 0.32465 -0.29800
C 	C 	0.50217 0.76920 0.32868 0.16800
C 	C 	0.42093 0.77912 0.35810 -0.22000
C 	C 	0.39437 0.74262 0.38264 0.14800
C 	C 	0.44693 0.69576 0.37842 -0.25400
C 	C 	0.41361 0.65883 0.40599 0.27700
C 	C 	0.46578 0.53917 0.41687 0.33400
C 	C 	0.44297 0.49532 0.44314 -0.65600
C 	C 	0.85462 0.24657 0.59313 0.10800
C 	C 	0.88428 0.28333 0.59391 -0.20400
C 	C 	0.96780 0.27436 0.57924 0.12800
C 	C 	0.01978 0.22839 0.56585 -0.18800
C 	C 	0.98177 0.19344 0.57602 0.10900
C 	C 	0.00230 0.31940 0.58220 -0.17100
C 	C 	0.79697 0.91019 0.41327 0.31900
C 	C 	0.77873 0.86596 0.41098 -0.30300
C 	C 	0.70684 0.85842 0.43330 0.19100
C 	C 	0.64416 0.89604 0.45824 -0.25200
C 	C 	0.65926 0.93729 0.46379 0.18500
C 	C 	0.73257 0.94615 0.44071 -0.28200
C 	C 	0.74337 0.99151 0.44875 0.28100
C 	C 	0.88468 0.05339 0.41407 0.35400
C 	C 	0.90230 0.09893 0.42029 -0.69400
C 	C 	0.65110 0.16985 0.47095 0.28800
C 	C 	0.60384 0.20065 0.44447 -0.27000
C 	C 	0.59360 0.24850 0.44370 0.14500
C 	C 	0.62731 0.26865 0.47013 -0.20900
C 	C 	0.67516 0.23769 0.49659 0.13400
C 	C 	0.68811 0.18992 0.49742 -0.23900
C 	C 	0.73786 0.16093 0.52809 0.25800
C 	C 	0.78886 0.04803 0.57051 0.35700
C 	C 	0.82904 0.01712 0.60560 -0.69800
C 	C 	0.57060 0.03880 0.57920 0.07700
C 	C 	0.49651 0.03962 0.61856 -0.15500
C 	C 	0.44837 0.08129 0.63877 0.10900
C 	C 	0.46952 0.11932 0.62184 -0.17100
C 	C 	0.53860 0.11870 0.58230 0.08900
C 	C 	0.37950 0.08040 0.68500 -0.07300
C 	C 	0.21488 0.84840 0.31314 0.31400
C 	C 	0.27772 0.82465 0.27549 -0.29800
C 	C 	0.27137 0.82868 0.23080 0.16800
C 	C 	0.20005 0.85810 0.22088 -0.22000
C 	C 	0.13699 0.88264 0.25738 0.14800
C 	C 	0.14269 0.87842 0.30424 -0.25400
C 	C 	0.07244 0.90599 0.34117 0.27700
C 	C 	0.00495 0.91687 0.46083 0.33400
C 	C 	0.93829 0.94314 0.50468 -0.65600
C 	C 	0.10119 0.09313 0.75343 0.10800
C 	C 	0.16761 0.09391 0.71667 -0.20400
C 	C 	0.24216 0.07924 0.72564 0.12900
C 	C 	0.24817 0.06585 0.77161 -0.18700
C 	C 	0.17521 0.07602 0.80656 0.10800
C 	C 	0.32170 0.08220 0.68060 -0.17400
C 	C 	0.62043 0.58981 0.08673 0.31900
C 	C 	0.55567 0.63404 0.08902 -0.30300
C 	C 	0.49856 0.64158 0.06670 0.19100
C 	C 	0.49844 0.60396 0.04176 -0.25300
C 	C 	0.56034 0.56271 0.03621 0.18500
C 	C 	0.61943 0.55385 0.05929 -0.28200
C 	C 	0.68363 0.50849 0.05125 0.28100
C 	C 	0.85214 0.44661 0.08593 0.35400
C 	C 	0.92152 0.40107 0.07971 -0.69400
C 	C 	0.79190 0.33015 0.02905 0.28900
C 	C 	0.74896 0.29935 0.05553 -0.27000
C 	C 	0.78580 0.25150 0.05630 0.14600
C 	C 	0.86609 0.23135 0.02987 -0.21000
C 	C 	0.90944 0.26231 0.00341 0.13600
C 	C 	0.87545 0.31008 0.00258 -0.24000
C 	C 	0.92688 0.33907 0.97191 0.25700
C 	C 	0.90740 0.45197 0.92949 0.35700
C 	C 	0.95176 0.48288 0.89440 -0.69700
C 	C 	0.68860 0.46120 0.92080 0.07700
C 	C 	0.65469 0.46038 0.88144 -0.15500
C 	C 	0.66843 0.41871 0.86123 0.10900
C 	C 	0.71068 0.38068 0.87816 -0.17100
C 	C 	0.73960 0.38130 0.91770 0.08900
C 	C 	0.64490 0.41960 0.81500 -0.07300
C 	C 	0.87642 0.65160 0.18686 0.31400
C 	C 	0.87786 0.67535 0.22451 -0.29800
C 	C 	0.83085 0.67132 0.26920 0.16800
C 	C 	0.77903 0.64190 0.27912 -0.22000
C 	C 	0.77701 0.61736 0.24262 0.14800
C 	C 	0.82535 0.62158 0.19576 -0.25400
C 	C 	0.81960 0.59401 0.15883 0.27700
C 	C 	0.88265 0.58313 0.03917 0.33400
C 	C 	0.88611 0.55686 0.99532 -0.65500
C 	C 	0.44775 0.40687 0.74657 0.10800
C 	C 	0.47819 0.40609 0.78333 -0.20400
C 	C 	0.54704 0.42076 0.77436 0.12900
C 	C 	0.58563 0.43415 0.72839 -0.18700
C 	C 	0.55779 0.42398 0.69344 0.10800
C 	C 	0.58450 0.41780 0.81940 -0.17400
C 	C 	0.29284 0.08673 0.91019 0.31800
C 	C 	0.35531 0.08902 0.86596 -0.30300
C 	C 	0.43474 0.06670 0.85842 0.19000
C 	C 	0.45980 0.04176 0.89604 -0.25200
C 	C 	0.40345 0.03621 0.93729 0.18400
C 	C 	0.32128 0.05929 0.94615 -0.28100
C 	C 	0.26512 0.05125 0.99151 0.27800
C 	C 	0.06193 0.08593 0.05339 0.35400
C 	C 	0.99877 0.07971 0.09893 -0.69300
C 	C 	0.17905 0.02905 0.16985 0.28800
C 	C 	0.19551 0.05553 0.20065 -0.27000
C 	C 	0.15790 0.05630 0.24850 0.14500
C 	C 	0.10404 0.02987 0.26865 -0.20900
C 	C 	0.08715 0.00341 0.23769 0.13400
C 	C 	0.12197 0.00258 0.18992 -0.23900
C 	C 	0.10121 0.97191 0.16093 0.25700
C 	C 	0.16311 0.92949 0.04803 0.35800
C 	C 	0.15384 0.89440 0.01712 -0.70200
C 	C 	0.39060 0.92080 0.03880 0.07700
C 	C 	0.46387 0.88144 0.03962 -0.15500
C 	C 	0.47034 0.86123 0.08129 0.10900
C 	C 	0.41116 0.87816 0.11932 -0.17100
C 	C 	0.34270 0.91770 0.11870 0.08900
C 	C 	0.54010 0.81500 0.08040 -0.07300
C 	C 	0.93672 0.18686 0.84840 0.31400
C 	C 	0.89763 0.22451 0.82465 -0.29800
C 	C 	0.89995 0.26920 0.82868 0.16800
C 	C 	0.94185 0.27912 0.85810 -0.22000
C 	C 	0.98037 0.24262 0.88264 0.14800
C 	C 	0.97889 0.19576 0.87842 -0.25400
C 	C 	0.02157 0.15883 0.90599 0.27700
C 	C 	0.07818 0.03917 0.91687 0.33100
C 	C 	0.11857 0.99532 0.94314 -0.64700
C 	C 	0.80568 0.74657 0.09313 0.10800
C 	C 	0.73848 0.78333 0.09391 -0.20400
C 	C 	0.67860 0.77436 0.07924 0.12900
C 	C 	0.68598 0.72839 0.06585 -0.18700
C 	C 	0.74877 0.69344 0.07602 0.10800
C 	C 	0.59610 0.81940 0.08220 -0.17400
C 	C 	0.78976 0.41327 0.58981 0.31900
C 	C 	0.81029 0.41098 0.63404 -0.30300
C 	C 	0.85986 0.43330 0.64158 0.19100
C 	C 	0.89760 0.45824 0.60396 -0.25300
C 	C 	0.87695 0.46379 0.56271 0.18500
C 	C 	0.82672 0.44071 0.55385 -0.28200
C 	C 	0.80788 0.44875 0.50849 0.28100
C 	C 	0.70125 0.41407 0.44661 0.35400
C 	C 	0.67741 0.42029 0.40107 -0.69400
C 	C 	0.87795 0.47095 0.33015 0.28800
C 	C 	0.95169 0.44447 0.29935 -0.27000
C 	C 	0.96270 0.44370 0.25150 0.14500
C 	C 	0.90256 0.47013 0.23135 -0.20900
C 	C 	0.82825 0.49659 0.26231 0.13400
C 	C 	0.81447 0.49742 0.31008 -0.23900
C 	C 	0.73405 0.52809 0.33907 0.25800
C 	C 	0.64063 0.57051 0.45197 0.35700
C 	C 	0.56536 0.60560 0.48288 -0.69700
C 	C 	0.85020 0.57920 0.46120 0.07800
C 	C 	0.88493 0.61856 0.46038 -0.15600
C 	C 	0.91286 0.63877 0.41871 0.11100
C 	C 	0.90864 0.62184 0.38068 -0.17200
C 	C 	0.87910 0.58230 0.38130 0.08900
C 	C 	0.93550 0.68500 0.41960 -0.07800
C 	C 	0.47198 0.31314 0.65160 0.31400
C 	C 	0.44679 0.27549 0.67535 -0.29800
C 	C 	0.49783 0.23080 0.67132 0.16800
C 	C 	0.57907 0.22088 0.64190 -0.22000
C 	C 	0.60563 0.25738 0.61736 0.14800
C 	C 	0.55307 0.30424 0.62158 -0.25400
C 	C 	0.58639 0.34117 0.59401 0.27700
C 	C 	0.53422 0.46083 0.58313 0.33400
C 	C 	0.55703 0.50468 0.55686 -0.65600
C 	C 	0.14538 0.75343 0.40687 0.10800
C 	C 	0.11572 0.71667 0.40609 -0.20400
C 	C 	0.03220 0.72564 0.42076 0.12800
C 	C 	0.98022 0.77161 0.43415 -0.18800
C 	C 	0.01823 0.80656 0.42398 0.10900
C 	C 	0.99770 0.68060 0.41780 -0.17100
C 	C 	0.20303 0.08981 0.58673 0.31900
C 	C 	0.22127 0.13404 0.58902 -0.30300
C 	C 	0.29316 0.14158 0.56670 0.19100
C 	C 	0.35584 0.10396 0.54176 -0.25200
C 	C 	0.34074 0.06271 0.53621 0.18500
C 	C 	0.26743 0.05385 0.55929 -0.28200
C 	C 	0.25663 0.00849 0.55125 0.28100
C 	C 	0.11532 0.94661 0.58593 0.35400
C 	C 	0.09770 0.90107 0.57971 -0.69400
C 	C 	0.34890 0.83015 0.52905 0.28800
C 	C 	0.39616 0.79935 0.55553 -0.27000
C 	C 	0.40640 0.75150 0.55630 0.14500
C 	C 	0.37269 0.73135 0.52987 -0.20900
C 	C 	0.32484 0.76231 0.50341 0.13400
C 	C 	0.31189 0.81008 0.50258 -0.23900
C 	C 	0.26214 0.83907 0.47191 0.25800
C 	C 	0.21114 0.95197 0.42949 0.35700
C 	C 	0.17096 0.98288 0.39440 -0.69800
C 	C 	0.42940 0.96120 0.42080 0.07700
C 	C 	0.50349 0.96038 0.38144 -0.15500
C 	C 	0.55163 0.91871 0.36123 0.10900
C 	C 	0.53048 0.88068 0.37816 -0.17100
C 	C 	0.46140 0.88130 0.41770 0.08900
C 	C 	0.62050 0.91960 0.31500 -0.07300
C 	C 	0.78512 0.15160 0.68686 0.31400
C 	C 	0.72228 0.17535 0.72451 -0.29800
C 	C 	0.72863 0.17132 0.76920 0.16800
C 	C 	0.79995 0.14190 0.77912 -0.22000
C 	C 	0.86301 0.11736 0.74262 0.14800
C 	C 	0.85731 0.12158 0.69576 -0.25400
C 	C 	0.92756 0.09401 0.65883 0.27700
C 	C 	0.99505 0.08313 0.53917 0.33400
C 	C 	0.06171 0.05686 0.49532 -0.65600
C 	C 	0.89881 0.90687 0.24657 0.10800
C 	C 	0.83239 0.90609 0.28333 -0.20400
C 	C 	0.75784 0.92076 0.27436 0.12900
C 	C 	0.75183 0.93415 0.22839 -0.18700
C 	C 	0.82479 0.92398 0.19344 0.10800
C 	C 	0.67830 0.91780 0.31940 -0.17400
C 	C 	0.37957 0.41019 0.91327 0.31900
C 	C 	0.44433 0.36596 0.91098 -0.30300
C 	C 	0.50144 0.35842 0.93330 0.19100
C 	C 	0.50156 0.39604 0.95824 -0.25300
C 	C 	0.43966 0.43729 0.96379 0.18500
C 	C 	0.38057 0.44615 0.94071 -0.28200
C 	C 	0.31637 0.49151 0.94875 0.28100
C 	C 	0.14786 0.55339 0.91407 0.35400
C 	C 	0.07848 0.59893 0.92029 -0.69400
C 	C 	0.20810 0.66985 0.97095 0.28900
C 	C 	0.25104 0.70065 0.94447 -0.27000
C 	C 	0.21420 0.74850 0.94370 0.14600
C 	C 	0.13391 0.76865 0.97013 -0.21000
C 	C 	0.09056 0.73769 0.99659 0.13600
C 	C 	0.12455 0.68992 0.99742 -0.24000
C 	C 	0.07312 0.66093 0.02809 0.25700
C 	C 	0.09260 0.54803 0.07051 0.35700
C 	C 	0.04824 0.51712 0.10560 -0.69700
C 	C 	0.31140 0.53880 0.07920 0.07700
C 	C 	0.34531 0.53962 0.11856 -0.15500
C 	C 	0.33157 0.58129 0.13877 0.10900
C 	C 	0.28932 0.61932 0.12184 -0.17100
C 	C 	0.26040 0.61870 0.08230 0.08900
C 	C 	0.35510 0.58040 0.18500 -0.07300
C 	C 	0.12358 0.34840 0.81314 0.31400
C 	C 	0.12214 0.32465 0.77549 -0.29800
C 	C 	0.16915 0.32868 0.73080 0.16800
C 	C 	0.22097 0.35810 0.72088 -0.22000
C 	C 	0.22299 0.38264 0.75738 0.14800
C 	C 	0.17465 0.37842 0.80424 -0.25400
C 	C 	0.18040 0.40599 0.84117 0.27700
C 	C 	0.11735 0.41687 0.96083 0.33400
C 	C 	0.11389 0.44314 0.00468 -0.65500
C 	C 	0.55225 0.59313 0.25343 0.10800
C 	C 	0.52181 0.59391 0.21667 -0.20400
C 	C 	0.45296 0.57924 0.22564 0.12900
C 	C 	0.41437 0.56585 0.27161 -0.18700
C 	C 	0.44221 0.57602 0.30656 0.10800
C 	C 	0.41550 0.58220 0.18060 -0.17400
N 	N 	0.81419 0.92796 0.99948 -0.29700
N 	N 	0.86224 0.93995 0.95505 -0.25900
N 	N 	0.85603 0.03545 0.88493 -0.28400
N 	N 	0.87673 0.06743 0.90719 -0.25400
N 	N 	0.66507 0.06093 0.92149 -0.22200
N 	N 	0.97349 0.88587 0.09899 -0.28400
N 	N 	0.92932 0.91861 0.07191 -0.25500
N 	N 	0.18748 0.29853 0.91589 -0.23700
N 	N 	0.24163 0.57204 0.50052 -0.29900
N 	N 	0.25724 0.56005 0.54495 -0.25900
N 	N 	0.27641 0.46455 0.61507 -0.28400
N 	N 	0.35135 0.43257 0.59281 -0.25400
N 	N 	0.14749 0.43907 0.57851 -0.22200
N 	N 	0.45835 0.61413 0.40101 -0.28400
N 	N 	0.41984 0.58139 0.42809 -0.25500
N 	N 	0.90190 0.20147 0.58411 -0.23700
N 	N 	0.81367 0.00052 0.42796 -0.29900
N 	N 	0.81729 0.04495 0.43995 -0.25900
N 	N 	0.74096 0.11507 0.53545 -0.28400
N 	N 	0.78392 0.09281 0.56743 -0.25400
N 	N 	0.58656 0.07851 0.56093 -0.22200
N 	N 	0.07248 0.90101 0.38587 -0.28400
N 	N 	0.00123 0.92809 0.41861 -0.25500
N 	N 	0.10337 0.08411 0.79853 -0.23700
N 	N 	0.74215 0.49948 0.07204 -0.29900
N 	N 	0.80219 0.45505 0.06005 -0.25900
N 	N 	0.89148 0.38493 0.96455 -0.28400
N 	N 	0.94416 0.40719 0.93257 -0.25400
N 	N 	0.72600 0.42149 0.93907 -0.22200
N 	N 	0.85936 0.59899 0.11413 -0.28400
N 	N 	0.84793 0.57191 0.08139 -0.25500
N 	N 	0.48601 0.41589 0.70147 -0.23700
N 	N 	0.18581 0.07204 0.00052 -0.29700
N 	N 	0.13776 0.06005 0.04495 -0.25900
N 	N 	0.14397 0.96455 0.11507 -0.28400
N 	N 	0.12327 0.93257 0.09281 -0.25400
N 	N 	0.33493 0.93907 0.07851 -0.22200
N 	N 	0.02651 0.11413 0.90101 -0.28400
N 	N 	0.07068 0.08139 0.92809 -0.25500
N 	N 	0.81252 0.70147 0.08411 -0.23700
N 	N 	0.75837 0.42796 0.49948 -0.29900
N 	N 	0.74276 0.43995 0.45505 -0.25900
N 	N 	0.72359 0.53545 0.38493 -0.28400
N 	N 	0.64865 0.56743 0.40719 -0.25400
N 	N 	0.85251 0.56093 0.42149 -0.22200
N 	N 	0.54165 0.38587 0.59899 -0.28400
N 	N 	0.58016 0.41861 0.57191 -0.25500
N 	N 	0.09810 0.79853 0.41589 -0.23700
N 	N 	0.18633 0.99948 0.57204 -0.29900
N 	N 	0.18271 0.95505 0.56005 -0.25900
N 	N 	0.25904 0.88493 0.46455 -0.28400
N 	N 	0.21608 0.90719 0.43257 -0.25400
N 	N 	0.41344 0.92149 0.43907 -0.22200
N 	N 	0.92752 0.09899 0.61413 -0.28400
N 	N 	0.99877 0.07191 0.58139 -0.25500
N 	N 	0.89663 0.91589 0.20147 -0.23700
N 	N 	0.25785 0.50052 0.92796 -0.29900
N 	N 	0.19781 0.54495 0.93995 -0.25900
N 	N 	0.10852 0.61507 0.03545 -0.28400
N 	N 	0.05584 0.59281 0.06743 -0.25400
N 	N 	0.27400 0.57851 0.06093 -0.22200
N 	N 	0.14064 0.40101 0.88587 -0.28400
N 	N 	0.15207 0.42809 0.91861 -0.25500
N 	N 	0.51399 0.58411 0.29853 -0.23700
O 	O 	0.78284 0.88689 0.08547 -0.48800
O 	O 	0.70508 0.97769 0.97843 -0.40900
O 	O 	0.96239 0.88191 0.97681 -0.48100
O 	O 	0.78111 0.97019 0.87665 -0.46600
O 	O 	0.95430 0.04850 0.81898 -0.41200
O 	O 	0.79047 0.04340 0.97192 -0.46800
O 	O 	0.06814 0.85642 0.15864 -0.47700
O 	O 	0.94495 0.82967 0.06513 -0.42500
O 	O 	0.95129 0.97106 0.11544 -0.46200
O 	O 	0.25520 0.61311 0.41453 -0.48800
O 	O 	0.16120 0.52231 0.52157 -0.41100
O 	O 	0.32111 0.61809 0.52319 -0.48100
O 	O 	0.12795 0.52981 0.62335 -0.46700
O 	O 	0.32178 0.45150 0.68102 -0.41200
O 	O 	0.30579 0.45660 0.52808 -0.46800
O 	O 	0.58320 0.64358 0.34136 -0.47700
O 	O 	0.33975 0.67033 0.43487 -0.42400
O 	O 	0.53779 0.52894 0.38456 -0.46200
O 	O 	0.86831 0.91453 0.38689 -0.48800
O 	O 	0.68351 0.02157 0.47769 -0.41100
O 	O 	0.93920 0.02319 0.38191 -0.48100
O 	O 	0.65776 0.12335 0.47019 -0.46700
O 	O 	0.77328 0.18102 0.54850 -0.41200
O 	O 	0.76239 0.02808 0.54340 -0.46800
O 	O 	0.22678 0.84136 0.35642 -0.47700
O 	O 	0.01008 0.93487 0.32967 -0.42400
O 	O 	0.06673 0.88456 0.47106 -0.46200
O 	O 	0.66973 0.58547 0.11311 -0.48800
O 	O 	0.68277 0.47843 0.02231 -0.41100
O 	O 	0.84430 0.47681 0.11809 -0.48100
O 	O 	0.75130 0.37665 0.02981 -0.46700
O 	O 	0.00280 0.31898 0.95150 -0.41200
O 	O 	0.83387 0.47192 0.95660 -0.46800
O 	O 	0.92456 0.65864 0.14358 -0.47700
O 	O 	0.77462 0.56513 0.17033 -0.42400
O 	O 	0.92235 0.61544 0.02894 -0.46200
O 	O 	0.21716 0.11311 0.91453 -0.48800
O 	O 	0.29492 0.02231 0.02157 -0.40900
O 	O 	0.03761 0.11809 0.02319 -0.48100
O 	O 	0.21889 0.02981 0.12335 -0.46600
O 	O 	0.04570 0.95150 0.18102 -0.41200
O 	O 	0.20953 0.95660 0.02808 -0.46800
O 	O 	0.93186 0.14358 0.84136 -0.47700
O 	O 	0.05505 0.17033 0.93487 -0.42500
O 	O 	0.04871 0.02894 0.88456 -0.46200
O 	O 	0.74480 0.38689 0.58547 -0.48800
O 	O 	0.83880 0.47769 0.47843 -0.41100
O 	O 	0.67889 0.38191 0.47681 -0.48100
O 	O 	0.87205 0.47019 0.37665 -0.46700
O 	O 	0.67822 0.54850 0.31898 -0.41200
O 	O 	0.69421 0.54340 0.47192 -0.46800
O 	O 	0.41680 0.35642 0.65864 -0.47700
O 	O 	0.66025 0.32967 0.56513 -0.42400
O 	O 	0.46221 0.47106 0.61544 -0.46200
O 	O 	0.13169 0.08547 0.61311 -0.48800
O 	O 	0.31649 0.97843 0.52231 -0.41100
O 	O 	0.06080 0.97681 0.61809 -0.48100
O 	O 	0.34224 0.87665 0.52981 -0.46700
O 	O 	0.22672 0.81898 0.45150 -0.41200
O 	O 	0.23761 0.97192 0.45660 -0.46800
O 	O 	0.77322 0.15864 0.64358 -0.47700
O 	O 	0.98992 0.06513 0.67033 -0.42400
O 	O 	0.93327 0.11544 0.52894 -0.46200
O 	O 	0.33027 0.41453 0.88689 -0.48800
O 	O 	0.31723 0.52157 0.97769 -0.41100
O 	O 	0.15570 0.52319 0.88191 -0.48100
O 	O 	0.24870 0.62335 0.97019 -0.46700
O 	O 	0.99720 0.68102 0.04850 -0.41200
O 	O 	0.16613 0.52808 0.04340 -0.46800
O 	O 	0.07544 0.34136 0.85642 -0.47700
O 	O 	0.22538 0.43487 0.82967 -0.42400
O 	O 	0.07765 0.38456 0.97106 -0.46200
