data_crystal

_cell_length_a 40.70900
_cell_length_b 40.70900
_cell_length_c 17.46800
_cell_angle_alpha 90.00000
_cell_angle_beta  90.00000
_cell_angle_gamma 90.00000

_symmetry_space_group_name_	'P 1'
_symmetry_space_group_name_H-M	'P 1'

loop_
_symmetry_equiv_pos_as_xyz
  x,y,z

loop_
_atom_site_label
_atom_site_type_symbol
_atom_site_fract_x
_atom_site_fract_y
_atom_site_fract_z
_atom_site_charge
Mn	Mn	0.29582 0.82420 0.07856 1.31800
O 	O 	0.27079 0.84493 0.00360 -0.49000
O 	O 	0.27751 0.74527 0.93435 -0.41600
O 	O 	0.32031 0.79578 0.14742 -0.43500
N 	N 	0.29019 0.78262 0.02640 -0.29700
N 	N 	0.30590 0.75553 0.06390 -0.23200
C 	C 	0.25513 0.83265 0.94570 0.30900
C 	C 	0.23497 0.85414 0.90100 -0.29000
H 	H 	0.23130 0.87590 0.91890 0.13000
C 	C 	0.22110 0.84490 0.83530 0.16300
H 	H 	0.20810 0.86020 0.80780 -0.03100
C 	C 	0.22520 0.81360 0.80620 -0.21100
H 	H 	0.21580 0.80760 0.75840 0.10300
C 	C 	0.24380 0.79066 0.84970 0.13300
H 	H 	0.24630 0.76880 0.83150 0.00000
C 	C 	0.25829 0.79985 0.91840 -0.25400
C 	C 	0.27600 0.77473 0.96110 0.27500
C 	C 	0.32021 0.76529 0.12590 0.21500
C 	C 	0.33749 0.74004 0.17450 -0.15600
H 	H 	0.35030 0.72560 0.14000 0.06200
H 	H 	0.32060 0.72630 0.19950 0.07300
C 	C 	0.36040 0.75268 0.23590 -0.24600
H 	H 	0.37600 0.76820 0.21320 0.09800
H 	H 	0.37240 0.73420 0.25850 0.09100
H 	H 	0.34760 0.76380 0.27570 0.09700
Mn	Mn	0.28913 0.70912 0.00461 1.33000
O 	O 	0.33059 0.69969 0.96493 -0.47000
O 	O 	0.31744 0.63438 0.15214 -0.41500
O 	O 	0.24693 0.71262 0.05571 -0.41600
N 	N 	0.29370 0.67417 0.07927 -0.28600
N 	N 	0.26550 0.66881 0.12450 -0.22500
N 	N 	0.26291 0.67619 0.91740 -0.24000
C 	C 	0.35236 0.67703 0.98610 0.30600
C 	C 	0.38153 0.67542 0.94350 -0.27500
H 	H 	0.38500 0.69050 0.90270 0.12800
C 	C 	0.40528 0.65222 0.96020 0.15100
H 	H 	0.42440 0.65090 0.92910 -0.03400
C 	C 	0.40175 0.63109 0.02080 -0.22100
H 	H 	0.41840 0.61550 0.03270 0.10300
C 	C 	0.37342 0.63293 0.06430 0.14200
H 	H 	0.37080 0.61840 0.10650 -0.00300
C 	C 	0.34850 0.65562 0.04770 -0.25300
C 	C 	0.31888 0.65447 0.09580 0.27200
C 	C 	0.24278 0.68975 0.10720 0.20300
C 	C 	0.20981 0.68707 0.14460 -0.12400
H 	H 	0.20890 0.66600 0.17280 0.05000
H 	H 	0.20780 0.70500 0.18270 0.06100
C 	C 	0.18114 0.68870 0.09230 -0.27700
H 	H 	0.18360 0.70750 0.05770 0.11200
H 	H 	0.16100 0.69120 0.12240 0.10000
H 	H 	0.17990 0.66840 0.06220 0.10500
C 	C 	0.23340 0.68519 0.89400 0.10200
H 	H 	0.22530 0.70620 0.90860 -0.00400
C 	C 	0.21330 0.66500 0.84850 -0.18800
H 	H 	0.19150 0.67110 0.83560 0.08700
C 	C 	0.22730 0.63485 0.82280 0.16900
C 	C 	0.25340 0.62587 0.85500 -0.24100
H 	H 	0.26110 0.60410 0.84740 0.10600
C 	C 	0.27140 0.64689 0.90130 0.14400
H 	H 	0.29130 0.63890 0.92250 -0.02700
C 	C 	0.21040 0.61233 0.76440 -0.17100
H 	H 	0.22750 0.60290 0.73070 0.07700
H 	H 	0.20010 0.59390 0.79250 0.07300
Mn	Mn	0.22044 0.86339 0.27620 1.33200
O 	O 	0.24060 0.90105 0.31263 -0.47100
O 	O 	0.30292 0.86518 0.13573 -0.42700
O 	O 	0.20526 0.82341 0.22736 -0.42400
N 	N 	0.25618 0.85604 0.20426 -0.28400
N 	N 	0.25359 0.82664 0.16230 -0.22800
N 	N 	0.14199 0.56018 0.55940 -0.23000
C 	C 	0.26571 0.91776 0.28330 0.29900
C 	C 	0.27225 0.94870 0.31460 -0.26900
H 	H 	0.25890 0.95640 0.35540 0.13100
C 	C 	0.29724 0.96817 0.28870 0.14100
H 	H 	0.30080 0.98910 0.31110 -0.02400
C 	C 	0.31769 0.95722 0.22900 -0.20100
H 	H 	0.33500 0.97070 0.21020 0.10500
C 	C 	0.31202 0.92665 0.19870 0.13700
H 	H 	0.32620 0.91880 0.15940 0.01000
C 	C 	0.28634 0.90662 0.22310 -0.24200
C 	C 	0.28177 0.87475 0.18600 0.27500
C 	C 	0.22625 0.81187 0.17830 0.22800
C 	C 	0.21717 0.78092 0.13800 -0.18100
H 	H 	0.23680 0.77100 0.11390 0.07500
H 	H 	0.20790 0.76490 0.17490 0.08500
C 	C 	0.18960 0.79010 0.07200 -0.26300
H 	H 	0.19730 0.80890 0.04190 0.10200
H 	H 	0.18650 0.77110 0.03810 0.10000
H 	H 	0.16870 0.79560 0.09670 0.10400
C 	C 	0.16508 0.58066 0.53640 0.09800
H 	H 	0.17120 0.58080 0.48390 -0.00100
C 	C 	0.18084 0.60207 0.58680 -0.18400
H 	H 	0.19800 0.61590 0.56900 0.09500
C 	C 	0.17130 0.60305 0.66360 0.12900
C 	C 	0.14812 0.58135 0.68540 -0.18900
H 	H 	0.14140 0.58070 0.73740 0.08600
C 	C 	0.13428 0.56045 0.63470 0.10200
H 	H 	0.11840 0.54520 0.65280 -0.01100
C 	C 	0.18700 0.62670 0.71930 -0.13200
H 	H 	0.19720 0.64490 0.69020 0.06500
H 	H 	0.16970 0.63620 0.75240 0.05800
Mn	Mn	0.79582 0.32420 0.57856 1.31900
O 	O 	0.77079 0.34493 0.50360 -0.48800
O 	O 	0.77751 0.24527 0.43435 -0.41500
O 	O 	0.82031 0.29578 0.64742 -0.43400
N 	N 	0.79019 0.28262 0.52640 -0.29500
N 	N 	0.80590 0.25553 0.56390 -0.23100
C 	C 	0.75513 0.33265 0.44570 0.30900
C 	C 	0.73497 0.35414 0.40100 -0.28800
H 	H 	0.73130 0.37590 0.41890 0.13100
C 	C 	0.72110 0.34490 0.33530 0.16300
H 	H 	0.70810 0.36020 0.30780 -0.03000
C 	C 	0.72520 0.31360 0.30620 -0.21000
H 	H 	0.71580 0.30760 0.25840 0.10300
C 	C 	0.74380 0.29066 0.34970 0.13300
H 	H 	0.74630 0.26880 0.33150 0.00100
C 	C 	0.75829 0.29985 0.41840 -0.25300
C 	C 	0.77600 0.27473 0.46110 0.27500
C 	C 	0.82021 0.26529 0.62590 0.21600
C 	C 	0.83749 0.24004 0.67450 -0.15500
H 	H 	0.85030 0.22560 0.64000 0.06300
H 	H 	0.82060 0.22630 0.69950 0.07400
C 	C 	0.86040 0.25268 0.73590 -0.24500
H 	H 	0.87600 0.26820 0.71320 0.09900
H 	H 	0.87240 0.23420 0.75850 0.09200
H 	H 	0.84760 0.26380 0.77570 0.09800
Mn	Mn	0.78913 0.20912 0.50461 1.33200
O 	O 	0.83059 0.19969 0.46493 -0.46900
O 	O 	0.81744 0.13438 0.65214 -0.41300
O 	O 	0.74693 0.21262 0.55571 -0.41500
N 	N 	0.79370 0.17417 0.57927 -0.28500
N 	N 	0.76550 0.16881 0.62450 -0.22400
N 	N 	0.76291 0.17619 0.41740 -0.23900
C 	C 	0.85236 0.17703 0.48610 0.30600
C 	C 	0.88153 0.17542 0.44350 -0.27400
H 	H 	0.88500 0.19050 0.40270 0.12900
C 	C 	0.90528 0.15222 0.46020 0.15100
H 	H 	0.92440 0.15090 0.42910 -0.03200
C 	C 	0.90175 0.13109 0.52080 -0.21900
H 	H 	0.91840 0.11550 0.53270 0.10400
C 	C 	0.87342 0.13293 0.56430 0.14200
H 	H 	0.87080 0.11840 0.60650 -0.00200
C 	C 	0.84850 0.15562 0.54770 -0.25100
C 	C 	0.81888 0.15447 0.59580 0.27200
C 	C 	0.74278 0.18975 0.60720 0.20400
C 	C 	0.70981 0.18707 0.64460 -0.12300
H 	H 	0.70890 0.16600 0.67280 0.05100
H 	H 	0.70780 0.20500 0.68270 0.06200
C 	C 	0.68114 0.18870 0.59230 -0.27600
H 	H 	0.68360 0.20750 0.55770 0.11200
H 	H 	0.66100 0.19120 0.62240 0.10000
H 	H 	0.67990 0.16840 0.56220 0.10500
C 	C 	0.73340 0.18519 0.39400 0.10200
H 	H 	0.72530 0.20620 0.40860 -0.00400
C 	C 	0.71330 0.16500 0.34850 -0.18800
H 	H 	0.69150 0.17110 0.33560 0.08700
C 	C 	0.72730 0.13485 0.32280 0.16900
C 	C 	0.75340 0.12587 0.35500 -0.24100
H 	H 	0.76110 0.10410 0.34740 0.10600
C 	C 	0.77140 0.14689 0.40130 0.14400
H 	H 	0.79130 0.13890 0.42250 -0.02700
C 	C 	0.71040 0.11233 0.26440 -0.17100
H 	H 	0.72750 0.10290 0.23070 0.07700
H 	H 	0.70010 0.09390 0.29250 0.07300
Mn	Mn	0.72044 0.36339 0.77620 1.33200
O 	O 	0.74060 0.40105 0.81263 -0.47100
O 	O 	0.80292 0.36518 0.63573 -0.42700
O 	O 	0.70526 0.32341 0.72736 -0.42400
N 	N 	0.75618 0.35604 0.70426 -0.28400
N 	N 	0.75359 0.32664 0.66230 -0.22800
N 	N 	0.64199 0.06018 0.05940 -0.23000
C 	C 	0.76571 0.41776 0.78330 0.29900
C 	C 	0.77225 0.44870 0.81460 -0.26900
H 	H 	0.75890 0.45640 0.85540 0.13100
C 	C 	0.79724 0.46817 0.78870 0.14100
H 	H 	0.80080 0.48910 0.81110 -0.02400
C 	C 	0.81769 0.45722 0.72900 -0.20100
H 	H 	0.83500 0.47070 0.71020 0.10500
C 	C 	0.81202 0.42665 0.69870 0.13700
H 	H 	0.82620 0.41880 0.65940 0.01000
C 	C 	0.78634 0.40662 0.72310 -0.24200
C 	C 	0.78177 0.37475 0.68600 0.27500
C 	C 	0.72625 0.31187 0.67830 0.22800
C 	C 	0.71717 0.28092 0.63800 -0.18100
H 	H 	0.73680 0.27100 0.61390 0.07500
H 	H 	0.70790 0.26490 0.67490 0.08500
C 	C 	0.68960 0.29010 0.57200 -0.26300
H 	H 	0.69730 0.30890 0.54190 0.10200
H 	H 	0.68650 0.27110 0.53810 0.10000
H 	H 	0.66870 0.29560 0.59670 0.10400
C 	C 	0.66508 0.08066 0.03640 0.09900
H 	H 	0.67120 0.08080 0.98390 -0.00100
C 	C 	0.68084 0.10207 0.08680 -0.18500
H 	H 	0.69800 0.11590 0.06900 0.09500
C 	C 	0.67130 0.10305 0.16360 0.12900
C 	C 	0.64812 0.08135 0.18540 -0.18900
H 	H 	0.64140 0.08070 0.23740 0.08600
C 	C 	0.63428 0.06045 0.13470 0.10200
H 	H 	0.61840 0.04520 0.15280 -0.01100
C 	C 	0.68700 0.12670 0.21930 -0.13200
H 	H 	0.69720 0.14490 0.19020 0.06600
H 	H 	0.66970 0.13620 0.25240 0.05800
Mn	Mn	0.20418 0.17580 0.57856 1.31900
O 	O 	0.22921 0.15507 0.50360 -0.48800
O 	O 	0.22249 0.25473 0.43435 -0.41500
O 	O 	0.17969 0.20422 0.64742 -0.43400
N 	N 	0.20981 0.21738 0.52640 -0.29500
N 	N 	0.19410 0.24447 0.56390 -0.23100
C 	C 	0.24487 0.16735 0.44570 0.30900
C 	C 	0.26503 0.14586 0.40100 -0.28800
H 	H 	0.26870 0.12410 0.41890 0.13100
C 	C 	0.27890 0.15510 0.33530 0.16300
H 	H 	0.29190 0.13980 0.30780 -0.03000
C 	C 	0.27480 0.18640 0.30620 -0.21000
H 	H 	0.28420 0.19240 0.25840 0.10300
C 	C 	0.25620 0.20934 0.34970 0.13300
H 	H 	0.25370 0.23120 0.33150 0.00100
C 	C 	0.24171 0.20015 0.41840 -0.25300
C 	C 	0.22400 0.22527 0.46110 0.27500
C 	C 	0.17979 0.23471 0.62590 0.21600
C 	C 	0.16251 0.25996 0.67450 -0.15500
H 	H 	0.14970 0.27440 0.64000 0.06300
H 	H 	0.17940 0.27370 0.69950 0.07400
C 	C 	0.13960 0.24732 0.73590 -0.24500
H 	H 	0.12400 0.23180 0.71320 0.09900
H 	H 	0.12760 0.26580 0.75850 0.09200
H 	H 	0.15240 0.23620 0.77570 0.09800
Mn	Mn	0.21087 0.29088 0.50461 1.33200
O 	O 	0.16941 0.30031 0.46493 -0.46900
O 	O 	0.18256 0.36562 0.65214 -0.41300
O 	O 	0.25307 0.28738 0.55571 -0.41500
N 	N 	0.20630 0.32583 0.57927 -0.28500
N 	N 	0.23450 0.33119 0.62450 -0.22400
N 	N 	0.23709 0.32381 0.41740 -0.23900
C 	C 	0.14764 0.32297 0.48610 0.30600
C 	C 	0.11847 0.32458 0.44350 -0.27400
H 	H 	0.11500 0.30950 0.40270 0.12900
C 	C 	0.09472 0.34778 0.46020 0.15100
H 	H 	0.07560 0.34910 0.42910 -0.03200
C 	C 	0.09825 0.36891 0.52080 -0.21900
H 	H 	0.08160 0.38450 0.53270 0.10400
C 	C 	0.12658 0.36707 0.56430 0.14200
H 	H 	0.12920 0.38160 0.60650 -0.00200
C 	C 	0.15150 0.34438 0.54770 -0.25100
C 	C 	0.18112 0.34553 0.59580 0.27200
C 	C 	0.25722 0.31025 0.60720 0.20400
C 	C 	0.29019 0.31293 0.64460 -0.12300
H 	H 	0.29110 0.33400 0.67280 0.05100
H 	H 	0.29220 0.29500 0.68270 0.06200
C 	C 	0.31886 0.31130 0.59230 -0.27600
H 	H 	0.31640 0.29250 0.55770 0.11200
H 	H 	0.33900 0.30880 0.62240 0.10000
H 	H 	0.32010 0.33160 0.56220 0.10500
C 	C 	0.26660 0.31481 0.39400 0.10200
H 	H 	0.27470 0.29380 0.40860 -0.00400
C 	C 	0.28670 0.33500 0.34850 -0.18800
H 	H 	0.30850 0.32890 0.33560 0.08700
C 	C 	0.27270 0.36515 0.32280 0.16900
C 	C 	0.24660 0.37413 0.35500 -0.24100
H 	H 	0.23890 0.39590 0.34740 0.10600
C 	C 	0.22860 0.35311 0.40130 0.14400
H 	H 	0.20870 0.36110 0.42250 -0.02700
C 	C 	0.28960 0.38767 0.26440 -0.17100
H 	H 	0.27250 0.39710 0.23070 0.07700
H 	H 	0.29990 0.40610 0.29250 0.07300
Mn	Mn	0.27956 0.13661 0.77620 1.33200
O 	O 	0.25940 0.09895 0.81263 -0.47100
O 	O 	0.19708 0.13482 0.63573 -0.42700
O 	O 	0.29474 0.17659 0.72736 -0.42400
N 	N 	0.24382 0.14396 0.70426 -0.28400
N 	N 	0.24641 0.17336 0.66230 -0.22800
N 	N 	0.35801 0.43982 0.05940 -0.23000
C 	C 	0.23429 0.08224 0.78330 0.29900
C 	C 	0.22775 0.05130 0.81460 -0.26900
H 	H 	0.24110 0.04360 0.85540 0.13100
C 	C 	0.20276 0.03183 0.78870 0.14100
H 	H 	0.19920 0.01090 0.81110 -0.02400
C 	C 	0.18231 0.04278 0.72900 -0.20100
H 	H 	0.16500 0.02930 0.71020 0.10500
C 	C 	0.18798 0.07335 0.69870 0.13700
H 	H 	0.17380 0.08120 0.65940 0.01000
C 	C 	0.21366 0.09338 0.72310 -0.24200
C 	C 	0.21823 0.12525 0.68600 0.27500
C 	C 	0.27375 0.18813 0.67830 0.22800
C 	C 	0.28283 0.21908 0.63800 -0.18100
H 	H 	0.26320 0.22900 0.61390 0.07500
H 	H 	0.29210 0.23510 0.67490 0.08500
C 	C 	0.31040 0.20990 0.57200 -0.26300
H 	H 	0.30270 0.19110 0.54190 0.10200
H 	H 	0.31350 0.22890 0.53810 0.10000
H 	H 	0.33130 0.20440 0.59670 0.10400
C 	C 	0.33492 0.41934 0.03640 0.09900
H 	H 	0.32880 0.41920 0.98390 -0.00100
C 	C 	0.31916 0.39793 0.08680 -0.18500
H 	H 	0.30200 0.38410 0.06900 0.09500
C 	C 	0.32870 0.39695 0.16360 0.12900
C 	C 	0.35188 0.41865 0.18540 -0.18900
H 	H 	0.35860 0.41930 0.23740 0.08600
C 	C 	0.36572 0.43955 0.13470 0.10200
H 	H 	0.38160 0.45480 0.15280 -0.01100
C 	C 	0.31300 0.37330 0.21930 -0.13200
H 	H 	0.30280 0.35510 0.19020 0.06600
H 	H 	0.33030 0.36380 0.25240 0.05800
Mn	Mn	0.70418 0.67580 0.07856 1.31900
O 	O 	0.72921 0.65507 0.00360 -0.48900
O 	O 	0.72249 0.75473 0.93435 -0.41500
O 	O 	0.67969 0.70422 0.14742 -0.43400
N 	N 	0.70981 0.71738 0.02640 -0.29600
N 	N 	0.69410 0.74447 0.06390 -0.23100
C 	C 	0.74487 0.66735 0.94570 0.31000
C 	C 	0.76503 0.64586 0.90100 -0.28900
H 	H 	0.76870 0.62410 0.91890 0.13100
C 	C 	0.77890 0.65510 0.83530 0.16400
H 	H 	0.79190 0.63980 0.80780 -0.03000
C 	C 	0.77480 0.68640 0.80620 -0.21000
H 	H 	0.78420 0.69240 0.75840 0.10400
C 	C 	0.75620 0.70934 0.84970 0.13400
H 	H 	0.75370 0.73120 0.83150 0.00100
C 	C 	0.74171 0.70015 0.91840 -0.25300
C 	C 	0.72400 0.72527 0.96110 0.27600
C 	C 	0.67979 0.73471 0.12590 0.21600
C 	C 	0.66251 0.75996 0.17450 -0.15500
H 	H 	0.64970 0.77440 0.14000 0.06300
H 	H 	0.67940 0.77370 0.19950 0.07400
C 	C 	0.63960 0.74732 0.23590 -0.24500
H 	H 	0.62400 0.73180 0.21320 0.09900
H 	H 	0.62760 0.76580 0.25850 0.09200
H 	H 	0.65240 0.73620 0.27570 0.09800
Mn	Mn	0.71087 0.79088 0.00461 1.33100
O 	O 	0.66941 0.80031 0.96493 -0.46900
O 	O 	0.68256 0.86562 0.15214 -0.41400
O 	O 	0.75307 0.78738 0.05571 -0.41500
N 	N 	0.70630 0.82583 0.07927 -0.28500
N 	N 	0.73450 0.83119 0.12450 -0.22400
N 	N 	0.73709 0.82381 0.91740 -0.23900
C 	C 	0.64764 0.82297 0.98610 0.30700
C 	C 	0.61847 0.82458 0.94350 -0.27500
H 	H 	0.61500 0.80950 0.90270 0.12900
C 	C 	0.59472 0.84778 0.96020 0.15300
H 	H 	0.57560 0.84910 0.92910 -0.03300
C 	C 	0.59825 0.86891 0.02080 -0.22000
H 	H 	0.58160 0.88450 0.03270 0.10400
C 	C 	0.62658 0.86707 0.06430 0.14300
H 	H 	0.62920 0.88160 0.10650 -0.00200
C 	C 	0.65150 0.84438 0.04770 -0.25200
C 	C 	0.68112 0.84553 0.09580 0.27300
C 	C 	0.75722 0.81025 0.10720 0.20400
C 	C 	0.79019 0.81293 0.14460 -0.12300
H 	H 	0.79110 0.83400 0.17280 0.05100
H 	H 	0.79220 0.79500 0.18270 0.06200
C 	C 	0.81886 0.81130 0.09230 -0.27600
H 	H 	0.81640 0.79250 0.05770 0.11200
H 	H 	0.83900 0.80880 0.12240 0.10000
H 	H 	0.82010 0.83160 0.06220 0.10500
C 	C 	0.76660 0.81481 0.89400 0.10200
H 	H 	0.77470 0.79380 0.90860 -0.00400
C 	C 	0.78670 0.83500 0.84850 -0.18800
H 	H 	0.80850 0.82890 0.83560 0.08700
C 	C 	0.77270 0.86515 0.82280 0.16900
C 	C 	0.74660 0.87413 0.85500 -0.24100
H 	H 	0.73890 0.89590 0.84740 0.10600
C 	C 	0.72860 0.85311 0.90130 0.14400
H 	H 	0.70870 0.86110 0.92250 -0.02700
C 	C 	0.78960 0.88767 0.76440 -0.17100
H 	H 	0.77250 0.89710 0.73070 0.07700
H 	H 	0.79990 0.90610 0.79250 0.07300
Mn	Mn	0.77956 0.63661 0.27620 1.33200
O 	O 	0.75940 0.59895 0.31263 -0.47100
O 	O 	0.69708 0.63482 0.13573 -0.42700
O 	O 	0.79474 0.67659 0.22736 -0.42400
N 	N 	0.74382 0.64396 0.20426 -0.28400
N 	N 	0.74641 0.67336 0.16230 -0.22800
N 	N 	0.85801 0.93982 0.55940 -0.23000
C 	C 	0.73429 0.58224 0.28330 0.29900
C 	C 	0.72775 0.55130 0.31460 -0.26900
H 	H 	0.74110 0.54360 0.35540 0.13100
C 	C 	0.70276 0.53183 0.28870 0.14100
H 	H 	0.69920 0.51090 0.31110 -0.02400
C 	C 	0.68231 0.54278 0.22900 -0.20100
H 	H 	0.66500 0.52930 0.21020 0.10500
C 	C 	0.68798 0.57335 0.19870 0.13700
H 	H 	0.67380 0.58120 0.15940 0.01000
C 	C 	0.71366 0.59338 0.22310 -0.24200
C 	C 	0.71823 0.62525 0.18600 0.27500
C 	C 	0.77375 0.68813 0.17830 0.22800
C 	C 	0.78283 0.71908 0.13800 -0.18100
H 	H 	0.76320 0.72900 0.11390 0.07500
H 	H 	0.79210 0.73510 0.17490 0.08500
C 	C 	0.81040 0.70990 0.07200 -0.26300
H 	H 	0.80270 0.69110 0.04190 0.10200
H 	H 	0.81350 0.72890 0.03810 0.10000
H 	H 	0.83130 0.70440 0.09670 0.10400
C 	C 	0.83492 0.91934 0.53640 0.09800
H 	H 	0.82880 0.91920 0.48390 -0.00100
C 	C 	0.81916 0.89793 0.58680 -0.18400
H 	H 	0.80200 0.88410 0.56900 0.09500
C 	C 	0.82870 0.89695 0.66360 0.12900
C 	C 	0.85188 0.91865 0.68540 -0.18900
H 	H 	0.85860 0.91930 0.73740 0.08600
C 	C 	0.86572 0.93955 0.63470 0.10200
H 	H 	0.88160 0.95480 0.65280 -0.01100
C 	C 	0.81300 0.87330 0.71930 -0.13200
H 	H 	0.80280 0.85510 0.69020 0.06500
H 	H 	0.83030 0.86380 0.75240 0.05800
Mn	Mn	0.92580 0.54582 0.32856 1.31900
O 	O 	0.90507 0.52079 0.25360 -0.48800
O 	O 	0.00473 0.52751 0.18435 -0.41500
O 	O 	0.95422 0.57031 0.39742 -0.43400
N 	N 	0.96738 0.54019 0.27640 -0.29500
N 	N 	0.99447 0.55590 0.31390 -0.23100
C 	C 	0.91735 0.50513 0.19570 0.30900
C 	C 	0.89586 0.48497 0.15100 -0.28800
H 	H 	0.87410 0.48130 0.16890 0.13100
C 	C 	0.90510 0.47110 0.08530 0.16300
H 	H 	0.88980 0.45810 0.05780 -0.03000
C 	C 	0.93640 0.47520 0.05620 -0.21000
H 	H 	0.94240 0.46580 0.00840 0.10400
C 	C 	0.95934 0.49380 0.09970 0.13300
H 	H 	0.98120 0.49630 0.08150 0.00100
C 	C 	0.95015 0.50829 0.16840 -0.25300
C 	C 	0.97527 0.52600 0.21110 0.27500
C 	C 	0.98471 0.57021 0.37590 0.21600
C 	C 	0.00996 0.58749 0.42450 -0.15500
H 	H 	0.02440 0.60030 0.39000 0.06300
H 	H 	0.02370 0.57060 0.44950 0.07400
C 	C 	0.99732 0.61040 0.48590 -0.24500
H 	H 	0.98180 0.62600 0.46320 0.09900
H 	H 	0.01580 0.62240 0.50850 0.09200
H 	H 	0.98620 0.59760 0.52570 0.09800
Mn	Mn	0.04088 0.53913 0.25461 1.33200
O 	O 	0.05031 0.58059 0.21493 -0.46900
O 	O 	0.11562 0.56744 0.40214 -0.41300
O 	O 	0.03738 0.49693 0.30571 -0.41500
N 	N 	0.07583 0.54370 0.32927 -0.28500
N 	N 	0.08119 0.51550 0.37450 -0.22400
N 	N 	0.07381 0.51291 0.16740 -0.23900
C 	C 	0.07297 0.60236 0.23610 0.30600
C 	C 	0.07458 0.63153 0.19350 -0.27400
H 	H 	0.05950 0.63500 0.15270 0.12900
C 	C 	0.09778 0.65528 0.21020 0.15100
H 	H 	0.09910 0.67440 0.17910 -0.03200
C 	C 	0.11891 0.65175 0.27080 -0.21900
H 	H 	0.13450 0.66840 0.28270 0.10400
C 	C 	0.11707 0.62342 0.31430 0.14200
H 	H 	0.13160 0.62080 0.35650 -0.00200
C 	C 	0.09438 0.59850 0.29770 -0.25100
C 	C 	0.09553 0.56888 0.34580 0.27200
C 	C 	0.06025 0.49278 0.35720 0.20400
C 	C 	0.06293 0.45981 0.39460 -0.12300
H 	H 	0.08400 0.45890 0.42280 0.05100
H 	H 	0.04500 0.45780 0.43270 0.06200
C 	C 	0.06130 0.43114 0.34230 -0.27600
H 	H 	0.04250 0.43360 0.30770 0.11200
H 	H 	0.05880 0.41100 0.37240 0.10000
H 	H 	0.08160 0.42990 0.31220 0.10600
C 	C 	0.06481 0.48340 0.14400 0.10200
H 	H 	0.04380 0.47530 0.15860 -0.00400
C 	C 	0.08500 0.46330 0.09850 -0.18800
H 	H 	0.07890 0.44150 0.08560 0.08700
C 	C 	0.11515 0.47730 0.07280 0.16900
C 	C 	0.12413 0.50340 0.10500 -0.24100
H 	H 	0.14590 0.51110 0.09740 0.10600
C 	C 	0.10311 0.52140 0.15130 0.14400
H 	H 	0.11110 0.54130 0.17250 -0.02700
C 	C 	0.13767 0.46040 0.01440 -0.16900
H 	H 	0.14710 0.47750 0.98070 0.07600
H 	H 	0.15610 0.45010 0.04250 0.07200
Mn	Mn	0.88661 0.47044 0.52620 1.33200
O 	O 	0.84895 0.49060 0.56263 -0.47100
O 	O 	0.88482 0.55292 0.38573 -0.42700
O 	O 	0.92659 0.45526 0.47736 -0.42400
N 	N 	0.89396 0.50618 0.45426 -0.28400
N 	N 	0.92336 0.50359 0.41230 -0.22800
N 	N 	0.18982 0.39199 0.80940 -0.23000
C 	C 	0.83224 0.51571 0.53330 0.29900
C 	C 	0.80130 0.52225 0.56460 -0.26900
H 	H 	0.79360 0.50890 0.60540 0.13100
C 	C 	0.78183 0.54724 0.53870 0.14100
H 	H 	0.76090 0.55080 0.56110 -0.02400
C 	C 	0.79278 0.56769 0.47900 -0.20100
H 	H 	0.77930 0.58500 0.46020 0.10500
C 	C 	0.82335 0.56202 0.44870 0.13700
H 	H 	0.83120 0.57620 0.40940 0.01000
C 	C 	0.84338 0.53634 0.47310 -0.24200
C 	C 	0.87525 0.53177 0.43600 0.27500
C 	C 	0.93813 0.47625 0.42830 0.22800
C 	C 	0.96908 0.46717 0.38800 -0.18100
H 	H 	0.97900 0.48680 0.36390 0.07500
H 	H 	0.98510 0.45790 0.42490 0.08500
C 	C 	0.95990 0.43960 0.32200 -0.26300
H 	H 	0.94110 0.44730 0.29190 0.10200
H 	H 	0.97890 0.43650 0.28810 0.10000
H 	H 	0.95440 0.41870 0.34670 0.10400
C 	C 	0.16934 0.41508 0.78640 0.09800
H 	H 	0.16920 0.42120 0.73390 -0.00100
C 	C 	0.14793 0.43084 0.83680 -0.18500
H 	H 	0.13410 0.44800 0.81900 0.09500
C 	C 	0.14695 0.42130 0.91360 0.12900
C 	C 	0.16865 0.39812 0.93540 -0.19000
H 	H 	0.16930 0.39140 0.98740 0.08600
C 	C 	0.18955 0.38428 0.88470 0.10200
H 	H 	0.20480 0.36840 0.90280 -0.01100
C 	C 	0.12330 0.43700 0.96930 -0.13400
H 	H 	0.10510 0.44720 0.94020 0.06600
H 	H 	0.11380 0.41970 0.00240 0.05900
Mn	Mn	0.42580 0.04582 0.82856 1.31900
O 	O 	0.40507 0.02079 0.75360 -0.48800
O 	O 	0.50473 0.02751 0.68435 -0.41500
O 	O 	0.45422 0.07031 0.89742 -0.43400
N 	N 	0.46738 0.04019 0.77640 -0.29500
N 	N 	0.49447 0.05590 0.81390 -0.23100
C 	C 	0.41735 0.00513 0.69570 0.30900
C 	C 	0.39586 0.98497 0.65100 -0.28800
H 	H 	0.37410 0.98130 0.66890 0.13100
C 	C 	0.40510 0.97110 0.58530 0.16300
H 	H 	0.38980 0.95810 0.55780 -0.03000
C 	C 	0.43640 0.97520 0.55620 -0.21000
H 	H 	0.44240 0.96580 0.50840 0.10300
C 	C 	0.45934 0.99380 0.59970 0.13300
H 	H 	0.48120 0.99630 0.58150 0.00100
C 	C 	0.45015 0.00829 0.66840 -0.25300
C 	C 	0.47527 0.02600 0.71110 0.27500
C 	C 	0.48471 0.07021 0.87590 0.21500
C 	C 	0.50996 0.08749 0.92450 -0.15400
H 	H 	0.52440 0.10030 0.89000 0.06200
H 	H 	0.52370 0.07060 0.94950 0.07300
C 	C 	0.49732 0.11040 0.98590 -0.24800
H 	H 	0.48180 0.12600 0.96320 0.09900
H 	H 	0.51580 0.12240 0.00850 0.09300
H 	H 	0.48620 0.09760 0.02570 0.09900
Mn	Mn	0.54088 0.03913 0.75461 1.33200
O 	O 	0.55031 0.08059 0.71493 -0.46900
O 	O 	0.61562 0.06744 0.90214 -0.41400
O 	O 	0.53738 0.99693 0.80571 -0.41500
N 	N 	0.57583 0.04370 0.82927 -0.28500
N 	N 	0.58119 0.01550 0.87450 -0.22400
N 	N 	0.57381 0.01291 0.66740 -0.23900
C 	C 	0.57297 0.10236 0.73610 0.30600
C 	C 	0.57458 0.13153 0.69350 -0.27400
H 	H 	0.55950 0.13500 0.65270 0.12900
C 	C 	0.59778 0.15528 0.71020 0.15100
H 	H 	0.59910 0.17440 0.67910 -0.03200
C 	C 	0.61891 0.15175 0.77080 -0.21900
H 	H 	0.63450 0.16840 0.78270 0.10400
C 	C 	0.61707 0.12342 0.81430 0.14200
H 	H 	0.63160 0.12080 0.85650 -0.00200
C 	C 	0.59438 0.09850 0.79770 -0.25100
C 	C 	0.59553 0.06888 0.84580 0.27200
C 	C 	0.56025 0.99278 0.85720 0.20400
C 	C 	0.56293 0.95981 0.89460 -0.12300
H 	H 	0.58400 0.95890 0.92280 0.05100
H 	H 	0.54500 0.95780 0.93270 0.06200
C 	C 	0.56130 0.93114 0.84230 -0.27600
H 	H 	0.54250 0.93360 0.80770 0.11200
H 	H 	0.55880 0.91100 0.87240 0.10000
H 	H 	0.58160 0.92990 0.81220 0.10500
C 	C 	0.56481 0.98340 0.64400 0.10200
H 	H 	0.54380 0.97530 0.65860 -0.00400
C 	C 	0.58500 0.96330 0.59850 -0.18800
H 	H 	0.57890 0.94150 0.58560 0.08700
C 	C 	0.61515 0.97730 0.57280 0.16900
C 	C 	0.62413 0.00340 0.60500 -0.24100
H 	H 	0.64590 0.01110 0.59740 0.10600
C 	C 	0.60311 0.02140 0.65130 0.14400
H 	H 	0.61110 0.04130 0.67250 -0.02700
C 	C 	0.63767 0.96040 0.51440 -0.17100
H 	H 	0.64710 0.97750 0.48070 0.07700
H 	H 	0.65610 0.95010 0.54250 0.07300
Mn	Mn	0.38661 0.97044 0.02620 1.33200
O 	O 	0.34895 0.99060 0.06263 -0.47100
O 	O 	0.38482 0.05292 0.88573 -0.42700
O 	O 	0.42659 0.95526 0.97736 -0.42300
N 	N 	0.39396 0.00618 0.95426 -0.28400
N 	N 	0.42336 0.00359 0.91230 -0.22800
N 	N 	0.68982 0.89199 0.30940 -0.23000
C 	C 	0.33224 0.01571 0.03330 0.30000
C 	C 	0.30130 0.02225 0.06460 -0.27000
H 	H 	0.29360 0.00890 0.10540 0.13200
C 	C 	0.28183 0.04724 0.03870 0.14100
H 	H 	0.26090 0.05080 0.06110 -0.02400
C 	C 	0.29278 0.06769 0.97900 -0.20100
H 	H 	0.27930 0.08500 0.96020 0.10500
C 	C 	0.32335 0.06202 0.94870 0.13700
H 	H 	0.33120 0.07620 0.90940 0.01000
C 	C 	0.34338 0.03634 0.97310 -0.24200
C 	C 	0.37525 0.03177 0.93600 0.27500
C 	C 	0.43813 0.97625 0.92830 0.22800
C 	C 	0.46908 0.96717 0.88800 -0.18100
H 	H 	0.47900 0.98680 0.86390 0.07500
H 	H 	0.48510 0.95790 0.92490 0.08500
C 	C 	0.45990 0.93960 0.82200 -0.26300
H 	H 	0.44110 0.94730 0.79190 0.10200
H 	H 	0.47890 0.93650 0.78810 0.10000
H 	H 	0.45440 0.91870 0.84670 0.10400
C 	C 	0.66934 0.91508 0.28640 0.09800
H 	H 	0.66920 0.92120 0.23390 -0.00100
C 	C 	0.64793 0.93084 0.33680 -0.18400
H 	H 	0.63410 0.94800 0.31900 0.09500
C 	C 	0.64695 0.92130 0.41360 0.12800
C 	C 	0.66865 0.89812 0.43540 -0.18900
H 	H 	0.66930 0.89140 0.48740 0.08600
C 	C 	0.68955 0.88428 0.38470 0.10200
H 	H 	0.70480 0.86840 0.40280 -0.01100
C 	C 	0.62330 0.93700 0.46930 -0.13100
H 	H 	0.60510 0.94720 0.44020 0.06500
H 	H 	0.61380 0.91970 0.50240 0.05800
Mn	Mn	0.57420 0.45418 0.82856 1.31900
O 	O 	0.59493 0.47921 0.75360 -0.48800
O 	O 	0.49527 0.47249 0.68435 -0.41500
O 	O 	0.54578 0.42969 0.89742 -0.43400
N 	N 	0.53262 0.45981 0.77640 -0.29500
N 	N 	0.50553 0.44410 0.81390 -0.23100
C 	C 	0.58265 0.49487 0.69570 0.30900
C 	C 	0.60414 0.51503 0.65100 -0.28800
H 	H 	0.62590 0.51870 0.66890 0.13100
C 	C 	0.59490 0.52890 0.58530 0.16300
H 	H 	0.61020 0.54190 0.55780 -0.03000
C 	C 	0.56360 0.52480 0.55620 -0.21000
H 	H 	0.55760 0.53420 0.50840 0.10300
C 	C 	0.54066 0.50620 0.59970 0.13300
H 	H 	0.51880 0.50370 0.58150 0.00100
C 	C 	0.54985 0.49171 0.66840 -0.25300
C 	C 	0.52473 0.47400 0.71110 0.27500
C 	C 	0.51529 0.42979 0.87590 0.21500
C 	C 	0.49004 0.41251 0.92450 -0.15400
H 	H 	0.47560 0.39970 0.89000 0.06200
H 	H 	0.47630 0.42940 0.94950 0.07300
C 	C 	0.50268 0.38960 0.98590 -0.24800
H 	H 	0.51820 0.37400 0.96320 0.09900
H 	H 	0.48420 0.37760 0.00850 0.09300
H 	H 	0.51380 0.40240 0.02570 0.09900
Mn	Mn	0.45912 0.46087 0.75461 1.33200
O 	O 	0.44969 0.41941 0.71493 -0.46900
O 	O 	0.38438 0.43256 0.90214 -0.41400
O 	O 	0.46262 0.50307 0.80571 -0.41500
N 	N 	0.42417 0.45630 0.82927 -0.28500
N 	N 	0.41881 0.48450 0.87450 -0.22400
N 	N 	0.42619 0.48709 0.66740 -0.23900
C 	C 	0.42703 0.39764 0.73610 0.30600
C 	C 	0.42542 0.36847 0.69350 -0.27400
H 	H 	0.44050 0.36500 0.65270 0.12900
C 	C 	0.40222 0.34472 0.71020 0.15100
H 	H 	0.40090 0.32560 0.67910 -0.03200
C 	C 	0.38109 0.34825 0.77080 -0.21900
H 	H 	0.36550 0.33160 0.78270 0.10400
C 	C 	0.38293 0.37658 0.81430 0.14200
H 	H 	0.36840 0.37920 0.85650 -0.00200
C 	C 	0.40562 0.40150 0.79770 -0.25100
C 	C 	0.40447 0.43112 0.84580 0.27200
C 	C 	0.43975 0.50722 0.85720 0.20400
C 	C 	0.43707 0.54019 0.89460 -0.12300
H 	H 	0.41600 0.54110 0.92280 0.05100
H 	H 	0.45500 0.54220 0.93270 0.06200
C 	C 	0.43870 0.56886 0.84230 -0.27600
H 	H 	0.45750 0.56640 0.80770 0.11200
H 	H 	0.44120 0.58900 0.87240 0.10000
H 	H 	0.41840 0.57010 0.81220 0.10500
C 	C 	0.43519 0.51660 0.64400 0.10200
H 	H 	0.45620 0.52470 0.65860 -0.00400
C 	C 	0.41500 0.53670 0.59850 -0.18800
H 	H 	0.42110 0.55850 0.58560 0.08700
C 	C 	0.38485 0.52270 0.57280 0.16900
C 	C 	0.37587 0.49660 0.60500 -0.24100
H 	H 	0.35410 0.48890 0.59740 0.10600
C 	C 	0.39689 0.47860 0.65130 0.14400
H 	H 	0.38890 0.45870 0.67250 -0.02700
C 	C 	0.36233 0.53960 0.51440 -0.17100
H 	H 	0.35290 0.52250 0.48070 0.07700
H 	H 	0.34390 0.54990 0.54250 0.07300
Mn	Mn	0.61339 0.52956 0.02620 1.33200
O 	O 	0.65105 0.50940 0.06263 -0.47100
O 	O 	0.61518 0.44708 0.88573 -0.42700
O 	O 	0.57341 0.54474 0.97736 -0.42300
N 	N 	0.60604 0.49382 0.95426 -0.28400
N 	N 	0.57664 0.49641 0.91230 -0.22800
N 	N 	0.31018 0.60801 0.30940 -0.23000
C 	C 	0.66776 0.48429 0.03330 0.30000
C 	C 	0.69870 0.47775 0.06460 -0.26900
H 	H 	0.70640 0.49110 0.10540 0.13100
C 	C 	0.71817 0.45276 0.03870 0.14100
H 	H 	0.73910 0.44920 0.06110 -0.02400
C 	C 	0.70722 0.43231 0.97900 -0.20100
H 	H 	0.72070 0.41500 0.96020 0.10500
C 	C 	0.67665 0.43798 0.94870 0.13700
H 	H 	0.66880 0.42380 0.90940 0.01000
C 	C 	0.65662 0.46366 0.97310 -0.24200
C 	C 	0.62475 0.46823 0.93600 0.27500
C 	C 	0.56187 0.52375 0.92830 0.22800
C 	C 	0.53092 0.53283 0.88800 -0.18100
H 	H 	0.52100 0.51320 0.86390 0.07500
H 	H 	0.51490 0.54210 0.92490 0.08500
C 	C 	0.54010 0.56040 0.82200 -0.26300
H 	H 	0.55890 0.55270 0.79190 0.10200
H 	H 	0.52110 0.56350 0.78810 0.10000
H 	H 	0.54560 0.58130 0.84670 0.10400
C 	C 	0.33066 0.58492 0.28640 0.09800
H 	H 	0.33080 0.57880 0.23390 -0.00100
C 	C 	0.35207 0.56916 0.33680 -0.18400
H 	H 	0.36590 0.55200 0.31900 0.09500
C 	C 	0.35305 0.57870 0.41360 0.12800
C 	C 	0.33135 0.60188 0.43540 -0.18900
H 	H 	0.33070 0.60860 0.48740 0.08600
C 	C 	0.31045 0.61572 0.38470 0.10200
H 	H 	0.29520 0.63160 0.40280 -0.01100
C 	C 	0.37670 0.56300 0.46930 -0.13200
H 	H 	0.39490 0.55280 0.44020 0.06500
H 	H 	0.38620 0.58030 0.50240 0.05800
Mn	Mn	0.07420 0.95418 0.32856 1.31900
O 	O 	0.09493 0.97921 0.25360 -0.48800
O 	O 	0.99527 0.97249 0.18435 -0.41500
O 	O 	0.04578 0.92969 0.39742 -0.43400
N 	N 	0.03262 0.95981 0.27640 -0.29500
N 	N 	0.00553 0.94410 0.31390 -0.23100
C 	C 	0.08265 0.99487 0.19570 0.30900
C 	C 	0.10414 0.01503 0.15100 -0.28800
H 	H 	0.12590 0.01870 0.16890 0.13100
C 	C 	0.09490 0.02890 0.08530 0.16300
H 	H 	0.11020 0.04190 0.05780 -0.03000
C 	C 	0.06360 0.02480 0.05620 -0.21000
H 	H 	0.05760 0.03420 0.00840 0.10400
C 	C 	0.04066 0.00620 0.09970 0.13400
H 	H 	0.01880 0.00370 0.08150 0.00100
C 	C 	0.04985 0.99171 0.16840 -0.25300
C 	C 	0.02473 0.97400 0.21110 0.27500
C 	C 	0.01529 0.92979 0.37590 0.21600
C 	C 	0.99004 0.91251 0.42450 -0.15500
H 	H 	0.97560 0.89970 0.39000 0.06300
H 	H 	0.97630 0.92940 0.44950 0.07400
C 	C 	0.00268 0.88960 0.48590 -0.24500
H 	H 	0.01820 0.87400 0.46320 0.09900
H 	H 	0.98420 0.87760 0.50850 0.09200
H 	H 	0.01380 0.90240 0.52570 0.09800
Mn	Mn	0.95912 0.96087 0.25461 1.33200
O 	O 	0.94969 0.91941 0.21493 -0.46900
O 	O 	0.88438 0.93256 0.40214 -0.41300
O 	O 	0.96262 0.00307 0.30571 -0.41500
N 	N 	0.92417 0.95630 0.32927 -0.28500
N 	N 	0.91881 0.98450 0.37450 -0.22400
N 	N 	0.92619 0.98709 0.16740 -0.23900
C 	C 	0.92703 0.89764 0.23610 0.30600
C 	C 	0.92542 0.86847 0.19350 -0.27400
H 	H 	0.94050 0.86500 0.15270 0.12900
C 	C 	0.90222 0.84472 0.21020 0.15100
H 	H 	0.90090 0.82560 0.17910 -0.03200
C 	C 	0.88109 0.84825 0.27080 -0.21900
H 	H 	0.86550 0.83160 0.28270 0.10400
C 	C 	0.88293 0.87658 0.31430 0.14200
H 	H 	0.86840 0.87920 0.35650 -0.00200
C 	C 	0.90562 0.90150 0.29770 -0.25100
C 	C 	0.90447 0.93112 0.34580 0.27200
C 	C 	0.93975 0.00722 0.35720 0.20400
C 	C 	0.93707 0.04019 0.39460 -0.12300
H 	H 	0.91600 0.04110 0.42280 0.05100
H 	H 	0.95500 0.04220 0.43270 0.06200
C 	C 	0.93870 0.06886 0.34230 -0.27600
H 	H 	0.95750 0.06640 0.30770 0.11200
H 	H 	0.94120 0.08900 0.37240 0.10000
H 	H 	0.91840 0.07010 0.31220 0.10600
C 	C 	0.93519 0.01660 0.14400 0.10200
H 	H 	0.95620 0.02470 0.15860 -0.00400
C 	C 	0.91500 0.03670 0.09850 -0.18800
H 	H 	0.92110 0.05850 0.08560 0.08700
C 	C 	0.88485 0.02270 0.07280 0.16900
C 	C 	0.87587 0.99660 0.10500 -0.24100
H 	H 	0.85410 0.98890 0.09740 0.10600
C 	C 	0.89689 0.97860 0.15130 0.14400
H 	H 	0.88890 0.95870 0.17250 -0.02700
C 	C 	0.86233 0.03960 0.01440 -0.16900
H 	H 	0.85290 0.02250 0.98070 0.07600
H 	H 	0.84390 0.04990 0.04250 0.07200
Mn	Mn	0.11339 0.02956 0.52620 1.33200
O 	O 	0.15105 0.00940 0.56263 -0.47100
O 	O 	0.11518 0.94708 0.38573 -0.42700
O 	O 	0.07341 0.04474 0.47736 -0.42400
N 	N 	0.10604 0.99382 0.45426 -0.28400
N 	N 	0.07664 0.99641 0.41230 -0.22800
N 	N 	0.81018 0.10801 0.80940 -0.23000
C 	C 	0.16776 0.98429 0.53330 0.29900
C 	C 	0.19870 0.97775 0.56460 -0.26900
H 	H 	0.20640 0.99110 0.60540 0.13100
C 	C 	0.21817 0.95276 0.53870 0.14100
H 	H 	0.23910 0.94920 0.56110 -0.02400
C 	C 	0.20722 0.93231 0.47900 -0.20100
H 	H 	0.22070 0.91500 0.46020 0.10500
C 	C 	0.17665 0.93798 0.44870 0.13700
H 	H 	0.16880 0.92380 0.40940 0.01000
C 	C 	0.15662 0.96366 0.47310 -0.24200
C 	C 	0.12475 0.96823 0.43600 0.27500
C 	C 	0.06187 0.02375 0.42830 0.22800
C 	C 	0.03092 0.03283 0.38800 -0.18100
H 	H 	0.02100 0.01320 0.36390 0.07500
H 	H 	0.01490 0.04210 0.42490 0.08500
C 	C 	0.04010 0.06040 0.32200 -0.26300
H 	H 	0.05890 0.05270 0.29190 0.10200
H 	H 	0.02110 0.06350 0.28810 0.10000
H 	H 	0.04560 0.08130 0.34670 0.10400
C 	C 	0.83066 0.08492 0.78640 0.09800
H 	H 	0.83080 0.07880 0.73390 -0.00100
C 	C 	0.85207 0.06916 0.83680 -0.18500
H 	H 	0.86590 0.05200 0.81900 0.09500
C 	C 	0.85305 0.07870 0.91360 0.12900
C 	C 	0.83135 0.10188 0.93540 -0.19000
H 	H 	0.83070 0.10860 0.98740 0.08600
C 	C 	0.81045 0.11572 0.88470 0.10200
H 	H 	0.79520 0.13160 0.90280 -0.01100
C 	C 	0.87670 0.06300 0.96930 -0.13400
H 	H 	0.89490 0.05280 0.94020 0.06600
H 	H 	0.88620 0.08030 0.00240 0.05900
Mn	Mn	0.70418 0.17580 0.92144 1.31900
O 	O 	0.72921 0.15507 0.99640 -0.48900
O 	O 	0.72249 0.25473 0.06565 -0.41500
O 	O 	0.67969 0.20422 0.85258 -0.43400
N 	N 	0.70981 0.21738 0.97360 -0.29600
N 	N 	0.69410 0.24447 0.93610 -0.23100
C 	C 	0.74487 0.16735 0.05430 0.31000
C 	C 	0.76503 0.14586 0.09900 -0.28900
H 	H 	0.76870 0.12410 0.08110 0.13100
C 	C 	0.77890 0.15510 0.16470 0.16400
H 	H 	0.79190 0.13980 0.19220 -0.03000
C 	C 	0.77480 0.18640 0.19380 -0.21000
H 	H 	0.78420 0.19240 0.24160 0.10400
C 	C 	0.75620 0.20934 0.15030 0.13400
H 	H 	0.75370 0.23120 0.16850 0.00100
C 	C 	0.74171 0.20015 0.08160 -0.25300
C 	C 	0.72400 0.22527 0.03890 0.27600
C 	C 	0.67979 0.23471 0.87410 0.21600
C 	C 	0.66251 0.25996 0.82550 -0.15500
H 	H 	0.64970 0.27440 0.86000 0.06300
H 	H 	0.67940 0.27370 0.80050 0.07400
C 	C 	0.63960 0.24732 0.76410 -0.24500
H 	H 	0.62400 0.23180 0.78680 0.09900
H 	H 	0.62760 0.26580 0.74150 0.09200
H 	H 	0.65240 0.23620 0.72430 0.09800
Mn	Mn	0.71087 0.29088 0.99539 1.33100
O 	O 	0.66941 0.30031 0.03507 -0.46900
O 	O 	0.68256 0.36562 0.84786 -0.41400
O 	O 	0.75307 0.28738 0.94429 -0.41500
N 	N 	0.70630 0.32583 0.92073 -0.28500
N 	N 	0.73450 0.33119 0.87550 -0.22400
N 	N 	0.73709 0.32381 0.08260 -0.23900
C 	C 	0.64764 0.32297 0.01390 0.30700
C 	C 	0.61847 0.32458 0.05650 -0.27400
H 	H 	0.61500 0.30950 0.09730 0.12900
C 	C 	0.59472 0.34778 0.03980 0.15200
H 	H 	0.57560 0.34910 0.07090 -0.03300
C 	C 	0.59825 0.36891 0.97920 -0.22000
H 	H 	0.58160 0.38450 0.96730 0.10400
C 	C 	0.62658 0.36707 0.93570 0.14300
H 	H 	0.62920 0.38160 0.89350 -0.00200
C 	C 	0.65150 0.34438 0.95230 -0.25200
C 	C 	0.68112 0.34553 0.90420 0.27300
C 	C 	0.75722 0.31025 0.89280 0.20400
C 	C 	0.79019 0.31293 0.85540 -0.12300
H 	H 	0.79110 0.33400 0.82720 0.05100
H 	H 	0.79220 0.29500 0.81730 0.06200
C 	C 	0.81886 0.31130 0.90770 -0.27600
H 	H 	0.81640 0.29250 0.94230 0.11200
H 	H 	0.83900 0.30880 0.87760 0.10000
H 	H 	0.82010 0.33160 0.93780 0.10500
C 	C 	0.76660 0.31481 0.10600 0.10200
H 	H 	0.77470 0.29380 0.09140 -0.00400
C 	C 	0.78670 0.33500 0.15150 -0.18800
H 	H 	0.80850 0.32890 0.16440 0.08700
C 	C 	0.77270 0.36515 0.17720 0.16900
C 	C 	0.74660 0.37413 0.14500 -0.24100
H 	H 	0.73890 0.39590 0.15260 0.10600
C 	C 	0.72860 0.35311 0.09870 0.14400
H 	H 	0.70870 0.36110 0.07750 -0.02700
C 	C 	0.78960 0.38767 0.23560 -0.17100
H 	H 	0.77250 0.39710 0.26930 0.07700
H 	H 	0.79990 0.40610 0.20750 0.07300
Mn	Mn	0.77956 0.13661 0.72380 1.33200
O 	O 	0.75940 0.09895 0.68737 -0.47100
O 	O 	0.69708 0.13482 0.86427 -0.42700
O 	O 	0.79474 0.17659 0.77264 -0.42400
N 	N 	0.74382 0.14396 0.79574 -0.28400
N 	N 	0.74641 0.17336 0.83770 -0.22800
N 	N 	0.85801 0.43982 0.44060 -0.23000
C 	C 	0.73429 0.08224 0.71670 0.29900
C 	C 	0.72775 0.05130 0.68540 -0.26900
H 	H 	0.74110 0.04360 0.64460 0.13100
C 	C 	0.70276 0.03183 0.71130 0.14100
H 	H 	0.69920 0.01090 0.68890 -0.02400
C 	C 	0.68231 0.04278 0.77100 -0.20100
H 	H 	0.66500 0.02930 0.78980 0.10500
C 	C 	0.68798 0.07335 0.80130 0.13700
H 	H 	0.67380 0.08120 0.84060 0.01000
C 	C 	0.71366 0.09338 0.77690 -0.24200
C 	C 	0.71823 0.12525 0.81400 0.27500
C 	C 	0.77375 0.18813 0.82170 0.22800
C 	C 	0.78283 0.21908 0.86200 -0.18100
H 	H 	0.76320 0.22900 0.88610 0.07500
H 	H 	0.79210 0.23510 0.82510 0.08500
C 	C 	0.81040 0.20990 0.92800 -0.26300
H 	H 	0.80270 0.19110 0.95810 0.10200
H 	H 	0.81350 0.22890 0.96190 0.10000
H 	H 	0.83130 0.20440 0.90330 0.10400
C 	C 	0.83492 0.41934 0.46360 0.09800
H 	H 	0.82880 0.41920 0.51610 -0.00100
C 	C 	0.81916 0.39793 0.41320 -0.18400
H 	H 	0.80200 0.38410 0.43100 0.09500
C 	C 	0.82870 0.39695 0.33640 0.12900
C 	C 	0.85188 0.41865 0.31460 -0.18900
H 	H 	0.85860 0.41930 0.26260 0.08600
C 	C 	0.86572 0.43955 0.36530 0.10200
H 	H 	0.88160 0.45480 0.34720 -0.01100
C 	C 	0.81300 0.37330 0.28070 -0.13200
H 	H 	0.80280 0.35510 0.30980 0.06500
H 	H 	0.83030 0.36380 0.24760 0.05800
Mn	Mn	0.20418 0.67580 0.42144 1.31900
O 	O 	0.22921 0.65507 0.49640 -0.48800
O 	O 	0.22249 0.75473 0.56565 -0.41500
O 	O 	0.17969 0.70422 0.35258 -0.43400
N 	N 	0.20981 0.71738 0.47360 -0.29500
N 	N 	0.19410 0.74447 0.43610 -0.23100
C 	C 	0.24487 0.66735 0.55430 0.30900
C 	C 	0.26503 0.64586 0.59900 -0.28800
H 	H 	0.26870 0.62410 0.58110 0.13100
C 	C 	0.27890 0.65510 0.66470 0.16300
H 	H 	0.29190 0.63980 0.69220 -0.03000
C 	C 	0.27480 0.68640 0.69380 -0.21000
H 	H 	0.28420 0.69240 0.74160 0.10300
C 	C 	0.25620 0.70934 0.65030 0.13300
H 	H 	0.25370 0.73120 0.66850 0.00100
C 	C 	0.24171 0.70015 0.58160 -0.25300
C 	C 	0.22400 0.72527 0.53890 0.27500
C 	C 	0.17979 0.73471 0.37410 0.21600
C 	C 	0.16251 0.75996 0.32550 -0.15500
H 	H 	0.14970 0.77440 0.36000 0.06300
H 	H 	0.17940 0.77370 0.30050 0.07400
C 	C 	0.13960 0.74732 0.26410 -0.24500
H 	H 	0.12400 0.73180 0.28680 0.09900
H 	H 	0.12760 0.76580 0.24150 0.09200
H 	H 	0.15240 0.73620 0.22430 0.09800
Mn	Mn	0.21087 0.79088 0.49539 1.33200
O 	O 	0.16941 0.80031 0.53507 -0.46900
O 	O 	0.18256 0.86562 0.34786 -0.41300
O 	O 	0.25307 0.78738 0.44429 -0.41500
N 	N 	0.20630 0.82583 0.42073 -0.28500
N 	N 	0.23450 0.83119 0.37550 -0.22400
N 	N 	0.23709 0.82381 0.58260 -0.23900
C 	C 	0.14764 0.82297 0.51390 0.30600
C 	C 	0.11847 0.82458 0.55650 -0.27400
H 	H 	0.11500 0.80950 0.59730 0.12900
C 	C 	0.09472 0.84778 0.53980 0.15100
H 	H 	0.07560 0.84910 0.57090 -0.03200
C 	C 	0.09825 0.86891 0.47920 -0.21900
H 	H 	0.08160 0.88450 0.46730 0.10400
C 	C 	0.12658 0.86707 0.43570 0.14200
H 	H 	0.12920 0.88160 0.39350 -0.00200
C 	C 	0.15150 0.84438 0.45230 -0.25100
C 	C 	0.18112 0.84553 0.40420 0.27200
C 	C 	0.25722 0.81025 0.39280 0.20400
C 	C 	0.29019 0.81293 0.35540 -0.12300
H 	H 	0.29110 0.83400 0.32720 0.05100
H 	H 	0.29220 0.79500 0.31730 0.06200
C 	C 	0.31886 0.81130 0.40770 -0.27600
H 	H 	0.31640 0.79250 0.44230 0.11200
H 	H 	0.33900 0.80880 0.37760 0.10000
H 	H 	0.32010 0.83160 0.43780 0.10500
C 	C 	0.26660 0.81481 0.60600 0.10200
H 	H 	0.27470 0.79380 0.59140 -0.00400
C 	C 	0.28670 0.83500 0.65150 -0.18800
H 	H 	0.30850 0.82890 0.66440 0.08700
C 	C 	0.27270 0.86515 0.67720 0.16900
C 	C 	0.24660 0.87413 0.64500 -0.24100
H 	H 	0.23890 0.89590 0.65260 0.10600
C 	C 	0.22860 0.85311 0.59870 0.14400
H 	H 	0.20870 0.86110 0.57750 -0.02700
C 	C 	0.28960 0.88767 0.73560 -0.17100
H 	H 	0.27250 0.89710 0.76930 0.07700
H 	H 	0.29990 0.90610 0.70750 0.07300
Mn	Mn	0.27956 0.63661 0.22380 1.33200
O 	O 	0.25940 0.59895 0.18737 -0.47100
O 	O 	0.19708 0.63482 0.36427 -0.42700
O 	O 	0.29474 0.67659 0.27264 -0.42400
N 	N 	0.24382 0.64396 0.29574 -0.28400
N 	N 	0.24641 0.67336 0.33770 -0.22800
N 	N 	0.35801 0.93982 0.94060 -0.23000
C 	C 	0.23429 0.58224 0.21670 0.29900
C 	C 	0.22775 0.55130 0.18540 -0.26900
H 	H 	0.24110 0.54360 0.14460 0.13100
C 	C 	0.20276 0.53183 0.21130 0.14100
H 	H 	0.19920 0.51090 0.18890 -0.02400
C 	C 	0.18231 0.54278 0.27100 -0.20100
H 	H 	0.16500 0.52930 0.28980 0.10500
C 	C 	0.18798 0.57335 0.30130 0.13700
H 	H 	0.17380 0.58120 0.34060 0.01000
C 	C 	0.21366 0.59338 0.27690 -0.24200
C 	C 	0.21823 0.62525 0.31400 0.27500
C 	C 	0.27375 0.68813 0.32170 0.22800
C 	C 	0.28283 0.71908 0.36200 -0.18100
H 	H 	0.26320 0.72900 0.38610 0.07500
H 	H 	0.29210 0.73510 0.32510 0.08500
C 	C 	0.31040 0.70990 0.42800 -0.26300
H 	H 	0.30270 0.69110 0.45810 0.10200
H 	H 	0.31350 0.72890 0.46190 0.10000
H 	H 	0.33130 0.70440 0.40330 0.10400
C 	C 	0.33492 0.91934 0.96360 0.09900
H 	H 	0.32880 0.91920 0.01610 -0.00100
C 	C 	0.31916 0.89793 0.91320 -0.18500
H 	H 	0.30200 0.88410 0.93100 0.09500
C 	C 	0.32870 0.89695 0.83640 0.12900
C 	C 	0.35188 0.91865 0.81460 -0.18900
H 	H 	0.35860 0.91930 0.76260 0.08600
C 	C 	0.36572 0.93955 0.86530 0.10200
H 	H 	0.38160 0.95480 0.84720 -0.01100
C 	C 	0.31300 0.87330 0.78070 -0.13200
H 	H 	0.30280 0.85510 0.80980 0.06600
H 	H 	0.33030 0.86380 0.74760 0.05800
Mn	Mn	0.79582 0.82420 0.42144 1.31900
O 	O 	0.77079 0.84493 0.49640 -0.48800
O 	O 	0.77751 0.74527 0.56565 -0.41500
O 	O 	0.82031 0.79578 0.35258 -0.43400
N 	N 	0.79019 0.78262 0.47360 -0.29500
N 	N 	0.80590 0.75553 0.43610 -0.23100
C 	C 	0.75513 0.83265 0.55430 0.30900
C 	C 	0.73497 0.85414 0.59900 -0.28800
H 	H 	0.73130 0.87590 0.58110 0.13100
C 	C 	0.72110 0.84490 0.66470 0.16300
H 	H 	0.70810 0.86020 0.69220 -0.03000
C 	C 	0.72520 0.81360 0.69380 -0.21000
H 	H 	0.71580 0.80760 0.74160 0.10300
C 	C 	0.74380 0.79066 0.65030 0.13300
H 	H 	0.74630 0.76880 0.66850 0.00100
C 	C 	0.75829 0.79985 0.58160 -0.25300
C 	C 	0.77600 0.77473 0.53890 0.27500
C 	C 	0.82021 0.76529 0.37410 0.21600
C 	C 	0.83749 0.74004 0.32550 -0.15500
H 	H 	0.85030 0.72560 0.36000 0.06300
H 	H 	0.82060 0.72630 0.30050 0.07400
C 	C 	0.86040 0.75268 0.26410 -0.24500
H 	H 	0.87600 0.76820 0.28680 0.09900
H 	H 	0.87240 0.73420 0.24150 0.09200
H 	H 	0.84760 0.76380 0.22430 0.09800
Mn	Mn	0.78913 0.70912 0.49539 1.33200
O 	O 	0.83059 0.69969 0.53507 -0.46900
O 	O 	0.81744 0.63438 0.34786 -0.41300
O 	O 	0.74693 0.71262 0.44429 -0.41500
N 	N 	0.79370 0.67417 0.42073 -0.28500
N 	N 	0.76550 0.66881 0.37550 -0.22400
N 	N 	0.76291 0.67619 0.58260 -0.23900
C 	C 	0.85236 0.67703 0.51390 0.30600
C 	C 	0.88153 0.67542 0.55650 -0.27400
H 	H 	0.88500 0.69050 0.59730 0.12900
C 	C 	0.90528 0.65222 0.53980 0.15100
H 	H 	0.92440 0.65090 0.57090 -0.03200
C 	C 	0.90175 0.63109 0.47920 -0.21900
H 	H 	0.91840 0.61550 0.46730 0.10400
C 	C 	0.87342 0.63293 0.43570 0.14200
H 	H 	0.87080 0.61840 0.39350 -0.00200
C 	C 	0.84850 0.65562 0.45230 -0.25100
C 	C 	0.81888 0.65447 0.40420 0.27200
C 	C 	0.74278 0.68975 0.39280 0.20400
C 	C 	0.70981 0.68707 0.35540 -0.12300
H 	H 	0.70890 0.66600 0.32720 0.05100
H 	H 	0.70780 0.70500 0.31730 0.06200
C 	C 	0.68114 0.68870 0.40770 -0.27600
H 	H 	0.68360 0.70750 0.44230 0.11200
H 	H 	0.66100 0.69120 0.37760 0.10000
H 	H 	0.67990 0.66840 0.43780 0.10500
C 	C 	0.73340 0.68519 0.60600 0.10200
H 	H 	0.72530 0.70620 0.59140 -0.00400
C 	C 	0.71330 0.66500 0.65150 -0.18800
H 	H 	0.69150 0.67110 0.66440 0.08700
C 	C 	0.72730 0.63485 0.67720 0.16900
C 	C 	0.75340 0.62587 0.64500 -0.24100
H 	H 	0.76110 0.60410 0.65260 0.10600
C 	C 	0.77140 0.64689 0.59870 0.14400
H 	H 	0.79130 0.63890 0.57750 -0.02700
C 	C 	0.71040 0.61233 0.73560 -0.17100
H 	H 	0.72750 0.60290 0.76930 0.07700
H 	H 	0.70010 0.59390 0.70750 0.07300
Mn	Mn	0.72044 0.86339 0.22380 1.33200
O 	O 	0.74060 0.90105 0.18737 -0.47100
O 	O 	0.80292 0.86518 0.36427 -0.42700
O 	O 	0.70526 0.82341 0.27264 -0.42400
N 	N 	0.75618 0.85604 0.29574 -0.28400
N 	N 	0.75359 0.82664 0.33770 -0.22800
N 	N 	0.64199 0.56018 0.94060 -0.23000
C 	C 	0.76571 0.91776 0.21670 0.29900
C 	C 	0.77225 0.94870 0.18540 -0.26900
H 	H 	0.75890 0.95640 0.14460 0.13100
C 	C 	0.79724 0.96817 0.21130 0.14100
H 	H 	0.80080 0.98910 0.18890 -0.02400
C 	C 	0.81769 0.95722 0.27100 -0.20100
H 	H 	0.83500 0.97070 0.28980 0.10500
C 	C 	0.81202 0.92665 0.30130 0.13700
H 	H 	0.82620 0.91880 0.34060 0.01000
C 	C 	0.78634 0.90662 0.27690 -0.24200
C 	C 	0.78177 0.87475 0.31400 0.27500
C 	C 	0.72625 0.81187 0.32170 0.22800
C 	C 	0.71717 0.78092 0.36200 -0.18100
H 	H 	0.73680 0.77100 0.38610 0.07500
H 	H 	0.70790 0.76490 0.32510 0.08500
C 	C 	0.68960 0.79010 0.42800 -0.26300
H 	H 	0.69730 0.80890 0.45810 0.10200
H 	H 	0.68650 0.77110 0.46190 0.10000
H 	H 	0.66870 0.79560 0.40330 0.10400
C 	C 	0.66508 0.58066 0.96360 0.09900
H 	H 	0.67120 0.58080 0.01610 -0.00100
C 	C 	0.68084 0.60207 0.91320 -0.18500
H 	H 	0.69800 0.61590 0.93100 0.09500
C 	C 	0.67130 0.60305 0.83640 0.12900
C 	C 	0.64812 0.58135 0.81460 -0.18900
H 	H 	0.64140 0.58070 0.76260 0.08600
C 	C 	0.63428 0.56045 0.86530 0.10200
H 	H 	0.61840 0.54520 0.84720 -0.01100
C 	C 	0.68700 0.62670 0.78070 -0.13200
H 	H 	0.69720 0.64490 0.80980 0.06600
H 	H 	0.66970 0.63620 0.74760 0.05800
Mn	Mn	0.29582 0.32420 0.92144 1.31900
O 	O 	0.27079 0.34493 0.99640 -0.48900
O 	O 	0.27751 0.24527 0.06565 -0.41500
O 	O 	0.32031 0.29578 0.85258 -0.43400
N 	N 	0.29019 0.28262 0.97360 -0.29600
N 	N 	0.30590 0.25553 0.93610 -0.23100
C 	C 	0.25513 0.33265 0.05430 0.31000
C 	C 	0.23497 0.35414 0.09900 -0.28900
H 	H 	0.23130 0.37590 0.08110 0.13100
C 	C 	0.22110 0.34490 0.16470 0.16400
H 	H 	0.20810 0.36020 0.19220 -0.03000
C 	C 	0.22520 0.31360 0.19380 -0.21000
H 	H 	0.21580 0.30760 0.24160 0.10400
C 	C 	0.24380 0.29066 0.15030 0.13400
H 	H 	0.24630 0.26880 0.16850 0.00100
C 	C 	0.25829 0.29985 0.08160 -0.25300
C 	C 	0.27600 0.27473 0.03890 0.27600
C 	C 	0.32021 0.26529 0.87410 0.21600
C 	C 	0.33749 0.24004 0.82550 -0.15500
H 	H 	0.35030 0.22560 0.86000 0.06300
H 	H 	0.32060 0.22630 0.80050 0.07400
C 	C 	0.36040 0.25268 0.76410 -0.24500
H 	H 	0.37600 0.26820 0.78680 0.09900
H 	H 	0.37240 0.23420 0.74150 0.09200
H 	H 	0.34760 0.26380 0.72430 0.09800
Mn	Mn	0.28913 0.20912 0.99539 1.33100
O 	O 	0.33059 0.19969 0.03507 -0.46900
O 	O 	0.31744 0.13438 0.84786 -0.41400
O 	O 	0.24693 0.21262 0.94429 -0.41500
N 	N 	0.29370 0.17417 0.92073 -0.28500
N 	N 	0.26550 0.16881 0.87550 -0.22400
N 	N 	0.26291 0.17619 0.08260 -0.23900
C 	C 	0.35236 0.17703 0.01390 0.30700
C 	C 	0.38153 0.17542 0.05650 -0.27500
H 	H 	0.38500 0.19050 0.09730 0.12900
C 	C 	0.40528 0.15222 0.03980 0.15300
H 	H 	0.42440 0.15090 0.07090 -0.03300
C 	C 	0.40175 0.13109 0.97920 -0.22000
H 	H 	0.41840 0.11550 0.96730 0.10400
C 	C 	0.37342 0.13293 0.93570 0.14300
H 	H 	0.37080 0.11840 0.89350 -0.00200
C 	C 	0.34850 0.15562 0.95230 -0.25200
C 	C 	0.31888 0.15447 0.90420 0.27300
C 	C 	0.24278 0.18975 0.89280 0.20400
C 	C 	0.20981 0.18707 0.85540 -0.12300
H 	H 	0.20890 0.16600 0.82720 0.05100
H 	H 	0.20780 0.20500 0.81730 0.06200
C 	C 	0.18114 0.18870 0.90770 -0.27600
H 	H 	0.18360 0.20750 0.94230 0.11200
H 	H 	0.16100 0.19120 0.87760 0.10000
H 	H 	0.17990 0.16840 0.93780 0.10500
C 	C 	0.23340 0.18519 0.10600 0.10200
H 	H 	0.22530 0.20620 0.09140 -0.00400
C 	C 	0.21330 0.16500 0.15150 -0.18800
H 	H 	0.19150 0.17110 0.16440 0.08700
C 	C 	0.22730 0.13485 0.17720 0.16900
C 	C 	0.25340 0.12587 0.14500 -0.24100
H 	H 	0.26110 0.10410 0.15260 0.10600
C 	C 	0.27140 0.14689 0.09870 0.14400
H 	H 	0.29130 0.13890 0.07750 -0.02700
C 	C 	0.21040 0.11233 0.23560 -0.17100
H 	H 	0.22750 0.10290 0.26930 0.07700
H 	H 	0.20010 0.09390 0.20750 0.07300
Mn	Mn	0.22044 0.36339 0.72380 1.33200
O 	O 	0.24060 0.40105 0.68737 -0.47100
O 	O 	0.30292 0.36518 0.86427 -0.42700
O 	O 	0.20526 0.32341 0.77264 -0.42400
N 	N 	0.25618 0.35604 0.79574 -0.28400
N 	N 	0.25359 0.32664 0.83770 -0.22800
N 	N 	0.14199 0.06018 0.44060 -0.23000
C 	C 	0.26571 0.41776 0.71670 0.29900
C 	C 	0.27225 0.44870 0.68540 -0.26900
H 	H 	0.25890 0.45640 0.64460 0.13100
C 	C 	0.29724 0.46817 0.71130 0.14100
H 	H 	0.30080 0.48910 0.68890 -0.02400
C 	C 	0.31769 0.45722 0.77100 -0.20100
H 	H 	0.33500 0.47070 0.78980 0.10500
C 	C 	0.31202 0.42665 0.80130 0.13700
H 	H 	0.32620 0.41880 0.84060 0.01000
C 	C 	0.28634 0.40662 0.77690 -0.24200
C 	C 	0.28177 0.37475 0.81400 0.27500
C 	C 	0.22625 0.31187 0.82170 0.22800
C 	C 	0.21717 0.28092 0.86200 -0.18100
H 	H 	0.23680 0.27100 0.88610 0.07500
H 	H 	0.20790 0.26490 0.82510 0.08500
C 	C 	0.18960 0.29010 0.92800 -0.26300
H 	H 	0.19730 0.30890 0.95810 0.10200
H 	H 	0.18650 0.27110 0.96190 0.10000
H 	H 	0.16870 0.29560 0.90330 0.10400
C 	C 	0.16508 0.08066 0.46360 0.09800
H 	H 	0.17120 0.08080 0.51610 -0.00100
C 	C 	0.18084 0.10207 0.41320 -0.18400
H 	H 	0.19800 0.11590 0.43100 0.09500
C 	C 	0.17130 0.10305 0.33640 0.12900
C 	C 	0.14812 0.08135 0.31460 -0.18900
H 	H 	0.14140 0.08070 0.26260 0.08600
C 	C 	0.13428 0.06045 0.36530 0.10200
H 	H 	0.11840 0.04520 0.34720 -0.01100
C 	C 	0.18700 0.12670 0.28070 -0.13200
H 	H 	0.19720 0.14490 0.30980 0.06500
H 	H 	0.16970 0.13620 0.24760 0.05800
Mn	Mn	0.07420 0.45418 0.67144 1.31900
O 	O 	0.09493 0.47921 0.74640 -0.48800
O 	O 	0.99527 0.47249 0.81565 -0.41500
O 	O 	0.04578 0.42969 0.60258 -0.43400
N 	N 	0.03262 0.45981 0.72360 -0.29500
N 	N 	0.00553 0.44410 0.68610 -0.23100
C 	C 	0.08265 0.49487 0.80430 0.30900
C 	C 	0.10414 0.51503 0.84900 -0.28800
H 	H 	0.12590 0.51870 0.83110 0.13100
C 	C 	0.09490 0.52890 0.91470 0.16300
H 	H 	0.11020 0.54190 0.94220 -0.03000
C 	C 	0.06360 0.52480 0.94380 -0.21000
H 	H 	0.05760 0.53420 0.99160 0.10400
C 	C 	0.04066 0.50620 0.90030 0.13300
H 	H 	0.01880 0.50370 0.91850 0.00100
C 	C 	0.04985 0.49171 0.83160 -0.25300
C 	C 	0.02473 0.47400 0.78890 0.27500
C 	C 	0.01529 0.42979 0.62410 0.21600
C 	C 	0.99004 0.41251 0.57550 -0.15500
H 	H 	0.97560 0.39970 0.61000 0.06300
H 	H 	0.97630 0.42940 0.55050 0.07400
C 	C 	0.00268 0.38960 0.51410 -0.24500
H 	H 	0.01820 0.37400 0.53680 0.09900
H 	H 	0.98420 0.37760 0.49150 0.09200
H 	H 	0.01380 0.40240 0.47430 0.09800
Mn	Mn	0.95912 0.46087 0.74539 1.33200
O 	O 	0.94969 0.41941 0.78507 -0.46900
O 	O 	0.88438 0.43256 0.59786 -0.41300
O 	O 	0.96262 0.50307 0.69429 -0.41500
N 	N 	0.92417 0.45630 0.67073 -0.28500
N 	N 	0.91881 0.48450 0.62550 -0.22400
N 	N 	0.92619 0.48709 0.83260 -0.23900
C 	C 	0.92703 0.39764 0.76390 0.30600
C 	C 	0.92542 0.36847 0.80650 -0.27400
H 	H 	0.94050 0.36500 0.84730 0.12900
C 	C 	0.90222 0.34472 0.78980 0.15100
H 	H 	0.90090 0.32560 0.82090 -0.03200
C 	C 	0.88109 0.34825 0.72920 -0.21900
H 	H 	0.86550 0.33160 0.71730 0.10400
C 	C 	0.88293 0.37658 0.68570 0.14200
H 	H 	0.86840 0.37920 0.64350 -0.00200
C 	C 	0.90562 0.40150 0.70230 -0.25100
C 	C 	0.90447 0.43112 0.65420 0.27200
C 	C 	0.93975 0.50722 0.64280 0.20400
C 	C 	0.93707 0.54019 0.60540 -0.12300
H 	H 	0.91600 0.54110 0.57720 0.05100
H 	H 	0.95500 0.54220 0.56730 0.06200
C 	C 	0.93870 0.56886 0.65770 -0.27600
H 	H 	0.95750 0.56640 0.69230 0.11200
H 	H 	0.94120 0.58900 0.62760 0.10000
H 	H 	0.91840 0.57010 0.68780 0.10600
C 	C 	0.93519 0.51660 0.85600 0.10200
H 	H 	0.95620 0.52470 0.84140 -0.00400
C 	C 	0.91500 0.53670 0.90150 -0.18800
H 	H 	0.92110 0.55850 0.91440 0.08700
C 	C 	0.88485 0.52270 0.92720 0.16900
C 	C 	0.87587 0.49660 0.89500 -0.24100
H 	H 	0.85410 0.48890 0.90260 0.10600
C 	C 	0.89689 0.47860 0.84870 0.14400
H 	H 	0.88890 0.45870 0.82750 -0.02700
C 	C 	0.86233 0.53960 0.98560 -0.16900
H 	H 	0.85290 0.52250 0.01930 0.07600
H 	H 	0.84390 0.54990 0.95750 0.07200
Mn	Mn	0.11339 0.52956 0.47380 1.33200
O 	O 	0.15105 0.50940 0.43737 -0.47100
O 	O 	0.11518 0.44708 0.61427 -0.42700
O 	O 	0.07341 0.54474 0.52264 -0.42400
N 	N 	0.10604 0.49382 0.54574 -0.28400
N 	N 	0.07664 0.49641 0.58770 -0.22800
N 	N 	0.81018 0.60801 0.19060 -0.23000
C 	C 	0.16776 0.48429 0.46670 0.29900
C 	C 	0.19870 0.47775 0.43540 -0.26900
H 	H 	0.20640 0.49110 0.39460 0.13100
C 	C 	0.21817 0.45276 0.46130 0.14100
H 	H 	0.23910 0.44920 0.43890 -0.02400
C 	C 	0.20722 0.43231 0.52100 -0.20100
H 	H 	0.22070 0.41500 0.53980 0.10500
C 	C 	0.17665 0.43798 0.55130 0.13700
H 	H 	0.16880 0.42380 0.59060 0.01000
C 	C 	0.15662 0.46366 0.52690 -0.24200
C 	C 	0.12475 0.46823 0.56400 0.27500
C 	C 	0.06187 0.52375 0.57170 0.22800
C 	C 	0.03092 0.53283 0.61200 -0.18100
H 	H 	0.02100 0.51320 0.63610 0.07500
H 	H 	0.01490 0.54210 0.57510 0.08500
C 	C 	0.04010 0.56040 0.67800 -0.26300
H 	H 	0.05890 0.55270 0.70810 0.10200
H 	H 	0.02110 0.56350 0.71190 0.10000
H 	H 	0.04560 0.58130 0.65330 0.10400
C 	C 	0.83066 0.58492 0.21360 0.09800
H 	H 	0.83080 0.57880 0.26610 -0.00100
C 	C 	0.85207 0.56916 0.16320 -0.18500
H 	H 	0.86590 0.55200 0.18100 0.09500
C 	C 	0.85305 0.57870 0.08640 0.12900
C 	C 	0.83135 0.60188 0.06460 -0.19000
H 	H 	0.83070 0.60860 0.01260 0.08600
C 	C 	0.81045 0.61572 0.11530 0.10200
H 	H 	0.79520 0.63160 0.09720 -0.01100
C 	C 	0.87670 0.56300 0.03070 -0.13400
H 	H 	0.89490 0.55280 0.05980 0.06600
H 	H 	0.88620 0.58030 0.99760 0.05900
Mn	Mn	0.57420 0.95418 0.17144 1.31900
O 	O 	0.59493 0.97921 0.24640 -0.48800
O 	O 	0.49527 0.97249 0.31565 -0.41500
O 	O 	0.54578 0.92969 0.10258 -0.43400
N 	N 	0.53262 0.95981 0.22360 -0.29500
N 	N 	0.50553 0.94410 0.18610 -0.23100
C 	C 	0.58265 0.99487 0.30430 0.30900
C 	C 	0.60414 0.01503 0.34900 -0.28800
H 	H 	0.62590 0.01870 0.33110 0.13100
C 	C 	0.59490 0.02890 0.41470 0.16300
H 	H 	0.61020 0.04190 0.44220 -0.03000
C 	C 	0.56360 0.02480 0.44380 -0.21000
H 	H 	0.55760 0.03420 0.49160 0.10300
C 	C 	0.54066 0.00620 0.40030 0.13300
H 	H 	0.51880 0.00370 0.41850 0.00100
C 	C 	0.54985 0.99171 0.33160 -0.25300
C 	C 	0.52473 0.97400 0.28890 0.27500
C 	C 	0.51529 0.92979 0.12410 0.21500
C 	C 	0.49004 0.91251 0.07550 -0.15400
H 	H 	0.47560 0.89970 0.11000 0.06200
H 	H 	0.47630 0.92940 0.05050 0.07300
C 	C 	0.50268 0.88960 0.01410 -0.24800
H 	H 	0.51820 0.87400 0.03680 0.09900
H 	H 	0.48420 0.87760 0.99150 0.09300
H 	H 	0.51380 0.90240 0.97430 0.09900
Mn	Mn	0.45912 0.96087 0.24539 1.33200
O 	O 	0.44969 0.91941 0.28507 -0.46900
O 	O 	0.38438 0.93256 0.09786 -0.41400
O 	O 	0.46262 0.00307 0.19429 -0.41500
N 	N 	0.42417 0.95630 0.17073 -0.28500
N 	N 	0.41881 0.98450 0.12550 -0.22400
N 	N 	0.42619 0.98709 0.33260 -0.23900
C 	C 	0.42703 0.89764 0.26390 0.30600
C 	C 	0.42542 0.86847 0.30650 -0.27400
H 	H 	0.44050 0.86500 0.34730 0.12900
C 	C 	0.40222 0.84472 0.28980 0.15100
H 	H 	0.40090 0.82560 0.32090 -0.03200
C 	C 	0.38109 0.84825 0.22920 -0.21900
H 	H 	0.36550 0.83160 0.21730 0.10400
C 	C 	0.38293 0.87658 0.18570 0.14200
H 	H 	0.36840 0.87920 0.14350 -0.00200
C 	C 	0.40562 0.90150 0.20230 -0.25100
C 	C 	0.40447 0.93112 0.15420 0.27200
C 	C 	0.43975 0.00722 0.14280 0.20400
C 	C 	0.43707 0.04019 0.10540 -0.12300
H 	H 	0.41600 0.04110 0.07720 0.05100
H 	H 	0.45500 0.04220 0.06730 0.06200
C 	C 	0.43870 0.06886 0.15770 -0.27600
H 	H 	0.45750 0.06640 0.19230 0.11200
H 	H 	0.44120 0.08900 0.12760 0.10000
H 	H 	0.41840 0.07010 0.18780 0.10500
C 	C 	0.43519 0.01660 0.35600 0.10200
H 	H 	0.45620 0.02470 0.34140 -0.00400
C 	C 	0.41500 0.03670 0.40150 -0.18800
H 	H 	0.42110 0.05850 0.41440 0.08700
C 	C 	0.38485 0.02270 0.42720 0.16900
C 	C 	0.37587 0.99660 0.39500 -0.24100
H 	H 	0.35410 0.98890 0.40260 0.10600
C 	C 	0.39689 0.97860 0.34870 0.14400
H 	H 	0.38890 0.95870 0.32750 -0.02700
C 	C 	0.36233 0.03960 0.48560 -0.17100
H 	H 	0.35290 0.02250 0.51930 0.07700
H 	H 	0.34390 0.04990 0.45750 0.07300
Mn	Mn	0.61339 0.02956 0.97380 1.33200
O 	O 	0.65105 0.00940 0.93737 -0.47100
O 	O 	0.61518 0.94708 0.11427 -0.42700
O 	O 	0.57341 0.04474 0.02264 -0.42300
N 	N 	0.60604 0.99382 0.04574 -0.28400
N 	N 	0.57664 0.99641 0.08770 -0.22800
N 	N 	0.31018 0.10801 0.69060 -0.23000
C 	C 	0.66776 0.98429 0.96670 0.30000
C 	C 	0.69870 0.97775 0.93540 -0.27000
H 	H 	0.70640 0.99110 0.89460 0.13200
C 	C 	0.71817 0.95276 0.96130 0.14100
H 	H 	0.73910 0.94920 0.93890 -0.02400
C 	C 	0.70722 0.93231 0.02100 -0.20100
H 	H 	0.72070 0.91500 0.03980 0.10500
C 	C 	0.67665 0.93798 0.05130 0.13700
H 	H 	0.66880 0.92380 0.09060 0.01000
C 	C 	0.65662 0.96366 0.02690 -0.24200
C 	C 	0.62475 0.96823 0.06400 0.27500
C 	C 	0.56187 0.02375 0.07170 0.22800
C 	C 	0.53092 0.03283 0.11200 -0.18100
H 	H 	0.52100 0.01320 0.13610 0.07500
H 	H 	0.51490 0.04210 0.07510 0.08500
C 	C 	0.54010 0.06040 0.17800 -0.26300
H 	H 	0.55890 0.05270 0.20810 0.10200
H 	H 	0.52110 0.06350 0.21190 0.10000
H 	H 	0.54560 0.08130 0.15330 0.10400
C 	C 	0.33066 0.08492 0.71360 0.09800
H 	H 	0.33080 0.07880 0.76610 -0.00100
C 	C 	0.35207 0.06916 0.66320 -0.18400
H 	H 	0.36590 0.05200 0.68100 0.09500
C 	C 	0.35305 0.07870 0.58640 0.12800
C 	C 	0.33135 0.10188 0.56460 -0.18900
H 	H 	0.33070 0.10860 0.51260 0.08600
C 	C 	0.31045 0.11572 0.61530 0.10200
H 	H 	0.29520 0.13160 0.59720 -0.01100
C 	C 	0.37670 0.06300 0.53070 -0.13100
H 	H 	0.39490 0.05280 0.55980 0.06500
H 	H 	0.38620 0.08030 0.49760 0.05800
Mn	Mn	0.42580 0.54582 0.17144 1.31900
O 	O 	0.40507 0.52079 0.24640 -0.48800
O 	O 	0.50473 0.52751 0.31565 -0.41500
O 	O 	0.45422 0.57031 0.10258 -0.43400
N 	N 	0.46738 0.54019 0.22360 -0.29500
N 	N 	0.49447 0.55590 0.18610 -0.23100
C 	C 	0.41735 0.50513 0.30430 0.30900
C 	C 	0.39586 0.48497 0.34900 -0.28800
H 	H 	0.37410 0.48130 0.33110 0.13100
C 	C 	0.40510 0.47110 0.41470 0.16300
H 	H 	0.38980 0.45810 0.44220 -0.03000
C 	C 	0.43640 0.47520 0.44380 -0.21000
H 	H 	0.44240 0.46580 0.49160 0.10300
C 	C 	0.45934 0.49380 0.40030 0.13300
H 	H 	0.48120 0.49630 0.41850 0.00100
C 	C 	0.45015 0.50829 0.33160 -0.25300
C 	C 	0.47527 0.52600 0.28890 0.27500
C 	C 	0.48471 0.57021 0.12410 0.21500
C 	C 	0.50996 0.58749 0.07550 -0.15400
H 	H 	0.52440 0.60030 0.11000 0.06200
H 	H 	0.52370 0.57060 0.05050 0.07300
C 	C 	0.49732 0.61040 0.01410 -0.24800
H 	H 	0.48180 0.62600 0.03680 0.09900
H 	H 	0.51580 0.62240 0.99150 0.09300
H 	H 	0.48620 0.59760 0.97430 0.09900
Mn	Mn	0.54088 0.53913 0.24539 1.33200
O 	O 	0.55031 0.58059 0.28507 -0.46900
O 	O 	0.61562 0.56744 0.09786 -0.41400
O 	O 	0.53738 0.49693 0.19429 -0.41500
N 	N 	0.57583 0.54370 0.17073 -0.28500
N 	N 	0.58119 0.51550 0.12550 -0.22400
N 	N 	0.57381 0.51291 0.33260 -0.23900
C 	C 	0.57297 0.60236 0.26390 0.30600
C 	C 	0.57458 0.63153 0.30650 -0.27400
H 	H 	0.55950 0.63500 0.34730 0.12900
C 	C 	0.59778 0.65528 0.28980 0.15100
H 	H 	0.59910 0.67440 0.32090 -0.03200
C 	C 	0.61891 0.65175 0.22920 -0.21900
H 	H 	0.63450 0.66840 0.21730 0.10400
C 	C 	0.61707 0.62342 0.18570 0.14200
H 	H 	0.63160 0.62080 0.14350 -0.00200
C 	C 	0.59438 0.59850 0.20230 -0.25100
C 	C 	0.59553 0.56888 0.15420 0.27200
C 	C 	0.56025 0.49278 0.14280 0.20400
C 	C 	0.56293 0.45981 0.10540 -0.12300
H 	H 	0.58400 0.45890 0.07720 0.05100
H 	H 	0.54500 0.45780 0.06730 0.06200
C 	C 	0.56130 0.43114 0.15770 -0.27600
H 	H 	0.54250 0.43360 0.19230 0.11200
H 	H 	0.55880 0.41100 0.12760 0.10000
H 	H 	0.58160 0.42990 0.18780 0.10500
C 	C 	0.56481 0.48340 0.35600 0.10200
H 	H 	0.54380 0.47530 0.34140 -0.00400
C 	C 	0.58500 0.46330 0.40150 -0.18800
H 	H 	0.57890 0.44150 0.41440 0.08700
C 	C 	0.61515 0.47730 0.42720 0.16900
C 	C 	0.62413 0.50340 0.39500 -0.24100
H 	H 	0.64590 0.51110 0.40260 0.10600
C 	C 	0.60311 0.52140 0.34870 0.14400
H 	H 	0.61110 0.54130 0.32750 -0.02700
C 	C 	0.63767 0.46040 0.48560 -0.17100
H 	H 	0.64710 0.47750 0.51930 0.07700
H 	H 	0.65610 0.45010 0.45750 0.07300
Mn	Mn	0.38661 0.47044 0.97380 1.33200
O 	O 	0.34895 0.49060 0.93737 -0.47100
O 	O 	0.38482 0.55292 0.11427 -0.42700
O 	O 	0.42659 0.45526 0.02264 -0.42300
N 	N 	0.39396 0.50618 0.04574 -0.28400
N 	N 	0.42336 0.50359 0.08770 -0.22800
N 	N 	0.68982 0.39199 0.69060 -0.23000
C 	C 	0.33224 0.51571 0.96670 0.30000
C 	C 	0.30130 0.52225 0.93540 -0.26900
H 	H 	0.29360 0.50890 0.89460 0.13100
C 	C 	0.28183 0.54724 0.96130 0.14100
H 	H 	0.26090 0.55080 0.93890 -0.02400
C 	C 	0.29278 0.56769 0.02100 -0.20100
H 	H 	0.27930 0.58500 0.03980 0.10500
C 	C 	0.32335 0.56202 0.05130 0.13700
H 	H 	0.33120 0.57620 0.09060 0.01000
C 	C 	0.34338 0.53634 0.02690 -0.24200
C 	C 	0.37525 0.53177 0.06400 0.27500
C 	C 	0.43813 0.47625 0.07170 0.22800
C 	C 	0.46908 0.46717 0.11200 -0.18100
H 	H 	0.47900 0.48680 0.13610 0.07500
H 	H 	0.48510 0.45790 0.07510 0.08500
C 	C 	0.45990 0.43960 0.17800 -0.26300
H 	H 	0.44110 0.44730 0.20810 0.10200
H 	H 	0.47890 0.43650 0.21190 0.10000
H 	H 	0.45440 0.41870 0.15330 0.10400
C 	C 	0.66934 0.41508 0.71360 0.09800
H 	H 	0.66920 0.42120 0.76610 -0.00100
C 	C 	0.64793 0.43084 0.66320 -0.18400
H 	H 	0.63410 0.44800 0.68100 0.09500
C 	C 	0.64695 0.42130 0.58640 0.12800
C 	C 	0.66865 0.39812 0.56460 -0.18900
H 	H 	0.66930 0.39140 0.51260 0.08600
C 	C 	0.68955 0.38428 0.61530 0.10200
H 	H 	0.70480 0.36840 0.59720 -0.01100
C 	C 	0.62330 0.43700 0.53070 -0.13200
H 	H 	0.60510 0.44720 0.55980 0.06500
H 	H 	0.61380 0.41970 0.49760 0.05800
Mn	Mn	0.92580 0.04582 0.67144 1.31900
O 	O 	0.90507 0.02079 0.74640 -0.48800
O 	O 	0.00473 0.02751 0.81565 -0.41500
O 	O 	0.95422 0.07031 0.60258 -0.43400
N 	N 	0.96738 0.04019 0.72360 -0.29500
N 	N 	0.99447 0.05590 0.68610 -0.23100
C 	C 	0.91735 0.00513 0.80430 0.30900
C 	C 	0.89586 0.98497 0.84900 -0.28800
H 	H 	0.87410 0.98130 0.83110 0.13100
C 	C 	0.90510 0.97110 0.91470 0.16300
H 	H 	0.88980 0.95810 0.94220 -0.03000
C 	C 	0.93640 0.97520 0.94380 -0.21000
H 	H 	0.94240 0.96580 0.99160 0.10400
C 	C 	0.95934 0.99380 0.90030 0.13400
H 	H 	0.98120 0.99630 0.91850 0.00100
C 	C 	0.95015 0.00829 0.83160 -0.25300
C 	C 	0.97527 0.02600 0.78890 0.27500
C 	C 	0.98471 0.07021 0.62410 0.21600
C 	C 	0.00996 0.08749 0.57550 -0.15500
H 	H 	0.02440 0.10030 0.61000 0.06300
H 	H 	0.02370 0.07060 0.55050 0.07400
C 	C 	0.99732 0.11040 0.51410 -0.24500
H 	H 	0.98180 0.12600 0.53680 0.09900
H 	H 	0.01580 0.12240 0.49150 0.09200
H 	H 	0.98620 0.09760 0.47430 0.09800
Mn	Mn	0.04088 0.03913 0.74539 1.33200
O 	O 	0.05031 0.08059 0.78507 -0.46900
O 	O 	0.11562 0.06744 0.59786 -0.41300
O 	O 	0.03738 0.99693 0.69429 -0.41500
N 	N 	0.07583 0.04370 0.67073 -0.28500
N 	N 	0.08119 0.01550 0.62550 -0.22400
N 	N 	0.07381 0.01291 0.83260 -0.23900
C 	C 	0.07297 0.10236 0.76390 0.30600
C 	C 	0.07458 0.13153 0.80650 -0.27400
H 	H 	0.05950 0.13500 0.84730 0.12900
C 	C 	0.09778 0.15528 0.78980 0.15100
H 	H 	0.09910 0.17440 0.82090 -0.03200
C 	C 	0.11891 0.15175 0.72920 -0.21900
H 	H 	0.13450 0.16840 0.71730 0.10400
C 	C 	0.11707 0.12342 0.68570 0.14200
H 	H 	0.13160 0.12080 0.64350 -0.00200
C 	C 	0.09438 0.09850 0.70230 -0.25100
C 	C 	0.09553 0.06888 0.65420 0.27200
C 	C 	0.06025 0.99278 0.64280 0.20400
C 	C 	0.06293 0.95981 0.60540 -0.12300
H 	H 	0.08400 0.95890 0.57720 0.05100
H 	H 	0.04500 0.95780 0.56730 0.06200
C 	C 	0.06130 0.93114 0.65770 -0.27600
H 	H 	0.04250 0.93360 0.69230 0.11200
H 	H 	0.05880 0.91100 0.62760 0.10000
H 	H 	0.08160 0.92990 0.68780 0.10600
C 	C 	0.06481 0.98340 0.85600 0.10200
H 	H 	0.04380 0.97530 0.84140 -0.00400
C 	C 	0.08500 0.96330 0.90150 -0.18800
H 	H 	0.07890 0.94150 0.91440 0.08700
C 	C 	0.11515 0.97730 0.92720 0.16900
C 	C 	0.12413 0.00340 0.89500 -0.24100
H 	H 	0.14590 0.01110 0.90260 0.10600
C 	C 	0.10311 0.02140 0.84870 0.14400
H 	H 	0.11110 0.04130 0.82750 -0.02700
C 	C 	0.13767 0.96040 0.98560 -0.16900
H 	H 	0.14710 0.97750 0.01930 0.07600
H 	H 	0.15610 0.95010 0.95750 0.07200
Mn	Mn	0.88661 0.97044 0.47380 1.33200
O 	O 	0.84895 0.99060 0.43737 -0.47100
O 	O 	0.88482 0.05292 0.61427 -0.42700
O 	O 	0.92659 0.95526 0.52264 -0.42400
N 	N 	0.89396 0.00618 0.54574 -0.28400
N 	N 	0.92336 0.00359 0.58770 -0.22800
N 	N 	0.18982 0.89199 0.19060 -0.23000
C 	C 	0.83224 0.01571 0.46670 0.29900
C 	C 	0.80130 0.02225 0.43540 -0.26900
H 	H 	0.79360 0.00890 0.39460 0.13100
C 	C 	0.78183 0.04724 0.46130 0.14100
H 	H 	0.76090 0.05080 0.43890 -0.02400
C 	C 	0.79278 0.06769 0.52100 -0.20100
H 	H 	0.77930 0.08500 0.53980 0.10500
C 	C 	0.82335 0.06202 0.55130 0.13700
H 	H 	0.83120 0.07620 0.59060 0.01000
C 	C 	0.84338 0.03634 0.52690 -0.24200
C 	C 	0.87525 0.03177 0.56400 0.27500
C 	C 	0.93813 0.97625 0.57170 0.22800
C 	C 	0.96908 0.96717 0.61200 -0.18100
H 	H 	0.97900 0.98680 0.63610 0.07500
H 	H 	0.98510 0.95790 0.57510 0.08500
C 	C 	0.95990 0.93960 0.67800 -0.26300
H 	H 	0.94110 0.94730 0.70810 0.10200
H 	H 	0.97890 0.93650 0.71190 0.10000
H 	H 	0.95440 0.91870 0.65330 0.10400
C 	C 	0.16934 0.91508 0.21360 0.09800
H 	H 	0.16920 0.92120 0.26610 -0.00100
C 	C 	0.14793 0.93084 0.16320 -0.18500
H 	H 	0.13410 0.94800 0.18100 0.09500
C 	C 	0.14695 0.92130 0.08640 0.12900
C 	C 	0.16865 0.89812 0.06460 -0.19000
H 	H 	0.16930 0.89140 0.01260 0.08600
C 	C 	0.18955 0.88428 0.11530 0.10200
H 	H 	0.20480 0.86840 0.09720 -0.01100
C 	C 	0.12330 0.93700 0.03070 -0.13400
H 	H 	0.10510 0.94720 0.05980 0.06600
H 	H 	0.11380 0.91970 0.99760 0.05900
