data_crystal

_cell_length_a 17.47260
_cell_length_b 30.07330
_cell_length_c 30.07330
_cell_angle_alpha 85.15900
_cell_angle_beta  73.11200
_cell_angle_gamma 73.11210

_symmetry_space_group_name_	'P 1'
_symmetry_space_group_name_H-M	'P 1'

loop_
_symmetry_equiv_pos_as_xyz
  x,y,z

loop_
_atom_site_label
_atom_site_type_symbol
_atom_site_fract_x
_atom_site_fract_y
_atom_site_fract_z
_atom_site_charge
Mn	Mn	0.08857 0.91672 0.35642 1.33300
Mn	Mn	0.25950 0.88330 0.46368 1.32000
Mn	Mn	0.79697 0.99760 0.42180 1.33300
Mn	Mn	0.86171 0.58328 0.14358 1.33500
Mn	Mn	0.10648 0.61670 0.03632 1.32000
Mn	Mn	0.71637 0.50240 0.07820 1.33300
Mn	Mn	0.44499 0.64358 0.41672 1.33500
Mn	Mn	0.72318 0.53632 0.38330 1.32000
Mn	Mn	0.21877 0.57820 0.49760 1.33300
Mn	Mn	0.00529 0.85642 0.08328 1.33400
Mn	Mn	0.14280 0.96368 0.11670 1.31900
Mn	Mn	0.79457 0.92180 0.00240 1.33300
Mn	Mn	0.91143 0.08328 0.64358 1.33400
Mn	Mn	0.74050 0.11670 0.53632 1.32000
Mn	Mn	0.20303 0.00240 0.57820 1.33300
Mn	Mn	0.13829 0.41672 0.85642 1.33500
Mn	Mn	0.89352 0.38330 0.96368 1.32000
Mn	Mn	0.28363 0.49760 0.92180 1.33300
Mn	Mn	0.55501 0.35642 0.58328 1.33500
Mn	Mn	0.27682 0.46368 0.61670 1.32000
Mn	Mn	0.78123 0.42180 0.50240 1.33300
Mn	Mn	0.99471 0.14358 0.91672 1.33400
Mn	Mn	0.85720 0.03632 0.88330 1.31900
Mn	Mn	0.20543 0.07820 0.99760 1.33300
H 	H 	0.27040 0.75680 0.40140 0.00200
H 	H 	0.25960 0.69580 0.36400 0.11000
H 	H 	0.16860 0.71040 0.31800 -0.03700
H 	H 	0.08820 0.78490 0.30990 0.13300
H 	H 	0.11110 0.02860 0.43400 0.05800
H 	H 	0.18570 0.99360 0.45100 0.04800
H 	H 	0.20850 0.02730 0.35670 0.13000
H 	H 	0.28160 0.99780 0.37820 0.11700
H 	H 	0.19240 0.07780 0.42700 -0.09300
H 	H 	0.22940 0.08880 0.37380 -0.10400
H 	H 	0.30460 0.04670 0.43330 0.20000
H 	H 	0.34530 0.05210 0.37930 0.18600
H 	H 	0.25810 0.13760 0.42520 0.01000
H 	H 	0.33990 0.10990 0.44030 0.00300
H 	H 	0.34700 0.12450 0.38710 0.00300
H 	H 	0.15550 0.90690 0.24590 -0.00400
H 	H 	0.27040 0.90480 0.18380 0.09400
H 	H 	0.39560 0.91350 0.27410 0.08300
H 	H 	0.27730 0.91500 0.33380 -0.00900
H 	H 	0.40610 0.94040 0.16400 0.06900
H 	H 	0.42890 0.88540 0.15940 0.07300
H 	H 	0.44200 0.98770 0.48290 -0.01300
H 	H 	0.55430 0.98440 0.41700 0.11800
H 	H 	0.56680 0.94270 0.35310 -0.04600
H 	H 	0.47080 0.90410 0.35330 0.13700
H 	H 	0.06530 0.94490 0.60630 0.11800
H 	H 	0.02120 0.92820 0.57360 0.13200
H 	H 	0.01620 0.87910 0.63730 -0.02400
H 	H 	0.07960 0.84940 0.59320 -0.01400
H 	H 	0.13210 0.88910 0.65810 0.13400
H 	H 	0.19340 0.85660 0.61560 0.13100
H 	H 	0.08240 0.82640 0.69320 -0.06500
H 	H 	0.14280 0.79370 0.65030 -0.06300
H 	H 	0.19860 0.83380 0.71300 0.20100
H 	H 	0.20160 0.78020 0.71240 0.19200
H 	H 	0.25930 0.80170 0.66990 0.19700
H 	H 	0.97980 0.98210 0.24790 -0.00600
H 	H 	0.90600 0.02300 0.19840 0.11400
H 	H 	0.77110 0.07030 0.22890 -0.03200
H 	H 	0.70870 0.07250 0.30830 0.13200
H 	H 	0.95540 0.91680 0.50860 0.13300
H 	H 	0.02300 0.88950 0.46410 0.11800
H 	H 	0.94620 0.84070 0.51550 -0.01500
H 	H 	0.86340 0.87190 0.50350 -0.00200
H 	H 	0.00500 0.81740 0.43740 0.12900
H 	H 	0.92320 0.84900 0.42500 0.13000
H 	H 	0.92490 0.76970 0.48450 -0.05100
H 	H 	0.84480 0.80080 0.46980 -0.05300
H 	H 	0.92500 0.77770 0.39010 0.19700
H 	H 	0.89210 0.73850 0.42290 0.19700
H 	H 	0.98710 0.73870 0.41270 0.20100
H 	H 	0.63400 0.98050 0.07110 -0.00500
H 	H 	0.53070 0.97750 0.13770 0.08600
H 	H 	0.61270 0.83910 0.13250 0.08300
H 	H 	0.71510 0.84500 0.06640 -0.01800
H 	H 	0.51380 0.87660 0.20580 0.06200
H 	H 	0.49130 0.93200 0.20980 0.06000
H 	H 	0.92860 0.74320 0.09860 0.00200
H 	H 	0.81940 0.80420 0.13600 0.11000
H 	H 	0.69700 0.78960 0.18200 -0.03700
H 	H 	0.68300 0.71510 0.19010 0.13300
H 	H 	0.07370 0.47140 0.06600 0.05800
H 	H 	0.13030 0.50640 0.04900 0.05000
H 	H 	0.09250 0.47270 0.14330 0.13000
H 	H 	0.15760 0.50220 0.12180 0.11800
H 	H 	0.19720 0.42220 0.07300 -0.09400
H 	H 	0.19200 0.41120 0.12620 -0.10500
H 	H 	0.28460 0.45330 0.06670 0.20000
H 	H 	0.27670 0.44790 0.12070 0.18600
H 	H 	0.32090 0.36240 0.07480 0.01100
H 	H 	0.39010 0.39010 0.05970 0.00400
H 	H 	0.35860 0.37550 0.11290 0.00300
H 	H 	0.80830 0.59310 0.25410 -0.00500
H 	H 	0.85900 0.59520 0.31620 0.09400
H 	H 	0.08320 0.58650 0.22590 0.08300
H 	H 	0.02610 0.58500 0.16620 -0.01000
H 	H 	0.01050 0.55960 0.33600 0.07000
H 	H 	0.97370 0.61460 0.34060 0.07300
H 	H 	0.41260 0.51230 0.01710 -0.01200
H 	H 	0.45570 0.51560 0.08300 0.11800
H 	H 	0.36260 0.55730 0.14690 -0.04600
H 	H 	0.22820 0.59590 0.14670 0.13700
H 	H 	0.11650 0.55510 0.89370 0.11900
H 	H 	0.02300 0.57180 0.92640 0.13200
H 	H 	0.03260 0.62090 0.86270 -0.02400
H 	H 	0.02220 0.65060 0.90680 -0.01400
H 	H 	0.17930 0.61090 0.84190 0.13400
H 	H 	0.16560 0.64340 0.88440 0.13100
H 	H 	0.10200 0.67360 0.80680 -0.06500
H 	H 	0.08680 0.70630 0.84970 -0.06300
H 	H 	0.24540 0.66620 0.78700 0.20100
H 	H 	0.19420 0.71980 0.78760 0.19200
H 	H 	0.23090 0.69830 0.83010 0.19700
H 	H 	0.70980 0.51790 0.25210 -0.00700
H 	H 	0.62740 0.47700 0.30160 0.11500
H 	H 	0.57030 0.42970 0.27110 -0.03200
H 	H 	0.58950 0.42750 0.19170 0.13200
H 	H 	0.88080 0.58320 0.99140 0.13300
H 	H 	0.87660 0.61050 0.03590 0.11800
H 	H 	0.80240 0.65930 0.98450 -0.01600
H 	H 	0.73880 0.62810 0.99650 -0.00200
H 	H 	0.75980 0.68260 0.06260 0.13000
H 	H 	0.69720 0.65100 0.07500 0.13100
H 	H 	0.67910 0.73030 0.01550 -0.05100
H 	H 	0.61540 0.69920 0.03020 -0.05400
H 	H 	0.59280 0.72230 0.10990 0.19800
H 	H 	0.55350 0.76150 0.07710 0.19700
H 	H 	0.63850 0.76130 0.08730 0.20100
H 	H 	0.18560 0.51950 0.42890 -0.00500
H 	H 	0.14590 0.52250 0.36230 0.08600
H 	H 	0.08430 0.66090 0.36750 0.08300
H 	H 	0.12650 0.65500 0.43360 -0.01800
H 	H 	0.09620 0.62340 0.29420 0.06100
H 	H 	0.13310 0.56800 0.29020 0.06000
H 	H 	0.67180 0.59860 0.25680 0.00200
H 	H 	0.62360 0.63600 0.19580 0.11000
H 	H 	0.48660 0.68200 0.21040 -0.03700
H 	H 	0.39810 0.69010 0.28490 0.13300
H 	H 	0.54510 0.56600 0.52860 0.05900
H 	H 	0.63670 0.54900 0.49360 0.05000
H 	H 	0.56520 0.64330 0.52730 0.13000
H 	H 	0.65980 0.62180 0.49780 0.11800
H 	H 	0.61940 0.57300 0.57780 -0.09300
H 	H 	0.60320 0.62620 0.58880 -0.10500
H 	H 	0.73790 0.56670 0.54670 0.20000
H 	H 	0.72460 0.62070 0.55210 0.18600
H 	H 	0.68330 0.57480 0.63760 0.01000
H 	H 	0.78020 0.55970 0.60990 0.00300
H 	H 	0.73410 0.61290 0.62450 0.00200
H 	H 	0.40140 0.75410 0.40690 -0.00400
H 	H 	0.45420 0.81620 0.40480 0.09400
H 	H 	0.66970 0.72590 0.41350 0.08300
H 	H 	0.61110 0.66620 0.41500 -0.00900
H 	H 	0.57010 0.83600 0.44040 0.06900
H 	H 	0.58830 0.84060 0.38540 0.07300
H 	H 	0.92490 0.51710 0.48770 -0.01300
H 	H 	0.97130 0.58300 0.48440 0.11800
H 	H 	0.91990 0.64690 0.44270 -0.04600
H 	H 	0.82410 0.64670 0.40410 0.13700
H 	H 	0.67160 0.39370 0.44490 0.11900
H 	H 	0.59480 0.42640 0.42820 0.13200
H 	H 	0.65350 0.36270 0.37910 -0.02400
H 	H 	0.67280 0.40680 0.34940 -0.01400
H 	H 	0.79020 0.34190 0.38910 0.13400
H 	H 	0.80900 0.38440 0.35660 0.13100
H 	H 	0.77560 0.30680 0.32640 -0.06500
H 	H 	0.79310 0.34970 0.29370 -0.06300
H 	H 	0.91160 0.28700 0.33380 0.20100
H 	H 	0.91400 0.28760 0.28020 0.19200
H 	H 	0.92920 0.33010 0.30170 0.19700
H 	H 	0.22770 0.75210 0.48210 -0.00700
H 	H 	0.10440 0.80160 0.52300 0.11500
H 	H 	0.00000 0.77110 0.57030 -0.03300
H 	H 	0.01700 0.69170 0.57250 0.13200
H 	H 	0.46400 0.49140 0.41680 0.13400
H 	H 	0.48710 0.53590 0.38950 0.11900
H 	H 	0.46170 0.48450 0.34070 -0.01600
H 	H 	0.36690 0.49650 0.37190 -0.00300
H 	H 	0.44240 0.56260 0.31740 0.13000
H 	H 	0.34820 0.57500 0.34900 0.13100
H 	H 	0.40940 0.51550 0.26970 -0.05100
H 	H 	0.31460 0.53020 0.30080 -0.05400
H 	H 	0.31510 0.60990 0.27770 0.19800
H 	H 	0.31500 0.57710 0.23850 0.19700
H 	H 	0.39980 0.58730 0.23870 0.20100
H 	H 	0.70510 0.92890 0.48050 -0.00500
H 	H 	0.66840 0.86230 0.47750 0.08600
H 	H 	0.74520 0.86750 0.33910 0.08300
H 	H 	0.78150 0.93360 0.34500 -0.01800
H 	H 	0.71960 0.79420 0.37660 0.06200
H 	H 	0.70110 0.79020 0.43200 0.06100
H 	H 	0.02720 0.90140 0.24320 0.00100
H 	H 	0.95540 0.86400 0.30420 0.11100
H 	H 	0.87900 0.81800 0.28960 -0.03700
H 	H 	0.87310 0.80990 0.21510 0.13300
H 	H 	0.13970 0.93400 0.97140 0.05700
H 	H 	0.17930 0.95100 0.00640 0.04700
H 	H 	0.23580 0.85670 0.97270 0.13000
H 	H 	0.27940 0.87820 0.00220 0.11700
H 	H 	0.27020 0.92700 0.92220 -0.09300
H 	H 	0.31820 0.87380 0.91120 -0.10400
H 	H 	0.35130 0.93330 0.95330 0.20000
H 	H 	0.39740 0.87930 0.94790 0.18600
H 	H 	0.39570 0.92520 0.86240 0.01100
H 	H 	0.44980 0.94030 0.89010 0.00400
H 	H 	0.47150 0.88710 0.87550 0.00300
H 	H 	0.06240 0.74590 0.09310 -0.00500
H 	H 	0.17520 0.68380 0.09520 0.09400
H 	H 	0.30910 0.77410 0.08650 0.08300
H 	H 	0.19230 0.83380 0.08500 -0.00900
H 	H 	0.34650 0.66400 0.05960 0.06900
H 	H 	0.31430 0.65940 0.11460 0.07300
H 	H 	0.42970 0.98290 0.01230 -0.01200
H 	H 	0.53870 0.91700 0.01560 0.11700
H 	H 	0.50950 0.85310 0.05730 -0.04500
H 	H 	0.37490 0.85330 0.09590 0.13700
H 	H 	0.01020 0.10630 0.05510 0.12000
H 	H 	0.94940 0.07360 0.07180 0.13300
H 	H 	0.89530 0.13730 0.12090 -0.02400
H 	H 	0.92900 0.09320 0.15060 -0.01400
H 	H 	0.02120 0.15810 0.11090 0.13200
H 	H 	0.05000 0.11560 0.14340 0.13000
H 	H 	0.90880 0.19320 0.17360 -0.06300
H 	H 	0.93650 0.15030 0.20630 -0.06100
H 	H 	0.03240 0.21300 0.16620 0.19900
H 	H 	0.98180 0.21240 0.21980 0.18900
H 	H 	0.06100 0.16990 0.19830 0.19500
H 	H 	0.96190 0.74790 0.01790 -0.00600
H 	H 	0.92900 0.69840 0.97700 0.11500
H 	H 	0.84140 0.72890 0.92970 -0.03200
H 	H 	0.78120 0.80830 0.92750 0.13200
H 	H 	0.87220 0.00860 0.08320 0.13400
H 	H 	0.91250 0.96410 0.11050 0.11900
H 	H 	0.78690 0.01550 0.15930 -0.01500
H 	H 	0.73530 0.00350 0.12810 -0.00200
H 	H 	0.82240 0.93740 0.18260 0.13000
H 	H 	0.77220 0.92500 0.15100 0.13100
H 	H 	0.69460 0.98450 0.23030 -0.05200
H 	H 	0.64560 0.96980 0.19920 -0.05400
H 	H 	0.70270 0.89010 0.22230 0.19800
H 	H 	0.63060 0.92290 0.26150 0.19700
H 	H 	0.72580 0.91270 0.26130 0.20100
H 	H 	0.61450 0.57110 0.01950 -0.00500
H 	H 	0.50820 0.63770 0.02250 0.08600
H 	H 	0.45180 0.63250 0.16090 0.08300
H 	H 	0.56010 0.56640 0.15500 -0.01800
H 	H 	0.39040 0.70580 0.12340 0.06200
H 	H 	0.42330 0.70980 0.06800 0.06000
H 	H 	0.72960 0.24320 0.59860 0.00200
H 	H 	0.74040 0.30420 0.63600 0.11000
H 	H 	0.83140 0.28960 0.68200 -0.03700
H 	H 	0.91180 0.21510 0.69010 0.13300
H 	H 	0.88890 0.97140 0.56600 0.05800
H 	H 	0.81430 0.00640 0.54900 0.04800
H 	H 	0.79150 0.97270 0.64330 0.13000
H 	H 	0.71840 0.00220 0.62180 0.11700
H 	H 	0.80760 0.92220 0.57300 -0.09300
H 	H 	0.77060 0.91120 0.62620 -0.10400
H 	H 	0.69540 0.95330 0.56670 0.20000
H 	H 	0.65470 0.94790 0.62070 0.18600
H 	H 	0.74190 0.86240 0.57480 0.01000
H 	H 	0.66010 0.89010 0.55970 0.00300
H 	H 	0.65300 0.87550 0.61290 0.00300
H 	H 	0.84450 0.09310 0.75410 -0.00400
H 	H 	0.72960 0.09520 0.81620 0.09400
H 	H 	0.60440 0.08650 0.72590 0.08300
H 	H 	0.72270 0.08500 0.66620 -0.00900
H 	H 	0.59390 0.05960 0.83600 0.06900
H 	H 	0.57110 0.11460 0.84060 0.07300
H 	H 	0.55800 0.01230 0.51710 -0.01300
H 	H 	0.44570 0.01560 0.58300 0.11800
H 	H 	0.43320 0.05730 0.64690 -0.04600
H 	H 	0.52920 0.09590 0.64670 0.13700
H 	H 	0.93470 0.05510 0.39370 0.11800
H 	H 	0.97880 0.07180 0.42640 0.13200
H 	H 	0.98380 0.12090 0.36270 -0.02400
H 	H 	0.92040 0.15060 0.40680 -0.01500
H 	H 	0.86790 0.11090 0.34190 0.13400
H 	H 	0.80660 0.14340 0.38440 0.13100
H 	H 	0.91760 0.17360 0.30680 -0.06500
H 	H 	0.85720 0.20630 0.34970 -0.06300
H 	H 	0.80140 0.16620 0.28700 0.20100
H 	H 	0.79840 0.21980 0.28760 0.19200
H 	H 	0.74070 0.19830 0.33010 0.19700
H 	H 	0.02020 0.01790 0.75210 -0.00500
H 	H 	0.09400 0.97700 0.80160 0.11500
H 	H 	0.22890 0.92970 0.77110 -0.03200
H 	H 	0.29130 0.92750 0.69170 0.13200
H 	H 	0.04460 0.08320 0.49140 0.13300
H 	H 	0.97700 0.11050 0.53590 0.11700
H 	H 	0.05380 0.15930 0.48450 -0.01500
H 	H 	0.13660 0.12810 0.49650 -0.00200
H 	H 	0.99500 0.18260 0.56260 0.12800
H 	H 	0.07680 0.15100 0.57500 0.13000
H 	H 	0.07510 0.23030 0.51550 -0.05000
H 	H 	0.15520 0.19920 0.53020 -0.05300
H 	H 	0.07500 0.22230 0.60990 0.19700
H 	H 	0.10790 0.26150 0.57710 0.19600
H 	H 	0.01290 0.26130 0.58730 0.20100
H 	H 	0.36600 0.01950 0.92890 -0.00500
H 	H 	0.46930 0.02250 0.86230 0.08600
H 	H 	0.38730 0.16090 0.86750 0.08300
H 	H 	0.28490 0.15500 0.93360 -0.01800
H 	H 	0.48620 0.12340 0.79420 0.06200
H 	H 	0.50870 0.06800 0.79020 0.06000
H 	H 	0.07140 0.25680 0.90140 0.00200
H 	H 	0.18060 0.19580 0.86400 0.11000
H 	H 	0.30300 0.21040 0.81800 -0.03700
H 	H 	0.31700 0.28490 0.80990 0.13300
H 	H 	0.92630 0.52860 0.93400 0.05800
H 	H 	0.86970 0.49360 0.95100 0.05000
H 	H 	0.90750 0.52730 0.85670 0.13000
H 	H 	0.84240 0.49780 0.87820 0.11800
H 	H 	0.80280 0.57780 0.92700 -0.09400
H 	H 	0.80800 0.58880 0.87380 -0.10500
H 	H 	0.71540 0.54670 0.93330 0.20000
H 	H 	0.72330 0.55210 0.87930 0.18600
H 	H 	0.67910 0.63760 0.92520 0.01100
H 	H 	0.60990 0.60990 0.94030 0.00400
H 	H 	0.64140 0.62450 0.88710 0.00300
H 	H 	0.19170 0.40690 0.74590 -0.00500
H 	H 	0.14100 0.40480 0.68380 0.09500
H 	H 	0.91680 0.41350 0.77410 0.08500
H 	H 	0.97390 0.41500 0.83380 -0.01100
H 	H 	0.98950 0.44040 0.66400 0.07100
H 	H 	0.02630 0.38540 0.65940 0.07500
H 	H 	0.58740 0.48770 0.98290 -0.01200
H 	H 	0.54430 0.48440 0.91700 0.11800
H 	H 	0.63740 0.44270 0.85310 -0.04600
H 	H 	0.77180 0.40410 0.85330 0.13700
H 	H 	0.88350 0.44490 0.10630 0.11900
H 	H 	0.97700 0.42820 0.07360 0.13200
H 	H 	0.96740 0.37910 0.13730 -0.02400
H 	H 	0.97780 0.34940 0.09320 -0.01500
H 	H 	0.82070 0.38910 0.15810 0.13400
H 	H 	0.83440 0.35660 0.11560 0.13100
H 	H 	0.89800 0.32640 0.19320 -0.06500
H 	H 	0.91320 0.29370 0.15030 -0.06300
H 	H 	0.75460 0.33380 0.21300 0.20100
H 	H 	0.80580 0.28020 0.21240 0.19200
H 	H 	0.76910 0.30170 0.16990 0.19700
H 	H 	0.29020 0.48210 0.74790 -0.00700
H 	H 	0.37260 0.52300 0.69840 0.11500
H 	H 	0.42970 0.57030 0.72890 -0.03200
H 	H 	0.41050 0.57250 0.80830 0.13200
H 	H 	0.11920 0.41680 0.00860 0.13300
H 	H 	0.12340 0.38950 0.96410 0.11900
H 	H 	0.19760 0.34070 0.01550 -0.01600
H 	H 	0.26120 0.37190 0.00350 -0.00200
H 	H 	0.24020 0.31740 0.93740 0.13000
H 	H 	0.30280 0.34900 0.92500 0.13100
H 	H 	0.32090 0.26970 0.98450 -0.05100
H 	H 	0.38460 0.30080 0.96980 -0.05400
H 	H 	0.40720 0.27770 0.89010 0.19800
H 	H 	0.44650 0.23850 0.92290 0.19700
H 	H 	0.36150 0.23870 0.91270 0.20100
H 	H 	0.81440 0.48050 0.57110 -0.00400
H 	H 	0.85410 0.47750 0.63770 0.08600
H 	H 	0.91570 0.33910 0.63250 0.08200
H 	H 	0.87350 0.34500 0.56640 -0.01800
H 	H 	0.90380 0.37660 0.70580 0.06000
H 	H 	0.86690 0.43200 0.70980 0.05900
H 	H 	0.32820 0.40140 0.74320 0.00200
H 	H 	0.37640 0.36400 0.80420 0.11000
H 	H 	0.51340 0.31800 0.78960 -0.03700
H 	H 	0.60190 0.30990 0.71510 0.13300
H 	H 	0.45490 0.43400 0.47140 0.05900
H 	H 	0.36330 0.45100 0.50640 0.05000
H 	H 	0.43480 0.35670 0.47270 0.13000
H 	H 	0.34020 0.37820 0.50220 0.11800
H 	H 	0.38060 0.42700 0.42220 -0.09400
H 	H 	0.39680 0.37380 0.41120 -0.10500
H 	H 	0.26210 0.43330 0.45330 0.20000
H 	H 	0.27540 0.37930 0.44790 0.18600
H 	H 	0.31670 0.42520 0.36240 0.01000
H 	H 	0.21980 0.44030 0.39010 0.00300
H 	H 	0.26590 0.38710 0.37550 0.00300
H 	H 	0.59860 0.24590 0.59310 -0.00400
H 	H 	0.54580 0.18380 0.59520 0.09400
H 	H 	0.33030 0.27410 0.58650 0.08300
H 	H 	0.38890 0.33380 0.58500 -0.00900
H 	H 	0.42990 0.16400 0.55960 0.06900
H 	H 	0.41170 0.15940 0.61460 0.07300
H 	H 	0.07510 0.48290 0.51230 -0.01200
H 	H 	0.02870 0.41700 0.51560 0.11800
H 	H 	0.08010 0.35310 0.55730 -0.04500
H 	H 	0.17590 0.35330 0.59590 0.13700
H 	H 	0.32840 0.60630 0.55510 0.11900
H 	H 	0.40520 0.57360 0.57180 0.13200
H 	H 	0.34650 0.63730 0.62090 -0.02400
H 	H 	0.32720 0.59320 0.65060 -0.01400
H 	H 	0.20980 0.65810 0.61090 0.13400
H 	H 	0.19100 0.61560 0.64340 0.13100
H 	H 	0.22440 0.69320 0.67360 -0.06500
H 	H 	0.20690 0.65030 0.70630 -0.06300
H 	H 	0.08840 0.71300 0.66620 0.20100
H 	H 	0.08600 0.71240 0.71980 0.19200
H 	H 	0.07080 0.66990 0.69830 0.19700
H 	H 	0.77230 0.24790 0.51790 -0.00600
H 	H 	0.89560 0.19840 0.47700 0.11400
H 	H 	0.00000 0.22890 0.42970 -0.03100
H 	H 	0.98300 0.30830 0.42750 0.13100
H 	H 	0.53600 0.50860 0.58320 0.13400
H 	H 	0.51290 0.46410 0.61050 0.11900
H 	H 	0.53830 0.51550 0.65930 -0.01600
H 	H 	0.63310 0.50350 0.62810 -0.00300
H 	H 	0.55760 0.43740 0.68260 0.13000
H 	H 	0.65180 0.42500 0.65100 0.13100
H 	H 	0.59060 0.48450 0.73030 -0.05100
H 	H 	0.68540 0.46980 0.69920 -0.05400
H 	H 	0.68490 0.39010 0.72230 0.19800
H 	H 	0.68500 0.42290 0.76150 0.19700
H 	H 	0.60020 0.41270 0.76130 0.20100
H 	H 	0.29490 0.07110 0.51950 -0.00500
H 	H 	0.33160 0.13770 0.52250 0.08600
H 	H 	0.25480 0.13250 0.66090 0.08300
H 	H 	0.21850 0.06640 0.65500 -0.01800
H 	H 	0.28040 0.20580 0.62340 0.06200
H 	H 	0.29890 0.20980 0.56800 0.06100
H 	H 	0.97280 0.09860 0.75680 -0.00000
H 	H 	0.04460 0.13600 0.69580 0.11100
H 	H 	0.12100 0.18200 0.71040 -0.03800
H 	H 	0.12690 0.19010 0.78490 0.13300
H 	H 	0.86030 0.06600 0.02860 0.05700
H 	H 	0.82070 0.04900 0.99360 0.04700
H 	H 	0.76420 0.14330 0.02730 0.13000
H 	H 	0.72060 0.12180 0.99780 0.11700
H 	H 	0.72980 0.07300 0.07780 -0.09300
H 	H 	0.68180 0.12620 0.08880 -0.10400
H 	H 	0.64870 0.06670 0.04670 0.20000
H 	H 	0.60260 0.12070 0.05210 0.18600
H 	H 	0.60430 0.07480 0.13760 0.01100
H 	H 	0.55020 0.05970 0.10990 0.00400
H 	H 	0.52850 0.11290 0.12450 0.00300
H 	H 	0.93760 0.25410 0.90690 -0.00500
H 	H 	0.82480 0.31620 0.90480 0.09400
H 	H 	0.69090 0.22590 0.91350 0.08300
H 	H 	0.80770 0.16620 0.91500 -0.00900
H 	H 	0.65350 0.33600 0.94040 0.06900
H 	H 	0.68570 0.34060 0.88540 0.07300
H 	H 	0.57030 0.01710 0.98770 -0.01200
H 	H 	0.46130 0.08300 0.98440 0.11700
H 	H 	0.49050 0.14690 0.94270 -0.04500
H 	H 	0.62510 0.14670 0.90410 0.13700
H 	H 	0.98980 0.89370 0.94490 0.11900
H 	H 	0.05060 0.92640 0.92820 0.13300
H 	H 	0.10470 0.86270 0.87910 -0.02400
H 	H 	0.07100 0.90680 0.84940 -0.01500
H 	H 	0.97880 0.84190 0.88910 0.13400
H 	H 	0.95000 0.88440 0.85660 0.13100
H 	H 	0.09120 0.80680 0.82640 -0.06500
H 	H 	0.06350 0.84970 0.79370 -0.06300
H 	H 	0.96760 0.78700 0.83380 0.20100
H 	H 	0.01820 0.78760 0.78020 0.19200
H 	H 	0.93900 0.83010 0.80170 0.19700
H 	H 	0.03810 0.25210 0.98210 -0.00600
H 	H 	0.07100 0.30160 0.02300 0.11500
H 	H 	0.15860 0.27110 0.07030 -0.03200
H 	H 	0.21880 0.19170 0.07250 0.13200
H 	H 	0.12780 0.99140 0.91680 0.13400
H 	H 	0.08750 0.03590 0.88950 0.11900
H 	H 	0.21310 0.98450 0.84070 -0.01600
H 	H 	0.26470 0.99650 0.87190 -0.00200
H 	H 	0.17760 0.06260 0.81740 0.13000
H 	H 	0.22780 0.07500 0.84900 0.13100
H 	H 	0.30540 0.01550 0.76970 -0.05200
H 	H 	0.35440 0.03020 0.80080 -0.05400
H 	H 	0.29730 0.10990 0.77770 0.19800
H 	H 	0.36940 0.07710 0.73850 0.19700
H 	H 	0.27420 0.08730 0.73870 0.20100
H 	H 	0.38550 0.42890 0.98050 -0.00500
H 	H 	0.49180 0.36230 0.97750 0.08600
H 	H 	0.54820 0.36750 0.83910 0.08300
H 	H 	0.43990 0.43360 0.84500 -0.01800
H 	H 	0.60960 0.29420 0.87660 0.06200
H 	H 	0.57670 0.29020 0.93200 0.06000
C 	C 	0.13185 0.81737 0.35033 0.30900
C 	C 	0.18648 0.80874 0.37830 -0.26100
C 	C 	0.23318 0.76290 0.38254 0.15300
C 	C 	0.22713 0.72657 0.36057 -0.22900
C 	C 	0.17303 0.73545 0.33349 0.16000
C 	C 	0.12565 0.77967 0.32843 -0.29000
C 	C 	0.19713 0.84545 0.40329 0.28600
C 	C 	0.14588 0.96311 0.40673 0.20400
C 	C 	0.16348 0.00340 0.42384 -0.10600
C 	C 	0.22727 0.02176 0.38530 -0.33800
C 	C 	0.23830 0.06600 0.39880 0.47100
C 	C 	0.29870 0.06690 0.40610 -0.59300
C 	C 	0.31220 0.11420 0.41560 0.06200
C 	C 	0.20518 0.90850 0.25174 0.10700
C 	C 	0.27324 0.90733 0.21459 -0.19900
C 	C 	0.34531 0.90982 0.22196 0.13400
C 	C 	0.34634 0.91236 0.26736 -0.18200
C 	C 	0.27574 0.91324 0.30268 0.09800
C 	C 	0.42056 0.91072 0.18076 -0.15500
C 	C 	0.40047 0.91923 0.41983 0.33000
C 	C 	0.39031 0.94627 0.45791 -0.28200
C 	C 	0.44813 0.97011 0.45663 0.16600
C 	C 	0.51446 0.96847 0.41761 -0.25200
C 	C 	0.52157 0.94370 0.38016 0.19100
C 	C 	0.46531 0.92011 0.38047 -0.32300
C 	C 	0.31867 0.95251 0.49955 0.28600
C 	C 	0.14757 0.91401 0.54625 0.27500
C 	C 	0.07047 0.91940 0.58586 -0.36100
C 	C 	0.07108 0.87519 0.61405 0.16600
C 	C 	0.13853 0.86240 0.63894 -0.37400
C 	C 	0.13700 0.82043 0.66937 0.28300
C 	C 	0.20500 0.80798 0.69322 -0.62500
C 	C 	0.80731 0.02788 0.32690 0.31500
C 	C 	0.88915 0.00115 0.30855 -0.26800
C 	C 	0.92412 0.00030 0.26046 0.16000
C 	C 	0.88119 0.02474 0.23108 -0.23600
C 	C 	0.80101 0.05221 0.24917 0.16500
C 	C 	0.76416 0.05370 0.29638 -0.29200
C 	C 	0.94042 0.97277 0.33719 0.28200
C 	C 	0.92189 0.93481 0.44841 0.28200
C 	C 	0.96253 0.90107 0.47947 -0.35400
C 	C 	0.92461 0.85979 0.49099 0.14500
C 	C 	0.94376 0.82952 0.44956 -0.35200
C 	C 	0.90630 0.78869 0.45911 0.26500
C 	C 	0.92960 0.75830 0.41770 -0.61500
C 	C 	0.63040 0.95102 0.08398 0.10500
C 	C 	0.56934 0.94941 0.12391 -0.18500
C 	C 	0.56344 0.90745 0.14427 0.13500
C 	C 	0.61703 0.86895 0.12099 -0.19500
C 	C 	0.67713 0.87264 0.08130 0.10500
C 	C 	0.49710 0.90629 0.18951 -0.14500
C 	C 	0.79955 0.68263 0.14967 0.30900
C 	C 	0.87352 0.69126 0.12170 -0.26100
C 	C 	0.87862 0.73710 0.11746 0.15400
C 	C 	0.81427 0.77343 0.13943 -0.22900
C 	C 	0.74197 0.76455 0.16651 0.16000
C 	C 	0.73375 0.72033 0.17157 -0.29000
C 	C 	0.94587 0.65455 0.09671 0.28600
C 	C 	0.01572 0.53689 0.09327 0.20500
C 	C 	0.09072 0.49660 0.07616 -0.10900
C 	C 	0.13433 0.47824 0.11470 -0.33900
C 	C 	0.20310 0.43400 0.10120 0.47200
C 	C 	0.27170 0.43310 0.09390 -0.59400
C 	C 	0.34200 0.38580 0.08440 0.06200
C 	C 	0.86542 0.59150 0.24826 0.10800
C 	C 	0.89516 0.59267 0.28541 -0.20000
C 	C 	0.97709 0.59018 0.27804 0.13600
C 	C 	0.02606 0.58764 0.23264 -0.18400
C 	C 	0.99166 0.58676 0.19732 0.09900
C 	C 	0.01204 0.58928 0.31924 -0.15600
C 	C 	0.23953 0.58077 0.08017 0.32900
C 	C 	0.29449 0.55373 0.04209 -0.28200
C 	C 	0.37487 0.52989 0.04337 0.16600
C 	C 	0.40054 0.53153 0.08239 -0.25200
C 	C 	0.34543 0.55630 0.11984 0.19100
C 	C 	0.26589 0.57989 0.11953 -0.32300
C 	C 	0.27073 0.54749 0.00045 0.28500
C 	C 	0.10783 0.58599 0.95375 0.27500
C 	C 	0.07573 0.58060 0.91414 -0.36200
C 	C 	0.06032 0.62481 0.88595 0.16600
C 	C 	0.13987 0.63760 0.86106 -0.37400
C 	C 	0.12680 0.67957 0.83063 0.28300
C 	C 	0.20620 0.69202 0.80678 -0.62500
C 	C 	0.66209 0.47212 0.17310 0.31500
C 	C 	0.69885 0.49885 0.19145 -0.26800
C 	C 	0.68488 0.49970 0.23954 0.16200
C 	C 	0.63701 0.47526 0.26892 -0.23700
C 	C 	0.60239 0.44779 0.25083 0.16500
C 	C 	0.61424 0.44630 0.20362 -0.29300
C 	C 	0.75038 0.52723 0.16281 0.28000
C 	C 	0.80511 0.56519 0.05159 0.28200
C 	C 	0.84307 0.59893 0.02053 -0.35500
C 	C 	0.77539 0.64021 0.00901 0.14600
C 	C 	0.72284 0.67048 0.05044 -0.35400
C 	C 	0.65410 0.71131 0.04089 0.26600
C 	C 	0.60560 0.74170 0.08230 -0.61600
C 	C 	0.16540 0.54898 0.41602 0.10500
C 	C 	0.14266 0.55059 0.37609 -0.18400
C 	C 	0.11516 0.59255 0.35573 0.13500
C 	C 	0.10697 0.63105 0.37901 -0.19400
C 	C 	0.13107 0.62736 0.41870 0.10500
C 	C 	0.09290 0.59371 0.31049 -0.14400
C 	C 	0.48218 0.64967 0.31737 0.30900
C 	C 	0.56478 0.62170 0.30874 -0.26100
C 	C 	0.61572 0.61746 0.26290 0.15400
C 	C 	0.58770 0.63943 0.22657 -0.22900
C 	C 	0.50652 0.66651 0.23545 0.16000
C 	C 	0.45408 0.67157 0.27967 -0.29000
C 	C 	0.60042 0.59671 0.34545 0.28600
C 	C 	0.55261 0.59327 0.46311 0.20600
C 	C 	0.58732 0.57616 0.50340 -0.11000
C 	C 	0.61257 0.61470 0.52176 -0.33900
C 	C 	0.63710 0.60120 0.56600 0.47100
C 	C 	0.70480 0.59390 0.56690 -0.59300
C 	C 	0.72780 0.58440 0.61420 0.06200
C 	C 	0.45692 0.74826 0.40850 0.10700
C 	C 	0.48783 0.78541 0.40733 -0.19900
C 	C 	0.56727 0.77804 0.40982 0.13400
C 	C 	0.61370 0.73264 0.41236 -0.18200
C 	C 	0.57842 0.69732 0.41324 0.09800
C 	C 	0.60132 0.81924 0.41072 -0.15500
C 	C 	0.82030 0.58017 0.41923 0.33000
C 	C 	0.84822 0.54209 0.44627 -0.28200
C 	C 	0.90476 0.54337 0.47011 0.16600
C 	C 	0.93207 0.58239 0.46847 -0.25200
C 	C 	0.90173 0.61984 0.44370 0.19100
C 	C 	0.84578 0.61953 0.42011 -0.32300
C 	C 	0.81822 0.50045 0.45251 0.28600
C 	C 	0.69382 0.45375 0.41401 0.27500
C 	C 	0.65633 0.41414 0.41940 -0.36200
C 	C 	0.68513 0.38595 0.37519 0.16600
C 	C 	0.77747 0.36106 0.36240 -0.37300
C 	C 	0.80637 0.33063 0.32043 0.28300
C 	C 	0.89822 0.30678 0.30798 -0.62500
C 	C 	0.13421 0.67310 0.52788 0.31500
C 	C 	0.19770 0.69145 0.50115 -0.26800
C 	C 	0.18458 0.73954 0.50030 0.16200
C 	C 	0.11227 0.76892 0.52474 -0.23700
C 	C 	0.05018 0.75083 0.55221 0.16500
C 	C 	0.06054 0.70362 0.55370 -0.29300
C 	C 	0.27761 0.66281 0.47277 0.28000
C 	C 	0.37030 0.55159 0.43481 0.28200
C 	C 	0.44200 0.52053 0.40107 -0.35600
C 	C 	0.41560 0.50901 0.35979 0.14700
C 	C 	0.39332 0.55044 0.32952 -0.35400
C 	C 	0.36541 0.54089 0.28869 0.26600
C 	C 	0.34730 0.58230 0.25830 -0.61600
C 	C 	0.71438 0.91602 0.45102 0.10600
C 	C 	0.69325 0.87609 0.44941 -0.18500
C 	C 	0.70771 0.85573 0.40745 0.13500
C 	C 	0.73802 0.87901 0.36895 -0.19500
C 	C 	0.75843 0.91870 0.37264 0.10500
C 	C 	0.68661 0.81049 0.40629 -0.14500
C 	C 	0.94922 0.85033 0.18263 0.30900
C 	C 	0.99522 0.87830 0.19126 -0.26000
C 	C 	0.99608 0.88254 0.23710 0.15600
C 	C 	0.95370 0.86057 0.27343 -0.23100
C 	C 	0.90848 0.83349 0.26455 0.16100
C 	C 	0.90532 0.82843 0.22033 -0.29000
C 	C 	0.04258 0.90329 0.15455 0.28500
C 	C 	0.10899 0.90673 0.03689 0.20300
C 	C 	0.16688 0.92384 0.99660 -0.10400
C 	C 	0.24903 0.88530 0.97824 -0.33700
C 	C 	0.30430 0.89880 0.93400 0.47000
C 	C 	0.36560 0.90610 0.93310 -0.59100
C 	C 	0.42640 0.91560 0.88580 0.06000
C 	C 	0.11368 0.75174 0.09150 0.10700
C 	C 	0.18057 0.71459 0.09267 -0.19900
C 	C 	0.25513 0.72196 0.09018 0.13400
C 	C 	0.25870 0.76736 0.08764 -0.18200
C 	C 	0.18898 0.80268 0.08676 0.09800
C 	C 	0.33128 0.68076 0.08928 -0.15500
C 	C 	0.31970 0.91983 0.08077 0.32800
C 	C 	0.33658 0.95791 0.05373 -0.28000
C 	C 	0.41824 0.95663 0.02989 0.16500
C 	C 	0.48293 0.91761 0.03153 -0.25100
C 	C 	0.46527 0.88016 0.05630 0.19000
C 	C 	0.38542 0.88047 0.07989 -0.32200
C 	C 	0.27118 0.99955 0.04749 0.28100
C 	C 	0.06158 0.04625 0.08599 0.27700
C 	C 	0.98987 0.08586 0.08060 -0.36300
C 	C 	0.94627 0.11405 0.12481 0.16400
C 	C 	0.00093 0.13894 0.13760 -0.36800
C 	C 	0.95743 0.16937 0.17957 0.27600
C 	C 	0.01298 0.19322 0.19202 -0.61700
C 	C 	0.83519 0.82690 0.97212 0.31500
C 	C 	0.89030 0.80855 0.99885 -0.26700
C 	C 	0.92442 0.76046 0.99970 0.16200
C 	C 	0.90593 0.73108 0.97526 -0.23700
C 	C 	0.85322 0.74917 0.94779 0.16500
C 	C 	0.81786 0.79638 0.94630 -0.29200
C 	C 	0.91319 0.83719 0.02723 0.28000
C 	C 	0.85670 0.94841 0.06519 0.28200
C 	C 	0.86360 0.97947 0.09893 -0.35600
C 	C 	0.78440 0.99099 0.14021 0.14500
C 	C 	0.77328 0.94956 0.17048 -0.35300
C 	C 	0.69499 0.95911 0.21131 0.26600
C 	C 	0.68790 0.91770 0.24170 -0.61600
C 	C 	0.58142 0.58398 0.04898 0.10600
C 	C 	0.51875 0.62391 0.05059 -0.18500
C 	C 	0.47089 0.64427 0.09255 0.13500
C 	C 	0.48598 0.62099 0.13105 -0.19500
C 	C 	0.54977 0.58130 0.12736 0.10500
C 	C 	0.40339 0.68951 0.09371 -0.14500
C 	C 	0.86815 0.18263 0.64967 0.30900
C 	C 	0.81352 0.19126 0.62170 -0.26100
C 	C 	0.76682 0.23710 0.61746 0.15300
C 	C 	0.77287 0.27343 0.63943 -0.22900
C 	C 	0.82697 0.26455 0.66651 0.16000
C 	C 	0.87435 0.22033 0.67157 -0.29000
C 	C 	0.80287 0.15455 0.59671 0.28600
C 	C 	0.85412 0.03689 0.59327 0.20400
C 	C 	0.83652 0.99660 0.57616 -0.10600
C 	C 	0.77273 0.97824 0.61470 -0.33800
C 	C 	0.76170 0.93400 0.60120 0.47100
C 	C 	0.70130 0.93310 0.59390 -0.59300
C 	C 	0.68780 0.88580 0.58440 0.06100
C 	C 	0.79482 0.09150 0.74826 0.10700
C 	C 	0.72676 0.09267 0.78541 -0.19900
C 	C 	0.65469 0.09018 0.77804 0.13400
C 	C 	0.65366 0.08764 0.73264 -0.18200
C 	C 	0.72426 0.08676 0.69732 0.09800
C 	C 	0.57944 0.08928 0.81924 -0.15500
C 	C 	0.59953 0.08077 0.58017 0.33000
C 	C 	0.60969 0.05373 0.54209 -0.28200
C 	C 	0.55187 0.02989 0.54337 0.16600
C 	C 	0.48554 0.03153 0.58239 -0.25200
C 	C 	0.47843 0.05630 0.61984 0.19100
C 	C 	0.53469 0.07989 0.61953 -0.32300
C 	C 	0.68133 0.04749 0.50045 0.28600
C 	C 	0.85243 0.08599 0.45375 0.27500
C 	C 	0.92953 0.08060 0.41414 -0.36100
C 	C 	0.92892 0.12481 0.38595 0.16600
C 	C 	0.86147 0.13760 0.36106 -0.37400
C 	C 	0.86300 0.17957 0.33063 0.28300
C 	C 	0.79500 0.19202 0.30678 -0.62500
C 	C 	0.19269 0.97212 0.67310 0.31500
C 	C 	0.11085 0.99885 0.69145 -0.26900
C 	C 	0.07588 0.99970 0.73954 0.16000
C 	C 	0.11881 0.97526 0.76892 -0.23600
C 	C 	0.19899 0.94779 0.75083 0.16500
C 	C 	0.23584 0.94630 0.70362 -0.29200
C 	C 	0.05958 0.02723 0.66281 0.28300
C 	C 	0.07811 0.06519 0.55159 0.28100
C 	C 	0.03747 0.09893 0.52053 -0.35200
C 	C 	0.07539 0.14021 0.50901 0.14300
C 	C 	0.05624 0.17048 0.55044 -0.34900
C 	C 	0.09370 0.21131 0.54089 0.26300
C 	C 	0.07040 0.24170 0.58230 -0.61300
C 	C 	0.36960 0.04898 0.91602 0.10500
C 	C 	0.43066 0.05059 0.87609 -0.18500
C 	C 	0.43656 0.09255 0.85573 0.13500
C 	C 	0.38297 0.13105 0.87901 -0.19500
C 	C 	0.32287 0.12736 0.91870 0.10500
C 	C 	0.50290 0.09371 0.81049 -0.14500
C 	C 	0.20045 0.31737 0.85033 0.30900
C 	C 	0.12648 0.30874 0.87830 -0.26100
C 	C 	0.12138 0.26290 0.88254 0.15400
C 	C 	0.18573 0.22657 0.86057 -0.22900
C 	C 	0.25803 0.23545 0.83349 0.16000
C 	C 	0.26625 0.27967 0.82843 -0.29000
C 	C 	0.05413 0.34545 0.90329 0.28700
C 	C 	0.98428 0.46311 0.90673 0.20400
C 	C 	0.90928 0.50340 0.92384 -0.10900
C 	C 	0.86567 0.52176 0.88530 -0.33900
C 	C 	0.79690 0.56600 0.89880 0.47100
C 	C 	0.72830 0.56690 0.90610 -0.59300
C 	C 	0.65800 0.61420 0.91560 0.06100
C 	C 	0.13458 0.40850 0.75174 0.10900
C 	C 	0.10484 0.40733 0.71459 -0.20200
C 	C 	0.02291 0.40982 0.72196 0.14000
C 	C 	0.97394 0.41236 0.76736 -0.18900
C 	C 	0.00834 0.41324 0.80268 0.10300
C 	C 	0.98796 0.41072 0.68076 -0.16200
C 	C 	0.76047 0.41923 0.91983 0.32900
C 	C 	0.70551 0.44627 0.95791 -0.28200
C 	C 	0.62513 0.47011 0.95663 0.16600
C 	C 	0.59946 0.46847 0.91761 -0.25200
C 	C 	0.65457 0.44370 0.88016 0.19100
C 	C 	0.73411 0.42011 0.88047 -0.32300
C 	C 	0.72927 0.45251 0.99955 0.28500
C 	C 	0.89217 0.41401 0.04625 0.27500
C 	C 	0.92427 0.41940 0.08586 -0.36200
C 	C 	0.93968 0.37519 0.11405 0.16600
C 	C 	0.86013 0.36240 0.13894 -0.37400
C 	C 	0.87320 0.32043 0.16937 0.28300
C 	C 	0.79380 0.30798 0.19322 -0.62500
C 	C 	0.33791 0.52788 0.82690 0.31500
C 	C 	0.30115 0.50115 0.80855 -0.26800
C 	C 	0.31512 0.50030 0.76046 0.16200
C 	C 	0.36299 0.52474 0.73108 -0.23700
C 	C 	0.39761 0.55221 0.74917 0.16500
C 	C 	0.38576 0.55370 0.79638 -0.29300
C 	C 	0.24962 0.47277 0.83719 0.28000
C 	C 	0.19489 0.43481 0.94841 0.28200
C 	C 	0.15693 0.40107 0.97947 -0.35500
C 	C 	0.22461 0.35979 0.99099 0.14600
C 	C 	0.27716 0.32952 0.94956 -0.35400
C 	C 	0.34590 0.28869 0.95911 0.26600
C 	C 	0.39440 0.25830 0.91770 -0.61600
C 	C 	0.83460 0.45102 0.58398 0.10500
C 	C 	0.85734 0.44941 0.62391 -0.18300
C 	C 	0.88484 0.40745 0.64427 0.13300
C 	C 	0.89303 0.36895 0.62099 -0.19300
C 	C 	0.86893 0.37264 0.58130 0.10400
C 	C 	0.90710 0.40629 0.68951 -0.14100
C 	C 	0.51782 0.35033 0.68263 0.30900
C 	C 	0.43522 0.37830 0.69126 -0.26100
C 	C 	0.38428 0.38254 0.73710 0.15300
C 	C 	0.41230 0.36057 0.77343 -0.22900
C 	C 	0.49348 0.33349 0.76455 0.16000
C 	C 	0.54592 0.32843 0.72033 -0.29000
C 	C 	0.39958 0.40329 0.65455 0.28600
C 	C 	0.44739 0.40673 0.53689 0.20600
C 	C 	0.41268 0.42384 0.49660 -0.11000
C 	C 	0.38743 0.38530 0.47824 -0.33900
C 	C 	0.36290 0.39880 0.43400 0.47100
C 	C 	0.29520 0.40610 0.43310 -0.59300
C 	C 	0.27220 0.41560 0.38580 0.06200
C 	C 	0.54308 0.25174 0.59150 0.10700
C 	C 	0.51217 0.21459 0.59267 -0.19900
C 	C 	0.43273 0.22196 0.59018 0.13400
C 	C 	0.38630 0.26736 0.58764 -0.18200
C 	C 	0.42158 0.30268 0.58676 0.09800
C 	C 	0.39868 0.18076 0.58928 -0.15500
C 	C 	0.17970 0.41983 0.58077 0.33000
C 	C 	0.15178 0.45791 0.55373 -0.28200
C 	C 	0.09524 0.45663 0.52989 0.16600
C 	C 	0.06793 0.41761 0.53153 -0.25200
C 	C 	0.09827 0.38016 0.55630 0.19100
C 	C 	0.15422 0.38047 0.57989 -0.32300
C 	C 	0.18178 0.49955 0.54749 0.28600
C 	C 	0.30618 0.54625 0.58599 0.27500
C 	C 	0.34367 0.58586 0.58060 -0.36200
C 	C 	0.31487 0.61405 0.62481 0.16600
C 	C 	0.22253 0.63894 0.63760 -0.37400
C 	C 	0.19363 0.66937 0.67957 0.28300
C 	C 	0.10178 0.69322 0.69202 -0.62500
C 	C 	0.86579 0.32690 0.47212 0.31400
C 	C 	0.80230 0.30855 0.49885 -0.26700
C 	C 	0.81542 0.26046 0.49970 0.16000
C 	C 	0.88773 0.23108 0.47526 -0.23500
C 	C 	0.94982 0.24917 0.44779 0.16200
C 	C 	0.93946 0.29638 0.44630 -0.29100
C 	C 	0.72239 0.33719 0.52723 0.28000
C 	C 	0.62970 0.44841 0.56519 0.28200
C 	C 	0.55800 0.47947 0.59893 -0.35600
C 	C 	0.58440 0.49099 0.64021 0.14700
C 	C 	0.60668 0.44956 0.67048 -0.35400
C 	C 	0.63459 0.45911 0.71131 0.26600
C 	C 	0.65270 0.41770 0.74170 -0.61600
C 	C 	0.28562 0.08398 0.54898 0.10600
C 	C 	0.30675 0.12391 0.55059 -0.18500
C 	C 	0.29229 0.14427 0.59255 0.13500
C 	C 	0.26198 0.12099 0.63105 -0.19500
C 	C 	0.24157 0.08130 0.62736 0.10500
C 	C 	0.31339 0.18951 0.59371 -0.14500
C 	C 	0.05078 0.14967 0.81737 0.31000
C 	C 	0.00478 0.12170 0.80874 -0.26000
C 	C 	0.00392 0.11746 0.76290 0.15700
C 	C 	0.04630 0.13943 0.72657 -0.23100
C 	C 	0.09152 0.16651 0.73545 0.16200
C 	C 	0.09468 0.17157 0.77967 -0.29000
C 	C 	0.95742 0.09671 0.84545 0.28400
C 	C 	0.89101 0.09327 0.96311 0.20300
C 	C 	0.83312 0.07616 0.00340 -0.10400
C 	C 	0.75097 0.11470 0.02176 -0.33700
C 	C 	0.69570 0.10120 0.06600 0.47000
C 	C 	0.63440 0.09390 0.06690 -0.59100
C 	C 	0.57360 0.08440 0.11420 0.06000
C 	C 	0.88632 0.24826 0.90850 0.10700
C 	C 	0.81943 0.28541 0.90733 -0.19900
C 	C 	0.74487 0.27804 0.90982 0.13400
C 	C 	0.74130 0.23264 0.91236 -0.18200
C 	C 	0.81102 0.19732 0.91324 0.09800
C 	C 	0.66872 0.31924 0.91072 -0.15500
C 	C 	0.68030 0.08017 0.91923 0.32800
C 	C 	0.66342 0.04209 0.94627 -0.28000
C 	C 	0.58176 0.04337 0.97011 0.16500
C 	C 	0.51707 0.08239 0.96847 -0.25100
C 	C 	0.53473 0.11984 0.94370 0.19000
C 	C 	0.61458 0.11953 0.92011 -0.32200
C 	C 	0.72882 0.00045 0.95251 0.28100
C 	C 	0.93842 0.95375 0.91401 0.27600
C 	C 	0.01013 0.91414 0.91940 -0.36300
C 	C 	0.05373 0.88595 0.87519 0.16600
C 	C 	0.99907 0.86106 0.86240 -0.37300
C 	C 	0.04257 0.83063 0.82043 0.28200
C 	C 	0.98702 0.80678 0.80798 -0.62400
C 	C 	0.16481 0.17310 0.02788 0.31500
C 	C 	0.10970 0.19145 0.00115 -0.26700
C 	C 	0.07558 0.23954 0.00030 0.16200
C 	C 	0.09407 0.26892 0.02474 -0.23700
C 	C 	0.14678 0.25083 0.05221 0.16500
C 	C 	0.18214 0.20362 0.05370 -0.29200
C 	C 	0.08681 0.16281 0.97277 0.28000
C 	C 	0.14330 0.05159 0.93481 0.28200
C 	C 	0.13640 0.02053 0.90107 -0.35600
C 	C 	0.21560 0.00901 0.85979 0.14600
C 	C 	0.22672 0.05044 0.82952 -0.35400
C 	C 	0.30501 0.04089 0.78869 0.26600
C 	C 	0.31210 0.08230 0.75830 -0.61600
C 	C 	0.41858 0.41602 0.95102 0.10600
C 	C 	0.48125 0.37609 0.94941 -0.18500
C 	C 	0.52911 0.35573 0.90745 0.13500
C 	C 	0.51402 0.37901 0.86895 -0.19500
C 	C 	0.45023 0.41870 0.87264 0.10500
C 	C 	0.59661 0.31049 0.90629 -0.14500
N 	N 	0.15652 0.88894 0.39774 -0.29000
N 	N 	0.17470 0.92160 0.42118 -0.22600
N 	N 	0.20495 0.91167 0.29533 -0.23100
N 	N 	0.26253 0.93048 0.50252 -0.29800
N 	N 	0.19532 0.94064 0.54346 -0.24100
N 	N 	0.90757 0.96940 0.38204 -0.29100
N 	N 	0.96050 0.93817 0.40523 -0.24400
N 	N 	0.68497 0.91317 0.06249 -0.23100
N 	N 	0.94320 0.61106 0.10226 -0.29000
N 	N 	0.01748 0.57840 0.07882 -0.22600
N 	N 	0.91195 0.58833 0.20467 -0.23100
N 	N 	0.19553 0.56952 0.99748 -0.29700
N 	N 	0.17942 0.55936 0.95654 -0.24100
N 	N 	0.75901 0.53060 0.11796 -0.29100
N 	N 	0.80390 0.56183 0.09477 -0.24400
N 	N 	0.16063 0.58683 0.43751 -0.23100
N 	N 	0.55426 0.60226 0.38894 -0.29000
N 	N 	0.59588 0.57882 0.42160 -0.22600
N 	N 	0.50028 0.70467 0.41167 -0.23100
N 	N 	0.76505 0.49748 0.43048 -0.29800
N 	N 	0.73878 0.45654 0.44064 -0.24100
N 	N 	0.28961 0.61796 0.46940 -0.29100
N 	N 	0.36573 0.59477 0.43817 -0.24400
N 	N 	0.74746 0.93751 0.41317 -0.23100
N 	N 	0.04546 0.89774 0.11106 -0.29000
N 	N 	0.09630 0.92118 0.07840 -0.22600
N 	N 	0.11662 0.79533 0.08833 -0.23100
N 	N 	0.19301 0.00252 0.06952 -0.29600
N 	N 	0.13596 0.04346 0.05936 -0.24100
N 	N 	0.87697 0.88204 0.03060 -0.29100
N 	N 	0.89867 0.90523 0.06183 -0.24400
N 	N 	0.59814 0.56249 0.08683 -0.23100
N 	N 	0.84348 0.11106 0.60226 -0.29000
N 	N 	0.82530 0.07840 0.57882 -0.22600
N 	N 	0.79505 0.08833 0.70467 -0.23100
N 	N 	0.73747 0.06952 0.49748 -0.29800
N 	N 	0.80468 0.05936 0.45654 -0.24100
N 	N 	0.09243 0.03060 0.61796 -0.29100
N 	N 	0.03950 0.06183 0.59477 -0.24300
N 	N 	0.31503 0.08683 0.93751 -0.23100
N 	N 	0.05680 0.38894 0.89774 -0.29000
N 	N 	0.98252 0.42160 0.92118 -0.22600
N 	N 	0.08805 0.41167 0.79533 -0.23200
N 	N 	0.80447 0.43048 0.00252 -0.29700
N 	N 	0.82058 0.44064 0.04346 -0.24100
N 	N 	0.24099 0.46940 0.88204 -0.29100
N 	N 	0.19610 0.43817 0.90523 -0.24400
N 	N 	0.83937 0.41317 0.56249 -0.23100
N 	N 	0.44574 0.39774 0.61106 -0.29000
N 	N 	0.40412 0.42118 0.57840 -0.22600
N 	N 	0.49972 0.29533 0.58833 -0.23100
N 	N 	0.23495 0.50252 0.56952 -0.29800
N 	N 	0.26122 0.54346 0.55936 -0.24100
N 	N 	0.71039 0.38204 0.53060 -0.29100
N 	N 	0.63427 0.40523 0.56183 -0.24400
N 	N 	0.25254 0.06249 0.58683 -0.23100
N 	N 	0.95454 0.10226 0.88894 -0.29000
N 	N 	0.90370 0.07882 0.92160 -0.22600
N 	N 	0.88338 0.20467 0.91167 -0.23100
N 	N 	0.80699 0.99748 0.93048 -0.29600
N 	N 	0.86404 0.95654 0.94064 -0.24100
N 	N 	0.12303 0.11796 0.96940 -0.29100
N 	N 	0.10133 0.09477 0.93817 -0.24400
N 	N 	0.40186 0.43751 0.91317 -0.23100
O 	O 	0.08361 0.85892 0.34322 -0.47900
O 	O 	0.24598 0.83435 0.42941 -0.43200
O 	O 	0.10487 0.97184 0.37584 -0.42200
O 	O 	0.35127 0.89339 0.41859 -0.49200
O 	O 	0.31170 0.98029 0.53115 -0.42200
O 	O 	0.16395 0.88223 0.51545 -0.45100
O 	O 	0.76660 0.03110 0.37184 -0.47900
O 	O 	0.01686 0.95167 0.31743 -0.41800
O 	O 	0.84548 0.95878 0.46644 -0.43900
O 	O 	0.78575 0.64108 0.15678 -0.47900
O 	O 	0.00974 0.66565 0.07059 -0.43200
O 	O 	0.95255 0.52816 0.12416 -0.42100
O 	O 	0.16325 0.60661 0.08141 -0.49200
O 	O 	0.32314 0.51971 0.96885 -0.42100
O 	O 	0.06163 0.61777 0.98455 -0.45000
O 	O 	0.66954 0.46890 0.12816 -0.47900
O 	O 	0.78596 0.54833 0.18257 -0.41700
O 	O 	0.77070 0.54122 0.03356 -0.43900
O 	O 	0.42683 0.65678 0.35892 -0.47900
O 	O 	0.67539 0.57059 0.33435 -0.43200
O 	O 	0.48071 0.62416 0.47184 -0.42200
O 	O 	0.76986 0.58141 0.39339 -0.49200
O 	O 	0.84285 0.46885 0.48029 -0.42100
O 	O 	0.67940 0.48455 0.38223 -0.45100
O 	O 	0.13844 0.62816 0.53110 -0.47900
O 	O 	0.33429 0.68257 0.45167 -0.41700
O 	O 	0.31192 0.53356 0.45878 -0.43900
O 	O 	0.94253 0.84322 0.14108 -0.47900
O 	O 	0.08033 0.92941 0.16565 -0.43200
O 	O 	0.07671 0.87584 0.02816 -0.42200
O 	O 	0.24466 0.91859 0.10661 -0.49200
O 	O 	0.29199 0.03115 0.01971 -0.41800
O 	O 	0.04618 0.01545 0.11777 -0.45000
O 	O 	0.79770 0.87184 0.96890 -0.47800
O 	O 	0.96853 0.81743 0.04833 -0.41600
O 	O 	0.80426 0.96644 0.04122 -0.43900
O 	O 	0.91639 0.14108 0.65678 -0.47900
O 	O 	0.75402 0.16565 0.57059 -0.43200
O 	O 	0.89513 0.02816 0.62416 -0.42200
O 	O 	0.64873 0.10661 0.58141 -0.49200
O 	O 	0.68830 0.01971 0.46885 -0.42200
O 	O 	0.83605 0.11777 0.48455 -0.45100
O 	O 	0.23340 0.96890 0.62816 -0.47900
O 	O 	0.98314 0.04833 0.68257 -0.41900
O 	O 	0.15452 0.04122 0.53356 -0.43800
O 	O 	0.21425 0.35892 0.84322 -0.47900
O 	O 	0.99026 0.33435 0.92941 -0.43300
O 	O 	0.04745 0.47184 0.87584 -0.42100
O 	O 	0.83675 0.39339 0.91859 -0.49200
O 	O 	0.67686 0.48029 0.03115 -0.42100
O 	O 	0.93837 0.38223 0.01545 -0.45100
O 	O 	0.33046 0.53110 0.87184 -0.47900
O 	O 	0.21404 0.45167 0.81743 -0.41700
O 	O 	0.22930 0.45878 0.96644 -0.43900
O 	O 	0.57317 0.34322 0.64108 -0.47900
O 	O 	0.32461 0.42941 0.66565 -0.43200
O 	O 	0.51929 0.37584 0.52816 -0.42200
O 	O 	0.23014 0.41859 0.60661 -0.49200
O 	O 	0.15715 0.53115 0.51971 -0.42100
O 	O 	0.32060 0.51545 0.61777 -0.45100
O 	O 	0.86156 0.37184 0.46890 -0.47800
O 	O 	0.66571 0.31743 0.54833 -0.41700
O 	O 	0.68808 0.46644 0.54122 -0.43900
O 	O 	0.05747 0.15678 0.85892 -0.47900
O 	O 	0.91967 0.07059 0.83435 -0.43200
O 	O 	0.92329 0.12416 0.97184 -0.42200
O 	O 	0.75534 0.08141 0.89339 -0.49200
O 	O 	0.70801 0.96885 0.98029 -0.41800
O 	O 	0.95382 0.98455 0.88223 -0.45000
O 	O 	0.20230 0.12816 0.03110 -0.47800
O 	O 	0.03147 0.18257 0.95167 -0.41600
O 	O 	0.19574 0.03356 0.95878 -0.43900
