data_crystal

_cell_length_a 39.91600
_cell_length_b 39.91600
_cell_length_c 18.03300
_cell_angle_alpha 90.00000
_cell_angle_beta  90.00000
_cell_angle_gamma 90.00000

_symmetry_space_group_name_	'P 1'
_symmetry_space_group_name_H-M	'P 1'

loop_
_symmetry_equiv_pos_as_xyz
  x,y,z

loop_
_atom_site_label
_atom_site_type_symbol
_atom_site_fract_x
_atom_site_fract_y
_atom_site_fract_z
_atom_site_charge
Mn	Mn	0.07400 0.04248 0.16839 1.31800
O 	O 	0.09674 0.01346 0.23150 -0.47800
O 	O 	0.99743 0.02002 0.31512 -0.41400
O 	O 	0.04381 0.06994 0.10984 -0.48400
N 	N 	0.03260 0.03447 0.22091 -0.30000
N 	N 	0.00395 0.05085 0.19056 -0.26500
C 	C 	0.08600 0.99897 0.29290 0.29400
C 	C 	0.11017 0.97940 0.33100 -0.26100
H 	H 	0.13150 0.97520 0.30950 0.12300
C 	C 	0.10207 0.96660 0.40050 0.12900
H 	H 	0.11810 0.95340 0.42640 -0.02000
C 	C 	0.07091 0.97260 0.43270 -0.20600
H 	H 	0.06650 0.96560 0.48210 0.10000
C 	C 	0.04691 0.98860 0.39230 0.13900
H 	H 	0.02480 0.99010 0.41170 -0.00100
C 	C 	0.05391 0.00293 0.32320 -0.25700
C 	C 	0.02649 0.01975 0.28500 0.27600
C 	C 	0.01299 0.06851 0.13348 0.36700
C 	C 	0.98718 0.08906 0.09360 -0.73500
H 	H 	0.97780 0.07600 0.05250 0.24000
H 	H 	0.99760 0.10950 0.07420 0.23900
H 	H 	0.96920 0.09510 0.12810 0.22700
Mn	Mn	0.95849 0.03259 0.25308 1.33200
O 	O 	0.95001 0.07445 0.29441 -0.47000
O 	O 	0.88537 0.06636 0.10837 -0.40500
O 	O 	0.96052 0.98995 0.20217 -0.47100
N 	N 	0.92254 0.03879 0.18194 -0.28400
N 	N 	0.91711 0.01132 0.13487 -0.26100
N 	N 	0.92662 0.00700 0.34050 -0.25000
C 	C 	0.92732 0.09765 0.27640 0.29500
C 	C 	0.92529 0.12566 0.32220 -0.26700
H 	H 	0.93970 0.12740 0.36380 0.12700
C 	C 	0.90236 0.15111 0.30770 0.13600
H 	H 	0.90110 0.16990 0.33990 -0.02600
C 	C 	0.88139 0.14917 0.24680 -0.20600
H 	H 	0.86620 0.16680 0.23620 0.09700
C 	C 	0.88285 0.12138 0.20170 0.12900
H 	H 	0.86820 0.11980 0.16040 0.00400
C 	C 	0.90559 0.09521 0.21550 -0.24200
C 	C 	0.90436 0.06563 0.16595 0.25900
C 	C 	0.93773 0.98711 0.15110 0.37700
C 	C 	0.93497 0.95490 0.11050 -0.73700
H 	H 	0.95000 0.95520 0.06760 0.22800
H 	H 	0.91180 0.95180 0.09360 0.22600
H 	H 	0.94120 0.93640 0.14350 0.24300
C 	C 	0.93828 0.97770 0.37110 0.10500
H 	H 	0.95990 0.96970 0.35830 -0.00200
C 	C 	0.91860 0.95960 0.42070 -0.21400
H 	H 	0.92670 0.93930 0.44160 0.09800
C 	C 	0.89622 0.01220 0.35220 0.18300
H 	H 	0.88620 0.03030 0.32630 -0.04100
C 	C 	0.87583 0.99400 0.39960 -0.29900
H 	H 	0.85260 0.99910 0.40130 0.12400
C 	C 	0.88661 0.97160 0.43950 0.22500
C 	C 	0.86440 0.95450 0.49570 -0.22400
H 	H 	0.84920 0.97150 0.51720 0.09000
H 	H 	0.85030 0.93800 0.46920 0.08800
Mn	Mn	0.11226 0.97175 0.96403 1.33300
O 	O 	0.15173 0.99173 0.93470 -0.47500
O 	O 	0.11484 0.05224 0.11160 -0.42800
O 	O 	0.06982 0.95727 0.00442 -0.47700
N 	N 	0.10487 0.00677 0.03733 -0.28500
N 	N 	0.07386 0.00434 0.07540 -0.26000
N 	N 	0.81190 0.88955 0.70531 -0.23000
C 	C 	0.16840 0.01690 0.96570 0.29400
C 	C 	0.20054 0.02398 0.93700 -0.26000
H 	H 	0.20890 0.01080 0.89730 0.12800
C 	C 	0.22010 0.04951 0.96520 0.13500
H 	H 	0.24150 0.05400 0.94420 -0.02300
C 	C 	0.20853 0.06887 0.02480 -0.20400
H 	H 	0.22190 0.08630 0.04480 0.10700
C 	C 	0.17787 0.06222 0.05310 0.14100
H 	H 	0.17010 0.07520 0.09370 0.00800
C 	C 	0.15726 0.03697 0.02500 -0.24100
C 	C 	0.12387 0.03210 0.05990 0.27100
C 	C 	0.05782 0.97802 0.05340 0.36900
C 	C 	0.02339 0.97114 0.08250 -0.71800
H 	H 	0.02400 0.95130 0.11440 0.23300
H 	H 	0.01560 0.99050 0.11130 0.22000
H 	H 	0.00810 0.96720 0.04090 0.22100
C 	C 	0.82641 0.91848 0.72250 0.09800
H 	H 	0.82140 0.92830 0.76930 -0.00100
C 	C 	0.84828 0.93506 0.67650 -0.18100
H 	H 	0.85780 0.95580 0.69110 0.09200
C 	C 	0.81865 0.87714 0.63820 0.09300
H 	H 	0.80780 0.85700 0.62360 -0.01000
C 	C 	0.84060 0.89190 0.58840 -0.17100
H 	H 	0.84470 0.88200 0.54140 0.08200
C 	C 	0.85621 0.92102 0.60810 0.10900
C 	C 	0.88060 0.93780 0.55450 -0.09700
H 	H 	0.89450 0.95420 0.58220 0.05500
H 	H 	0.89590 0.92060 0.53380 0.04800
Mn	Mn	0.57400 0.54248 0.66839 1.31900
O 	O 	0.59674 0.51346 0.73150 -0.47700
O 	O 	0.49743 0.52002 0.81512 -0.41300
O 	O 	0.54381 0.56994 0.60984 -0.48300
N 	N 	0.53260 0.53447 0.72091 -0.30000
N 	N 	0.50395 0.55085 0.69056 -0.26400
C 	C 	0.58600 0.49897 0.79290 0.29500
C 	C 	0.61017 0.47940 0.83100 -0.26000
H 	H 	0.63150 0.47520 0.80950 0.12400
C 	C 	0.60207 0.46660 0.90050 0.13100
H 	H 	0.61810 0.45340 0.92640 -0.01900
C 	C 	0.57091 0.47260 0.93270 -0.20500
H 	H 	0.56650 0.46560 0.98210 0.10100
C 	C 	0.54691 0.48860 0.89230 0.14000
H 	H 	0.52480 0.49010 0.91170 -0.00000
C 	C 	0.55391 0.50293 0.82320 -0.25600
C 	C 	0.52649 0.51975 0.78500 0.27700
C 	C 	0.51299 0.56851 0.63348 0.36800
C 	C 	0.48718 0.58906 0.59360 -0.73400
H 	H 	0.47780 0.57600 0.55250 0.24100
H 	H 	0.49760 0.60950 0.57420 0.24000
H 	H 	0.46920 0.59510 0.62810 0.22800
Mn	Mn	0.45849 0.53259 0.75308 1.33300
O 	O 	0.45001 0.57445 0.79441 -0.46900
O 	O 	0.38537 0.56636 0.60837 -0.40500
O 	O 	0.46052 0.48995 0.70217 -0.47100
N 	N 	0.42254 0.53879 0.68194 -0.28400
N 	N 	0.41711 0.51132 0.63487 -0.26100
N 	N 	0.42662 0.50700 0.84050 -0.25000
C 	C 	0.42732 0.59765 0.77640 0.29500
C 	C 	0.42529 0.62566 0.82220 -0.26700
H 	H 	0.43970 0.62740 0.86380 0.12700
C 	C 	0.40236 0.65111 0.80770 0.13600
H 	H 	0.40110 0.66990 0.83990 -0.02600
C 	C 	0.38139 0.64917 0.74680 -0.20600
H 	H 	0.36620 0.66680 0.73620 0.09700
C 	C 	0.38285 0.62138 0.70170 0.12900
H 	H 	0.36820 0.61980 0.66040 0.00400
C 	C 	0.40559 0.59521 0.71550 -0.24200
C 	C 	0.40436 0.56563 0.66595 0.25900
C 	C 	0.43773 0.48711 0.65110 0.37700
C 	C 	0.43497 0.45490 0.61050 -0.73700
H 	H 	0.45000 0.45520 0.56760 0.22800
H 	H 	0.41180 0.45180 0.59360 0.22700
H 	H 	0.44120 0.43640 0.64350 0.24300
C 	C 	0.43828 0.47770 0.87110 0.10500
H 	H 	0.45990 0.46970 0.85830 -0.00200
C 	C 	0.41860 0.45960 0.92070 -0.21500
H 	H 	0.42670 0.43930 0.94160 0.09800
C 	C 	0.39622 0.51220 0.85220 0.18300
H 	H 	0.38620 0.53030 0.82630 -0.04100
C 	C 	0.37583 0.49400 0.89960 -0.29900
H 	H 	0.35260 0.49910 0.90130 0.12400
C 	C 	0.38661 0.47160 0.93950 0.22500
C 	C 	0.36440 0.45450 0.99570 -0.22400
H 	H 	0.34920 0.47150 0.01720 0.09100
H 	H 	0.35030 0.43800 0.96920 0.08800
Mn	Mn	0.61226 0.47175 0.46403 1.33300
O 	O 	0.65173 0.49173 0.43470 -0.47500
O 	O 	0.61484 0.55224 0.61160 -0.42800
O 	O 	0.56982 0.45727 0.50442 -0.47600
N 	N 	0.60487 0.50677 0.53733 -0.28500
N 	N 	0.57386 0.50434 0.57540 -0.26000
N 	N 	0.31190 0.38955 0.20531 -0.23000
C 	C 	0.66840 0.51690 0.46570 0.29500
C 	C 	0.70054 0.52398 0.43700 -0.26100
H 	H 	0.70890 0.51080 0.39730 0.12800
C 	C 	0.72010 0.54951 0.46520 0.13700
H 	H 	0.74150 0.55400 0.44420 -0.02300
C 	C 	0.70853 0.56887 0.52480 -0.20600
H 	H 	0.72190 0.58630 0.54480 0.10800
C 	C 	0.67787 0.56222 0.55310 0.14200
H 	H 	0.67010 0.57520 0.59370 0.00800
C 	C 	0.65726 0.53697 0.52500 -0.24200
C 	C 	0.62387 0.53210 0.55990 0.27100
C 	C 	0.55782 0.47802 0.55340 0.36900
C 	C 	0.52339 0.47114 0.58250 -0.71800
H 	H 	0.52400 0.45130 0.61440 0.23400
H 	H 	0.51560 0.49050 0.61130 0.22000
H 	H 	0.50810 0.46720 0.54090 0.22100
C 	C 	0.32641 0.41848 0.22250 0.09800
H 	H 	0.32140 0.42830 0.26930 -0.00100
C 	C 	0.34828 0.43506 0.17650 -0.18100
H 	H 	0.35780 0.45580 0.19110 0.09200
C 	C 	0.31865 0.37714 0.13820 0.09300
H 	H 	0.30780 0.35700 0.12360 -0.01000
C 	C 	0.34060 0.39190 0.08840 -0.17100
H 	H 	0.34470 0.38200 0.04140 0.08200
C 	C 	0.35621 0.42102 0.10810 0.10900
C 	C 	0.38060 0.43780 0.05450 -0.09700
H 	H 	0.39450 0.45420 0.08220 0.05500
H 	H 	0.39590 0.42060 0.03380 0.04800
Mn	Mn	0.42600 0.95752 0.66839 1.31900
O 	O 	0.40326 0.98654 0.73150 -0.47700
O 	O 	0.50257 0.97998 0.81512 -0.41300
O 	O 	0.45619 0.93006 0.60984 -0.48300
N 	N 	0.46740 0.96553 0.72091 -0.29900
N 	N 	0.49605 0.94915 0.69056 -0.26400
C 	C 	0.41400 0.00103 0.79290 0.29500
C 	C 	0.38983 0.02060 0.83100 -0.26000
H 	H 	0.36850 0.02480 0.80950 0.12400
C 	C 	0.39793 0.03340 0.90050 0.13000
H 	H 	0.38190 0.04660 0.92640 -0.01900
C 	C 	0.42909 0.02740 0.93270 -0.20500
H 	H 	0.43350 0.03440 0.98210 0.10100
C 	C 	0.45309 0.01140 0.89230 0.14000
H 	H 	0.47520 0.00990 0.91170 0.00000
C 	C 	0.44609 0.99707 0.82320 -0.25600
C 	C 	0.47351 0.98025 0.78500 0.27700
C 	C 	0.48701 0.93149 0.63348 0.36800
C 	C 	0.51282 0.91094 0.59360 -0.73400
H 	H 	0.52220 0.92400 0.55250 0.24100
H 	H 	0.50240 0.89050 0.57420 0.24000
H 	H 	0.53080 0.90490 0.62810 0.22800
Mn	Mn	0.54151 0.96741 0.75308 1.33300
O 	O 	0.54999 0.92555 0.79441 -0.46900
O 	O 	0.61463 0.93364 0.60837 -0.40500
O 	O 	0.53948 0.01005 0.70217 -0.47100
N 	N 	0.57746 0.96121 0.68194 -0.28400
N 	N 	0.58289 0.98868 0.63487 -0.26100
N 	N 	0.57338 0.99300 0.84050 -0.25000
C 	C 	0.57268 0.90235 0.77640 0.29500
C 	C 	0.57471 0.87434 0.82220 -0.26700
H 	H 	0.56030 0.87260 0.86380 0.12800
C 	C 	0.59764 0.84889 0.80770 0.13600
H 	H 	0.59890 0.83010 0.83990 -0.02600
C 	C 	0.61861 0.85083 0.74680 -0.20600
H 	H 	0.63380 0.83320 0.73620 0.09700
C 	C 	0.61715 0.87862 0.70170 0.12900
H 	H 	0.63180 0.88020 0.66040 0.00400
C 	C 	0.59441 0.90479 0.71550 -0.24200
C 	C 	0.59564 0.93437 0.66595 0.25900
C 	C 	0.56227 0.01289 0.65110 0.37700
C 	C 	0.56503 0.04510 0.61050 -0.73700
H 	H 	0.55000 0.04480 0.56760 0.22800
H 	H 	0.58820 0.04820 0.59360 0.22600
H 	H 	0.55880 0.06360 0.64350 0.24300
C 	C 	0.56172 0.02230 0.87110 0.10500
H 	H 	0.54010 0.03030 0.85830 -0.00200
C 	C 	0.58140 0.04040 0.92070 -0.21500
H 	H 	0.57330 0.06070 0.94160 0.09800
C 	C 	0.60378 0.98780 0.85220 0.18300
H 	H 	0.61380 0.96970 0.82630 -0.04200
C 	C 	0.62417 0.00600 0.89960 -0.30000
H 	H 	0.64740 0.00090 0.90130 0.12400
C 	C 	0.61339 0.02840 0.93950 0.22600
C 	C 	0.63560 0.04550 0.99570 -0.22500
H 	H 	0.65080 0.02850 0.01720 0.09100
H 	H 	0.64970 0.06200 0.96920 0.08800
Mn	Mn	0.38774 0.02825 0.46403 1.33300
O 	O 	0.34827 0.00827 0.43470 -0.47500
O 	O 	0.38516 0.94776 0.61160 -0.42800
O 	O 	0.43018 0.04273 0.50442 -0.47600
N 	N 	0.39513 0.99323 0.53733 -0.28500
N 	N 	0.42614 0.99566 0.57540 -0.26000
N 	N 	0.68810 0.11045 0.20531 -0.23000
C 	C 	0.33160 0.98310 0.46570 0.29500
C 	C 	0.29946 0.97602 0.43700 -0.26100
H 	H 	0.29110 0.98920 0.39730 0.12800
C 	C 	0.27990 0.95049 0.46520 0.13700
H 	H 	0.25850 0.94600 0.44420 -0.02300
C 	C 	0.29147 0.93113 0.52480 -0.20600
H 	H 	0.27810 0.91370 0.54480 0.10800
C 	C 	0.32213 0.93778 0.55310 0.14200
H 	H 	0.32990 0.92480 0.59370 0.00800
C 	C 	0.34274 0.96303 0.52500 -0.24200
C 	C 	0.37613 0.96790 0.55990 0.27100
C 	C 	0.44218 0.02198 0.55340 0.36900
C 	C 	0.47661 0.02886 0.58250 -0.71800
H 	H 	0.47600 0.04870 0.61440 0.23400
H 	H 	0.48440 0.00950 0.61130 0.22000
H 	H 	0.49190 0.03280 0.54090 0.22100
C 	C 	0.67359 0.08152 0.22250 0.09800
H 	H 	0.67860 0.07170 0.26930 -0.00100
C 	C 	0.65172 0.06494 0.17650 -0.18100
H 	H 	0.64220 0.04420 0.19110 0.09200
C 	C 	0.68135 0.12286 0.13820 0.09300
H 	H 	0.69220 0.14300 0.12360 -0.01000
C 	C 	0.65940 0.10810 0.08840 -0.17100
H 	H 	0.65530 0.11800 0.04140 0.08200
C 	C 	0.64379 0.07898 0.10810 0.10800
C 	C 	0.61940 0.06220 0.05450 -0.09600
H 	H 	0.60550 0.04580 0.08220 0.05500
H 	H 	0.60410 0.07940 0.03380 0.04800
Mn	Mn	0.92600 0.45752 0.16839 1.31900
O 	O 	0.90326 0.48654 0.23150 -0.47800
O 	O 	0.00257 0.47998 0.31512 -0.41300
O 	O 	0.95619 0.43006 0.10984 -0.48300
N 	N 	0.96740 0.46553 0.22091 -0.30000
N 	N 	0.99605 0.44915 0.19056 -0.26400
C 	C 	0.91400 0.50103 0.29290 0.29500
C 	C 	0.88983 0.52060 0.33100 -0.26000
H 	H 	0.86850 0.52480 0.30950 0.12400
C 	C 	0.89793 0.53340 0.40050 0.13100
H 	H 	0.88190 0.54660 0.42640 -0.01900
C 	C 	0.92909 0.52740 0.43270 -0.20500
H 	H 	0.93350 0.53440 0.48210 0.10100
C 	C 	0.95309 0.51140 0.39230 0.14000
H 	H 	0.97520 0.50990 0.41170 -0.00000
C 	C 	0.94609 0.49707 0.32320 -0.25600
C 	C 	0.97351 0.48025 0.28500 0.27700
C 	C 	0.98701 0.43149 0.13348 0.36800
C 	C 	0.01282 0.41094 0.09360 -0.73400
H 	H 	0.02220 0.42400 0.05250 0.24100
H 	H 	0.00240 0.39050 0.07420 0.24000
H 	H 	0.03080 0.40490 0.12810 0.22800
Mn	Mn	0.04151 0.46741 0.25308 1.33300
O 	O 	0.04999 0.42555 0.29441 -0.46900
O 	O 	0.11463 0.43364 0.10837 -0.40500
O 	O 	0.03948 0.51005 0.20217 -0.47100
N 	N 	0.07746 0.46121 0.18194 -0.28400
N 	N 	0.08289 0.48868 0.13487 -0.26100
N 	N 	0.07338 0.49300 0.34050 -0.25000
C 	C 	0.07268 0.40235 0.27640 0.29500
C 	C 	0.07471 0.37434 0.32220 -0.26700
H 	H 	0.06030 0.37260 0.36380 0.12700
C 	C 	0.09764 0.34889 0.30770 0.13600
H 	H 	0.09890 0.33010 0.33990 -0.02600
C 	C 	0.11861 0.35083 0.24680 -0.20600
H 	H 	0.13380 0.33320 0.23620 0.09700
C 	C 	0.11715 0.37862 0.20170 0.12900
H 	H 	0.13180 0.38020 0.16040 0.00400
C 	C 	0.09441 0.40479 0.21550 -0.24200
C 	C 	0.09564 0.43437 0.16595 0.25900
C 	C 	0.06227 0.51289 0.15110 0.37700
C 	C 	0.06503 0.54510 0.11050 -0.73700
H 	H 	0.05000 0.54480 0.06760 0.22800
H 	H 	0.08820 0.54820 0.09360 0.22600
H 	H 	0.05880 0.56360 0.14350 0.24300
C 	C 	0.06172 0.52230 0.37110 0.10500
H 	H 	0.04010 0.53030 0.35830 -0.00200
C 	C 	0.08140 0.54040 0.42070 -0.21400
H 	H 	0.07330 0.56070 0.44160 0.09800
C 	C 	0.10378 0.48780 0.35220 0.18200
H 	H 	0.11380 0.46970 0.32630 -0.04100
C 	C 	0.12417 0.50600 0.39960 -0.29800
H 	H 	0.14740 0.50090 0.40130 0.12400
C 	C 	0.11339 0.52840 0.43950 0.22500
C 	C 	0.13560 0.54550 0.49570 -0.22400
H 	H 	0.15080 0.52850 0.51720 0.09000
H 	H 	0.14970 0.56200 0.46920 0.08800
Mn	Mn	0.88774 0.52825 0.96403 1.33300
O 	O 	0.84827 0.50827 0.93470 -0.47500
O 	O 	0.88516 0.44776 0.11160 -0.42800
O 	O 	0.93018 0.54273 0.00442 -0.47600
N 	N 	0.89513 0.49323 0.03733 -0.28500
N 	N 	0.92614 0.49566 0.07540 -0.26000
N 	N 	0.18810 0.61045 0.70531 -0.23000
C 	C 	0.83160 0.48310 0.96570 0.29500
C 	C 	0.79946 0.47602 0.93700 -0.26000
H 	H 	0.79110 0.48920 0.89730 0.12800
C 	C 	0.77990 0.45049 0.96520 0.13600
H 	H 	0.75850 0.44600 0.94420 -0.02300
C 	C 	0.79147 0.43113 0.02480 -0.20400
H 	H 	0.77810 0.41370 0.04480 0.10700
C 	C 	0.82213 0.43778 0.05310 0.14100
H 	H 	0.82990 0.42480 0.09370 0.00800
C 	C 	0.84274 0.46303 0.02500 -0.24100
C 	C 	0.87613 0.46790 0.05990 0.27100
C 	C 	0.94218 0.52198 0.05340 0.36900
C 	C 	0.97661 0.52886 0.08250 -0.71800
H 	H 	0.97600 0.54870 0.11440 0.23400
H 	H 	0.98440 0.50950 0.11130 0.22000
H 	H 	0.99190 0.53280 0.04090 0.22100
C 	C 	0.17359 0.58152 0.72250 0.09800
H 	H 	0.17860 0.57170 0.76930 -0.00100
C 	C 	0.15172 0.56494 0.67650 -0.18100
H 	H 	0.14220 0.54420 0.69110 0.09200
C 	C 	0.18135 0.62286 0.63820 0.09300
H 	H 	0.19220 0.64300 0.62360 -0.01000
C 	C 	0.15940 0.60810 0.58840 -0.17100
H 	H 	0.15530 0.61800 0.54140 0.08200
C 	C 	0.14379 0.57898 0.60810 0.10900
C 	C 	0.11940 0.56220 0.55450 -0.09700
H 	H 	0.10550 0.54580 0.58220 0.05500
H 	H 	0.10410 0.57940 0.53380 0.04800
Mn	Mn	0.70752 0.32400 0.41839 1.31900
O 	O 	0.73654 0.34674 0.48150 -0.47800
O 	O 	0.72998 0.24743 0.56512 -0.41300
O 	O 	0.68006 0.29381 0.35984 -0.48300
N 	N 	0.71553 0.28260 0.47091 -0.30000
N 	N 	0.69915 0.25395 0.44056 -0.26400
C 	C 	0.75103 0.33600 0.54290 0.29500
C 	C 	0.77060 0.36017 0.58100 -0.26000
H 	H 	0.77480 0.38150 0.55950 0.12400
C 	C 	0.78340 0.35207 0.65050 0.13100
H 	H 	0.79660 0.36810 0.67640 -0.01900
C 	C 	0.77740 0.32091 0.68270 -0.20500
H 	H 	0.78440 0.31650 0.73210 0.10100
C 	C 	0.76140 0.29691 0.64230 0.14000
H 	H 	0.75990 0.27480 0.66170 -0.00000
C 	C 	0.74707 0.30391 0.57320 -0.25600
C 	C 	0.73025 0.27649 0.53500 0.27700
C 	C 	0.68149 0.26299 0.38348 0.36800
C 	C 	0.66094 0.23718 0.34360 -0.73400
H 	H 	0.67400 0.22780 0.30250 0.24100
H 	H 	0.64050 0.24760 0.32420 0.24000
H 	H 	0.65490 0.21920 0.37810 0.22800
Mn	Mn	0.71741 0.20849 0.50308 1.33300
O 	O 	0.67555 0.20001 0.54441 -0.46900
O 	O 	0.68364 0.13537 0.35837 -0.40500
O 	O 	0.76005 0.21052 0.45217 -0.47100
N 	N 	0.71121 0.17254 0.43194 -0.28400
N 	N 	0.73868 0.16711 0.38487 -0.26100
N 	N 	0.74300 0.17662 0.59050 -0.25000
C 	C 	0.65235 0.17732 0.52640 0.29500
C 	C 	0.62434 0.17529 0.57220 -0.26700
H 	H 	0.62260 0.18970 0.61380 0.12700
C 	C 	0.59889 0.15236 0.55770 0.13600
H 	H 	0.58010 0.15110 0.58990 -0.02600
C 	C 	0.60083 0.13139 0.49680 -0.20600
H 	H 	0.58320 0.11620 0.48620 0.09700
C 	C 	0.62862 0.13285 0.45170 0.12900
H 	H 	0.63020 0.11820 0.41040 0.00400
C 	C 	0.65479 0.15559 0.46550 -0.24200
C 	C 	0.68437 0.15436 0.41595 0.25900
C 	C 	0.76289 0.18773 0.40110 0.37700
C 	C 	0.79510 0.18497 0.36050 -0.73700
H 	H 	0.79480 0.20000 0.31760 0.22800
H 	H 	0.79820 0.16180 0.34360 0.22700
H 	H 	0.81360 0.19120 0.39350 0.24300
C 	C 	0.77230 0.18828 0.62110 0.10500
H 	H 	0.78030 0.20990 0.60830 -0.00200
C 	C 	0.79040 0.16860 0.67070 -0.21400
H 	H 	0.81070 0.17670 0.69160 0.09800
C 	C 	0.73780 0.14622 0.60220 0.18300
H 	H 	0.71970 0.13620 0.57630 -0.04100
C 	C 	0.75600 0.12583 0.64960 -0.29900
H 	H 	0.75090 0.10260 0.65130 0.12400
C 	C 	0.77840 0.13661 0.68950 0.22500
C 	C 	0.79550 0.11440 0.74570 -0.22400
H 	H 	0.77850 0.09920 0.76720 0.09000
H 	H 	0.81200 0.10030 0.71920 0.08800
Mn	Mn	0.77825 0.36226 0.21403 1.33300
O 	O 	0.75827 0.40173 0.18470 -0.47500
O 	O 	0.69776 0.36484 0.36160 -0.42800
O 	O 	0.79273 0.31982 0.25442 -0.47600
N 	N 	0.74323 0.35487 0.28733 -0.28500
N 	N 	0.74566 0.32386 0.32540 -0.26000
N 	N 	0.86045 0.06190 0.95531 -0.23000
C 	C 	0.73310 0.41840 0.21570 0.29600
C 	C 	0.72602 0.45054 0.18700 -0.26100
H 	H 	0.73920 0.45890 0.14730 0.12800
C 	C 	0.70049 0.47010 0.21520 0.13700
H 	H 	0.69600 0.49150 0.19420 -0.02300
C 	C 	0.68113 0.45853 0.27480 -0.20600
H 	H 	0.66370 0.47190 0.29480 0.10800
C 	C 	0.68778 0.42787 0.30310 0.14200
H 	H 	0.67480 0.42010 0.34370 0.00800
C 	C 	0.71303 0.40726 0.27500 -0.24200
C 	C 	0.71790 0.37387 0.30990 0.27100
C 	C 	0.77198 0.30782 0.30340 0.36900
C 	C 	0.77886 0.27339 0.33250 -0.71800
H 	H 	0.79870 0.27400 0.36440 0.23400
H 	H 	0.75950 0.26560 0.36130 0.22000
H 	H 	0.78280 0.25810 0.29090 0.22100
C 	C 	0.83152 0.07641 0.97250 0.09700
H 	H 	0.82170 0.07140 0.01930 -0.00100
C 	C 	0.81494 0.09828 0.92650 -0.18000
H 	H 	0.79420 0.10780 0.94110 0.09200
C 	C 	0.87286 0.06865 0.88820 0.09300
H 	H 	0.89300 0.05780 0.87360 -0.01000
C 	C 	0.85810 0.09060 0.83840 -0.17100
H 	H 	0.86800 0.09470 0.79140 0.08200
C 	C 	0.82898 0.10621 0.85810 0.10800
C 	C 	0.81220 0.13060 0.80450 -0.09700
H 	H 	0.79580 0.14450 0.83220 0.05500
H 	H 	0.82940 0.14590 0.78380 0.04800
Mn	Mn	0.20752 0.82400 0.91839 1.31900
O 	O 	0.23654 0.84674 0.98150 -0.47700
O 	O 	0.22998 0.74743 0.06512 -0.41300
O 	O 	0.18006 0.79381 0.85984 -0.48300
N 	N 	0.21553 0.78260 0.97091 -0.29900
N 	N 	0.19915 0.75395 0.94056 -0.26400
C 	C 	0.25103 0.83600 0.04290 0.29400
C 	C 	0.27060 0.86017 0.08100 -0.25900
H 	H 	0.27480 0.88150 0.05950 0.12400
C 	C 	0.28340 0.85207 0.15050 0.13000
H 	H 	0.29660 0.86810 0.17640 -0.01900
C 	C 	0.27740 0.82091 0.18270 -0.20500
H 	H 	0.28440 0.81650 0.23210 0.10100
C 	C 	0.26140 0.79691 0.14230 0.14000
H 	H 	0.25990 0.77480 0.16170 0.00000
C 	C 	0.24707 0.80391 0.07320 -0.25600
C 	C 	0.23025 0.77649 0.03500 0.27600
C 	C 	0.18149 0.76299 0.88348 0.36800
C 	C 	0.16094 0.73718 0.84360 -0.73400
H 	H 	0.17400 0.72780 0.80250 0.24100
H 	H 	0.14050 0.74760 0.82420 0.24000
H 	H 	0.15490 0.71920 0.87810 0.22800
Mn	Mn	0.21741 0.70849 0.00308 1.33300
O 	O 	0.17555 0.70001 0.04441 -0.46900
O 	O 	0.18364 0.63537 0.85837 -0.40500
O 	O 	0.26005 0.71052 0.95217 -0.47100
N 	N 	0.21121 0.67254 0.93194 -0.28300
N 	N 	0.23868 0.66711 0.88487 -0.26100
N 	N 	0.24300 0.67662 0.09050 -0.25000
C 	C 	0.15235 0.67732 0.02640 0.29400
C 	C 	0.12434 0.67529 0.07220 -0.26500
H 	H 	0.12260 0.68970 0.11380 0.12700
C 	C 	0.09889 0.65236 0.05770 0.13300
H 	H 	0.08010 0.65110 0.08990 -0.02600
C 	C 	0.10083 0.63139 0.99680 -0.20300
H 	H 	0.08320 0.61620 0.98620 0.09600
C 	C 	0.12862 0.63285 0.95170 0.12700
H 	H 	0.13020 0.61820 0.91040 0.00500
C 	C 	0.15479 0.65559 0.96550 -0.24000
C 	C 	0.18437 0.65436 0.91595 0.25900
C 	C 	0.26289 0.68773 0.90110 0.37800
C 	C 	0.29510 0.68497 0.86050 -0.73700
H 	H 	0.29480 0.70000 0.81760 0.22900
H 	H 	0.29820 0.66180 0.84360 0.22700
H 	H 	0.31360 0.69120 0.89350 0.24300
C 	C 	0.27230 0.68828 0.12110 0.10500
H 	H 	0.28030 0.70990 0.10830 -0.00200
C 	C 	0.29040 0.66860 0.17070 -0.21400
H 	H 	0.31070 0.67670 0.19160 0.09800
C 	C 	0.23780 0.64622 0.10220 0.18200
H 	H 	0.21970 0.63620 0.07630 -0.04200
C 	C 	0.25600 0.62583 0.14960 -0.29800
H 	H 	0.25090 0.60260 0.15130 0.12400
C 	C 	0.27840 0.63661 0.18950 0.22500
C 	C 	0.29550 0.61440 0.24570 -0.22400
H 	H 	0.27850 0.59920 0.26720 0.09000
H 	H 	0.31200 0.60030 0.21920 0.08800
Mn	Mn	0.27825 0.86226 0.71403 1.33300
O 	O 	0.25827 0.90173 0.68470 -0.47500
O 	O 	0.19776 0.86484 0.86160 -0.42800
O 	O 	0.29273 0.81982 0.75442 -0.47600
N 	N 	0.24323 0.85487 0.78733 -0.28500
N 	N 	0.24566 0.82386 0.82540 -0.26000
N 	N 	0.36045 0.56190 0.45531 -0.23000
C 	C 	0.23310 0.91840 0.71570 0.29500
C 	C 	0.22602 0.95054 0.68700 -0.26100
H 	H 	0.23920 0.95890 0.64730 0.12800
C 	C 	0.20049 0.97010 0.71520 0.13700
H 	H 	0.19600 0.99150 0.69420 -0.02300
C 	C 	0.18113 0.95853 0.77480 -0.20600
H 	H 	0.16370 0.97190 0.79480 0.10800
C 	C 	0.18778 0.92787 0.80310 0.14200
H 	H 	0.17480 0.92010 0.84370 0.00800
C 	C 	0.21303 0.90726 0.77500 -0.24200
C 	C 	0.21790 0.87387 0.80990 0.27100
C 	C 	0.27198 0.80782 0.80340 0.36900
C 	C 	0.27886 0.77339 0.83250 -0.71800
H 	H 	0.29870 0.77400 0.86440 0.23400
H 	H 	0.25950 0.76560 0.86130 0.22100
H 	H 	0.28280 0.75810 0.79090 0.22100
C 	C 	0.33152 0.57641 0.47250 0.09800
H 	H 	0.32170 0.57140 0.51930 -0.00100
C 	C 	0.31494 0.59828 0.42650 -0.18100
H 	H 	0.29420 0.60780 0.44110 0.09200
C 	C 	0.37286 0.56865 0.38820 0.09300
H 	H 	0.39300 0.55780 0.37360 -0.01000
C 	C 	0.35810 0.59060 0.33840 -0.17100
H 	H 	0.36800 0.59470 0.29140 0.08200
C 	C 	0.32898 0.60621 0.35810 0.10900
C 	C 	0.31220 0.63060 0.30450 -0.09700
H 	H 	0.29580 0.64450 0.33220 0.05500
H 	H 	0.32940 0.64590 0.28380 0.04800
Mn	Mn	0.79248 0.67600 0.91839 1.31900
O 	O 	0.76346 0.65326 0.98150 -0.47700
O 	O 	0.77002 0.75257 0.06512 -0.41300
O 	O 	0.81994 0.70619 0.85984 -0.48300
N 	N 	0.78447 0.71740 0.97091 -0.29900
N 	N 	0.80085 0.74605 0.94056 -0.26400
C 	C 	0.74897 0.66400 0.04290 0.29400
C 	C 	0.72940 0.63983 0.08100 -0.25900
H 	H 	0.72520 0.61850 0.05950 0.12400
C 	C 	0.71660 0.64793 0.15050 0.13000
H 	H 	0.70340 0.63190 0.17640 -0.01900
C 	C 	0.72260 0.67909 0.18270 -0.20500
H 	H 	0.71560 0.68350 0.23210 0.10100
C 	C 	0.73860 0.70309 0.14230 0.14000
H 	H 	0.74010 0.72520 0.16170 0.00000
C 	C 	0.75293 0.69609 0.07320 -0.25600
C 	C 	0.76975 0.72351 0.03500 0.27600
C 	C 	0.81851 0.73701 0.88348 0.36800
C 	C 	0.83906 0.76282 0.84360 -0.73400
H 	H 	0.82600 0.77220 0.80250 0.24100
H 	H 	0.85950 0.75240 0.82420 0.24000
H 	H 	0.84510 0.78080 0.87810 0.22800
Mn	Mn	0.78259 0.79151 0.00308 1.33300
O 	O 	0.82445 0.79999 0.04441 -0.46800
O 	O 	0.81636 0.86463 0.85837 -0.40500
O 	O 	0.73995 0.78948 0.95217 -0.47100
N 	N 	0.78879 0.82746 0.93194 -0.28300
N 	N 	0.76132 0.83289 0.88487 -0.26100
N 	N 	0.75700 0.82338 0.09050 -0.25000
C 	C 	0.84765 0.82268 0.02640 0.29300
C 	C 	0.87566 0.82471 0.07220 -0.26500
H 	H 	0.87740 0.81030 0.11380 0.12700
C 	C 	0.90111 0.84764 0.05770 0.13300
H 	H 	0.91990 0.84890 0.08990 -0.02600
C 	C 	0.89917 0.86861 0.99680 -0.20300
H 	H 	0.91680 0.88380 0.98620 0.09600
C 	C 	0.87138 0.86715 0.95170 0.12700
H 	H 	0.86980 0.88180 0.91040 0.00500
C 	C 	0.84521 0.84441 0.96550 -0.24000
C 	C 	0.81563 0.84564 0.91595 0.25900
C 	C 	0.73711 0.81227 0.90110 0.37800
C 	C 	0.70490 0.81503 0.86050 -0.73700
H 	H 	0.70520 0.80000 0.81760 0.22900
H 	H 	0.70180 0.83820 0.84360 0.22700
H 	H 	0.68640 0.80880 0.89350 0.24300
C 	C 	0.72770 0.81172 0.12110 0.10500
H 	H 	0.71970 0.79010 0.10830 -0.00200
C 	C 	0.70960 0.83140 0.17070 -0.21400
H 	H 	0.68930 0.82330 0.19160 0.09800
C 	C 	0.76220 0.85378 0.10220 0.18200
H 	H 	0.78030 0.86380 0.07630 -0.04200
C 	C 	0.74400 0.87417 0.14960 -0.29800
H 	H 	0.74910 0.89740 0.15130 0.12300
C 	C 	0.72160 0.86339 0.18950 0.22500
C 	C 	0.70450 0.88560 0.24570 -0.22400
H 	H 	0.72150 0.90080 0.26720 0.09000
H 	H 	0.68800 0.89970 0.21920 0.08800
Mn	Mn	0.72175 0.63774 0.71403 1.33300
O 	O 	0.74173 0.59827 0.68470 -0.47500
O 	O 	0.80224 0.63516 0.86160 -0.42800
O 	O 	0.70727 0.68018 0.75442 -0.47600
N 	N 	0.75677 0.64513 0.78733 -0.28500
N 	N 	0.75434 0.67614 0.82540 -0.26000
N 	N 	0.63955 0.93810 0.45531 -0.23000
C 	C 	0.76690 0.58160 0.71570 0.29500
C 	C 	0.77398 0.54946 0.68700 -0.26100
H 	H 	0.76080 0.54110 0.64730 0.12800
C 	C 	0.79951 0.52990 0.71520 0.13700
H 	H 	0.80400 0.50850 0.69420 -0.02300
C 	C 	0.81887 0.54147 0.77480 -0.20600
H 	H 	0.83630 0.52810 0.79480 0.10800
C 	C 	0.81222 0.57213 0.80310 0.14200
H 	H 	0.82520 0.57990 0.84370 0.00800
C 	C 	0.78697 0.59274 0.77500 -0.24200
C 	C 	0.78210 0.62613 0.80990 0.27100
C 	C 	0.72802 0.69218 0.80340 0.36900
C 	C 	0.72114 0.72661 0.83250 -0.71800
H 	H 	0.70130 0.72600 0.86440 0.23400
H 	H 	0.74050 0.73440 0.86130 0.22100
H 	H 	0.71720 0.74190 0.79090 0.22100
C 	C 	0.66848 0.92359 0.47250 0.09800
H 	H 	0.67830 0.92860 0.51930 -0.00100
C 	C 	0.68506 0.90172 0.42650 -0.18100
H 	H 	0.70580 0.89220 0.44110 0.09200
C 	C 	0.62714 0.93135 0.38820 0.09300
H 	H 	0.60700 0.94220 0.37360 -0.01000
C 	C 	0.64190 0.90940 0.33840 -0.17100
H 	H 	0.63200 0.90530 0.29140 0.08200
C 	C 	0.67102 0.89379 0.35810 0.10900
C 	C 	0.68780 0.86940 0.30450 -0.09700
H 	H 	0.70420 0.85550 0.33220 0.05500
H 	H 	0.67060 0.85410 0.28380 0.04800
Mn	Mn	0.29248 0.17600 0.41839 1.31900
O 	O 	0.26346 0.15326 0.48150 -0.47800
O 	O 	0.27002 0.25257 0.56512 -0.41300
O 	O 	0.31994 0.20619 0.35984 -0.48300
N 	N 	0.28447 0.21740 0.47091 -0.30000
N 	N 	0.30085 0.24605 0.44056 -0.26400
C 	C 	0.24897 0.16400 0.54290 0.29500
C 	C 	0.22940 0.13983 0.58100 -0.26000
H 	H 	0.22520 0.11850 0.55950 0.12400
C 	C 	0.21660 0.14793 0.65050 0.13100
H 	H 	0.20340 0.13190 0.67640 -0.01900
C 	C 	0.22260 0.17909 0.68270 -0.20500
H 	H 	0.21560 0.18350 0.73210 0.10100
C 	C 	0.23860 0.20309 0.64230 0.14000
H 	H 	0.24010 0.22520 0.66170 -0.00000
C 	C 	0.25293 0.19609 0.57320 -0.25600
C 	C 	0.26975 0.22351 0.53500 0.27700
C 	C 	0.31851 0.23701 0.38348 0.36800
C 	C 	0.33906 0.26282 0.34360 -0.73400
H 	H 	0.32600 0.27220 0.30250 0.24100
H 	H 	0.35950 0.25240 0.32420 0.24000
H 	H 	0.34510 0.28080 0.37810 0.22800
Mn	Mn	0.28259 0.29151 0.50308 1.33300
O 	O 	0.32445 0.29999 0.54441 -0.46900
O 	O 	0.31636 0.36463 0.35837 -0.40500
O 	O 	0.23995 0.28948 0.45217 -0.47100
N 	N 	0.28879 0.32746 0.43194 -0.28400
N 	N 	0.26132 0.33289 0.38487 -0.26100
N 	N 	0.25700 0.32338 0.59050 -0.25000
C 	C 	0.34765 0.32268 0.52640 0.29500
C 	C 	0.37566 0.32471 0.57220 -0.26700
H 	H 	0.37740 0.31030 0.61380 0.12700
C 	C 	0.40111 0.34764 0.55770 0.13600
H 	H 	0.41990 0.34890 0.58990 -0.02600
C 	C 	0.39917 0.36861 0.49680 -0.20600
H 	H 	0.41680 0.38380 0.48620 0.09700
C 	C 	0.37138 0.36715 0.45170 0.12900
H 	H 	0.36980 0.38180 0.41040 0.00400
C 	C 	0.34521 0.34441 0.46550 -0.24200
C 	C 	0.31563 0.34564 0.41595 0.25900
C 	C 	0.23711 0.31227 0.40110 0.37700
C 	C 	0.20490 0.31503 0.36050 -0.73700
H 	H 	0.20520 0.30000 0.31760 0.22800
H 	H 	0.20180 0.33820 0.34360 0.22700
H 	H 	0.18640 0.30880 0.39350 0.24300
C 	C 	0.22770 0.31172 0.62110 0.10500
H 	H 	0.21970 0.29010 0.60830 -0.00200
C 	C 	0.20960 0.33140 0.67070 -0.21400
H 	H 	0.18930 0.32330 0.69160 0.09800
C 	C 	0.26220 0.35378 0.60220 0.18300
H 	H 	0.28030 0.36380 0.57630 -0.04100
C 	C 	0.24400 0.37417 0.64960 -0.29800
H 	H 	0.24910 0.39740 0.65130 0.12400
C 	C 	0.22160 0.36339 0.68950 0.22500
C 	C 	0.20450 0.38560 0.74570 -0.22400
H 	H 	0.22150 0.40080 0.76720 0.09000
H 	H 	0.18800 0.39970 0.71920 0.08800
Mn	Mn	0.22175 0.13774 0.21403 1.33300
O 	O 	0.24173 0.09827 0.18470 -0.47500
O 	O 	0.30224 0.13516 0.36160 -0.42800
O 	O 	0.20727 0.18018 0.25442 -0.47600
N 	N 	0.25677 0.14513 0.28733 -0.28500
N 	N 	0.25434 0.17614 0.32540 -0.26000
N 	N 	0.13955 0.43810 0.95531 -0.23000
C 	C 	0.26690 0.08160 0.21570 0.29600
C 	C 	0.27398 0.04946 0.18700 -0.26100
H 	H 	0.26080 0.04110 0.14730 0.12800
C 	C 	0.29951 0.02990 0.21520 0.13700
H 	H 	0.30400 0.00850 0.19420 -0.02300
C 	C 	0.31887 0.04147 0.27480 -0.20600
H 	H 	0.33630 0.02810 0.29480 0.10800
C 	C 	0.31222 0.07213 0.30310 0.14200
H 	H 	0.32520 0.07990 0.34370 0.00800
C 	C 	0.28697 0.09274 0.27500 -0.24200
C 	C 	0.28210 0.12613 0.30990 0.27100
C 	C 	0.22802 0.19218 0.30340 0.36900
C 	C 	0.22114 0.22661 0.33250 -0.71800
H 	H 	0.20130 0.22600 0.36440 0.23400
H 	H 	0.24050 0.23440 0.36130 0.22000
H 	H 	0.21720 0.24190 0.29090 0.22100
C 	C 	0.16848 0.42359 0.97250 0.09700
H 	H 	0.17830 0.42860 0.01930 -0.00100
C 	C 	0.18506 0.40172 0.92650 -0.18100
H 	H 	0.20580 0.39220 0.94110 0.09200
C 	C 	0.12714 0.43135 0.88820 0.09300
H 	H 	0.10700 0.44220 0.87360 -0.01000
C 	C 	0.14190 0.40940 0.83840 -0.17100
H 	H 	0.13200 0.40530 0.79140 0.08200
C 	C 	0.17102 0.39379 0.85810 0.10800
C 	C 	0.18780 0.36940 0.80450 -0.09700
H 	H 	0.20420 0.35550 0.83220 0.05500
H 	H 	0.17060 0.35410 0.78380 0.04800
Mn	Mn	0.92600 0.95752 0.83161 1.31900
O 	O 	0.90326 0.98654 0.76850 -0.47700
O 	O 	0.00257 0.97998 0.68488 -0.41300
O 	O 	0.95619 0.93006 0.89016 -0.48300
N 	N 	0.96740 0.96553 0.77909 -0.29900
N 	N 	0.99605 0.94915 0.80944 -0.26400
C 	C 	0.91400 0.00103 0.70710 0.29500
C 	C 	0.88983 0.02060 0.66900 -0.26000
H 	H 	0.86850 0.02480 0.69050 0.12400
C 	C 	0.89793 0.03340 0.59950 0.13000
H 	H 	0.88190 0.04660 0.57360 -0.01900
C 	C 	0.92909 0.02740 0.56730 -0.20500
H 	H 	0.93350 0.03440 0.51790 0.10100
C 	C 	0.95309 0.01140 0.60770 0.14000
H 	H 	0.97520 0.00990 0.58830 0.00000
C 	C 	0.94609 0.99707 0.67680 -0.25600
C 	C 	0.97351 0.98025 0.71500 0.27700
C 	C 	0.98701 0.93149 0.86652 0.36800
C 	C 	0.01282 0.91094 0.90640 -0.73400
H 	H 	0.02220 0.92400 0.94750 0.24100
H 	H 	0.00240 0.89050 0.92580 0.24000
H 	H 	0.03080 0.90490 0.87190 0.22800
Mn	Mn	0.04151 0.96741 0.74692 1.33300
O 	O 	0.04999 0.92555 0.70559 -0.46900
O 	O 	0.11463 0.93364 0.89163 -0.40500
O 	O 	0.03948 0.01005 0.79783 -0.47100
N 	N 	0.07746 0.96121 0.81806 -0.28400
N 	N 	0.08289 0.98868 0.86513 -0.26100
N 	N 	0.07338 0.99300 0.65950 -0.25000
C 	C 	0.07268 0.90235 0.72360 0.29500
C 	C 	0.07471 0.87434 0.67780 -0.26700
H 	H 	0.06030 0.87260 0.63620 0.12700
C 	C 	0.09764 0.84889 0.69230 0.13600
H 	H 	0.09890 0.83010 0.66010 -0.02600
C 	C 	0.11861 0.85083 0.75320 -0.20600
H 	H 	0.13380 0.83320 0.76380 0.09700
C 	C 	0.11715 0.87862 0.79830 0.12900
H 	H 	0.13180 0.88020 0.83960 0.00400
C 	C 	0.09441 0.90479 0.78450 -0.24200
C 	C 	0.09564 0.93437 0.83405 0.25900
C 	C 	0.06227 0.01289 0.84890 0.37700
C 	C 	0.06503 0.04510 0.88950 -0.73700
H 	H 	0.05000 0.04480 0.93240 0.22800
H 	H 	0.08820 0.04820 0.90640 0.22600
H 	H 	0.05880 0.06360 0.85650 0.24300
C 	C 	0.06172 0.02230 0.62890 0.10500
H 	H 	0.04010 0.03030 0.64170 -0.00200
C 	C 	0.08140 0.04040 0.57930 -0.21400
H 	H 	0.07330 0.06070 0.55840 0.09800
C 	C 	0.10378 0.98780 0.64780 0.18300
H 	H 	0.11380 0.96970 0.67370 -0.04100
C 	C 	0.12417 0.00600 0.60040 -0.29900
H 	H 	0.14740 0.00090 0.59870 0.12400
C 	C 	0.11339 0.02840 0.56050 0.22500
C 	C 	0.13560 0.04550 0.50430 -0.22400
H 	H 	0.15080 0.02850 0.48280 0.09000
H 	H 	0.14970 0.06200 0.53080 0.08800
Mn	Mn	0.88774 0.02825 0.03597 1.33300
O 	O 	0.84827 0.00827 0.06530 -0.47500
O 	O 	0.88516 0.94776 0.88840 -0.42800
O 	O 	0.93018 0.04273 0.99558 -0.47700
N 	N 	0.89513 0.99323 0.96267 -0.28500
N 	N 	0.92614 0.99566 0.92460 -0.26000
N 	N 	0.18810 0.11045 0.29469 -0.23000
C 	C 	0.83160 0.98310 0.03430 0.29400
C 	C 	0.79946 0.97602 0.06300 -0.26000
H 	H 	0.79110 0.98920 0.10270 0.12800
C 	C 	0.77990 0.95049 0.03480 0.13500
H 	H 	0.75850 0.94600 0.05580 -0.02300
C 	C 	0.79147 0.93113 0.97520 -0.20400
H 	H 	0.77810 0.91370 0.95520 0.10700
C 	C 	0.82213 0.93778 0.94690 0.14100
H 	H 	0.82990 0.92480 0.90630 0.00800
C 	C 	0.84274 0.96303 0.97500 -0.24100
C 	C 	0.87613 0.96790 0.94010 0.27100
C 	C 	0.94218 0.02198 0.94660 0.36900
C 	C 	0.97661 0.02886 0.91750 -0.71800
H 	H 	0.97600 0.04870 0.88560 0.23300
H 	H 	0.98440 0.00950 0.88870 0.22000
H 	H 	0.99190 0.03280 0.95910 0.22100
C 	C 	0.17359 0.08152 0.27750 0.09800
H 	H 	0.17860 0.07170 0.23070 -0.00100
C 	C 	0.15172 0.06494 0.32350 -0.18100
H 	H 	0.14220 0.04420 0.30890 0.09200
C 	C 	0.18135 0.12286 0.36180 0.09300
H 	H 	0.19220 0.14300 0.37640 -0.01000
C 	C 	0.15940 0.10810 0.41160 -0.17100
H 	H 	0.15530 0.11800 0.45860 0.08200
C 	C 	0.14379 0.07898 0.39190 0.10900
C 	C 	0.11940 0.06220 0.44550 -0.09700
H 	H 	0.10550 0.04580 0.41780 0.05500
H 	H 	0.10410 0.07940 0.46620 0.04800
Mn	Mn	0.42600 0.45752 0.33161 1.31900
O 	O 	0.40326 0.48654 0.26850 -0.47700
O 	O 	0.50257 0.47998 0.18488 -0.41300
O 	O 	0.45619 0.43006 0.39016 -0.48300
N 	N 	0.46740 0.46553 0.27909 -0.30000
N 	N 	0.49605 0.44915 0.30944 -0.26400
C 	C 	0.41400 0.50103 0.20710 0.29500
C 	C 	0.38983 0.52060 0.16900 -0.26000
H 	H 	0.36850 0.52480 0.19050 0.12400
C 	C 	0.39793 0.53340 0.09950 0.13100
H 	H 	0.38190 0.54660 0.07360 -0.01900
C 	C 	0.42909 0.52740 0.06730 -0.20500
H 	H 	0.43350 0.53440 0.01790 0.10100
C 	C 	0.45309 0.51140 0.10770 0.14000
H 	H 	0.47520 0.50990 0.08830 -0.00000
C 	C 	0.44609 0.49707 0.17680 -0.25600
C 	C 	0.47351 0.48025 0.21500 0.27700
C 	C 	0.48701 0.43149 0.36652 0.36800
C 	C 	0.51282 0.41094 0.40640 -0.73400
H 	H 	0.52220 0.42400 0.44750 0.24100
H 	H 	0.50240 0.39050 0.42580 0.24000
H 	H 	0.53080 0.40490 0.37190 0.22800
Mn	Mn	0.54151 0.46741 0.24692 1.33300
O 	O 	0.54999 0.42555 0.20559 -0.46900
O 	O 	0.61463 0.43364 0.39163 -0.40500
O 	O 	0.53948 0.51005 0.29783 -0.47100
N 	N 	0.57746 0.46121 0.31806 -0.28400
N 	N 	0.58289 0.48868 0.36513 -0.26100
N 	N 	0.57338 0.49300 0.15950 -0.25000
C 	C 	0.57268 0.40235 0.22360 0.29500
C 	C 	0.57471 0.37434 0.17780 -0.26700
H 	H 	0.56030 0.37260 0.13620 0.12700
C 	C 	0.59764 0.34889 0.19230 0.13600
H 	H 	0.59890 0.33010 0.16010 -0.02600
C 	C 	0.61861 0.35083 0.25320 -0.20600
H 	H 	0.63380 0.33320 0.26380 0.09700
C 	C 	0.61715 0.37862 0.29830 0.12900
H 	H 	0.63180 0.38020 0.33960 0.00400
C 	C 	0.59441 0.40479 0.28450 -0.24200
C 	C 	0.59564 0.43437 0.33405 0.25900
C 	C 	0.56227 0.51289 0.34890 0.37700
C 	C 	0.56503 0.54510 0.38950 -0.73700
H 	H 	0.55000 0.54480 0.43240 0.22800
H 	H 	0.58820 0.54820 0.40640 0.22700
H 	H 	0.55880 0.56360 0.35650 0.24300
C 	C 	0.56172 0.52230 0.12890 0.10500
H 	H 	0.54010 0.53030 0.14170 -0.00200
C 	C 	0.58140 0.54040 0.07930 -0.21500
H 	H 	0.57330 0.56070 0.05840 0.09800
C 	C 	0.60378 0.48780 0.14780 0.18300
H 	H 	0.61380 0.46970 0.17370 -0.04100
C 	C 	0.62417 0.50600 0.10040 -0.29900
H 	H 	0.64740 0.50090 0.09870 0.12400
C 	C 	0.61339 0.52840 0.06050 0.22500
C 	C 	0.63560 0.54550 0.00430 -0.22400
H 	H 	0.65080 0.52850 0.98280 0.09100
H 	H 	0.64970 0.56200 0.03080 0.08800
Mn	Mn	0.38774 0.52825 0.53597 1.33300
O 	O 	0.34827 0.50827 0.56530 -0.47500
O 	O 	0.38516 0.44776 0.38840 -0.42800
O 	O 	0.43018 0.54273 0.49558 -0.47600
N 	N 	0.39513 0.49323 0.46267 -0.28500
N 	N 	0.42614 0.49566 0.42460 -0.26000
N 	N 	0.68810 0.61045 0.79469 -0.23000
C 	C 	0.33160 0.48310 0.53430 0.29500
C 	C 	0.29946 0.47602 0.56300 -0.26100
H 	H 	0.29110 0.48920 0.60270 0.12800
C 	C 	0.27990 0.45049 0.53480 0.13700
H 	H 	0.25850 0.44600 0.55580 -0.02300
C 	C 	0.29147 0.43113 0.47520 -0.20600
H 	H 	0.27810 0.41370 0.45520 0.10800
C 	C 	0.32213 0.43778 0.44690 0.14200
H 	H 	0.32990 0.42480 0.40630 0.00800
C 	C 	0.34274 0.46303 0.47500 -0.24200
C 	C 	0.37613 0.46790 0.44010 0.27100
C 	C 	0.44218 0.52198 0.44660 0.36900
C 	C 	0.47661 0.52886 0.41750 -0.71800
H 	H 	0.47600 0.54870 0.38560 0.23400
H 	H 	0.48440 0.50950 0.38870 0.22000
H 	H 	0.49190 0.53280 0.45910 0.22100
C 	C 	0.67359 0.58152 0.77750 0.09800
H 	H 	0.67860 0.57170 0.73070 -0.00100
C 	C 	0.65172 0.56494 0.82350 -0.18100
H 	H 	0.64220 0.54420 0.80890 0.09200
C 	C 	0.68135 0.62286 0.86180 0.09300
H 	H 	0.69220 0.64300 0.87640 -0.01000
C 	C 	0.65940 0.60810 0.91160 -0.17100
H 	H 	0.65530 0.61800 0.95860 0.08200
C 	C 	0.64379 0.57898 0.89190 0.10900
C 	C 	0.61940 0.56220 0.94550 -0.09700
H 	H 	0.60550 0.54580 0.91780 0.05500
H 	H 	0.60410 0.57940 0.96620 0.04800
Mn	Mn	0.57400 0.04248 0.33161 1.31900
O 	O 	0.59674 0.01346 0.26850 -0.47700
O 	O 	0.49743 0.02002 0.18488 -0.41300
O 	O 	0.54381 0.06994 0.39016 -0.48300
N 	N 	0.53260 0.03447 0.27909 -0.29900
N 	N 	0.50395 0.05085 0.30944 -0.26400
C 	C 	0.58600 0.99897 0.20710 0.29500
C 	C 	0.61017 0.97940 0.16900 -0.26000
H 	H 	0.63150 0.97520 0.19050 0.12400
C 	C 	0.60207 0.96660 0.09950 0.13000
H 	H 	0.61810 0.95340 0.07360 -0.01900
C 	C 	0.57091 0.97260 0.06730 -0.20500
H 	H 	0.56650 0.96560 0.01790 0.10100
C 	C 	0.54691 0.98860 0.10770 0.14000
H 	H 	0.52480 0.99010 0.08830 0.00000
C 	C 	0.55391 0.00293 0.17680 -0.25600
C 	C 	0.52649 0.01975 0.21500 0.27700
C 	C 	0.51299 0.06851 0.36652 0.36800
C 	C 	0.48718 0.08906 0.40640 -0.73400
H 	H 	0.47780 0.07600 0.44750 0.24100
H 	H 	0.49760 0.10950 0.42580 0.24000
H 	H 	0.46920 0.09510 0.37190 0.22800
Mn	Mn	0.45849 0.03259 0.24692 1.33300
O 	O 	0.45001 0.07445 0.20559 -0.46900
O 	O 	0.38537 0.06636 0.39163 -0.40500
O 	O 	0.46052 0.98995 0.29783 -0.47100
N 	N 	0.42254 0.03879 0.31806 -0.28400
N 	N 	0.41711 0.01132 0.36513 -0.26100
N 	N 	0.42662 0.00700 0.15950 -0.25000
C 	C 	0.42732 0.09765 0.22360 0.29500
C 	C 	0.42529 0.12566 0.17780 -0.26700
H 	H 	0.43970 0.12740 0.13620 0.12800
C 	C 	0.40236 0.15111 0.19230 0.13600
H 	H 	0.40110 0.16990 0.16010 -0.02600
C 	C 	0.38139 0.14917 0.25320 -0.20600
H 	H 	0.36620 0.16680 0.26380 0.09700
C 	C 	0.38285 0.12138 0.29830 0.12900
H 	H 	0.36820 0.11980 0.33960 0.00400
C 	C 	0.40559 0.09521 0.28450 -0.24200
C 	C 	0.40436 0.06563 0.33405 0.25900
C 	C 	0.43773 0.98711 0.34890 0.37700
C 	C 	0.43497 0.95490 0.38950 -0.73700
H 	H 	0.45000 0.95520 0.43240 0.22800
H 	H 	0.41180 0.95180 0.40640 0.22600
H 	H 	0.44120 0.93640 0.35650 0.24300
C 	C 	0.43828 0.97770 0.12890 0.10500
H 	H 	0.45990 0.96970 0.14170 -0.00200
C 	C 	0.41860 0.95960 0.07930 -0.21500
H 	H 	0.42670 0.93930 0.05840 0.09800
C 	C 	0.39622 0.01220 0.14780 0.18300
H 	H 	0.38620 0.03030 0.17370 -0.04200
C 	C 	0.37583 0.99400 0.10040 -0.30000
H 	H 	0.35260 0.99910 0.09870 0.12400
C 	C 	0.38661 0.97160 0.06050 0.22600
C 	C 	0.36440 0.95450 0.00430 -0.22500
H 	H 	0.34920 0.97150 0.98280 0.09100
H 	H 	0.35030 0.93800 0.03080 0.08800
Mn	Mn	0.61226 0.97175 0.53597 1.33300
O 	O 	0.65173 0.99173 0.56530 -0.47500
O 	O 	0.61484 0.05224 0.38840 -0.42800
O 	O 	0.56982 0.95727 0.49558 -0.47600
N 	N 	0.60487 0.00677 0.46267 -0.28500
N 	N 	0.57386 0.00434 0.42460 -0.26000
N 	N 	0.31190 0.88955 0.79469 -0.23000
C 	C 	0.66840 0.01690 0.53430 0.29500
C 	C 	0.70054 0.02398 0.56300 -0.26100
H 	H 	0.70890 0.01080 0.60270 0.12800
C 	C 	0.72010 0.04951 0.53480 0.13700
H 	H 	0.74150 0.05400 0.55580 -0.02300
C 	C 	0.70853 0.06887 0.47520 -0.20600
H 	H 	0.72190 0.08630 0.45520 0.10800
C 	C 	0.67787 0.06222 0.44690 0.14200
H 	H 	0.67010 0.07520 0.40630 0.00800
C 	C 	0.65726 0.03697 0.47500 -0.24200
C 	C 	0.62387 0.03210 0.44010 0.27100
C 	C 	0.55782 0.97802 0.44660 0.36900
C 	C 	0.52339 0.97114 0.41750 -0.71800
H 	H 	0.52400 0.95130 0.38560 0.23400
H 	H 	0.51560 0.99050 0.38870 0.22000
H 	H 	0.50810 0.96720 0.45910 0.22100
C 	C 	0.32641 0.91848 0.77750 0.09800
H 	H 	0.32140 0.92830 0.73070 -0.00100
C 	C 	0.34828 0.93506 0.82350 -0.18100
H 	H 	0.35780 0.95580 0.80890 0.09200
C 	C 	0.31865 0.87714 0.86180 0.09300
H 	H 	0.30780 0.85700 0.87640 -0.01000
C 	C 	0.34060 0.89190 0.91160 -0.17100
H 	H 	0.34470 0.88200 0.95860 0.08200
C 	C 	0.35621 0.92102 0.89190 0.10800
C 	C 	0.38060 0.93780 0.94550 -0.09600
H 	H 	0.39450 0.95420 0.91780 0.05500
H 	H 	0.39590 0.92060 0.96620 0.04800
Mn	Mn	0.07400 0.54248 0.83161 1.31900
O 	O 	0.09674 0.51346 0.76850 -0.47800
O 	O 	0.99743 0.52002 0.68488 -0.41300
O 	O 	0.04381 0.56994 0.89016 -0.48300
N 	N 	0.03260 0.53447 0.77909 -0.30000
N 	N 	0.00395 0.55085 0.80944 -0.26400
C 	C 	0.08600 0.49897 0.70710 0.29500
C 	C 	0.11017 0.47940 0.66900 -0.26000
H 	H 	0.13150 0.47520 0.69050 0.12400
C 	C 	0.10207 0.46660 0.59950 0.13100
H 	H 	0.11810 0.45340 0.57360 -0.01900
C 	C 	0.07091 0.47260 0.56730 -0.20500
H 	H 	0.06650 0.46560 0.51790 0.10100
C 	C 	0.04691 0.48860 0.60770 0.14000
H 	H 	0.02480 0.49010 0.58830 -0.00000
C 	C 	0.05391 0.50293 0.67680 -0.25600
C 	C 	0.02649 0.51975 0.71500 0.27700
C 	C 	0.01299 0.56851 0.86652 0.36800
C 	C 	0.98718 0.58906 0.90640 -0.73400
H 	H 	0.97780 0.57600 0.94750 0.24100
H 	H 	0.99760 0.60950 0.92580 0.24000
H 	H 	0.96920 0.59510 0.87190 0.22800
Mn	Mn	0.95849 0.53259 0.74692 1.33300
O 	O 	0.95001 0.57445 0.70559 -0.46900
O 	O 	0.88537 0.56636 0.89163 -0.40500
O 	O 	0.96052 0.48995 0.79783 -0.47100
N 	N 	0.92254 0.53879 0.81806 -0.28400
N 	N 	0.91711 0.51132 0.86513 -0.26100
N 	N 	0.92662 0.50700 0.65950 -0.25000
C 	C 	0.92732 0.59765 0.72360 0.29500
C 	C 	0.92529 0.62566 0.67780 -0.26700
H 	H 	0.93970 0.62740 0.63620 0.12700
C 	C 	0.90236 0.65111 0.69230 0.13600
H 	H 	0.90110 0.66990 0.66010 -0.02600
C 	C 	0.88139 0.64917 0.75320 -0.20600
H 	H 	0.86620 0.66680 0.76380 0.09700
C 	C 	0.88285 0.62138 0.79830 0.12900
H 	H 	0.86820 0.61980 0.83960 0.00400
C 	C 	0.90559 0.59521 0.78450 -0.24200
C 	C 	0.90436 0.56563 0.83405 0.25900
C 	C 	0.93773 0.48711 0.84890 0.37700
C 	C 	0.93497 0.45490 0.88950 -0.73700
H 	H 	0.95000 0.45520 0.93240 0.22800
H 	H 	0.91180 0.45180 0.90640 0.22600
H 	H 	0.94120 0.43640 0.85650 0.24300
C 	C 	0.93828 0.47770 0.62890 0.10500
H 	H 	0.95990 0.46970 0.64170 -0.00200
C 	C 	0.91860 0.45960 0.57930 -0.21400
H 	H 	0.92670 0.43930 0.55840 0.09800
C 	C 	0.89622 0.51220 0.64780 0.18200
H 	H 	0.88620 0.53030 0.67370 -0.04100
C 	C 	0.87583 0.49400 0.60040 -0.29800
H 	H 	0.85260 0.49910 0.59870 0.12400
C 	C 	0.88661 0.47160 0.56050 0.22500
C 	C 	0.86440 0.45450 0.50430 -0.22400
H 	H 	0.84920 0.47150 0.48280 0.09000
H 	H 	0.85030 0.43800 0.53080 0.08800
Mn	Mn	0.11226 0.47175 0.03597 1.33300
O 	O 	0.15173 0.49173 0.06530 -0.47500
O 	O 	0.11484 0.55224 0.88840 -0.42800
O 	O 	0.06982 0.45727 0.99558 -0.47600
N 	N 	0.10487 0.50677 0.96267 -0.28500
N 	N 	0.07386 0.50434 0.92460 -0.26000
N 	N 	0.81190 0.38955 0.29469 -0.23000
C 	C 	0.16840 0.51690 0.03430 0.29500
C 	C 	0.20054 0.52398 0.06300 -0.26000
H 	H 	0.20890 0.51080 0.10270 0.12800
C 	C 	0.22010 0.54951 0.03480 0.13600
H 	H 	0.24150 0.55400 0.05580 -0.02300
C 	C 	0.20853 0.56887 0.97520 -0.20400
H 	H 	0.22190 0.58630 0.95520 0.10700
C 	C 	0.17787 0.56222 0.94690 0.14100
H 	H 	0.17010 0.57520 0.90630 0.00800
C 	C 	0.15726 0.53697 0.97500 -0.24100
C 	C 	0.12387 0.53210 0.94010 0.27100
C 	C 	0.05782 0.47802 0.94660 0.36900
C 	C 	0.02339 0.47114 0.91750 -0.71800
H 	H 	0.02400 0.45130 0.88560 0.23400
H 	H 	0.01560 0.49050 0.88870 0.22000
H 	H 	0.00810 0.46720 0.95910 0.22100
C 	C 	0.82641 0.41848 0.27750 0.09800
H 	H 	0.82140 0.42830 0.23070 -0.00100
C 	C 	0.84828 0.43506 0.32350 -0.18100
H 	H 	0.85780 0.45580 0.30890 0.09200
C 	C 	0.81865 0.37714 0.36180 0.09300
H 	H 	0.80780 0.35700 0.37640 -0.01000
C 	C 	0.84060 0.39190 0.41160 -0.17100
H 	H 	0.84470 0.38200 0.45860 0.08200
C 	C 	0.85621 0.42102 0.39190 0.10900
C 	C 	0.88060 0.43780 0.44550 -0.09700
H 	H 	0.89450 0.45420 0.41780 0.05500
H 	H 	0.89590 0.42060 0.46620 0.04800
Mn	Mn	0.29248 0.67600 0.58161 1.31900
O 	O 	0.26346 0.65326 0.51850 -0.47800
O 	O 	0.27002 0.75257 0.43488 -0.41300
O 	O 	0.31994 0.70619 0.64016 -0.48300
N 	N 	0.28447 0.71740 0.52909 -0.30000
N 	N 	0.30085 0.74605 0.55944 -0.26400
C 	C 	0.24897 0.66400 0.45710 0.29500
C 	C 	0.22940 0.63983 0.41900 -0.26000
H 	H 	0.22520 0.61850 0.44050 0.12400
C 	C 	0.21660 0.64793 0.34950 0.13100
H 	H 	0.20340 0.63190 0.32360 -0.01900
C 	C 	0.22260 0.67909 0.31730 -0.20500
H 	H 	0.21560 0.68350 0.26790 0.10100
C 	C 	0.23860 0.70309 0.35770 0.14000
H 	H 	0.24010 0.72520 0.33830 -0.00000
C 	C 	0.25293 0.69609 0.42680 -0.25600
C 	C 	0.26975 0.72351 0.46500 0.27700
C 	C 	0.31851 0.73701 0.61652 0.36800
C 	C 	0.33906 0.76282 0.65640 -0.73400
H 	H 	0.32600 0.77220 0.69750 0.24100
H 	H 	0.35950 0.75240 0.67580 0.24000
H 	H 	0.34510 0.78080 0.62190 0.22800
Mn	Mn	0.28259 0.79151 0.49692 1.33300
O 	O 	0.32445 0.79999 0.45559 -0.46900
O 	O 	0.31636 0.86463 0.64163 -0.40500
O 	O 	0.23995 0.78948 0.54783 -0.47100
N 	N 	0.28879 0.82746 0.56806 -0.28400
N 	N 	0.26132 0.83289 0.61513 -0.26100
N 	N 	0.25700 0.82338 0.40950 -0.25000
C 	C 	0.34765 0.82268 0.47360 0.29500
C 	C 	0.37566 0.82471 0.42780 -0.26700
H 	H 	0.37740 0.81030 0.38620 0.12700
C 	C 	0.40111 0.84764 0.44230 0.13600
H 	H 	0.41990 0.84890 0.41010 -0.02600
C 	C 	0.39917 0.86861 0.50320 -0.20600
H 	H 	0.41680 0.88380 0.51380 0.09700
C 	C 	0.37138 0.86715 0.54830 0.12900
H 	H 	0.36980 0.88180 0.58960 0.00400
C 	C 	0.34521 0.84441 0.53450 -0.24200
C 	C 	0.31563 0.84564 0.58405 0.25900
C 	C 	0.23711 0.81227 0.59890 0.37700
C 	C 	0.20490 0.81503 0.63950 -0.73700
H 	H 	0.20520 0.80000 0.68240 0.22800
H 	H 	0.20180 0.83820 0.65640 0.22700
H 	H 	0.18640 0.80880 0.60650 0.24300
C 	C 	0.22770 0.81172 0.37890 0.10500
H 	H 	0.21970 0.79010 0.39170 -0.00200
C 	C 	0.20960 0.83140 0.32930 -0.21400
H 	H 	0.18930 0.82330 0.30840 0.09800
C 	C 	0.26220 0.85378 0.39780 0.18300
H 	H 	0.28030 0.86380 0.42370 -0.04100
C 	C 	0.24400 0.87417 0.35040 -0.29900
H 	H 	0.24910 0.89740 0.34870 0.12400
C 	C 	0.22160 0.86339 0.31050 0.22500
C 	C 	0.20450 0.88560 0.25430 -0.22400
H 	H 	0.22150 0.90080 0.23280 0.09000
H 	H 	0.18800 0.89970 0.28080 0.08800
Mn	Mn	0.22175 0.63774 0.78597 1.33300
O 	O 	0.24173 0.59827 0.81530 -0.47500
O 	O 	0.30224 0.63516 0.63840 -0.42800
O 	O 	0.20727 0.68018 0.74558 -0.47600
N 	N 	0.25677 0.64513 0.71267 -0.28500
N 	N 	0.25434 0.67614 0.67460 -0.26000
N 	N 	0.13955 0.93810 0.04469 -0.23000
C 	C 	0.26690 0.58160 0.78430 0.29600
C 	C 	0.27398 0.54946 0.81300 -0.26100
H 	H 	0.26080 0.54110 0.85270 0.12800
C 	C 	0.29951 0.52990 0.78480 0.13700
H 	H 	0.30400 0.50850 0.80580 -0.02300
C 	C 	0.31887 0.54147 0.72520 -0.20600
H 	H 	0.33630 0.52810 0.70520 0.10800
C 	C 	0.31222 0.57213 0.69690 0.14200
H 	H 	0.32520 0.57990 0.65630 0.00800
C 	C 	0.28697 0.59274 0.72500 -0.24200
C 	C 	0.28210 0.62613 0.69010 0.27100
C 	C 	0.22802 0.69218 0.69660 0.36900
C 	C 	0.22114 0.72661 0.66750 -0.71800
H 	H 	0.20130 0.72600 0.63560 0.23400
H 	H 	0.24050 0.73440 0.63870 0.22000
H 	H 	0.21720 0.74190 0.70910 0.22100
C 	C 	0.16848 0.92359 0.02750 0.09700
H 	H 	0.17830 0.92860 0.98070 -0.00100
C 	C 	0.18506 0.90172 0.07350 -0.18000
H 	H 	0.20580 0.89220 0.05890 0.09200
C 	C 	0.12714 0.93135 0.11180 0.09300
H 	H 	0.10700 0.94220 0.12640 -0.01000
C 	C 	0.14190 0.90940 0.16160 -0.17100
H 	H 	0.13200 0.90530 0.20860 0.08200
C 	C 	0.17102 0.89379 0.14190 0.10800
C 	C 	0.18780 0.86940 0.19550 -0.09700
H 	H 	0.20420 0.85550 0.16780 0.05500
H 	H 	0.17060 0.85410 0.21620 0.04800
Mn	Mn	0.79248 0.17600 0.08161 1.31900
O 	O 	0.76346 0.15326 0.01850 -0.47700
O 	O 	0.77002 0.25257 0.93488 -0.41300
O 	O 	0.81994 0.20619 0.14016 -0.48300
N 	N 	0.78447 0.21740 0.02909 -0.29900
N 	N 	0.80085 0.24605 0.05944 -0.26400
C 	C 	0.74897 0.16400 0.95710 0.29400
C 	C 	0.72940 0.13983 0.91900 -0.25900
H 	H 	0.72520 0.11850 0.94050 0.12400
C 	C 	0.71660 0.14793 0.84950 0.13000
H 	H 	0.70340 0.13190 0.82360 -0.01900
C 	C 	0.72260 0.17909 0.81730 -0.20500
H 	H 	0.71560 0.18350 0.76790 0.10100
C 	C 	0.73860 0.20309 0.85770 0.14000
H 	H 	0.74010 0.22520 0.83830 0.00000
C 	C 	0.75293 0.19609 0.92680 -0.25600
C 	C 	0.76975 0.22351 0.96500 0.27600
C 	C 	0.81851 0.23701 0.11652 0.36800
C 	C 	0.83906 0.26282 0.15640 -0.73400
H 	H 	0.82600 0.27220 0.19750 0.24100
H 	H 	0.85950 0.25240 0.17580 0.24000
H 	H 	0.84510 0.28080 0.12190 0.22800
Mn	Mn	0.78259 0.29151 0.99692 1.33300
O 	O 	0.82445 0.29999 0.95559 -0.46900
O 	O 	0.81636 0.36463 0.14163 -0.40500
O 	O 	0.73995 0.28948 0.04783 -0.47100
N 	N 	0.78879 0.32746 0.06806 -0.28300
N 	N 	0.76132 0.33289 0.11513 -0.26100
N 	N 	0.75700 0.32338 0.90950 -0.25000
C 	C 	0.84765 0.32268 0.97360 0.29400
C 	C 	0.87566 0.32471 0.92780 -0.26500
H 	H 	0.87740 0.31030 0.88620 0.12700
C 	C 	0.90111 0.34764 0.94230 0.13300
H 	H 	0.91990 0.34890 0.91010 -0.02600
C 	C 	0.89917 0.36861 0.00320 -0.20300
H 	H 	0.91680 0.38380 0.01380 0.09600
C 	C 	0.87138 0.36715 0.04830 0.12700
H 	H 	0.86980 0.38180 0.08960 0.00500
C 	C 	0.84521 0.34441 0.03450 -0.24000
C 	C 	0.81563 0.34564 0.08405 0.25900
C 	C 	0.73711 0.31227 0.09890 0.37800
C 	C 	0.70490 0.31503 0.13950 -0.73700
H 	H 	0.70520 0.30000 0.18240 0.22900
H 	H 	0.70180 0.33820 0.15640 0.22700
H 	H 	0.68640 0.30880 0.10650 0.24300
C 	C 	0.72770 0.31172 0.87890 0.10500
H 	H 	0.71970 0.29010 0.89170 -0.00200
C 	C 	0.70960 0.33140 0.82930 -0.21400
H 	H 	0.68930 0.32330 0.80840 0.09800
C 	C 	0.76220 0.35378 0.89780 0.18200
H 	H 	0.78030 0.36380 0.92370 -0.04200
C 	C 	0.74400 0.37417 0.85040 -0.29800
H 	H 	0.74910 0.39740 0.84870 0.12400
C 	C 	0.72160 0.36339 0.81050 0.22500
C 	C 	0.70450 0.38560 0.75430 -0.22400
H 	H 	0.72150 0.40080 0.73280 0.09000
H 	H 	0.68800 0.39970 0.78080 0.08800
Mn	Mn	0.72175 0.13774 0.28597 1.33300
O 	O 	0.74173 0.09827 0.31530 -0.47500
O 	O 	0.80224 0.13516 0.13840 -0.42800
O 	O 	0.70727 0.18018 0.24558 -0.47600
N 	N 	0.75677 0.14513 0.21267 -0.28500
N 	N 	0.75434 0.17614 0.17460 -0.26000
N 	N 	0.63955 0.43810 0.54469 -0.23000
C 	C 	0.76690 0.08160 0.28430 0.29500
C 	C 	0.77398 0.04946 0.31300 -0.26100
H 	H 	0.76080 0.04110 0.35270 0.12800
C 	C 	0.79951 0.02990 0.28480 0.13700
H 	H 	0.80400 0.00850 0.30580 -0.02300
C 	C 	0.81887 0.04147 0.22520 -0.20600
H 	H 	0.83630 0.02810 0.20520 0.10800
C 	C 	0.81222 0.07213 0.19690 0.14200
H 	H 	0.82520 0.07990 0.15630 0.00800
C 	C 	0.78697 0.09274 0.22500 -0.24200
C 	C 	0.78210 0.12613 0.19010 0.27100
C 	C 	0.72802 0.19218 0.19660 0.36900
C 	C 	0.72114 0.22661 0.16750 -0.71800
H 	H 	0.70130 0.22600 0.13560 0.23400
H 	H 	0.74050 0.23440 0.13870 0.22100
H 	H 	0.71720 0.24190 0.20910 0.22100
C 	C 	0.66848 0.42359 0.52750 0.09800
H 	H 	0.67830 0.42860 0.48070 -0.00100
C 	C 	0.68506 0.40172 0.57350 -0.18100
H 	H 	0.70580 0.39220 0.55890 0.09200
C 	C 	0.62714 0.43135 0.61180 0.09300
H 	H 	0.60700 0.44220 0.62640 -0.01000
C 	C 	0.64190 0.40940 0.66160 -0.17100
H 	H 	0.63200 0.40530 0.70860 0.08200
C 	C 	0.67102 0.39379 0.64190 0.10900
C 	C 	0.68780 0.36940 0.69550 -0.09700
H 	H 	0.70420 0.35550 0.66780 0.05500
H 	H 	0.67060 0.35410 0.71620 0.04800
Mn	Mn	0.20752 0.32400 0.08161 1.31900
O 	O 	0.23654 0.34674 0.01850 -0.47700
O 	O 	0.22998 0.24743 0.93488 -0.41300
O 	O 	0.18006 0.29381 0.14016 -0.48300
N 	N 	0.21553 0.28260 0.02909 -0.29900
N 	N 	0.19915 0.25395 0.05944 -0.26400
C 	C 	0.25103 0.33600 0.95710 0.29400
C 	C 	0.27060 0.36017 0.91900 -0.25900
H 	H 	0.27480 0.38150 0.94050 0.12400
C 	C 	0.28340 0.35207 0.84950 0.13000
H 	H 	0.29660 0.36810 0.82360 -0.01900
C 	C 	0.27740 0.32091 0.81730 -0.20500
H 	H 	0.28440 0.31650 0.76790 0.10100
C 	C 	0.26140 0.29691 0.85770 0.14000
H 	H 	0.25990 0.27480 0.83830 0.00000
C 	C 	0.24707 0.30391 0.92680 -0.25600
C 	C 	0.23025 0.27649 0.96500 0.27600
C 	C 	0.18149 0.26299 0.11652 0.36800
C 	C 	0.16094 0.23718 0.15640 -0.73400
H 	H 	0.17400 0.22780 0.19750 0.24100
H 	H 	0.14050 0.24760 0.17580 0.24000
H 	H 	0.15490 0.21920 0.12190 0.22800
Mn	Mn	0.21741 0.20849 0.99692 1.33300
O 	O 	0.17555 0.20001 0.95559 -0.46800
O 	O 	0.18364 0.13537 0.14163 -0.40500
O 	O 	0.26005 0.21052 0.04783 -0.47100
N 	N 	0.21121 0.17254 0.06806 -0.28300
N 	N 	0.23868 0.16711 0.11513 -0.26100
N 	N 	0.24300 0.17662 0.90950 -0.25000
C 	C 	0.15235 0.17732 0.97360 0.29300
C 	C 	0.12434 0.17529 0.92780 -0.26500
H 	H 	0.12260 0.18970 0.88620 0.12700
C 	C 	0.09889 0.15236 0.94230 0.13300
H 	H 	0.08010 0.15110 0.91010 -0.02600
C 	C 	0.10083 0.13139 0.00320 -0.20300
H 	H 	0.08320 0.11620 0.01380 0.09600
C 	C 	0.12862 0.13285 0.04830 0.12700
H 	H 	0.13020 0.11820 0.08960 0.00500
C 	C 	0.15479 0.15559 0.03450 -0.24000
C 	C 	0.18437 0.15436 0.08405 0.25900
C 	C 	0.26289 0.18773 0.09890 0.37800
C 	C 	0.29510 0.18497 0.13950 -0.73700
H 	H 	0.29480 0.20000 0.18240 0.22900
H 	H 	0.29820 0.16180 0.15640 0.22700
H 	H 	0.31360 0.19120 0.10650 0.24300
C 	C 	0.27230 0.18828 0.87890 0.10500
H 	H 	0.28030 0.20990 0.89170 -0.00200
C 	C 	0.29040 0.16860 0.82930 -0.21400
H 	H 	0.31070 0.17670 0.80840 0.09800
C 	C 	0.23780 0.14622 0.89780 0.18200
H 	H 	0.21970 0.13620 0.92370 -0.04200
C 	C 	0.25600 0.12583 0.85040 -0.29800
H 	H 	0.25090 0.10260 0.84870 0.12300
C 	C 	0.27840 0.13661 0.81050 0.22500
C 	C 	0.29550 0.11440 0.75430 -0.22400
H 	H 	0.27850 0.09920 0.73280 0.09000
H 	H 	0.31200 0.10030 0.78080 0.08800
Mn	Mn	0.27825 0.36226 0.28597 1.33300
O 	O 	0.25827 0.40173 0.31530 -0.47500
O 	O 	0.19776 0.36484 0.13840 -0.42800
O 	O 	0.29273 0.31982 0.24558 -0.47600
N 	N 	0.24323 0.35487 0.21267 -0.28500
N 	N 	0.24566 0.32386 0.17460 -0.26000
N 	N 	0.36045 0.06190 0.54469 -0.23000
C 	C 	0.23310 0.41840 0.28430 0.29500
C 	C 	0.22602 0.45054 0.31300 -0.26100
H 	H 	0.23920 0.45890 0.35270 0.12800
C 	C 	0.20049 0.47010 0.28480 0.13700
H 	H 	0.19600 0.49150 0.30580 -0.02300
C 	C 	0.18113 0.45853 0.22520 -0.20600
H 	H 	0.16370 0.47190 0.20520 0.10800
C 	C 	0.18778 0.42787 0.19690 0.14200
H 	H 	0.17480 0.42010 0.15630 0.00800
C 	C 	0.21303 0.40726 0.22500 -0.24200
C 	C 	0.21790 0.37387 0.19010 0.27100
C 	C 	0.27198 0.30782 0.19660 0.36900
C 	C 	0.27886 0.27339 0.16750 -0.71800
H 	H 	0.29870 0.27400 0.13560 0.23400
H 	H 	0.25950 0.26560 0.13870 0.22100
H 	H 	0.28280 0.25810 0.20910 0.22100
C 	C 	0.33152 0.07641 0.52750 0.09800
H 	H 	0.32170 0.07140 0.48070 -0.00100
C 	C 	0.31494 0.09828 0.57350 -0.18100
H 	H 	0.29420 0.10780 0.55890 0.09200
C 	C 	0.37286 0.06865 0.61180 0.09300
H 	H 	0.39300 0.05780 0.62640 -0.01000
C 	C 	0.35810 0.09060 0.66160 -0.17100
H 	H 	0.36800 0.09470 0.70860 0.08200
C 	C 	0.32898 0.10621 0.64190 0.10900
C 	C 	0.31220 0.13060 0.69550 -0.09700
H 	H 	0.29580 0.14450 0.66780 0.05500
H 	H 	0.32940 0.14590 0.71620 0.04800
Mn	Mn	0.70752 0.82400 0.58161 1.31900
O 	O 	0.73654 0.84674 0.51850 -0.47800
O 	O 	0.72998 0.74743 0.43488 -0.41300
O 	O 	0.68006 0.79381 0.64016 -0.48300
N 	N 	0.71553 0.78260 0.52909 -0.30000
N 	N 	0.69915 0.75395 0.55944 -0.26400
C 	C 	0.75103 0.83600 0.45710 0.29500
C 	C 	0.77060 0.86017 0.41900 -0.26000
H 	H 	0.77480 0.88150 0.44050 0.12400
C 	C 	0.78340 0.85207 0.34950 0.13100
H 	H 	0.79660 0.86810 0.32360 -0.01900
C 	C 	0.77740 0.82091 0.31730 -0.20500
H 	H 	0.78440 0.81650 0.26790 0.10100
C 	C 	0.76140 0.79691 0.35770 0.14000
H 	H 	0.75990 0.77480 0.33830 -0.00000
C 	C 	0.74707 0.80391 0.42680 -0.25600
C 	C 	0.73025 0.77649 0.46500 0.27700
C 	C 	0.68149 0.76299 0.61652 0.36800
C 	C 	0.66094 0.73718 0.65640 -0.73400
H 	H 	0.67400 0.72780 0.69750 0.24100
H 	H 	0.64050 0.74760 0.67580 0.24000
H 	H 	0.65490 0.71920 0.62190 0.22800
Mn	Mn	0.71741 0.70849 0.49692 1.33300
O 	O 	0.67555 0.70001 0.45559 -0.46900
O 	O 	0.68364 0.63537 0.64163 -0.40500
O 	O 	0.76005 0.71052 0.54783 -0.47100
N 	N 	0.71121 0.67254 0.56806 -0.28400
N 	N 	0.73868 0.66711 0.61513 -0.26100
N 	N 	0.74300 0.67662 0.40950 -0.25000
C 	C 	0.65235 0.67732 0.47360 0.29500
C 	C 	0.62434 0.67529 0.42780 -0.26700
H 	H 	0.62260 0.68970 0.38620 0.12700
C 	C 	0.59889 0.65236 0.44230 0.13600
H 	H 	0.58010 0.65110 0.41010 -0.02600
C 	C 	0.60083 0.63139 0.50320 -0.20600
H 	H 	0.58320 0.61620 0.51380 0.09700
C 	C 	0.62862 0.63285 0.54830 0.12900
H 	H 	0.63020 0.61820 0.58960 0.00400
C 	C 	0.65479 0.65559 0.53450 -0.24200
C 	C 	0.68437 0.65436 0.58405 0.25900
C 	C 	0.76289 0.68773 0.59890 0.37700
C 	C 	0.79510 0.68497 0.63950 -0.73700
H 	H 	0.79480 0.70000 0.68240 0.22800
H 	H 	0.79820 0.66180 0.65640 0.22700
H 	H 	0.81360 0.69120 0.60650 0.24300
C 	C 	0.77230 0.68828 0.37890 0.10500
H 	H 	0.78030 0.70990 0.39170 -0.00200
C 	C 	0.79040 0.66860 0.32930 -0.21400
H 	H 	0.81070 0.67670 0.30840 0.09800
C 	C 	0.73780 0.64622 0.39780 0.18300
H 	H 	0.71970 0.63620 0.42370 -0.04100
C 	C 	0.75600 0.62583 0.35040 -0.29800
H 	H 	0.75090 0.60260 0.34870 0.12400
C 	C 	0.77840 0.63661 0.31050 0.22500
C 	C 	0.79550 0.61440 0.25430 -0.22400
H 	H 	0.77850 0.59920 0.23280 0.09000
H 	H 	0.81200 0.60030 0.28080 0.08800
Mn	Mn	0.77825 0.86226 0.78597 1.33300
O 	O 	0.75827 0.90173 0.81530 -0.47500
O 	O 	0.69776 0.86484 0.63840 -0.42800
O 	O 	0.79273 0.81982 0.74558 -0.47600
N 	N 	0.74323 0.85487 0.71267 -0.28500
N 	N 	0.74566 0.82386 0.67460 -0.26000
N 	N 	0.86045 0.56190 0.04469 -0.23000
C 	C 	0.73310 0.91840 0.78430 0.29600
C 	C 	0.72602 0.95054 0.81300 -0.26100
H 	H 	0.73920 0.95890 0.85270 0.12800
C 	C 	0.70049 0.97010 0.78480 0.13700
H 	H 	0.69600 0.99150 0.80580 -0.02300
C 	C 	0.68113 0.95853 0.72520 -0.20600
H 	H 	0.66370 0.97190 0.70520 0.10800
C 	C 	0.68778 0.92787 0.69690 0.14200
H 	H 	0.67480 0.92010 0.65630 0.00800
C 	C 	0.71303 0.90726 0.72500 -0.24200
C 	C 	0.71790 0.87387 0.69010 0.27100
C 	C 	0.77198 0.80782 0.69660 0.36900
C 	C 	0.77886 0.77339 0.66750 -0.71800
H 	H 	0.79870 0.77400 0.63560 0.23400
H 	H 	0.75950 0.76560 0.63870 0.22000
H 	H 	0.78280 0.75810 0.70910 0.22100
C 	C 	0.83152 0.57641 0.02750 0.09700
H 	H 	0.82170 0.57140 0.98070 -0.00100
C 	C 	0.81494 0.59828 0.07350 -0.18100
H 	H 	0.79420 0.60780 0.05890 0.09200
C 	C 	0.87286 0.56865 0.11180 0.09300
H 	H 	0.89300 0.55780 0.12640 -0.01000
C 	C 	0.85810 0.59060 0.16160 -0.17100
H 	H 	0.86800 0.59470 0.20860 0.08200
C 	C 	0.82898 0.60621 0.14190 0.10800
C 	C 	0.81220 0.63060 0.19550 -0.09700
H 	H 	0.79580 0.64450 0.16780 0.05500
H 	H 	0.82940 0.64590 0.21620 0.04800
