data_crystal

_cell_length_a 17.77030
_cell_length_b 29.79000
_cell_length_c 29.79000
_cell_angle_alpha 84.89630
_cell_angle_beta  72.64690
_cell_angle_gamma 72.64690

_symmetry_space_group_name_	'P 1'
_symmetry_space_group_name_H-M	'P 1'

loop_
_symmetry_equiv_pos_as_xyz
  x,y,z

loop_
_atom_site_label
_atom_site_type_symbol
_atom_site_fract_x
_atom_site_fract_y
_atom_site_fract_z
_atom_site_charge
Mn	Mn	0.78496 0.00500 0.92594 1.33300
Mn	Mn	0.99326 0.08496 0.85800 1.33400
Mn	Mn	0.87839 0.87978 0.03116 1.31700
Mn	Mn	0.21590 0.49500 0.57406 1.33300
Mn	Mn	0.43622 0.41504 0.64200 1.33400
Mn	Mn	0.28933 0.62022 0.46884 1.31800
Mn	Mn	0.71089 0.07407 0.50500 1.33300
Mn	Mn	0.85126 0.14200 0.58496 1.33400
Mn	Mn	0.90955 0.96884 0.37978 1.31800
Mn	Mn	0.78997 0.42593 0.99500 1.33300
Mn	Mn	0.07822 0.35800 0.91504 1.33400
Mn	Mn	0.75817 0.53116 0.12022 1.31800
Mn	Mn	0.21504 0.99500 0.07407 1.33300
Mn	Mn	0.00674 0.91504 0.14200 1.33400
Mn	Mn	0.12161 0.12022 0.96884 1.31700
Mn	Mn	0.78410 0.50500 0.42594 1.33300
Mn	Mn	0.56378 0.58496 0.35800 1.33400
Mn	Mn	0.71067 0.37978 0.53116 1.31800
Mn	Mn	0.28911 0.92593 0.49500 1.33400
Mn	Mn	0.14874 0.85800 0.41504 1.33500
Mn	Mn	0.09045 0.03116 0.62022 1.31900
Mn	Mn	0.21003 0.57407 0.00500 1.33400
Mn	Mn	0.92178 0.64200 0.08496 1.33500
Mn	Mn	0.24183 0.46884 0.87978 1.31900
H 	H 	0.76610 0.93110 0.81270 0.13400
H 	H 	0.82660 0.92990 0.73350 -0.03300
H 	H 	0.92230 0.97170 0.69950 0.10000
H 	H 	0.96000 0.01280 0.74940 0.00100
H 	H 	0.88830 0.08730 0.00050 0.23100
H 	H 	0.87900 0.12700 0.96100 0.22600
H 	H 	0.79930 0.12130 0.00110 0.24300
H 	H 	0.70180 0.06930 0.85170 -0.01200
H 	H 	0.59260 0.13440 0.84820 0.09000
H 	H 	0.50620 0.13260 0.98680 0.08300
H 	H 	0.62050 0.06820 0.98860 -0.00100
H 	H 	0.46590 0.18120 0.87380 0.06900
H 	H 	0.48180 0.21210 0.90950 0.06600
H 	H 	0.87350 0.21890 0.80450 0.13800
H 	H 	0.88090 0.29360 0.81180 -0.03400
H 	H 	0.94760 0.30860 0.86200 0.11500
H 	H 	0.01180 0.24760 0.90360 0.00400
H 	H 	0.13560 0.00860 0.96820 0.20400
H 	H 	0.07360 0.98180 0.96180 0.19600
H 	H 	0.16170 0.97470 0.92390 0.21400
H 	H 	0.14770 0.24750 0.91090 -0.00700
H 	H 	0.26060 0.18620 0.91300 0.09400
H 	H 	0.37140 0.27990 0.93090 0.08500
H 	H 	0.25950 0.33880 0.92140 -0.01000
H 	H 	0.38900 0.15350 0.93210 0.06300
H 	H 	0.40310 0.18630 0.96670 0.05600
H 	H 	0.66780 0.88740 0.15220 0.13700
H 	H 	0.53160 0.92550 0.16370 -0.03100
H 	H 	0.48430 0.97140 0.10360 0.10600
H 	H 	0.58140 0.98320 0.03420 -0.00300
H 	H 	0.03880 0.93880 0.90760 0.24300
H 	H 	0.97640 0.93960 0.87820 0.22900
H 	H 	0.03750 0.89070 0.88830 0.24300
H 	H 	0.00990 0.56890 0.68730 0.13400
H 	H 	0.99000 0.57010 0.76650 -0.03300
H 	H 	0.09350 0.52830 0.80050 0.10000
H 	H 	0.22220 0.48720 0.75060 0.00100
H 	H 	0.47610 0.41270 0.49950 0.22800
H 	H 	0.46700 0.37300 0.53900 0.22500
H 	H 	0.42170 0.37870 0.49890 0.24100
H 	H 	0.12280 0.43070 0.64830 -0.01100
H 	H 	0.07520 0.36560 0.65180 0.08900
H 	H 	0.12560 0.36740 0.51320 0.08300
H 	H 	0.17730 0.43180 0.51140 -0.00100
H 	H 	0.02090 0.31880 0.62620 0.06800
H 	H 	0.10340 0.28790 0.59050 0.06400
H 	H 	0.39690 0.28110 0.69550 0.13800
H 	H 	0.48630 0.20640 0.68820 -0.03300
H 	H 	0.61820 0.19140 0.63800 0.11500
H 	H 	0.66300 0.25240 0.59640 0.00500
H 	H 	0.61240 0.49140 0.53180 0.20800
H 	H 	0.51720 0.51820 0.53820 0.19800
H 	H 	0.56030 0.52530 0.57610 0.21600
H 	H 	0.80610 0.25250 0.58910 -0.00800
H 	H 	0.85980 0.31380 0.58700 0.09400
H 	H 	0.08220 0.22010 0.56910 0.08600
H 	H 	0.01970 0.16120 0.57860 -0.01100
H 	H 	0.97460 0.34650 0.56790 0.06500
H 	H 	0.05610 0.31370 0.53330 0.05700
H 	H 	0.20740 0.61260 0.34780 0.13700
H 	H 	0.12080 0.57450 0.33630 -0.03100
H 	H 	0.05930 0.52860 0.39640 0.10700
H 	H 	0.09880 0.51680 0.46580 -0.00300
H 	H 	0.38520 0.56120 0.59240 0.24200
H 	H 	0.29420 0.56040 0.62180 0.22900
H 	H 	0.31650 0.60930 0.61170 0.24200
H 	H 	0.57880 0.18730 0.43110 0.13400
H 	H 	0.56010 0.26650 0.42990 -0.03300
H 	H 	0.62180 0.30050 0.47170 0.10000
H 	H 	0.70940 0.25060 0.51280 0.00100
H 	H 	0.88880 0.99950 0.58730 0.22800
H 	H 	0.84000 0.03900 0.62700 0.22500
H 	H 	0.80040 0.99890 0.62130 0.24100
H 	H 	0.55350 0.14830 0.56930 -0.01200
H 	H 	0.44080 0.15180 0.63440 0.09000
H 	H 	0.49300 0.01320 0.63260 0.08300
H 	H 	0.60910 0.01140 0.56820 -0.00100
H 	H 	0.33970 0.12620 0.68120 0.06900
H 	H 	0.39130 0.09050 0.71210 0.06600
H 	H 	0.67800 0.19550 0.71890 0.13800
H 	H 	0.69270 0.18820 0.79360 -0.03300
H 	H 	0.80960 0.13800 0.80860 0.11500
H 	H 	0.91540 0.09640 0.74760 0.00500
H 	H 	0.10380 0.03180 0.50860 0.20800
H 	H 	0.03540 0.03820 0.48180 0.19900
H 	H 	0.08560 0.07610 0.47470 0.21600
H 	H 	0.05860 0.08910 0.74750 -0.00700
H 	H 	0.17360 0.08700 0.68620 0.09400
H 	H 	0.30230 0.06910 0.77990 0.08500
H 	H 	0.18090 0.07860 0.83880 -0.01000
H 	H 	0.32110 0.06790 0.65350 0.06300
H 	H 	0.36980 0.03330 0.68630 0.05600
H 	H 	0.82000 0.84780 0.38740 0.13700
H 	H 	0.69530 0.83630 0.42550 -0.03100
H 	H 	0.58790 0.89640 0.47140 0.10700
H 	H 	0.61560 0.96580 0.48320 -0.00300
H 	H 	0.94640 0.09240 0.43880 0.24200
H 	H 	0.85460 0.12180 0.43960 0.22900
H 	H 	0.92580 0.11170 0.39070 0.24300
H 	H 	0.69720 0.31270 0.06890 0.13400
H 	H 	0.75650 0.23350 0.07010 -0.03300
H 	H 	0.89400 0.19950 0.02830 0.10000
H 	H 	0.97280 0.24940 0.98720 0.00100
H 	H 	0.97560 0.50050 0.91270 0.22800
H 	H 	0.00600 0.46100 0.87300 0.22400
H 	H 	0.92060 0.50110 0.87870 0.24000
H 	H 	0.77110 0.35170 0.93070 -0.01200
H 	H 	0.72700 0.34820 0.86560 0.09000
H 	H 	0.63880 0.48680 0.86740 0.08300
H 	H 	0.68870 0.48860 0.93180 -0.00100
H 	H 	0.64710 0.37380 0.81880 0.06900
H 	H 	0.69390 0.40950 0.78790 0.06600
H 	H 	0.09240 0.30450 0.78110 0.13800
H 	H 	0.17450 0.31180 0.70640 -0.03300
H 	H 	0.25620 0.36200 0.69140 0.11500
H 	H 	0.25940 0.40360 0.75240 0.00500
H 	H 	0.14420 0.46820 0.99140 0.20700
H 	H 	0.05540 0.46180 0.01820 0.19800
H 	H 	0.13640 0.42390 0.02530 0.21600
H 	H 	0.39520 0.41090 0.75250 -0.00700
H 	H 	0.44680 0.41300 0.81380 0.09400
H 	H 	0.65130 0.43090 0.72010 0.08500
H 	H 	0.59830 0.42140 0.66120 -0.01000
H 	H 	0.54250 0.43210 0.84650 0.06300
H 	H 	0.58940 0.46670 0.81370 0.05600
H 	H 	0.55520 0.65220 0.11260 0.13700
H 	H 	0.45710 0.66370 0.07450 -0.03100
H 	H 	0.45570 0.60360 0.02860 0.10700
H 	H 	0.56460 0.53420 0.01680 -0.00300
H 	H 	0.97760 0.40760 0.06120 0.24200
H 	H 	0.91600 0.37820 0.06040 0.22900
H 	H 	0.92820 0.38830 0.10930 0.24200
H 	H 	0.23390 0.06890 0.18730 0.13400
H 	H 	0.17340 0.07010 0.26650 -0.03300
H 	H 	0.07770 0.02830 0.30050 0.10000
H 	H 	0.04000 0.98720 0.25060 0.00100
H 	H 	0.11170 0.91270 0.99950 0.23100
H 	H 	0.12100 0.87300 0.03900 0.22600
H 	H 	0.20070 0.87870 0.99890 0.24300
H 	H 	0.29820 0.93070 0.14830 -0.01200
H 	H 	0.40740 0.86560 0.15180 0.09000
H 	H 	0.49380 0.86740 0.01320 0.08300
H 	H 	0.37950 0.93180 0.01140 -0.00100
H 	H 	0.53410 0.81880 0.12620 0.06900
H 	H 	0.51820 0.78790 0.09050 0.06600
H 	H 	0.12650 0.78110 0.19550 0.13800
H 	H 	0.11910 0.70640 0.18820 -0.03400
H 	H 	0.05240 0.69140 0.13800 0.11500
H 	H 	0.98820 0.75240 0.09640 0.00400
H 	H 	0.86440 0.99140 0.03180 0.20400
H 	H 	0.92640 0.01820 0.03820 0.19600
H 	H 	0.83830 0.02530 0.07610 0.21400
H 	H 	0.85230 0.75250 0.08910 -0.00700
H 	H 	0.73940 0.81380 0.08700 0.09400
H 	H 	0.62860 0.72010 0.06910 0.08500
H 	H 	0.74050 0.66120 0.07860 -0.01000
H 	H 	0.61100 0.84650 0.06790 0.06300
H 	H 	0.59690 0.81370 0.03330 0.05600
H 	H 	0.33220 0.11260 0.84780 0.13700
H 	H 	0.46840 0.07450 0.83630 -0.03100
H 	H 	0.51570 0.02860 0.89640 0.10600
H 	H 	0.41860 0.01680 0.96580 -0.00300
H 	H 	0.96120 0.06120 0.09240 0.24300
H 	H 	0.02360 0.06040 0.12180 0.22900
H 	H 	0.96250 0.10930 0.11170 0.24300
H 	H 	0.99010 0.43110 0.31270 0.13400
H 	H 	0.01000 0.42990 0.23350 -0.03300
H 	H 	0.90650 0.47170 0.19950 0.10000
H 	H 	0.77780 0.51280 0.24940 0.00100
H 	H 	0.52390 0.58730 0.50050 0.22800
H 	H 	0.53300 0.62700 0.46100 0.22500
H 	H 	0.57830 0.62130 0.50110 0.24100
H 	H 	0.87720 0.56930 0.35170 -0.01100
H 	H 	0.92480 0.63440 0.34820 0.08900
H 	H 	0.87440 0.63260 0.48680 0.08300
H 	H 	0.82270 0.56820 0.48860 -0.00100
H 	H 	0.97910 0.68120 0.37380 0.06800
H 	H 	0.89660 0.71210 0.40950 0.06400
H 	H 	0.60310 0.71890 0.30450 0.13800
H 	H 	0.51370 0.79360 0.31180 -0.03300
H 	H 	0.38180 0.80860 0.36200 0.11500
H 	H 	0.33700 0.74760 0.40360 0.00500
H 	H 	0.38760 0.50860 0.46820 0.20800
H 	H 	0.48280 0.48180 0.46180 0.19800
H 	H 	0.43970 0.47470 0.42390 0.21600
H 	H 	0.19390 0.74750 0.41090 -0.00800
H 	H 	0.14020 0.68620 0.41300 0.09400
H 	H 	0.91780 0.77990 0.43090 0.08600
H 	H 	0.98030 0.83880 0.42140 -0.01100
H 	H 	0.02540 0.65350 0.43210 0.06500
H 	H 	0.94390 0.68630 0.46670 0.05700
H 	H 	0.79260 0.38740 0.65220 0.13700
H 	H 	0.87920 0.42550 0.66370 -0.03100
H 	H 	0.94070 0.47140 0.60360 0.10700
H 	H 	0.90120 0.48320 0.53420 -0.00300
H 	H 	0.61480 0.43880 0.40760 0.24200
H 	H 	0.70580 0.43960 0.37820 0.22900
H 	H 	0.68350 0.39070 0.38830 0.24200
H 	H 	0.42120 0.81270 0.56890 0.13400
H 	H 	0.43990 0.73350 0.57010 -0.03300
H 	H 	0.37820 0.69950 0.52830 0.10000
H 	H 	0.29060 0.74940 0.48720 0.00100
H 	H 	0.11120 0.00050 0.41270 0.22800
H 	H 	0.16000 0.96100 0.37300 0.22500
H 	H 	0.19960 0.00110 0.37870 0.24100
H 	H 	0.44650 0.85170 0.43070 -0.01200
H 	H 	0.55920 0.84820 0.36560 0.09000
H 	H 	0.50700 0.98680 0.36740 0.08300
H 	H 	0.39090 0.98860 0.43180 -0.00100
H 	H 	0.66030 0.87380 0.31880 0.06900
H 	H 	0.60870 0.90950 0.28790 0.06600
H 	H 	0.32200 0.80450 0.28110 0.13800
H 	H 	0.30730 0.81180 0.20640 -0.03300
H 	H 	0.19040 0.86200 0.19140 0.11500
H 	H 	0.08460 0.90360 0.25240 0.00500
H 	H 	0.89620 0.96820 0.49140 0.20800
H 	H 	0.96460 0.96180 0.51820 0.19900
H 	H 	0.91440 0.92390 0.52530 0.21600
H 	H 	0.94140 0.91090 0.25250 -0.00700
H 	H 	0.82640 0.91300 0.31380 0.09400
H 	H 	0.69770 0.93090 0.22010 0.08500
H 	H 	0.81910 0.92140 0.16120 -0.01000
H 	H 	0.67890 0.93210 0.34650 0.06300
H 	H 	0.63020 0.96670 0.31370 0.05600
H 	H 	0.18000 0.15220 0.61260 0.13700
H 	H 	0.30470 0.16370 0.57450 -0.03100
H 	H 	0.41210 0.10360 0.52860 0.10700
H 	H 	0.38440 0.03420 0.51680 -0.00300
H 	H 	0.05360 0.90760 0.56120 0.24200
H 	H 	0.14540 0.87820 0.56040 0.22900
H 	H 	0.07420 0.88830 0.60930 0.24300
H 	H 	0.30280 0.68730 0.93110 0.13400
H 	H 	0.24350 0.76650 0.92990 -0.03300
H 	H 	0.10600 0.80050 0.97170 0.10000
H 	H 	0.02720 0.75060 0.01280 0.00100
H 	H 	0.02440 0.49950 0.08730 0.22800
H 	H 	0.99400 0.53900 0.12700 0.22400
H 	H 	0.07940 0.49890 0.12130 0.24000
H 	H 	0.22890 0.64830 0.06930 -0.01200
H 	H 	0.27300 0.65180 0.13440 0.09000
H 	H 	0.36120 0.51320 0.13260 0.08300
H 	H 	0.31130 0.51140 0.06820 -0.00100
H 	H 	0.35290 0.62620 0.18120 0.06900
H 	H 	0.30610 0.59050 0.21210 0.06600
H 	H 	0.90760 0.69550 0.21890 0.13800
H 	H 	0.82550 0.68820 0.29360 -0.03300
H 	H 	0.74380 0.63800 0.30860 0.11500
H 	H 	0.74060 0.59640 0.24760 0.00500
H 	H 	0.85580 0.53180 0.00860 0.20700
H 	H 	0.94460 0.53820 0.98180 0.19800
H 	H 	0.86360 0.57610 0.97470 0.21600
H 	H 	0.60480 0.58910 0.24750 -0.00700
H 	H 	0.55320 0.58700 0.18620 0.09400
H 	H 	0.34870 0.56910 0.27990 0.08500
H 	H 	0.40170 0.57860 0.33880 -0.01000
H 	H 	0.45750 0.56790 0.15350 0.06300
H 	H 	0.41060 0.53330 0.18630 0.05600
H 	H 	0.44480 0.34780 0.88740 0.13700
H 	H 	0.54290 0.33630 0.92550 -0.03100
H 	H 	0.54430 0.39640 0.97140 0.10700
H 	H 	0.43540 0.46580 0.98320 -0.00300
H 	H 	0.02240 0.59240 0.93880 0.24200
H 	H 	0.08400 0.62180 0.93960 0.22900
H 	H 	0.07180 0.61170 0.89070 0.24200
C 	C 	0.82328 0.97326 0.83004 0.30100
C 	C 	0.80501 0.94828 0.80010 -0.28900
C 	C 	0.84093 0.94753 0.75301 0.15800
C 	C 	0.89823 0.97196 0.73258 -0.21500
C 	C 	0.91925 0.99687 0.76241 0.13600
C 	C 	0.88214 0.99883 0.81011 -0.24100
C 	C 	0.90307 0.02906 0.83918 0.26200
C 	C 	0.84357 0.07070 0.95080 0.37900
C 	C 	0.85338 0.10441 0.98089 -0.73900
C 	C 	0.66180 0.08214 0.88014 0.10000
C 	C 	0.59543 0.12119 0.87815 -0.19300
C 	C 	0.53823 0.14009 0.91485 0.13900
C 	C 	0.54630 0.12006 0.95834 -0.17500
C 	C 	0.61472 0.08120 0.95916 0.10000
C 	C 	0.46872 0.18264 0.90632 -0.15000
C 	C 	0.94190 0.18607 0.84819 0.30900
C 	C 	0.90305 0.22404 0.82444 -0.29000
C 	C 	0.90653 0.26856 0.82916 0.17100
C 	C 	0.94627 0.27748 0.85858 -0.23000
C 	C 	0.98424 0.24126 0.88304 0.15300
C 	C 	0.98333 0.19462 0.87850 -0.25400
C 	C 	0.02423 0.15828 0.90636 0.27400
C 	C 	0.07871 0.03899 0.91687 0.34000
C 	C 	0.11575 0.99732 0.94524 -0.65000
C 	C 	0.19467 0.25410 0.91450 0.11100
C 	C 	0.26060 0.21754 0.91686 -0.19300
C 	C 	0.32743 0.22594 0.92480 0.11800
C 	C 	0.32594 0.27226 0.92646 -0.17800
C 	C 	0.25888 0.30701 0.92159 0.10200
C 	C 	0.40077 0.18355 0.93431 -0.11900
C 	C 	0.70933 0.90937 0.08497 0.32400
C 	C 	0.65050 0.90609 0.12751 -0.30000
C 	C 	0.56982 0.92873 0.13443 0.16400
C 	C 	0.54140 0.95683 0.09917 -0.21900
C 	C 	0.59934 0.96270 0.05762 0.15000
C 	C 	0.68226 0.93977 0.04931 -0.26500
C 	C 	0.73871 0.94981 0.00575 0.27800
C 	C 	0.94127 0.91642 0.94494 0.37200
C 	C 	0.00371 0.92183 0.90113 -0.74800
C 	C 	0.12658 0.52674 0.66996 0.30100
C 	C 	0.05339 0.55172 0.69990 -0.28900
C 	C 	0.04147 0.55247 0.74699 0.15700
C 	C 	0.10277 0.52804 0.76742 -0.21400
C 	C 	0.17853 0.50313 0.73759 0.13500
C 	C 	0.19108 0.50117 0.68989 -0.24100
C 	C 	0.27131 0.47094 0.66082 0.26200
C 	C 	0.36507 0.42930 0.54920 0.37700
C 	C 	0.43868 0.39559 0.51911 -0.73200
C 	C 	0.12408 0.41786 0.61986 0.09900
C 	C 	0.09477 0.37881 0.62185 -0.19200
C 	C 	0.09317 0.35991 0.58515 0.13600
C 	C 	0.12470 0.37994 0.54166 -0.17400
C 	C 	0.15508 0.41880 0.54084 0.09900
C 	C 	0.05768 0.31736 0.59368 -0.14500
C 	C 	0.47616 0.31393 0.65181 0.30900
C 	C 	0.45153 0.27596 0.67556 -0.28900
C 	C 	0.50425 0.23144 0.67084 0.17100
C 	C 	0.58233 0.22252 0.64142 -0.22900
C 	C 	0.60854 0.25874 0.61696 0.15200
C 	C 	0.55645 0.30538 0.62150 -0.25400
C 	C 	0.58887 0.34172 0.59364 0.27500
C 	C 	0.53457 0.46101 0.58313 0.34300
C 	C 	0.55831 0.50268 0.55476 -0.65900
C 	C 	0.86327 0.24590 0.58550 0.11300
C 	C 	0.89500 0.28246 0.58314 -0.19500
C 	C 	0.97817 0.27406 0.57520 0.12100
C 	C 	0.02466 0.22774 0.57354 -0.18100
C 	C 	0.98748 0.19299 0.57841 0.10400
C 	C 	0.01863 0.31645 0.56569 -0.12400
C 	C 	0.20367 0.59063 0.41503 0.32500
C 	C 	0.18410 0.59391 0.37249 -0.30000
C 	C 	0.13298 0.57127 0.36557 0.16500
C 	C 	0.09740 0.54317 0.40083 -0.22000
C 	C 	0.11966 0.53730 0.44238 0.15100
C 	C 	0.17134 0.56023 0.45069 -0.26600
C 	C 	0.19427 0.55019 0.49425 0.28100
C 	C 	0.30263 0.58358 0.55506 0.37100
C 	C 	0.32667 0.57817 0.59887 -0.74800
C 	C 	0.65332 0.16996 0.47326 0.30100
C 	C 	0.60511 0.19990 0.44828 -0.28900
C 	C 	0.59394 0.24699 0.44753 0.15800
C 	C 	0.63081 0.26742 0.47196 -0.21500
C 	C 	0.68166 0.23759 0.49687 0.13600
C 	C 	0.69225 0.18989 0.49883 -0.24200
C 	C 	0.74225 0.16082 0.52906 0.26200
C 	C 	0.79437 0.04920 0.57070 0.37700
C 	C 	0.83427 0.01911 0.60441 -0.73200
C 	C 	0.54194 0.11986 0.58214 0.10000
C 	C 	0.47358 0.12185 0.62119 -0.19300
C 	C 	0.45308 0.08515 0.64009 0.13800
C 	C 	0.50464 0.04166 0.62006 -0.17500
C 	C 	0.57388 0.04084 0.58120 0.10000
C 	C 	0.37504 0.09368 0.68264 -0.15000
C 	C 	0.79009 0.15181 0.68607 0.30900
C 	C 	0.72749 0.17556 0.72404 -0.28900
C 	C 	0.73569 0.17084 0.76856 0.17100
C 	C 	0.80485 0.14142 0.77748 -0.22900
C 	C 	0.86728 0.11696 0.74126 0.15200
C 	C 	0.86183 0.12150 0.69462 -0.25400
C 	C 	0.93059 0.09364 0.65828 0.27500
C 	C 	0.99558 0.08313 0.53899 0.34400
C 	C 	0.06099 0.05476 0.49732 -0.66000
C 	C 	0.10917 0.08550 0.75410 0.11100
C 	C 	0.17746 0.08314 0.71754 -0.19300
C 	C 	0.25223 0.07520 0.72594 0.11800
C 	C 	0.25240 0.07354 0.77226 -0.17800
C 	C 	0.18047 0.07841 0.80701 0.10200
C 	C 	0.33508 0.06569 0.68355 -0.11900
C 	C 	0.79430 0.91503 0.40937 0.32500
C 	C 	0.77801 0.87249 0.40609 -0.30000
C 	C 	0.70425 0.86557 0.42873 0.16500
C 	C 	0.64057 0.90083 0.45683 -0.22000
C 	C 	0.65696 0.94238 0.46270 0.15100
C 	C 	0.73157 0.95069 0.43977 -0.26600
C 	C 	0.74446 0.99425 0.44981 0.28000
C 	C 	0.88621 0.05506 0.41642 0.37200
C 	C 	0.90484 0.09887 0.42183 -0.74800
C 	C 	0.79654 0.33004 0.02674 0.30100
C 	C 	0.75329 0.30010 0.05172 -0.28900
C 	C 	0.78846 0.25301 0.05247 0.15800
C 	C 	0.87019 0.23258 0.02804 -0.21500
C 	C 	0.91612 0.26241 0.00313 0.13600
C 	C 	0.88097 0.31011 0.00117 -0.24200
C 	C 	0.93213 0.33918 0.97094 0.26300
C 	C 	0.91427 0.45080 0.92930 0.37700
C 	C 	0.95779 0.48089 0.89559 -0.73100
C 	C 	0.74394 0.38014 0.91786 0.10000
C 	C 	0.71662 0.37815 0.87881 -0.19300
C 	C 	0.67832 0.41485 0.85991 0.13800
C 	C 	0.66636 0.45834 0.87994 -0.17500
C 	C 	0.69592 0.45916 0.91880 0.10000
C 	C 	0.65136 0.40632 0.81736 -0.15000
C 	C 	0.12797 0.34819 0.81393 0.30900
C 	C 	0.12709 0.32444 0.77596 -0.28900
C 	C 	0.17509 0.32916 0.73144 0.17100
C 	C 	0.22375 0.35858 0.72252 -0.22900
C 	C 	0.22550 0.38304 0.75874 0.15200
C 	C 	0.17795 0.37850 0.80538 -0.25500
C 	C 	0.18251 0.40636 0.84172 0.27500
C 	C 	0.11770 0.41687 0.96101 0.34200
C 	C 	0.11307 0.44524 0.00268 -0.65700
C 	C 	0.44877 0.41450 0.74590 0.11100
C 	C 	0.47814 0.41686 0.78246 -0.19300
C 	C 	0.55337 0.42480 0.77406 0.11800
C 	C 	0.59820 0.42646 0.72774 -0.17800
C 	C 	0.56589 0.42159 0.69299 0.10200
C 	C 	0.58432 0.43431 0.81645 -0.11900
C 	C 	0.61870 0.58497 0.09063 0.32500
C 	C 	0.55659 0.62751 0.09391 -0.30000
C 	C 	0.49855 0.63443 0.07127 0.16500
C 	C 	0.49823 0.59917 0.04317 -0.22000
C 	C 	0.56204 0.55762 0.03730 0.15100
C 	C 	0.62203 0.54931 0.06023 -0.26600
C 	C 	0.68852 0.50575 0.05019 0.28100
C 	C 	0.85769 0.44494 0.08358 0.37100
C 	C 	0.92554 0.40113 0.07817 -0.74800
C 	C 	0.17672 0.02674 0.16996 0.30100
C 	C 	0.19499 0.05172 0.19990 -0.28900
C 	C 	0.15907 0.05247 0.24699 0.15800
C 	C 	0.10177 0.02804 0.26742 -0.21500
C 	C 	0.08075 0.00313 0.23759 0.13600
C 	C 	0.11786 0.00117 0.18989 -0.24100
C 	C 	0.09693 0.97094 0.16082 0.26200
C 	C 	0.15643 0.92930 0.04920 0.37900
C 	C 	0.14662 0.89559 0.01911 -0.73900
C 	C 	0.33820 0.91786 0.11986 0.10000
C 	C 	0.40457 0.87881 0.12185 -0.19300
C 	C 	0.46177 0.85991 0.08515 0.13900
C 	C 	0.45370 0.87994 0.04166 -0.17500
C 	C 	0.38528 0.91880 0.04084 0.10000
C 	C 	0.53128 0.81736 0.09368 -0.15000
C 	C 	0.05810 0.81393 0.15181 0.30900
C 	C 	0.09695 0.77596 0.17556 -0.29000
C 	C 	0.09347 0.73144 0.17084 0.17100
C 	C 	0.05373 0.72252 0.14142 -0.23000
C 	C 	0.01576 0.75874 0.11696 0.15300
C 	C 	0.01667 0.80538 0.12150 -0.25400
C 	C 	0.97577 0.84172 0.09364 0.27400
C 	C 	0.92129 0.96101 0.08313 0.34000
C 	C 	0.88425 0.00268 0.05476 -0.65000
C 	C 	0.80533 0.74590 0.08550 0.11100
C 	C 	0.73940 0.78246 0.08314 -0.19300
C 	C 	0.67257 0.77406 0.07520 0.11800
C 	C 	0.67406 0.72774 0.07354 -0.17800
C 	C 	0.74112 0.69299 0.07841 0.10200
C 	C 	0.59923 0.81645 0.06569 -0.11900
C 	C 	0.29067 0.09063 0.91503 0.32400
C 	C 	0.34950 0.09391 0.87249 -0.30000
C 	C 	0.43018 0.07127 0.86557 0.16400
C 	C 	0.45860 0.04317 0.90083 -0.21900
C 	C 	0.40066 0.03730 0.94238 0.15000
C 	C 	0.31774 0.06023 0.95069 -0.26500
C 	C 	0.26129 0.05019 0.99425 0.27800
C 	C 	0.05873 0.08358 0.05506 0.37200
C 	C 	0.99629 0.07817 0.09887 -0.74800
C 	C 	0.87342 0.47326 0.33004 0.30100
C 	C 	0.94661 0.44828 0.30010 -0.28900
C 	C 	0.95853 0.44753 0.25301 0.15700
C 	C 	0.89723 0.47196 0.23258 -0.21400
C 	C 	0.82147 0.49687 0.26241 0.13500
C 	C 	0.80892 0.49883 0.31011 -0.24100
C 	C 	0.72869 0.52906 0.33918 0.26200
C 	C 	0.63493 0.57070 0.45080 0.37700
C 	C 	0.56132 0.60441 0.48089 -0.73200
C 	C 	0.87592 0.58214 0.38014 0.09900
C 	C 	0.90523 0.62119 0.37815 -0.19200
C 	C 	0.90683 0.64009 0.41485 0.13600
C 	C 	0.87530 0.62006 0.45834 -0.17400
C 	C 	0.84492 0.58120 0.45916 0.09900
C 	C 	0.94232 0.68264 0.40632 -0.14500
C 	C 	0.52384 0.68607 0.34819 0.30900
C 	C 	0.54847 0.72404 0.32444 -0.28900
C 	C 	0.49575 0.76856 0.32916 0.17100
C 	C 	0.41767 0.77748 0.35858 -0.22900
C 	C 	0.39146 0.74126 0.38304 0.15200
C 	C 	0.44355 0.69462 0.37850 -0.25400
C 	C 	0.41113 0.65828 0.40636 0.27500
C 	C 	0.46543 0.53899 0.41687 0.34300
C 	C 	0.44169 0.49732 0.44524 -0.65900
C 	C 	0.13673 0.75410 0.41450 0.11300
C 	C 	0.10500 0.71754 0.41686 -0.19500
C 	C 	0.02183 0.72594 0.42480 0.12100
C 	C 	0.97534 0.77226 0.42646 -0.18100
C 	C 	0.01252 0.80701 0.42159 0.10400
C 	C 	0.98137 0.68355 0.43431 -0.12400
C 	C 	0.79633 0.40937 0.58497 0.32500
C 	C 	0.81590 0.40609 0.62751 -0.30000
C 	C 	0.86702 0.42873 0.63443 0.16500
C 	C 	0.90260 0.45683 0.59917 -0.22000
C 	C 	0.88034 0.46270 0.55762 0.15100
C 	C 	0.82866 0.43977 0.54931 -0.26600
C 	C 	0.80573 0.44981 0.50575 0.28100
C 	C 	0.69737 0.41642 0.44494 0.37100
C 	C 	0.67333 0.42183 0.40113 -0.74800
C 	C 	0.34668 0.83004 0.52674 0.30100
C 	C 	0.39489 0.80010 0.55172 -0.28900
C 	C 	0.40606 0.75301 0.55247 0.15800
C 	C 	0.36919 0.73258 0.52804 -0.21500
C 	C 	0.31834 0.76241 0.50313 0.13600
C 	C 	0.30775 0.81011 0.50117 -0.24200
C 	C 	0.25775 0.83918 0.47094 0.26200
C 	C 	0.20563 0.95080 0.42930 0.37700
C 	C 	0.16573 0.98089 0.39559 -0.73200
C 	C 	0.45806 0.88014 0.41786 0.10000
C 	C 	0.52642 0.87815 0.37881 -0.19300
C 	C 	0.54692 0.91485 0.35991 0.13800
C 	C 	0.49536 0.95834 0.37994 -0.17500
C 	C 	0.42612 0.95916 0.41880 0.10000
C 	C 	0.62496 0.90632 0.31736 -0.15000
C 	C 	0.20991 0.84819 0.31393 0.30900
C 	C 	0.27251 0.82444 0.27596 -0.28900
C 	C 	0.26431 0.82916 0.23144 0.17100
C 	C 	0.19515 0.85858 0.22252 -0.22900
C 	C 	0.13272 0.88304 0.25874 0.15200
C 	C 	0.13817 0.87850 0.30538 -0.25400
C 	C 	0.06941 0.90636 0.34172 0.27500
C 	C 	0.00442 0.91687 0.46101 0.34400
C 	C 	0.93901 0.94524 0.50268 -0.66000
C 	C 	0.89083 0.91450 0.24590 0.11100
C 	C 	0.82254 0.91686 0.28246 -0.19300
C 	C 	0.74777 0.92480 0.27406 0.11800
C 	C 	0.74760 0.92646 0.22774 -0.17800
C 	C 	0.81953 0.92159 0.19299 0.10200
C 	C 	0.66492 0.93431 0.31645 -0.11900
C 	C 	0.20570 0.08497 0.59063 0.32500
C 	C 	0.22199 0.12751 0.59391 -0.30000
C 	C 	0.29575 0.13443 0.57127 0.16500
C 	C 	0.35943 0.09917 0.54317 -0.22000
C 	C 	0.34304 0.05762 0.53730 0.15100
C 	C 	0.26843 0.04931 0.56023 -0.26600
C 	C 	0.25554 0.00575 0.55019 0.28000
C 	C 	0.11379 0.94494 0.58358 0.37200
C 	C 	0.09516 0.90113 0.57817 -0.74800
C 	C 	0.20346 0.66996 0.97326 0.30100
C 	C 	0.24671 0.69990 0.94828 -0.28900
C 	C 	0.21154 0.74699 0.94753 0.15800
C 	C 	0.12981 0.76742 0.97196 -0.21500
C 	C 	0.08388 0.73759 0.99687 0.13600
C 	C 	0.11903 0.68989 0.99883 -0.24200
C 	C 	0.06787 0.66082 0.02906 0.26300
C 	C 	0.08573 0.54920 0.07070 0.37700
C 	C 	0.04221 0.51911 0.10441 -0.73100
C 	C 	0.25606 0.61986 0.08214 0.10000
C 	C 	0.28338 0.62185 0.12119 -0.19300
C 	C 	0.32168 0.58515 0.14009 0.13800
C 	C 	0.33364 0.54166 0.12006 -0.17500
C 	C 	0.30408 0.54084 0.08120 0.10000
C 	C 	0.34864 0.59368 0.18264 -0.15000
C 	C 	0.87203 0.65181 0.18607 0.30900
C 	C 	0.87291 0.67556 0.22404 -0.28900
C 	C 	0.82491 0.67084 0.26856 0.17100
C 	C 	0.77625 0.64142 0.27748 -0.22900
C 	C 	0.77450 0.61696 0.24126 0.15200
C 	C 	0.82205 0.62150 0.19462 -0.25500
C 	C 	0.81749 0.59364 0.15828 0.27500
C 	C 	0.88230 0.58313 0.03899 0.34200
C 	C 	0.88693 0.55476 0.99732 -0.65700
C 	C 	0.55123 0.58550 0.25410 0.11100
C 	C 	0.52186 0.58314 0.21754 -0.19300
C 	C 	0.44663 0.57520 0.22594 0.11800
C 	C 	0.40180 0.57354 0.27226 -0.17800
C 	C 	0.43411 0.57841 0.30701 0.10200
C 	C 	0.41568 0.56569 0.18355 -0.11900
C 	C 	0.38130 0.41503 0.90937 0.32500
C 	C 	0.44341 0.37249 0.90609 -0.30000
C 	C 	0.50145 0.36557 0.92873 0.16500
C 	C 	0.50177 0.40083 0.95683 -0.22000
C 	C 	0.43796 0.44238 0.96270 0.15100
C 	C 	0.37797 0.45069 0.93977 -0.26600
C 	C 	0.31148 0.49425 0.94981 0.28100
C 	C 	0.14231 0.55506 0.91642 0.37100
C 	C 	0.07446 0.59887 0.92183 -0.74800
N 	N 	0.86119 0.03557 0.88423 -0.28600
N 	N 	0.88120 0.06857 0.90649 -0.26200
N 	N 	0.67016 0.06256 0.92088 -0.22900
N 	N 	0.03035 0.11355 0.90033 -0.28700
N 	N 	0.07170 0.08164 0.92892 -0.25300
N 	N 	0.19264 0.29808 0.91702 -0.23300
N 	N 	0.81711 0.92826 0.99734 -0.29900
N 	N 	0.86491 0.94140 0.95378 -0.26400
N 	N 	0.28099 0.46443 0.61577 -0.28600
N 	N 	0.35626 0.43143 0.59351 -0.26200
N 	N 	0.15360 0.43744 0.57912 -0.22800
N 	N 	0.54423 0.38645 0.59967 -0.28700
N 	N 	0.58226 0.41836 0.57108 -0.25400
N 	N 	0.90774 0.20192 0.58298 -0.23400
N 	N 	0.24271 0.57174 0.50266 -0.30000
N 	N 	0.26009 0.55860 0.54622 -0.26400
N 	N 	0.74542 0.11577 0.53557 -0.28600
N 	N 	0.78769 0.09351 0.56857 -0.26200
N 	N 	0.59104 0.07912 0.56256 -0.22800
N 	N 	0.93068 0.09967 0.61355 -0.28700
N 	N 	0.00062 0.07108 0.58164 -0.25400
N 	N 	0.10966 0.08298 0.79808 -0.23400
N 	N 	0.81445 0.00266 0.42826 -0.30000
N 	N 	0.81869 0.04622 0.44140 -0.26400
N 	N 	0.89676 0.38423 0.96443 -0.28600
N 	N 	0.94977 0.40649 0.93143 -0.26200
N 	N 	0.73272 0.42088 0.93744 -0.22800
N 	N 	0.14390 0.40033 0.88645 -0.28700
N 	N 	0.15334 0.42892 0.91836 -0.25400
N 	N 	0.49072 0.41702 0.70192 -0.23300
N 	N 	0.74537 0.49734 0.07174 -0.30000
N 	N 	0.80631 0.45378 0.05860 -0.26400
N 	N 	0.13881 0.96443 0.11577 -0.28600
N 	N 	0.11880 0.93143 0.09351 -0.26200
N 	N 	0.32984 0.93744 0.07912 -0.22900
N 	N 	0.96965 0.88645 0.09967 -0.28700
N 	N 	0.92830 0.91836 0.07108 -0.25300
N 	N 	0.80736 0.70192 0.08298 -0.23300
N 	N 	0.18289 0.07174 0.00266 -0.29900
N 	N 	0.13509 0.05860 0.04622 -0.26400
N 	N 	0.71901 0.53557 0.38423 -0.28600
N 	N 	0.64374 0.56857 0.40649 -0.26200
N 	N 	0.84640 0.56256 0.42088 -0.22800
N 	N 	0.45577 0.61355 0.40033 -0.28700
N 	N 	0.41774 0.58164 0.42892 -0.25400
N 	N 	0.09226 0.79808 0.41702 -0.23400
N 	N 	0.75729 0.42826 0.49734 -0.30000
N 	N 	0.73991 0.44140 0.45378 -0.26400
N 	N 	0.25458 0.88423 0.46443 -0.28600
N 	N 	0.21231 0.90649 0.43143 -0.26200
N 	N 	0.40896 0.92088 0.43744 -0.22800
N 	N 	0.06932 0.90033 0.38645 -0.28700
N 	N 	0.99938 0.92892 0.41836 -0.25400
N 	N 	0.89034 0.91702 0.20192 -0.23400
N 	N 	0.18555 0.99734 0.57174 -0.30000
N 	N 	0.18131 0.95378 0.55860 -0.26400
N 	N 	0.10324 0.61577 0.03557 -0.28600
N 	N 	0.05023 0.59351 0.06857 -0.26200
N 	N 	0.26728 0.57912 0.06256 -0.22800
N 	N 	0.85610 0.59967 0.11355 -0.28700
N 	N 	0.84666 0.57108 0.08164 -0.25400
N 	N 	0.50928 0.58298 0.29808 -0.23300
N 	N 	0.25463 0.50266 0.92826 -0.30000
N 	N 	0.19369 0.54622 0.94140 -0.26400
O 	O 	0.78330 0.97298 0.87584 -0.47200
O 	O 	0.95854 0.04935 0.81893 -0.41400
O 	O 	0.79524 0.04418 0.97046 -0.47100
O 	O 	0.93755 0.14333 0.84033 -0.47300
O 	O 	0.05411 0.16983 0.93675 -0.42400
O 	O 	0.05375 0.02902 0.88384 -0.46900
O 	O 	0.78410 0.88467 0.08121 -0.49300
O 	O 	0.70868 0.97935 0.97671 -0.41100
O 	O 	0.96619 0.88388 0.97498 -0.47900
O 	O 	0.13212 0.52702 0.62416 -0.47200
O 	O 	0.32682 0.45065 0.68107 -0.41400
O 	O 	0.30988 0.45582 0.52954 -0.47000
O 	O 	0.42121 0.35667 0.65967 -0.47300
O 	O 	0.66069 0.33017 0.56325 -0.42400
O 	O 	0.46661 0.47098 0.61616 -0.46900
O 	O 	0.24998 0.61533 0.41879 -0.49300
O 	O 	0.16474 0.52065 0.52329 -0.41300
O 	O 	0.32505 0.61612 0.52502 -0.47900
O 	O 	0.65914 0.12416 0.47298 -0.47200
O 	O 	0.77747 0.18107 0.54935 -0.41400
O 	O 	0.76570 0.02954 0.54418 -0.47000
O 	O 	0.77788 0.15967 0.64333 -0.47300
O 	O 	0.99086 0.06325 0.66983 -0.42400
O 	O 	0.93759 0.11616 0.52902 -0.46900
O 	O 	0.86531 0.91879 0.38467 -0.49300
O 	O 	0.68539 0.02329 0.47935 -0.41200
O 	O 	0.94117 0.02502 0.38388 -0.47900
O 	O 	0.75628 0.37584 0.02702 -0.47200
O 	O 	0.00789 0.31893 0.95065 -0.41500
O 	O 	0.83942 0.47046 0.95582 -0.47000
O 	O 	0.08088 0.34033 0.85667 -0.47400
O 	O 	0.22394 0.43675 0.83017 -0.42400
O 	O 	0.08277 0.38384 0.97098 -0.46900
O 	O 	0.66877 0.58121 0.11533 -0.49300
O 	O 	0.68803 0.47671 0.02065 -0.41300
O 	O 	0.85007 0.47498 0.11612 -0.47900
O 	O 	0.21670 0.02702 0.12416 -0.47200
O 	O 	0.04146 0.95065 0.18107 -0.41400
O 	O 	0.20476 0.95582 0.02954 -0.47100
O 	O 	0.06245 0.85667 0.15967 -0.47300
O 	O 	0.94589 0.83017 0.06325 -0.42400
O 	O 	0.94625 0.97098 0.11616 -0.46900
O 	O 	0.21590 0.11533 0.91879 -0.49300
O 	O 	0.29132 0.02065 0.02329 -0.41100
O 	O 	0.03381 0.11612 0.02502 -0.47900
O 	O 	0.86788 0.47298 0.37584 -0.47200
O 	O 	0.67318 0.54935 0.31893 -0.41400
O 	O 	0.69012 0.54418 0.47046 -0.47000
O 	O 	0.57879 0.64333 0.34033 -0.47300
O 	O 	0.33931 0.66983 0.43675 -0.42400
O 	O 	0.53339 0.52902 0.38384 -0.46900
O 	O 	0.75002 0.38467 0.58121 -0.49300
O 	O 	0.83526 0.47935 0.47671 -0.41300
O 	O 	0.67495 0.38388 0.47498 -0.47900
O 	O 	0.34086 0.87584 0.52702 -0.47200
O 	O 	0.22253 0.81893 0.45065 -0.41400
O 	O 	0.23430 0.97046 0.45582 -0.47000
O 	O 	0.22212 0.84033 0.35667 -0.47300
O 	O 	0.00914 0.93675 0.33017 -0.42400
O 	O 	0.06241 0.88384 0.47098 -0.46900
O 	O 	0.13469 0.08121 0.61533 -0.49300
O 	O 	0.31461 0.97671 0.52065 -0.41200
O 	O 	0.05883 0.97498 0.61612 -0.47900
O 	O 	0.24372 0.62416 0.97298 -0.47200
O 	O 	0.99211 0.68107 0.04935 -0.41500
O 	O 	0.16058 0.52954 0.04418 -0.47000
O 	O 	0.91912 0.65967 0.14333 -0.47400
O 	O 	0.77606 0.56325 0.16983 -0.42400
O 	O 	0.91723 0.61616 0.02902 -0.46900
O 	O 	0.33123 0.41879 0.88467 -0.49300
O 	O 	0.31197 0.52329 0.97935 -0.41300
O 	O 	0.14993 0.52502 0.88388 -0.47900
