data_crystal

_cell_length_a 40.37600
_cell_length_b 40.37600
_cell_length_c 17.56700
_cell_angle_alpha 90.00000
_cell_angle_beta  90.00000
_cell_angle_gamma 90.00000

_symmetry_space_group_name_	'P 1'
_symmetry_space_group_name_H-M	'P 1'

loop_
_symmetry_equiv_pos_as_xyz
  x,y,z

loop_
_atom_site_label
_atom_site_type_symbol
_atom_site_fract_x
_atom_site_fract_y
_atom_site_fract_z
_atom_site_charge
Mn	Mn	0.72027 0.13581 0.27818 1.33700
O 	O 	0.74032 0.09797 0.31305 -0.47200
O 	O 	0.80300 0.13408 0.13892 -0.43300
O 	O 	0.70545 0.17652 0.23101 -0.42900
N 	N 	0.75612 0.14303 0.20730 -0.29000
N 	N 	0.75394 0.17329 0.16470 -0.23600
N 	N 	0.68864 0.10813 0.19240 -0.23700
C 	C 	0.76590 0.08064 0.28460 0.30400
C 	C 	0.77264 0.04953 0.31600 -0.27700
H 	H 	0.75910 0.04130 0.35610 0.13400
C 	C 	0.79848 0.03068 0.28970 0.15700
H 	H 	0.80280 0.00980 0.31240 -0.02900
C 	C 	0.81824 0.04152 0.23070 -0.21800
H 	H 	0.83540 0.02790 0.21120 0.11300
C 	C 	0.81267 0.07219 0.20090 0.14700
H 	H 	0.82700 0.08010 0.16210 0.00900
C 	C 	0.78651 0.09253 0.22530 -0.24700
C 	C 	0.78200 0.12477 0.18850 0.29200
C 	C 	0.72638 0.18801 0.18200 0.25800
C 	C 	0.71712 0.22021 0.14350 -0.26300
H 	H 	0.73670 0.22990 0.11800 0.10200
H 	H 	0.70900 0.23630 0.18170 0.11100
C 	C 	0.66827 0.08454 0.21280 0.12100
H 	H 	0.66780 0.07860 0.26510 -0.00700
C 	C 	0.64753 0.06779 0.16450 -0.20900
H 	H 	0.63450 0.04980 0.18200 0.10600
C 	C 	0.64624 0.07799 0.08940 0.14800
C 	C 	0.66779 0.10253 0.06880 -0.20800
H 	H 	0.66800 0.11000 0.01760 0.09700
C 	C 	0.68831 0.11611 0.11840 0.12500
H 	H 	0.70350 0.13230 0.10070 -0.01300
C 	C 	0.62281 0.06170 0.03430 -0.14200
H 	H 	0.60400 0.05200 0.06300 0.06900
H 	H 	0.61380 0.07870 0.99940 0.06300
Mn	Mn	0.79573 0.17531 0.08203 1.32000
O 	O 	0.77028 0.15369 0.00840 -0.48400
O 	O 	0.77569 0.25408 0.93783 -0.41000
O 	O 	0.82068 0.20431 0.14907 -0.43800
N 	N 	0.78911 0.21690 0.03020 -0.29900
N 	N 	0.80507 0.24448 0.06572 -0.23300
C 	C 	0.75357 0.16624 0.95070 0.33000
C 	C 	0.73320 0.14370 0.91030 -0.31300
H 	H 	0.73220 0.12130 0.92610 0.14200
C 	C 	0.71570 0.15340 0.85170 0.18300
H 	H 	0.69710 0.14090 0.83530 -0.03700
C 	C 	0.72480 0.18230 0.81380 -0.21500
H 	H 	0.72270 0.18480 0.76020 0.10700
C 	C 	0.73780 0.20810 0.86240 0.14200
H 	H 	0.73450 0.23090 0.85100 -0.00200
C 	C 	0.75529 0.19827 0.92620 -0.26500
C 	C 	0.77468 0.22437 0.96640 0.27500
C 	C 	0.82043 0.23458 0.12630 0.22200
C 	C 	0.83815 0.26056 0.17280 -0.16100
H 	H 	0.82140 0.27490 0.19740 0.07700
H 	H 	0.85140 0.27460 0.13810 0.06600
C 	C 	0.86110 0.24650 0.23450 -0.24900
H 	H 	0.84820 0.23280 0.26980 0.10300
H 	H 	0.87140 0.26480 0.26250 0.09800
H 	H 	0.87840 0.23300 0.21060 0.10000
Mn	Mn	0.71151 0.20922 0.49449 1.33500
O 	O 	0.66935 0.20132 0.53273 -0.47300
O 	O 	0.68229 0.13381 0.34906 -0.41500
O 	O 	0.75423 0.21141 0.44491 -0.41800
N 	N 	0.70671 0.17387 0.42132 -0.28600
N 	N 	0.73522 0.16787 0.37690 -0.22600
C 	C 	0.64693 0.17926 0.51130 0.31500
C 	C 	0.61668 0.17889 0.55040 -0.28800
H 	H 	0.61310 0.19440 0.59030 0.13400
C 	C 	0.59190 0.15660 0.53230 0.17300
H 	H 	0.57150 0.15710 0.55940 -0.03800
C 	C 	0.59651 0.13412 0.47640 -0.24200
H 	H 	0.57990 0.11810 0.46590 0.11200
C 	C 	0.62534 0.13464 0.43480 0.16000
H 	H 	0.62780 0.11950 0.39380 -0.00800
C 	C 	0.65114 0.15665 0.45100 -0.26000
C 	C 	0.68084 0.15461 0.40430 0.27700
C 	C 	0.75811 0.18874 0.39370 0.21500
C 	C 	0.79165 0.18558 0.35740 -0.13100
H 	H 	0.79570 0.20510 0.32480 0.06400
H 	H 	0.79190 0.16570 0.32450 0.05300
C 	C 	0.81888 0.18290 0.41510 -0.27700
H 	H 	0.81570 0.16280 0.44560 0.10700
H 	H 	0.84030 0.18170 0.38890 0.10200
H 	H 	0.81850 0.20240 0.44840 0.11600
N 	N 	0.57408 0.98651 0.83140 -0.26600
C 	C 	0.56372 0.01699 0.86030 0.08200
H 	H 	0.54180 0.02460 0.85100 0.00800
C 	C 	0.58560 0.03640 0.90300 -0.18600
H 	H 	0.58170 0.05920 0.91230 0.08700
C 	C 	0.61550 0.01910 0.93310 0.20100
C 	C 	0.62430 0.99500 0.89550 -0.31600
H 	H 	0.64580 0.98580 0.90150 0.13200
C 	C 	0.60210 0.98190 0.84440 0.23100
H 	H 	0.61170 0.96550 0.81260 -0.05600
C 	C 	0.63850 0.03580 0.98960 -0.19100
H 	H 	0.65740 0.04550 0.96160 0.08000
H 	H 	0.64740 0.01880 0.02470 0.08200
Mn	Mn	0.22027 0.63581 0.77818 1.33600
O 	O 	0.24032 0.59797 0.81305 -0.47300
O 	O 	0.30300 0.63408 0.63892 -0.43400
O 	O 	0.20545 0.67652 0.73101 -0.43000
N 	N 	0.25612 0.64303 0.70730 -0.29100
N 	N 	0.25394 0.67329 0.66470 -0.23700
N 	N 	0.18864 0.60813 0.69240 -0.23800
C 	C 	0.26590 0.58064 0.78460 0.30300
C 	C 	0.27264 0.54953 0.81600 -0.27800
H 	H 	0.25910 0.54130 0.85610 0.13300
C 	C 	0.29848 0.53068 0.78970 0.15600
H 	H 	0.30280 0.50980 0.81240 -0.03000
C 	C 	0.31824 0.54152 0.73070 -0.21900
H 	H 	0.33540 0.52790 0.71120 0.11200
C 	C 	0.31267 0.57219 0.70090 0.14600
H 	H 	0.32700 0.58010 0.66210 0.00800
C 	C 	0.28651 0.59253 0.72530 -0.24800
C 	C 	0.28200 0.62477 0.68850 0.29100
C 	C 	0.22638 0.68801 0.68200 0.25700
C 	C 	0.21712 0.72021 0.64350 -0.26400
H 	H 	0.23670 0.72990 0.61800 0.10100
H 	H 	0.20900 0.73630 0.68170 0.11000
C 	C 	0.16827 0.58454 0.71280 0.12000
H 	H 	0.16780 0.57860 0.76510 -0.00800
C 	C 	0.14753 0.56779 0.66450 -0.21000
H 	H 	0.13450 0.54980 0.68200 0.10500
C 	C 	0.14624 0.57799 0.58940 0.14600
C 	C 	0.16779 0.60253 0.56880 -0.20800
H 	H 	0.16800 0.61000 0.51760 0.09600
C 	C 	0.18831 0.61611 0.61840 0.12400
H 	H 	0.20350 0.63230 0.60070 -0.01400
C 	C 	0.12281 0.56170 0.53430 -0.14100
H 	H 	0.10400 0.55200 0.56300 0.06800
H 	H 	0.11380 0.57870 0.49940 0.06200
Mn	Mn	0.29573 0.67531 0.58203 1.32000
O 	O 	0.27028 0.65369 0.50840 -0.48300
O 	O 	0.27569 0.75408 0.43783 -0.41000
O 	O 	0.32068 0.70431 0.64907 -0.43800
N 	N 	0.28911 0.71690 0.53020 -0.29900
N 	N 	0.30507 0.74448 0.56572 -0.23300
C 	C 	0.25357 0.66624 0.45070 0.32900
C 	C 	0.23320 0.64370 0.41030 -0.31200
H 	H 	0.23220 0.62130 0.42610 0.14100
C 	C 	0.21570 0.65340 0.35170 0.18300
H 	H 	0.19710 0.64090 0.33530 -0.03700
C 	C 	0.22480 0.68230 0.31380 -0.21500
H 	H 	0.22270 0.68480 0.26020 0.10700
C 	C 	0.23780 0.70810 0.36240 0.14100
H 	H 	0.23450 0.73090 0.35100 -0.00100
C 	C 	0.25529 0.69827 0.42620 -0.26500
C 	C 	0.27468 0.72437 0.46640 0.27500
C 	C 	0.32043 0.73458 0.62630 0.22200
C 	C 	0.33815 0.76056 0.67280 -0.16100
H 	H 	0.32140 0.77490 0.69740 0.07700
H 	H 	0.35140 0.77460 0.63810 0.06600
C 	C 	0.36110 0.74650 0.73450 -0.24900
H 	H 	0.34820 0.73280 0.76980 0.10300
H 	H 	0.37140 0.76480 0.76250 0.09800
H 	H 	0.37840 0.73300 0.71060 0.10000
Mn	Mn	0.21151 0.70922 0.99449 1.33500
O 	O 	0.16935 0.70132 0.03273 -0.47300
O 	O 	0.18229 0.63381 0.84906 -0.41500
O 	O 	0.25423 0.71141 0.94491 -0.41800
N 	N 	0.20671 0.67387 0.92132 -0.28600
N 	N 	0.23522 0.66787 0.87690 -0.22700
C 	C 	0.14693 0.67926 0.01130 0.31600
C 	C 	0.11668 0.67889 0.05040 -0.28900
H 	H 	0.11310 0.69440 0.09030 0.13500
C 	C 	0.09190 0.65660 0.03230 0.17400
H 	H 	0.07150 0.65710 0.05940 -0.03800
C 	C 	0.09651 0.63412 0.97640 -0.24300
H 	H 	0.07990 0.61810 0.96590 0.11200
C 	C 	0.12534 0.63464 0.93480 0.16100
H 	H 	0.12780 0.61950 0.89380 -0.00800
C 	C 	0.15114 0.65665 0.95100 -0.26100
C 	C 	0.18084 0.65461 0.90430 0.27700
C 	C 	0.25811 0.68874 0.89370 0.21500
C 	C 	0.29165 0.68558 0.85740 -0.13100
H 	H 	0.29570 0.70510 0.82480 0.06500
H 	H 	0.29190 0.66570 0.82450 0.05300
C 	C 	0.31888 0.68290 0.91510 -0.27700
H 	H 	0.31570 0.66280 0.94560 0.10700
H 	H 	0.34030 0.68170 0.88890 0.10200
H 	H 	0.31850 0.70240 0.94840 0.11600
N 	N 	0.07408 0.48651 0.33140 -0.26600
C 	C 	0.06372 0.51699 0.36030 0.08200
H 	H 	0.04180 0.52460 0.35100 0.00700
C 	C 	0.08560 0.53640 0.40300 -0.18600
H 	H 	0.08170 0.55920 0.41230 0.08700
C 	C 	0.11550 0.51910 0.43310 0.20200
C 	C 	0.12430 0.49500 0.39550 -0.31700
H 	H 	0.14580 0.48580 0.40150 0.13200
C 	C 	0.10210 0.48190 0.34440 0.23100
H 	H 	0.11170 0.46550 0.31260 -0.05600
C 	C 	0.13850 0.53580 0.48960 -0.19200
H 	H 	0.15740 0.54550 0.46160 0.08000
H 	H 	0.14740 0.51880 0.52470 0.08200
Mn	Mn	0.77973 0.86419 0.77818 1.33600
O 	O 	0.75968 0.90203 0.81305 -0.47300
O 	O 	0.69700 0.86592 0.63892 -0.43400
O 	O 	0.79455 0.82348 0.73101 -0.43000
N 	N 	0.74388 0.85697 0.70730 -0.29100
N 	N 	0.74606 0.82671 0.66470 -0.23700
N 	N 	0.81136 0.89187 0.69240 -0.23800
C 	C 	0.73410 0.91936 0.78460 0.30300
C 	C 	0.72736 0.95047 0.81600 -0.27800
H 	H 	0.74090 0.95870 0.85610 0.13300
C 	C 	0.70152 0.96932 0.78970 0.15600
H 	H 	0.69720 0.99020 0.81240 -0.03000
C 	C 	0.68176 0.95848 0.73070 -0.21900
H 	H 	0.66460 0.97210 0.71120 0.11200
C 	C 	0.68733 0.92781 0.70090 0.14600
H 	H 	0.67300 0.91990 0.66210 0.00800
C 	C 	0.71349 0.90747 0.72530 -0.24800
C 	C 	0.71800 0.87523 0.68850 0.29100
C 	C 	0.77362 0.81199 0.68200 0.25700
C 	C 	0.78288 0.77979 0.64350 -0.26400
H 	H 	0.76330 0.77010 0.61800 0.10100
H 	H 	0.79100 0.76370 0.68170 0.11000
C 	C 	0.83173 0.91546 0.71280 0.12000
H 	H 	0.83220 0.92140 0.76510 -0.00800
C 	C 	0.85247 0.93221 0.66450 -0.21000
H 	H 	0.86550 0.95020 0.68200 0.10500
C 	C 	0.85376 0.92201 0.58940 0.14600
C 	C 	0.83221 0.89747 0.56880 -0.20800
H 	H 	0.83200 0.89000 0.51760 0.09600
C 	C 	0.81169 0.88389 0.61840 0.12400
H 	H 	0.79650 0.86770 0.60070 -0.01400
C 	C 	0.87719 0.93830 0.53430 -0.14100
H 	H 	0.89600 0.94800 0.56300 0.06800
H 	H 	0.88620 0.92130 0.49940 0.06200
Mn	Mn	0.70427 0.82469 0.58203 1.32000
O 	O 	0.72972 0.84631 0.50840 -0.48300
O 	O 	0.72431 0.74592 0.43783 -0.41000
O 	O 	0.67932 0.79569 0.64907 -0.43800
N 	N 	0.71089 0.78310 0.53020 -0.29900
N 	N 	0.69493 0.75552 0.56572 -0.23300
C 	C 	0.74643 0.83376 0.45070 0.32900
C 	C 	0.76680 0.85630 0.41030 -0.31200
H 	H 	0.76780 0.87870 0.42610 0.14100
C 	C 	0.78430 0.84660 0.35170 0.18300
H 	H 	0.80290 0.85910 0.33530 -0.03700
C 	C 	0.77520 0.81770 0.31380 -0.21500
H 	H 	0.77730 0.81520 0.26020 0.10700
C 	C 	0.76220 0.79190 0.36240 0.14100
H 	H 	0.76550 0.76910 0.35100 -0.00100
C 	C 	0.74471 0.80173 0.42620 -0.26500
C 	C 	0.72532 0.77563 0.46640 0.27500
C 	C 	0.67957 0.76542 0.62630 0.22200
C 	C 	0.66185 0.73944 0.67280 -0.16100
H 	H 	0.67860 0.72510 0.69740 0.07700
H 	H 	0.64860 0.72540 0.63810 0.06600
C 	C 	0.63890 0.75350 0.73450 -0.24900
H 	H 	0.65180 0.76720 0.76980 0.10300
H 	H 	0.62860 0.73520 0.76250 0.09800
H 	H 	0.62160 0.76700 0.71060 0.10000
Mn	Mn	0.78849 0.79078 0.99449 1.33500
O 	O 	0.83065 0.79868 0.03273 -0.47300
O 	O 	0.81771 0.86619 0.84906 -0.41500
O 	O 	0.74577 0.78859 0.94491 -0.41800
N 	N 	0.79329 0.82613 0.92132 -0.28600
N 	N 	0.76478 0.83213 0.87690 -0.22700
C 	C 	0.85307 0.82074 0.01130 0.31600
C 	C 	0.88332 0.82111 0.05040 -0.28900
H 	H 	0.88690 0.80560 0.09030 0.13500
C 	C 	0.90810 0.84340 0.03230 0.17400
H 	H 	0.92850 0.84290 0.05940 -0.03800
C 	C 	0.90349 0.86588 0.97640 -0.24300
H 	H 	0.92010 0.88190 0.96590 0.11200
C 	C 	0.87466 0.86536 0.93480 0.16100
H 	H 	0.87220 0.88050 0.89380 -0.00800
C 	C 	0.84886 0.84335 0.95100 -0.26100
C 	C 	0.81916 0.84539 0.90430 0.27700
C 	C 	0.74189 0.81126 0.89370 0.21500
C 	C 	0.70835 0.81442 0.85740 -0.13100
H 	H 	0.70430 0.79490 0.82480 0.06500
H 	H 	0.70810 0.83430 0.82450 0.05300
C 	C 	0.68112 0.81710 0.91510 -0.27700
H 	H 	0.68430 0.83720 0.94560 0.10700
H 	H 	0.65970 0.81830 0.88890 0.10200
H 	H 	0.68150 0.79760 0.94840 0.11600
N 	N 	0.92592 0.01349 0.33140 -0.26600
C 	C 	0.93628 0.98301 0.36030 0.08200
H 	H 	0.95820 0.97540 0.35100 0.00700
C 	C 	0.91440 0.96360 0.40300 -0.18600
H 	H 	0.91830 0.94080 0.41230 0.08700
C 	C 	0.88450 0.98090 0.43310 0.20200
C 	C 	0.87570 0.00500 0.39550 -0.31700
H 	H 	0.85420 0.01420 0.40150 0.13200
C 	C 	0.89790 0.01810 0.34440 0.23100
H 	H 	0.88830 0.03450 0.31260 -0.05600
C 	C 	0.86150 0.96420 0.48960 -0.19200
H 	H 	0.84260 0.95450 0.46160 0.08000
H 	H 	0.85260 0.98120 0.52470 0.08200
Mn	Mn	0.27973 0.36419 0.27818 1.33600
O 	O 	0.25968 0.40203 0.31305 -0.47300
O 	O 	0.19700 0.36592 0.13892 -0.43400
O 	O 	0.29455 0.32348 0.23101 -0.43000
N 	N 	0.24388 0.35697 0.20730 -0.29100
N 	N 	0.24606 0.32671 0.16470 -0.23700
N 	N 	0.31136 0.39187 0.19240 -0.23800
C 	C 	0.23410 0.41936 0.28460 0.30300
C 	C 	0.22736 0.45047 0.31600 -0.27800
H 	H 	0.24090 0.45870 0.35610 0.13300
C 	C 	0.20152 0.46932 0.28970 0.15600
H 	H 	0.19720 0.49020 0.31240 -0.03000
C 	C 	0.18176 0.45848 0.23070 -0.21900
H 	H 	0.16460 0.47210 0.21120 0.11200
C 	C 	0.18733 0.42781 0.20090 0.14600
H 	H 	0.17300 0.41990 0.16210 0.00800
C 	C 	0.21349 0.40747 0.22530 -0.24800
C 	C 	0.21800 0.37523 0.18850 0.29100
C 	C 	0.27362 0.31199 0.18200 0.25700
C 	C 	0.28288 0.27979 0.14350 -0.26400
H 	H 	0.26330 0.27010 0.11800 0.10100
H 	H 	0.29100 0.26370 0.18170 0.11000
C 	C 	0.33173 0.41546 0.21280 0.12000
H 	H 	0.33220 0.42140 0.26510 -0.00800
C 	C 	0.35247 0.43221 0.16450 -0.21000
H 	H 	0.36550 0.45020 0.18200 0.10500
C 	C 	0.35376 0.42201 0.08940 0.14700
C 	C 	0.33221 0.39747 0.06880 -0.20900
H 	H 	0.33200 0.39000 0.01760 0.09600
C 	C 	0.31169 0.38389 0.11840 0.12400
H 	H 	0.29650 0.36770 0.10070 -0.01400
C 	C 	0.37719 0.43830 0.03430 -0.14300
H 	H 	0.39600 0.44800 0.06300 0.06900
H 	H 	0.38620 0.42130 0.99940 0.06300
Mn	Mn	0.20427 0.32469 0.08203 1.32000
O 	O 	0.22972 0.34631 0.00840 -0.48400
O 	O 	0.22431 0.24592 0.93783 -0.41000
O 	O 	0.17932 0.29569 0.14907 -0.43800
N 	N 	0.21089 0.28310 0.03020 -0.29900
N 	N 	0.19493 0.25552 0.06572 -0.23300
C 	C 	0.24643 0.33376 0.95070 0.33000
C 	C 	0.26680 0.35630 0.91030 -0.31300
H 	H 	0.26780 0.37870 0.92610 0.14200
C 	C 	0.28430 0.34660 0.85170 0.18300
H 	H 	0.30290 0.35910 0.83530 -0.03700
C 	C 	0.27520 0.31770 0.81380 -0.21500
H 	H 	0.27730 0.31520 0.76020 0.10700
C 	C 	0.26220 0.29190 0.86240 0.14200
H 	H 	0.26550 0.26910 0.85100 -0.00200
C 	C 	0.24471 0.30173 0.92620 -0.26500
C 	C 	0.22532 0.27563 0.96640 0.27500
C 	C 	0.17957 0.26542 0.12630 0.22200
C 	C 	0.16185 0.23944 0.17280 -0.16100
H 	H 	0.17860 0.22510 0.19740 0.07700
H 	H 	0.14860 0.22540 0.13810 0.06600
C 	C 	0.13890 0.25350 0.23450 -0.24900
H 	H 	0.15180 0.26720 0.26980 0.10300
H 	H 	0.12860 0.23520 0.26250 0.09800
H 	H 	0.12160 0.26700 0.21060 0.10000
Mn	Mn	0.28849 0.29078 0.49449 1.33500
O 	O 	0.33065 0.29868 0.53273 -0.47300
O 	O 	0.31771 0.36619 0.34906 -0.41500
O 	O 	0.24577 0.28859 0.44491 -0.41800
N 	N 	0.29329 0.32613 0.42132 -0.28600
N 	N 	0.26478 0.33213 0.37690 -0.22600
C 	C 	0.35307 0.32074 0.51130 0.31500
C 	C 	0.38332 0.32111 0.55040 -0.28800
H 	H 	0.38690 0.30560 0.59030 0.13400
C 	C 	0.40810 0.34340 0.53230 0.17300
H 	H 	0.42850 0.34290 0.55940 -0.03800
C 	C 	0.40349 0.36588 0.47640 -0.24200
H 	H 	0.42010 0.38190 0.46590 0.11200
C 	C 	0.37466 0.36536 0.43480 0.16000
H 	H 	0.37220 0.38050 0.39380 -0.00800
C 	C 	0.34886 0.34335 0.45100 -0.26000
C 	C 	0.31916 0.34539 0.40430 0.27700
C 	C 	0.24189 0.31126 0.39370 0.21500
C 	C 	0.20835 0.31442 0.35740 -0.13100
H 	H 	0.20430 0.29490 0.32480 0.06400
H 	H 	0.20810 0.33430 0.32450 0.05300
C 	C 	0.18112 0.31710 0.41510 -0.27700
H 	H 	0.18430 0.33720 0.44560 0.10700
H 	H 	0.15970 0.31830 0.38890 0.10200
H 	H 	0.18150 0.29760 0.44840 0.11600
N 	N 	0.42592 0.51349 0.83140 -0.26600
C 	C 	0.43628 0.48301 0.86030 0.08200
H 	H 	0.45820 0.47540 0.85100 0.00800
C 	C 	0.41440 0.46360 0.90300 -0.18600
H 	H 	0.41830 0.44080 0.91230 0.08700
C 	C 	0.38450 0.48090 0.93310 0.20100
C 	C 	0.37570 0.50500 0.89550 -0.31600
H 	H 	0.35420 0.51420 0.90150 0.13200
C 	C 	0.39790 0.51810 0.84440 0.23100
H 	H 	0.38830 0.53450 0.81260 -0.05600
C 	C 	0.36150 0.46420 0.98960 -0.19100
H 	H 	0.34260 0.45450 0.96160 0.08000
H 	H 	0.35260 0.48120 0.02470 0.08200
Mn	Mn	0.61419 0.97027 0.52818 1.33600
O 	O 	0.65203 0.99032 0.56305 -0.47300
O 	O 	0.61592 0.05300 0.38892 -0.43400
O 	O 	0.57348 0.95545 0.48101 -0.43000
N 	N 	0.60697 0.00612 0.45730 -0.29100
N 	N 	0.57671 0.00394 0.41470 -0.23700
N 	N 	0.64187 0.93864 0.44240 -0.23800
C 	C 	0.66936 0.01590 0.53460 0.30300
C 	C 	0.70047 0.02264 0.56600 -0.27800
H 	H 	0.70870 0.00910 0.60610 0.13300
C 	C 	0.71932 0.04848 0.53970 0.15600
H 	H 	0.74020 0.05280 0.56240 -0.03000
C 	C 	0.70848 0.06824 0.48070 -0.21900
H 	H 	0.72210 0.08540 0.46120 0.11200
C 	C 	0.67781 0.06267 0.45090 0.14600
H 	H 	0.66990 0.07700 0.41210 0.00800
C 	C 	0.65747 0.03651 0.47530 -0.24800
C 	C 	0.62523 0.03200 0.43850 0.29100
C 	C 	0.56199 0.97638 0.43200 0.25700
C 	C 	0.52979 0.96712 0.39350 -0.26400
H 	H 	0.52010 0.98670 0.36800 0.10100
H 	H 	0.51370 0.95900 0.43170 0.11000
C 	C 	0.66546 0.91827 0.46280 0.12000
H 	H 	0.67140 0.91780 0.51510 -0.00800
C 	C 	0.68221 0.89753 0.41450 -0.21000
H 	H 	0.70020 0.88450 0.43200 0.10500
C 	C 	0.67201 0.89624 0.33940 0.14600
C 	C 	0.64747 0.91779 0.31880 -0.20800
H 	H 	0.64000 0.91800 0.26760 0.09600
C 	C 	0.63389 0.93831 0.36840 0.12400
H 	H 	0.61770 0.95350 0.35070 -0.01400
C 	C 	0.68830 0.87281 0.28430 -0.14100
H 	H 	0.69800 0.85400 0.31300 0.06800
H 	H 	0.67130 0.86380 0.24940 0.06200
Mn	Mn	0.57469 0.04573 0.33203 1.32000
O 	O 	0.59631 0.02028 0.25840 -0.48300
O 	O 	0.49592 0.02569 0.18783 -0.41000
O 	O 	0.54569 0.07068 0.39907 -0.43800
N 	N 	0.53310 0.03911 0.28020 -0.29900
N 	N 	0.50552 0.05507 0.31572 -0.23300
C 	C 	0.58376 0.00357 0.20070 0.32900
C 	C 	0.60630 0.98320 0.16030 -0.31200
H 	H 	0.62870 0.98220 0.17610 0.14100
C 	C 	0.59660 0.96570 0.10170 0.18300
H 	H 	0.60910 0.94710 0.08530 -0.03700
C 	C 	0.56770 0.97480 0.06380 -0.21500
H 	H 	0.56520 0.97270 0.01020 0.10700
C 	C 	0.54190 0.98780 0.11240 0.14100
H 	H 	0.51910 0.98450 0.10100 -0.00100
C 	C 	0.55173 0.00529 0.17620 -0.26500
C 	C 	0.52563 0.02468 0.21640 0.27500
C 	C 	0.51542 0.07043 0.37630 0.22200
C 	C 	0.48944 0.08815 0.42280 -0.16100
H 	H 	0.47510 0.07140 0.44740 0.07700
H 	H 	0.47540 0.10140 0.38810 0.06600
C 	C 	0.50350 0.11110 0.48450 -0.24900
H 	H 	0.51720 0.09820 0.51980 0.10300
H 	H 	0.48520 0.12140 0.51250 0.09800
H 	H 	0.51700 0.12840 0.46060 0.10000
Mn	Mn	0.54078 0.96151 0.74449 1.33500
O 	O 	0.54868 0.91935 0.78273 -0.47300
O 	O 	0.61619 0.93229 0.59906 -0.41500
O 	O 	0.53859 0.00423 0.69491 -0.41800
N 	N 	0.57613 0.95671 0.67132 -0.28600
N 	N 	0.58213 0.98522 0.62690 -0.22600
C 	C 	0.57074 0.89693 0.76130 0.31500
C 	C 	0.57111 0.86668 0.80040 -0.28800
H 	H 	0.55560 0.86310 0.84030 0.13400
C 	C 	0.59340 0.84190 0.78230 0.17300
H 	H 	0.59290 0.82150 0.80940 -0.03800
C 	C 	0.61588 0.84651 0.72640 -0.24200
H 	H 	0.63190 0.82990 0.71590 0.11200
C 	C 	0.61536 0.87534 0.68480 0.16000
H 	H 	0.63050 0.87780 0.64380 -0.00800
C 	C 	0.59335 0.90114 0.70100 -0.26000
C 	C 	0.59539 0.93084 0.65430 0.27700
C 	C 	0.56126 0.00811 0.64370 0.21500
C 	C 	0.56442 0.04165 0.60740 -0.13100
H 	H 	0.54490 0.04570 0.57480 0.06400
H 	H 	0.58430 0.04190 0.57450 0.05300
C 	C 	0.56710 0.06888 0.66510 -0.27700
H 	H 	0.58720 0.06570 0.69560 0.10700
H 	H 	0.56830 0.09030 0.63890 0.10200
H 	H 	0.54760 0.06850 0.69840 0.11600
N 	N 	0.76349 0.82408 0.08140 -0.26600
C 	C 	0.73301 0.81372 0.11030 0.08200
H 	H 	0.72540 0.79180 0.10100 0.00800
C 	C 	0.71360 0.83560 0.15300 -0.18600
H 	H 	0.69080 0.83170 0.16230 0.08700
C 	C 	0.73090 0.86550 0.18310 0.20100
C 	C 	0.75500 0.87430 0.14550 -0.31700
H 	H 	0.76420 0.89580 0.15150 0.13200
C 	C 	0.76810 0.85210 0.09440 0.23100
H 	H 	0.78450 0.86170 0.06260 -0.05600
C 	C 	0.71420 0.88850 0.23960 -0.19200
H 	H 	0.70450 0.90740 0.21160 0.08000
H 	H 	0.73120 0.89740 0.27470 0.08200
Mn	Mn	0.11419 0.47027 0.02818 1.33600
O 	O 	0.15203 0.49032 0.06305 -0.47300
O 	O 	0.11592 0.55300 0.88892 -0.43400
O 	O 	0.07348 0.45545 0.98101 -0.42900
N 	N 	0.10697 0.50612 0.95730 -0.29100
N 	N 	0.07671 0.50394 0.91470 -0.23700
N 	N 	0.14187 0.43864 0.94240 -0.23800
C 	C 	0.16936 0.51590 0.03460 0.30300
C 	C 	0.20047 0.52264 0.06600 -0.27800
H 	H 	0.20870 0.50910 0.10610 0.13300
C 	C 	0.21932 0.54848 0.03970 0.15600
H 	H 	0.24020 0.55280 0.06240 -0.03000
C 	C 	0.20848 0.56824 0.98070 -0.21900
H 	H 	0.22210 0.58540 0.96120 0.11200
C 	C 	0.17781 0.56267 0.95090 0.14600
H 	H 	0.16990 0.57700 0.91210 0.00800
C 	C 	0.15747 0.53651 0.97530 -0.24800
C 	C 	0.12523 0.53200 0.93850 0.29100
C 	C 	0.06199 0.47638 0.93200 0.25700
C 	C 	0.02979 0.46712 0.89350 -0.26400
H 	H 	0.02010 0.48670 0.86800 0.10100
H 	H 	0.01370 0.45900 0.93170 0.11000
C 	C 	0.16546 0.41827 0.96280 0.12000
H 	H 	0.17140 0.41780 0.01510 -0.00800
C 	C 	0.18221 0.39753 0.91450 -0.21000
H 	H 	0.20020 0.38450 0.93200 0.10500
C 	C 	0.17201 0.39624 0.83940 0.14700
C 	C 	0.14747 0.41779 0.81880 -0.20800
H 	H 	0.14000 0.41800 0.76760 0.09600
C 	C 	0.13389 0.43831 0.86840 0.12400
H 	H 	0.11770 0.45350 0.85070 -0.01400
C 	C 	0.18830 0.37281 0.78430 -0.14100
H 	H 	0.19800 0.35400 0.81300 0.06900
H 	H 	0.17130 0.36380 0.74940 0.06200
Mn	Mn	0.07469 0.54573 0.83203 1.32000
O 	O 	0.09631 0.52028 0.75840 -0.48300
O 	O 	0.99592 0.52569 0.68783 -0.41000
O 	O 	0.04569 0.57068 0.89907 -0.43800
N 	N 	0.03310 0.53911 0.78020 -0.29900
N 	N 	0.00552 0.55507 0.81572 -0.23300
C 	C 	0.08376 0.50357 0.70070 0.32900
C 	C 	0.10630 0.48320 0.66030 -0.31200
H 	H 	0.12870 0.48220 0.67610 0.14100
C 	C 	0.09660 0.46570 0.60170 0.18300
H 	H 	0.10910 0.44710 0.58530 -0.03700
C 	C 	0.06770 0.47480 0.56380 -0.21500
H 	H 	0.06520 0.47270 0.51020 0.10700
C 	C 	0.04190 0.48780 0.61240 0.14100
H 	H 	0.01910 0.48450 0.60100 -0.00200
C 	C 	0.05173 0.50529 0.67620 -0.26500
C 	C 	0.02563 0.52468 0.71640 0.27500
C 	C 	0.01542 0.57043 0.87630 0.22100
C 	C 	0.98944 0.58815 0.92280 -0.16000
H 	H 	0.97510 0.57140 0.94740 0.07600
H 	H 	0.97540 0.60140 0.88810 0.06600
C 	C 	0.00350 0.61110 0.98450 -0.25100
H 	H 	0.01720 0.59820 0.01980 0.10400
H 	H 	0.98520 0.62140 0.01250 0.09900
H 	H 	0.01700 0.62840 0.96060 0.10000
Mn	Mn	0.04078 0.46151 0.24449 1.33500
O 	O 	0.04868 0.41935 0.28273 -0.47300
O 	O 	0.11619 0.43229 0.09906 -0.41500
O 	O 	0.03859 0.50423 0.19491 -0.41800
N 	N 	0.07613 0.45671 0.17132 -0.28600
N 	N 	0.08213 0.48522 0.12690 -0.22600
C 	C 	0.07074 0.39693 0.26130 0.31500
C 	C 	0.07111 0.36668 0.30040 -0.28800
H 	H 	0.05560 0.36310 0.34030 0.13400
C 	C 	0.09340 0.34190 0.28230 0.17300
H 	H 	0.09290 0.32150 0.30940 -0.03800
C 	C 	0.11588 0.34651 0.22640 -0.24200
H 	H 	0.13190 0.32990 0.21590 0.11200
C 	C 	0.11536 0.37534 0.18480 0.16000
H 	H 	0.13050 0.37780 0.14380 -0.00800
C 	C 	0.09335 0.40114 0.20100 -0.26000
C 	C 	0.09539 0.43084 0.15430 0.27700
C 	C 	0.06126 0.50811 0.14370 0.21500
C 	C 	0.06442 0.54165 0.10740 -0.13100
H 	H 	0.04490 0.54570 0.07480 0.06500
H 	H 	0.08430 0.54190 0.07450 0.05300
C 	C 	0.06710 0.56888 0.16510 -0.27700
H 	H 	0.08720 0.56570 0.19560 0.10700
H 	H 	0.06830 0.59030 0.13890 0.10200
H 	H 	0.04760 0.56850 0.19840 0.11600
N 	N 	0.26349 0.32408 0.58140 -0.26600
C 	C 	0.23301 0.31372 0.61030 0.08200
H 	H 	0.22540 0.29180 0.60100 0.00700
C 	C 	0.21360 0.33560 0.65300 -0.18600
H 	H 	0.19080 0.33170 0.66230 0.08700
C 	C 	0.23090 0.36550 0.68310 0.20100
C 	C 	0.25500 0.37430 0.64550 -0.31700
H 	H 	0.26420 0.39580 0.65150 0.13200
C 	C 	0.26810 0.35210 0.59440 0.23100
H 	H 	0.28450 0.36170 0.56260 -0.05600
C 	C 	0.21420 0.38850 0.73960 -0.19200
H 	H 	0.20450 0.40740 0.71160 0.08000
H 	H 	0.23120 0.39740 0.77470 0.08200
Mn	Mn	0.88581 0.02973 0.02818 1.33600
O 	O 	0.84797 0.00968 0.06305 -0.47400
O 	O 	0.88408 0.94700 0.88892 -0.43400
O 	O 	0.92652 0.04455 0.98101 -0.42900
N 	N 	0.89303 0.99388 0.95730 -0.29100
N 	N 	0.92329 0.99606 0.91470 -0.23700
N 	N 	0.85813 0.06136 0.94240 -0.23800
C 	C 	0.83064 0.98410 0.03460 0.30300
C 	C 	0.79953 0.97736 0.06600 -0.27800
H 	H 	0.79130 0.99090 0.10610 0.13300
C 	C 	0.78068 0.95152 0.03970 0.15600
H 	H 	0.75980 0.94720 0.06240 -0.03000
C 	C 	0.79152 0.93176 0.98070 -0.21900
H 	H 	0.77790 0.91460 0.96120 0.11200
C 	C 	0.82219 0.93733 0.95090 0.14700
H 	H 	0.83010 0.92300 0.91210 0.00800
C 	C 	0.84253 0.96349 0.97530 -0.24800
C 	C 	0.87477 0.96800 0.93850 0.29100
C 	C 	0.93801 0.02362 0.93200 0.25700
C 	C 	0.97021 0.03288 0.89350 -0.26400
H 	H 	0.97990 0.01330 0.86800 0.10100
H 	H 	0.98630 0.04100 0.93170 0.11000
C 	C 	0.83454 0.08173 0.96280 0.12100
H 	H 	0.82860 0.08220 0.01510 -0.00800
C 	C 	0.81779 0.10247 0.91450 -0.21000
H 	H 	0.79980 0.11550 0.93200 0.10500
C 	C 	0.82799 0.10376 0.83940 0.14700
C 	C 	0.85253 0.08221 0.81880 -0.20800
H 	H 	0.86000 0.08200 0.76760 0.09600
C 	C 	0.86611 0.06169 0.86840 0.12400
H 	H 	0.88230 0.04650 0.85070 -0.01400
C 	C 	0.81170 0.12719 0.78430 -0.14100
H 	H 	0.80200 0.14600 0.81300 0.06900
H 	H 	0.82870 0.13620 0.74940 0.06200
Mn	Mn	0.92531 0.95427 0.83203 1.32000
O 	O 	0.90369 0.97972 0.75840 -0.48300
O 	O 	0.00408 0.97431 0.68783 -0.41000
O 	O 	0.95431 0.92932 0.89907 -0.43800
N 	N 	0.96690 0.96089 0.78020 -0.29900
N 	N 	0.99448 0.94493 0.81572 -0.23300
C 	C 	0.91624 0.99643 0.70070 0.32900
C 	C 	0.89370 0.01680 0.66030 -0.31200
H 	H 	0.87130 0.01780 0.67610 0.14100
C 	C 	0.90340 0.03430 0.60170 0.18300
H 	H 	0.89090 0.05290 0.58530 -0.03700
C 	C 	0.93230 0.02520 0.56380 -0.21500
H 	H 	0.93480 0.02730 0.51020 0.10700
C 	C 	0.95810 0.01220 0.61240 0.14100
H 	H 	0.98090 0.01550 0.60100 -0.00200
C 	C 	0.94827 0.99471 0.67620 -0.26500
C 	C 	0.97437 0.97532 0.71640 0.27500
C 	C 	0.98458 0.92957 0.87630 0.22100
C 	C 	0.01056 0.91185 0.92280 -0.16000
H 	H 	0.02490 0.92860 0.94740 0.07600
H 	H 	0.02460 0.89860 0.88810 0.06600
C 	C 	0.99650 0.88890 0.98450 -0.25100
H 	H 	0.98280 0.90180 0.01980 0.10400
H 	H 	0.01480 0.87860 0.01250 0.09900
H 	H 	0.98300 0.87160 0.96060 0.10000
Mn	Mn	0.95922 0.03849 0.24449 1.33500
O 	O 	0.95132 0.08065 0.28273 -0.47300
O 	O 	0.88381 0.06771 0.09906 -0.41500
O 	O 	0.96141 0.99577 0.19491 -0.41800
N 	N 	0.92387 0.04329 0.17132 -0.28600
N 	N 	0.91787 0.01478 0.12690 -0.22700
C 	C 	0.92926 0.10307 0.26130 0.31500
C 	C 	0.92889 0.13332 0.30040 -0.28800
H 	H 	0.94440 0.13690 0.34030 0.13400
C 	C 	0.90660 0.15810 0.28230 0.17300
H 	H 	0.90710 0.17850 0.30940 -0.03800
C 	C 	0.88412 0.15349 0.22640 -0.24200
H 	H 	0.86810 0.17010 0.21590 0.11200
C 	C 	0.88464 0.12466 0.18480 0.16000
H 	H 	0.86950 0.12220 0.14380 -0.00800
C 	C 	0.90665 0.09886 0.20100 -0.26000
C 	C 	0.90461 0.06916 0.15430 0.27700
C 	C 	0.93874 0.99189 0.14370 0.21500
C 	C 	0.93558 0.95835 0.10740 -0.13100
H 	H 	0.95510 0.95430 0.07480 0.06500
H 	H 	0.91570 0.95810 0.07450 0.05300
C 	C 	0.93290 0.93112 0.16510 -0.27700
H 	H 	0.91280 0.93430 0.19560 0.10700
H 	H 	0.93170 0.90970 0.13890 0.10200
H 	H 	0.95240 0.93150 0.19840 0.11600
N 	N 	0.73651 0.17592 0.58140 -0.26600
C 	C 	0.76699 0.18628 0.61030 0.08200
H 	H 	0.77460 0.20820 0.60100 0.00700
C 	C 	0.78640 0.16440 0.65300 -0.18600
H 	H 	0.80920 0.16830 0.66230 0.08700
C 	C 	0.76910 0.13450 0.68310 0.20100
C 	C 	0.74500 0.12570 0.64550 -0.31700
H 	H 	0.73580 0.10420 0.65150 0.13200
C 	C 	0.73190 0.14790 0.59440 0.23100
H 	H 	0.71550 0.13830 0.56260 -0.05600
C 	C 	0.78580 0.11150 0.73960 -0.19200
H 	H 	0.79550 0.09260 0.71160 0.08000
H 	H 	0.76880 0.10260 0.77470 0.08200
Mn	Mn	0.38581 0.52973 0.52818 1.33600
O 	O 	0.34797 0.50968 0.56305 -0.47300
O 	O 	0.38408 0.44700 0.38892 -0.43400
O 	O 	0.42652 0.54455 0.48101 -0.43000
N 	N 	0.39303 0.49388 0.45730 -0.29100
N 	N 	0.42329 0.49606 0.41470 -0.23700
N 	N 	0.35813 0.56136 0.44240 -0.23800
C 	C 	0.33064 0.48410 0.53460 0.30300
C 	C 	0.29953 0.47736 0.56600 -0.27800
H 	H 	0.29130 0.49090 0.60610 0.13300
C 	C 	0.28068 0.45152 0.53970 0.15600
H 	H 	0.25980 0.44720 0.56240 -0.03000
C 	C 	0.29152 0.43176 0.48070 -0.21900
H 	H 	0.27790 0.41460 0.46120 0.11200
C 	C 	0.32219 0.43733 0.45090 0.14600
H 	H 	0.33010 0.42300 0.41210 0.00800
C 	C 	0.34253 0.46349 0.47530 -0.24800
C 	C 	0.37477 0.46800 0.43850 0.29100
C 	C 	0.43801 0.52362 0.43200 0.25700
C 	C 	0.47021 0.53288 0.39350 -0.26400
H 	H 	0.47990 0.51330 0.36800 0.10100
H 	H 	0.48630 0.54100 0.43170 0.11000
C 	C 	0.33454 0.58173 0.46280 0.12000
H 	H 	0.32860 0.58220 0.51510 -0.00800
C 	C 	0.31779 0.60247 0.41450 -0.21000
H 	H 	0.29980 0.61550 0.43200 0.10500
C 	C 	0.32799 0.60376 0.33940 0.14600
C 	C 	0.35253 0.58221 0.31880 -0.20800
H 	H 	0.36000 0.58200 0.26760 0.09600
C 	C 	0.36611 0.56169 0.36840 0.12400
H 	H 	0.38230 0.54650 0.35070 -0.01400
C 	C 	0.31170 0.62719 0.28430 -0.14100
H 	H 	0.30200 0.64600 0.31300 0.06800
H 	H 	0.32870 0.63620 0.24940 0.06200
Mn	Mn	0.42531 0.45427 0.33203 1.32000
O 	O 	0.40369 0.47972 0.25840 -0.48300
O 	O 	0.50408 0.47431 0.18783 -0.41000
O 	O 	0.45431 0.42932 0.39907 -0.43800
N 	N 	0.46690 0.46089 0.28020 -0.29900
N 	N 	0.49448 0.44493 0.31572 -0.23300
C 	C 	0.41624 0.49643 0.20070 0.32900
C 	C 	0.39370 0.51680 0.16030 -0.31200
H 	H 	0.37130 0.51780 0.17610 0.14100
C 	C 	0.40340 0.53430 0.10170 0.18300
H 	H 	0.39090 0.55290 0.08530 -0.03700
C 	C 	0.43230 0.52520 0.06380 -0.21500
H 	H 	0.43480 0.52730 0.01020 0.10700
C 	C 	0.45810 0.51220 0.11240 0.14100
H 	H 	0.48090 0.51550 0.10100 -0.00100
C 	C 	0.44827 0.49471 0.17620 -0.26500
C 	C 	0.47437 0.47532 0.21640 0.27500
C 	C 	0.48458 0.42957 0.37630 0.22200
C 	C 	0.51056 0.41185 0.42280 -0.16100
H 	H 	0.52490 0.42860 0.44740 0.07700
H 	H 	0.52460 0.39860 0.38810 0.06600
C 	C 	0.49650 0.38890 0.48450 -0.24900
H 	H 	0.48280 0.40180 0.51980 0.10300
H 	H 	0.51480 0.37860 0.51250 0.09800
H 	H 	0.48300 0.37160 0.46060 0.10000
Mn	Mn	0.45922 0.53849 0.74449 1.33500
O 	O 	0.45132 0.58065 0.78273 -0.47300
O 	O 	0.38381 0.56771 0.59906 -0.41500
O 	O 	0.46141 0.49577 0.69491 -0.41800
N 	N 	0.42387 0.54329 0.67132 -0.28600
N 	N 	0.41787 0.51478 0.62690 -0.22600
C 	C 	0.42926 0.60307 0.76130 0.31500
C 	C 	0.42889 0.63332 0.80040 -0.28800
H 	H 	0.44440 0.63690 0.84030 0.13400
C 	C 	0.40660 0.65810 0.78230 0.17300
H 	H 	0.40710 0.67850 0.80940 -0.03800
C 	C 	0.38412 0.65349 0.72640 -0.24200
H 	H 	0.36810 0.67010 0.71590 0.11200
C 	C 	0.38464 0.62466 0.68480 0.16000
H 	H 	0.36950 0.62220 0.64380 -0.00800
C 	C 	0.40665 0.59886 0.70100 -0.26000
C 	C 	0.40461 0.56916 0.65430 0.27700
C 	C 	0.43874 0.49189 0.64370 0.21500
C 	C 	0.43558 0.45835 0.60740 -0.13100
H 	H 	0.45510 0.45430 0.57480 0.06400
H 	H 	0.41570 0.45810 0.57450 0.05300
C 	C 	0.43290 0.43112 0.66510 -0.27700
H 	H 	0.41280 0.43430 0.69560 0.10700
H 	H 	0.43170 0.40970 0.63890 0.10200
H 	H 	0.45240 0.43150 0.69840 0.11600
N 	N 	0.23651 0.67592 0.08140 -0.26600
C 	C 	0.26699 0.68628 0.11030 0.08200
H 	H 	0.27460 0.70820 0.10100 0.00800
C 	C 	0.28640 0.66440 0.15300 -0.18600
H 	H 	0.30920 0.66830 0.16230 0.08700
C 	C 	0.26910 0.63450 0.18310 0.20100
C 	C 	0.24500 0.62570 0.14550 -0.31700
H 	H 	0.23580 0.60420 0.15150 0.13200
C 	C 	0.23190 0.64790 0.09440 0.23100
H 	H 	0.21550 0.63830 0.06260 -0.05600
C 	C 	0.28580 0.61150 0.23960 -0.19200
H 	H 	0.29550 0.59260 0.21160 0.08000
H 	H 	0.26880 0.60260 0.27470 0.08200
Mn	Mn	0.27973 0.86419 0.72182 1.33600
O 	O 	0.25968 0.90203 0.68695 -0.47300
O 	O 	0.19700 0.86592 0.86108 -0.43400
O 	O 	0.29455 0.82348 0.76899 -0.43000
N 	N 	0.24388 0.85697 0.79270 -0.29100
N 	N 	0.24606 0.82671 0.83530 -0.23700
N 	N 	0.31136 0.89187 0.80760 -0.23800
C 	C 	0.23410 0.91936 0.71540 0.30300
C 	C 	0.22736 0.95047 0.68400 -0.27800
H 	H 	0.24090 0.95870 0.64390 0.13300
C 	C 	0.20152 0.96932 0.71030 0.15600
H 	H 	0.19720 0.99020 0.68760 -0.03000
C 	C 	0.18176 0.95848 0.76930 -0.21900
H 	H 	0.16460 0.97210 0.78880 0.11200
C 	C 	0.18733 0.92781 0.79910 0.14600
H 	H 	0.17300 0.91990 0.83790 0.00800
C 	C 	0.21349 0.90747 0.77470 -0.24800
C 	C 	0.21800 0.87523 0.81150 0.29100
C 	C 	0.27362 0.81199 0.81800 0.25700
C 	C 	0.28288 0.77979 0.85650 -0.26400
H 	H 	0.26330 0.77010 0.88200 0.10100
H 	H 	0.29100 0.76370 0.81830 0.11000
C 	C 	0.33173 0.91546 0.78720 0.12000
H 	H 	0.33220 0.92140 0.73490 -0.00800
C 	C 	0.35247 0.93221 0.83550 -0.21000
H 	H 	0.36550 0.95020 0.81800 0.10500
C 	C 	0.35376 0.92201 0.91060 0.14700
C 	C 	0.33221 0.89747 0.93120 -0.20900
H 	H 	0.33200 0.89000 0.98240 0.09600
C 	C 	0.31169 0.88389 0.88160 0.12400
H 	H 	0.29650 0.86770 0.89930 -0.01400
C 	C 	0.37719 0.93830 0.96570 -0.14300
H 	H 	0.39600 0.94800 0.93700 0.06900
H 	H 	0.38620 0.92130 0.00060 0.06300
Mn	Mn	0.20427 0.82469 0.91797 1.32000
O 	O 	0.22972 0.84631 0.99160 -0.48400
O 	O 	0.22431 0.74592 0.06217 -0.41000
O 	O 	0.17932 0.79569 0.85093 -0.43800
N 	N 	0.21089 0.78310 0.96980 -0.29900
N 	N 	0.19493 0.75552 0.93428 -0.23300
C 	C 	0.24643 0.83376 0.04930 0.33000
C 	C 	0.26680 0.85630 0.08970 -0.31300
H 	H 	0.26780 0.87870 0.07390 0.14200
C 	C 	0.28430 0.84660 0.14830 0.18300
H 	H 	0.30290 0.85910 0.16470 -0.03700
C 	C 	0.27520 0.81770 0.18620 -0.21500
H 	H 	0.27730 0.81520 0.23980 0.10700
C 	C 	0.26220 0.79190 0.13760 0.14200
H 	H 	0.26550 0.76910 0.14900 -0.00200
C 	C 	0.24471 0.80173 0.07380 -0.26500
C 	C 	0.22532 0.77563 0.03360 0.27500
C 	C 	0.17957 0.76542 0.87370 0.22200
C 	C 	0.16185 0.73944 0.82720 -0.16100
H 	H 	0.17860 0.72510 0.80260 0.07700
H 	H 	0.14860 0.72540 0.86190 0.06600
C 	C 	0.13890 0.75350 0.76550 -0.24900
H 	H 	0.15180 0.76720 0.73020 0.10300
H 	H 	0.12860 0.73520 0.73750 0.09800
H 	H 	0.12160 0.76700 0.78940 0.10000
Mn	Mn	0.28849 0.79078 0.50551 1.33500
O 	O 	0.33065 0.79868 0.46727 -0.47300
O 	O 	0.31771 0.86619 0.65094 -0.41500
O 	O 	0.24577 0.78859 0.55509 -0.41800
N 	N 	0.29329 0.82613 0.57868 -0.28600
N 	N 	0.26478 0.83213 0.62310 -0.22600
C 	C 	0.35307 0.82074 0.48870 0.31500
C 	C 	0.38332 0.82111 0.44960 -0.28800
H 	H 	0.38690 0.80560 0.40970 0.13400
C 	C 	0.40810 0.84340 0.46770 0.17300
H 	H 	0.42850 0.84290 0.44060 -0.03800
C 	C 	0.40349 0.86588 0.52360 -0.24200
H 	H 	0.42010 0.88190 0.53410 0.11200
C 	C 	0.37466 0.86536 0.56520 0.16000
H 	H 	0.37220 0.88050 0.60620 -0.00800
C 	C 	0.34886 0.84335 0.54900 -0.26000
C 	C 	0.31916 0.84539 0.59570 0.27700
C 	C 	0.24189 0.81126 0.60630 0.21500
C 	C 	0.20835 0.81442 0.64260 -0.13100
H 	H 	0.20430 0.79490 0.67520 0.06400
H 	H 	0.20810 0.83430 0.67550 0.05300
C 	C 	0.18112 0.81710 0.58490 -0.27700
H 	H 	0.18430 0.83720 0.55440 0.10700
H 	H 	0.15970 0.81830 0.61110 0.10200
H 	H 	0.18150 0.79760 0.55160 0.11600
N 	N 	0.42592 0.01349 0.16860 -0.26600
C 	C 	0.43628 0.98301 0.13970 0.08200
H 	H 	0.45820 0.97540 0.14900 0.00800
C 	C 	0.41440 0.96360 0.09700 -0.18600
H 	H 	0.41830 0.94080 0.08770 0.08700
C 	C 	0.38450 0.98090 0.06690 0.20100
C 	C 	0.37570 0.00500 0.10450 -0.31600
H 	H 	0.35420 0.01420 0.09850 0.13200
C 	C 	0.39790 0.01810 0.15560 0.23100
H 	H 	0.38830 0.03450 0.18740 -0.05600
C 	C 	0.36150 0.96420 0.01040 -0.19100
H 	H 	0.34260 0.95450 0.03840 0.08000
H 	H 	0.35260 0.98120 0.97530 0.08200
Mn	Mn	0.77973 0.36419 0.22182 1.33600
O 	O 	0.75968 0.40203 0.18695 -0.47300
O 	O 	0.69700 0.36592 0.36108 -0.43400
O 	O 	0.79455 0.32348 0.26899 -0.43000
N 	N 	0.74388 0.35697 0.29270 -0.29100
N 	N 	0.74606 0.32671 0.33530 -0.23700
N 	N 	0.81136 0.39187 0.30760 -0.23800
C 	C 	0.73410 0.41936 0.21540 0.30300
C 	C 	0.72736 0.45047 0.18400 -0.27800
H 	H 	0.74090 0.45870 0.14390 0.13300
C 	C 	0.70152 0.46932 0.21030 0.15600
H 	H 	0.69720 0.49020 0.18760 -0.03000
C 	C 	0.68176 0.45848 0.26930 -0.21900
H 	H 	0.66460 0.47210 0.28880 0.11200
C 	C 	0.68733 0.42781 0.29910 0.14600
H 	H 	0.67300 0.41990 0.33790 0.00800
C 	C 	0.71349 0.40747 0.27470 -0.24800
C 	C 	0.71800 0.37523 0.31150 0.29100
C 	C 	0.77362 0.31199 0.31800 0.25700
C 	C 	0.78288 0.27979 0.35650 -0.26400
H 	H 	0.76330 0.27010 0.38200 0.10100
H 	H 	0.79100 0.26370 0.31830 0.11000
C 	C 	0.83173 0.41546 0.28720 0.12000
H 	H 	0.83220 0.42140 0.23490 -0.00800
C 	C 	0.85247 0.43221 0.33550 -0.21000
H 	H 	0.86550 0.45020 0.31800 0.10500
C 	C 	0.85376 0.42201 0.41060 0.14600
C 	C 	0.83221 0.39747 0.43120 -0.20800
H 	H 	0.83200 0.39000 0.48240 0.09600
C 	C 	0.81169 0.38389 0.38160 0.12400
H 	H 	0.79650 0.36770 0.39930 -0.01400
C 	C 	0.87719 0.43830 0.46570 -0.14100
H 	H 	0.89600 0.44800 0.43700 0.06800
H 	H 	0.88620 0.42130 0.50060 0.06200
Mn	Mn	0.70427 0.32469 0.41797 1.32000
O 	O 	0.72972 0.34631 0.49160 -0.48300
O 	O 	0.72431 0.24592 0.56217 -0.41000
O 	O 	0.67932 0.29569 0.35093 -0.43800
N 	N 	0.71089 0.28310 0.46980 -0.29900
N 	N 	0.69493 0.25552 0.43428 -0.23300
C 	C 	0.74643 0.33376 0.54930 0.32900
C 	C 	0.76680 0.35630 0.58970 -0.31200
H 	H 	0.76780 0.37870 0.57390 0.14100
C 	C 	0.78430 0.34660 0.64830 0.18300
H 	H 	0.80290 0.35910 0.66470 -0.03700
C 	C 	0.77520 0.31770 0.68620 -0.21500
H 	H 	0.77730 0.31520 0.73980 0.10700
C 	C 	0.76220 0.29190 0.63760 0.14100
H 	H 	0.76550 0.26910 0.64900 -0.00100
C 	C 	0.74471 0.30173 0.57380 -0.26500
C 	C 	0.72532 0.27563 0.53360 0.27500
C 	C 	0.67957 0.26542 0.37370 0.22200
C 	C 	0.66185 0.23944 0.32720 -0.16100
H 	H 	0.67860 0.22510 0.30260 0.07700
H 	H 	0.64860 0.22540 0.36190 0.06600
C 	C 	0.63890 0.25350 0.26550 -0.24900
H 	H 	0.65180 0.26720 0.23020 0.10300
H 	H 	0.62860 0.23520 0.23750 0.09800
H 	H 	0.62160 0.26700 0.28940 0.10000
Mn	Mn	0.78849 0.29078 0.00551 1.33500
O 	O 	0.83065 0.29868 0.96727 -0.47300
O 	O 	0.81771 0.36619 0.15094 -0.41500
O 	O 	0.74577 0.28859 0.05509 -0.41800
N 	N 	0.79329 0.32613 0.07868 -0.28600
N 	N 	0.76478 0.33213 0.12310 -0.22700
C 	C 	0.85307 0.32074 0.98870 0.31600
C 	C 	0.88332 0.32111 0.94960 -0.28900
H 	H 	0.88690 0.30560 0.90970 0.13500
C 	C 	0.90810 0.34340 0.96770 0.17400
H 	H 	0.92850 0.34290 0.94060 -0.03800
C 	C 	0.90349 0.36588 0.02360 -0.24300
H 	H 	0.92010 0.38190 0.03410 0.11200
C 	C 	0.87466 0.36536 0.06520 0.16100
H 	H 	0.87220 0.38050 0.10620 -0.00800
C 	C 	0.84886 0.34335 0.04900 -0.26100
C 	C 	0.81916 0.34539 0.09570 0.27700
C 	C 	0.74189 0.31126 0.10630 0.21500
C 	C 	0.70835 0.31442 0.14260 -0.13100
H 	H 	0.70430 0.29490 0.17520 0.06500
H 	H 	0.70810 0.33430 0.17550 0.05300
C 	C 	0.68112 0.31710 0.08490 -0.27700
H 	H 	0.68430 0.33720 0.05440 0.10700
H 	H 	0.65970 0.31830 0.11110 0.10200
H 	H 	0.68150 0.29760 0.05160 0.11600
N 	N 	0.92592 0.51349 0.66860 -0.26600
C 	C 	0.93628 0.48301 0.63970 0.08200
H 	H 	0.95820 0.47540 0.64900 0.00700
C 	C 	0.91440 0.46360 0.59700 -0.18600
H 	H 	0.91830 0.44080 0.58770 0.08700
C 	C 	0.88450 0.48090 0.56690 0.20200
C 	C 	0.87570 0.50500 0.60450 -0.31700
H 	H 	0.85420 0.51420 0.59850 0.13200
C 	C 	0.89790 0.51810 0.65560 0.23100
H 	H 	0.88830 0.53450 0.68740 -0.05600
C 	C 	0.86150 0.46420 0.51040 -0.19200
H 	H 	0.84260 0.45450 0.53840 0.08000
H 	H 	0.85260 0.48120 0.47530 0.08200
Mn	Mn	0.22027 0.13581 0.22182 1.33600
O 	O 	0.24032 0.09797 0.18695 -0.47300
O 	O 	0.30300 0.13408 0.36108 -0.43400
O 	O 	0.20545 0.17652 0.26899 -0.43000
N 	N 	0.25612 0.14303 0.29270 -0.29100
N 	N 	0.25394 0.17329 0.33530 -0.23700
N 	N 	0.18864 0.10813 0.30760 -0.23800
C 	C 	0.26590 0.08064 0.21540 0.30300
C 	C 	0.27264 0.04953 0.18400 -0.27800
H 	H 	0.25910 0.04130 0.14390 0.13300
C 	C 	0.29848 0.03068 0.21030 0.15600
H 	H 	0.30280 0.00980 0.18760 -0.03000
C 	C 	0.31824 0.04152 0.26930 -0.21900
H 	H 	0.33540 0.02790 0.28880 0.11200
C 	C 	0.31267 0.07219 0.29910 0.14600
H 	H 	0.32700 0.08010 0.33790 0.00800
C 	C 	0.28651 0.09253 0.27470 -0.24800
C 	C 	0.28200 0.12477 0.31150 0.29100
C 	C 	0.22638 0.18801 0.31800 0.25700
C 	C 	0.21712 0.22021 0.35650 -0.26400
H 	H 	0.23670 0.22990 0.38200 0.10100
H 	H 	0.20900 0.23630 0.31830 0.11000
C 	C 	0.16827 0.08454 0.28720 0.12000
H 	H 	0.16780 0.07860 0.23490 -0.00800
C 	C 	0.14753 0.06779 0.33550 -0.21000
H 	H 	0.13450 0.04980 0.31800 0.10500
C 	C 	0.14624 0.07799 0.41060 0.14600
C 	C 	0.16779 0.10253 0.43120 -0.20800
H 	H 	0.16800 0.11000 0.48240 0.09600
C 	C 	0.18831 0.11611 0.38160 0.12400
H 	H 	0.20350 0.13230 0.39930 -0.01400
C 	C 	0.12281 0.06170 0.46570 -0.14100
H 	H 	0.10400 0.05200 0.43700 0.06800
H 	H 	0.11380 0.07870 0.50060 0.06200
Mn	Mn	0.29573 0.17531 0.41797 1.32000
O 	O 	0.27028 0.15369 0.49160 -0.48300
O 	O 	0.27569 0.25408 0.56217 -0.41000
O 	O 	0.32068 0.20431 0.35093 -0.43800
N 	N 	0.28911 0.21690 0.46980 -0.29900
N 	N 	0.30507 0.24448 0.43428 -0.23300
C 	C 	0.25357 0.16624 0.54930 0.32900
C 	C 	0.23320 0.14370 0.58970 -0.31200
H 	H 	0.23220 0.12130 0.57390 0.14100
C 	C 	0.21570 0.15340 0.64830 0.18300
H 	H 	0.19710 0.14090 0.66470 -0.03700
C 	C 	0.22480 0.18230 0.68620 -0.21500
H 	H 	0.22270 0.18480 0.73980 0.10700
C 	C 	0.23780 0.20810 0.63760 0.14100
H 	H 	0.23450 0.23090 0.64900 -0.00100
C 	C 	0.25529 0.19827 0.57380 -0.26500
C 	C 	0.27468 0.22437 0.53360 0.27500
C 	C 	0.32043 0.23458 0.37370 0.22200
C 	C 	0.33815 0.26056 0.32720 -0.16100
H 	H 	0.32140 0.27490 0.30260 0.07700
H 	H 	0.35140 0.27460 0.36190 0.06600
C 	C 	0.36110 0.24650 0.26550 -0.24900
H 	H 	0.34820 0.23280 0.23020 0.10300
H 	H 	0.37140 0.26480 0.23750 0.09800
H 	H 	0.37840 0.23300 0.28940 0.10000
Mn	Mn	0.21151 0.20922 0.00551 1.33500
O 	O 	0.16935 0.20132 0.96727 -0.47300
O 	O 	0.18229 0.13381 0.15094 -0.41500
O 	O 	0.25423 0.21141 0.05509 -0.41800
N 	N 	0.20671 0.17387 0.07868 -0.28600
N 	N 	0.23522 0.16787 0.12310 -0.22700
C 	C 	0.14693 0.17926 0.98870 0.31600
C 	C 	0.11668 0.17889 0.94960 -0.28900
H 	H 	0.11310 0.19440 0.90970 0.13500
C 	C 	0.09190 0.15660 0.96770 0.17400
H 	H 	0.07150 0.15710 0.94060 -0.03800
C 	C 	0.09651 0.13412 0.02360 -0.24300
H 	H 	0.07990 0.11810 0.03410 0.11200
C 	C 	0.12534 0.13464 0.06520 0.16100
H 	H 	0.12780 0.11950 0.10620 -0.00800
C 	C 	0.15114 0.15665 0.04900 -0.26100
C 	C 	0.18084 0.15461 0.09570 0.27700
C 	C 	0.25811 0.18874 0.10630 0.21500
C 	C 	0.29165 0.18558 0.14260 -0.13100
H 	H 	0.29570 0.20510 0.17520 0.06500
H 	H 	0.29190 0.16570 0.17550 0.05300
C 	C 	0.31888 0.18290 0.08490 -0.27700
H 	H 	0.31570 0.16280 0.05440 0.10700
H 	H 	0.34030 0.18170 0.11110 0.10200
H 	H 	0.31850 0.20240 0.05160 0.11600
N 	N 	0.07408 0.98651 0.66860 -0.26600
C 	C 	0.06372 0.01699 0.63970 0.08200
H 	H 	0.04180 0.02460 0.64900 0.00700
C 	C 	0.08560 0.03640 0.59700 -0.18600
H 	H 	0.08170 0.05920 0.58770 0.08700
C 	C 	0.11550 0.01910 0.56690 0.20200
C 	C 	0.12430 0.99500 0.60450 -0.31700
H 	H 	0.14580 0.98580 0.59850 0.13200
C 	C 	0.10210 0.98190 0.65560 0.23100
H 	H 	0.11170 0.96550 0.68740 -0.05600
C 	C 	0.13850 0.03580 0.51040 -0.19200
H 	H 	0.15740 0.04550 0.53840 0.08000
H 	H 	0.14740 0.01880 0.47530 0.08200
Mn	Mn	0.72027 0.63581 0.72182 1.33600
O 	O 	0.74032 0.59797 0.68695 -0.47300
O 	O 	0.80300 0.63408 0.86108 -0.43400
O 	O 	0.70545 0.67652 0.76899 -0.43000
N 	N 	0.75612 0.64303 0.79270 -0.29100
N 	N 	0.75394 0.67329 0.83530 -0.23700
N 	N 	0.68864 0.60813 0.80760 -0.23800
C 	C 	0.76590 0.58064 0.71540 0.30300
C 	C 	0.77264 0.54953 0.68400 -0.27800
H 	H 	0.75910 0.54130 0.64390 0.13300
C 	C 	0.79848 0.53068 0.71030 0.15600
H 	H 	0.80280 0.50980 0.68760 -0.03000
C 	C 	0.81824 0.54152 0.76930 -0.21900
H 	H 	0.83540 0.52790 0.78880 0.11200
C 	C 	0.81267 0.57219 0.79910 0.14600
H 	H 	0.82700 0.58010 0.83790 0.00800
C 	C 	0.78651 0.59253 0.77470 -0.24800
C 	C 	0.78200 0.62477 0.81150 0.29100
C 	C 	0.72638 0.68801 0.81800 0.25700
C 	C 	0.71712 0.72021 0.85650 -0.26400
H 	H 	0.73670 0.72990 0.88200 0.10100
H 	H 	0.70900 0.73630 0.81830 0.11000
C 	C 	0.66827 0.58454 0.78720 0.12000
H 	H 	0.66780 0.57860 0.73490 -0.00800
C 	C 	0.64753 0.56779 0.83550 -0.21000
H 	H 	0.63450 0.54980 0.81800 0.10500
C 	C 	0.64624 0.57799 0.91060 0.14700
C 	C 	0.66779 0.60253 0.93120 -0.20900
H 	H 	0.66800 0.61000 0.98240 0.09600
C 	C 	0.68831 0.61611 0.88160 0.12400
H 	H 	0.70350 0.63230 0.89930 -0.01400
C 	C 	0.62281 0.56170 0.96570 -0.14300
H 	H 	0.60400 0.55200 0.93700 0.06900
H 	H 	0.61380 0.57870 0.00060 0.06300
Mn	Mn	0.79573 0.67531 0.91797 1.32000
O 	O 	0.77028 0.65369 0.99160 -0.48400
O 	O 	0.77569 0.75408 0.06217 -0.41000
O 	O 	0.82068 0.70431 0.85093 -0.43800
N 	N 	0.78911 0.71690 0.96980 -0.29900
N 	N 	0.80507 0.74448 0.93428 -0.23300
C 	C 	0.75357 0.66624 0.04930 0.33000
C 	C 	0.73320 0.64370 0.08970 -0.31300
H 	H 	0.73220 0.62130 0.07390 0.14200
C 	C 	0.71570 0.65340 0.14830 0.18300
H 	H 	0.69710 0.64090 0.16470 -0.03700
C 	C 	0.72480 0.68230 0.18620 -0.21500
H 	H 	0.72270 0.68480 0.23980 0.10700
C 	C 	0.73780 0.70810 0.13760 0.14200
H 	H 	0.73450 0.73090 0.14900 -0.00200
C 	C 	0.75529 0.69827 0.07380 -0.26500
C 	C 	0.77468 0.72437 0.03360 0.27500
C 	C 	0.82043 0.73458 0.87370 0.22200
C 	C 	0.83815 0.76056 0.82720 -0.16100
H 	H 	0.82140 0.77490 0.80260 0.07700
H 	H 	0.85140 0.77460 0.86190 0.06600
C 	C 	0.86110 0.74650 0.76550 -0.24900
H 	H 	0.84820 0.73280 0.73020 0.10300
H 	H 	0.87140 0.76480 0.73750 0.09800
H 	H 	0.87840 0.73300 0.78940 0.10000
Mn	Mn	0.71151 0.70922 0.50551 1.33500
O 	O 	0.66935 0.70132 0.46727 -0.47300
O 	O 	0.68229 0.63381 0.65094 -0.41500
O 	O 	0.75423 0.71141 0.55509 -0.41800
N 	N 	0.70671 0.67387 0.57868 -0.28600
N 	N 	0.73522 0.66787 0.62310 -0.22600
C 	C 	0.64693 0.67926 0.48870 0.31500
C 	C 	0.61668 0.67889 0.44960 -0.28800
H 	H 	0.61310 0.69440 0.40970 0.13400
C 	C 	0.59190 0.65660 0.46770 0.17300
H 	H 	0.57150 0.65710 0.44060 -0.03800
C 	C 	0.59651 0.63412 0.52360 -0.24200
H 	H 	0.57990 0.61810 0.53410 0.11200
C 	C 	0.62534 0.63464 0.56520 0.16000
H 	H 	0.62780 0.61950 0.60620 -0.00800
C 	C 	0.65114 0.65665 0.54900 -0.26000
C 	C 	0.68084 0.65461 0.59570 0.27700
C 	C 	0.75811 0.68874 0.60630 0.21500
C 	C 	0.79165 0.68558 0.64260 -0.13100
H 	H 	0.79570 0.70510 0.67520 0.06400
H 	H 	0.79190 0.66570 0.67550 0.05300
C 	C 	0.81888 0.68290 0.58490 -0.27700
H 	H 	0.81570 0.66280 0.55440 0.10700
H 	H 	0.84030 0.68170 0.61110 0.10200
H 	H 	0.81850 0.70240 0.55160 0.11600
N 	N 	0.57408 0.48651 0.16860 -0.26600
C 	C 	0.56372 0.51699 0.13970 0.08200
H 	H 	0.54180 0.52460 0.14900 0.00800
C 	C 	0.58560 0.53640 0.09700 -0.18600
H 	H 	0.58170 0.55920 0.08770 0.08700
C 	C 	0.61550 0.51910 0.06690 0.20100
C 	C 	0.62430 0.49500 0.10450 -0.31600
H 	H 	0.64580 0.48580 0.09850 0.13200
C 	C 	0.60210 0.48190 0.15560 0.23100
H 	H 	0.61170 0.46550 0.18740 -0.05600
C 	C 	0.63850 0.53580 0.01040 -0.19100
H 	H 	0.65740 0.54550 0.03840 0.08000
H 	H 	0.64740 0.51880 0.97530 0.08200
Mn	Mn	0.38581 0.02973 0.47182 1.33600
O 	O 	0.34797 0.00968 0.43695 -0.47300
O 	O 	0.38408 0.94700 0.61108 -0.43400
O 	O 	0.42652 0.04455 0.51899 -0.43000
N 	N 	0.39303 0.99388 0.54270 -0.29100
N 	N 	0.42329 0.99606 0.58530 -0.23700
N 	N 	0.35813 0.06136 0.55760 -0.23800
C 	C 	0.33064 0.98410 0.46540 0.30300
C 	C 	0.29953 0.97736 0.43400 -0.27800
H 	H 	0.29130 0.99090 0.39390 0.13300
C 	C 	0.28068 0.95152 0.46030 0.15600
H 	H 	0.25980 0.94720 0.43760 -0.03000
C 	C 	0.29152 0.93176 0.51930 -0.21900
H 	H 	0.27790 0.91460 0.53880 0.11200
C 	C 	0.32219 0.93733 0.54910 0.14600
H 	H 	0.33010 0.92300 0.58790 0.00800
C 	C 	0.34253 0.96349 0.52470 -0.24800
C 	C 	0.37477 0.96800 0.56150 0.29100
C 	C 	0.43801 0.02362 0.56800 0.25700
C 	C 	0.47021 0.03288 0.60650 -0.26400
H 	H 	0.47990 0.01330 0.63200 0.10100
H 	H 	0.48630 0.04100 0.56830 0.11000
C 	C 	0.33454 0.08173 0.53720 0.12000
H 	H 	0.32860 0.08220 0.48490 -0.00800
C 	C 	0.31779 0.10247 0.58550 -0.21000
H 	H 	0.29980 0.11550 0.56800 0.10500
C 	C 	0.32799 0.10376 0.66060 0.14600
C 	C 	0.35253 0.08221 0.68120 -0.20800
H 	H 	0.36000 0.08200 0.73240 0.09600
C 	C 	0.36611 0.06169 0.63160 0.12400
H 	H 	0.38230 0.04650 0.64930 -0.01400
C 	C 	0.31170 0.12719 0.71570 -0.14100
H 	H 	0.30200 0.14600 0.68700 0.06800
H 	H 	0.32870 0.13620 0.75060 0.06200
Mn	Mn	0.42531 0.95427 0.66797 1.32000
O 	O 	0.40369 0.97972 0.74160 -0.48300
O 	O 	0.50408 0.97431 0.81217 -0.41000
O 	O 	0.45431 0.92932 0.60093 -0.43800
N 	N 	0.46690 0.96089 0.71980 -0.29900
N 	N 	0.49448 0.94493 0.68428 -0.23300
C 	C 	0.41624 0.99643 0.79930 0.32900
C 	C 	0.39370 0.01680 0.83970 -0.31200
H 	H 	0.37130 0.01780 0.82390 0.14100
C 	C 	0.40340 0.03430 0.89830 0.18300
H 	H 	0.39090 0.05290 0.91470 -0.03700
C 	C 	0.43230 0.02520 0.93620 -0.21500
H 	H 	0.43480 0.02730 0.98980 0.10700
C 	C 	0.45810 0.01220 0.88760 0.14100
H 	H 	0.48090 0.01550 0.89900 -0.00100
C 	C 	0.44827 0.99471 0.82380 -0.26500
C 	C 	0.47437 0.97532 0.78360 0.27500
C 	C 	0.48458 0.92957 0.62370 0.22200
C 	C 	0.51056 0.91185 0.57720 -0.16100
H 	H 	0.52490 0.92860 0.55260 0.07700
H 	H 	0.52460 0.89860 0.61190 0.06600
C 	C 	0.49650 0.88890 0.51550 -0.24900
H 	H 	0.48280 0.90180 0.48020 0.10300
H 	H 	0.51480 0.87860 0.48750 0.09800
H 	H 	0.48300 0.87160 0.53940 0.10000
Mn	Mn	0.45922 0.03849 0.25551 1.33500
O 	O 	0.45132 0.08065 0.21727 -0.47300
O 	O 	0.38381 0.06771 0.40094 -0.41500
O 	O 	0.46141 0.99577 0.30509 -0.41800
N 	N 	0.42387 0.04329 0.32868 -0.28600
N 	N 	0.41787 0.01478 0.37310 -0.22600
C 	C 	0.42926 0.10307 0.23870 0.31500
C 	C 	0.42889 0.13332 0.19960 -0.28800
H 	H 	0.44440 0.13690 0.15970 0.13400
C 	C 	0.40660 0.15810 0.21770 0.17300
H 	H 	0.40710 0.17850 0.19060 -0.03800
C 	C 	0.38412 0.15349 0.27360 -0.24200
H 	H 	0.36810 0.17010 0.28410 0.11200
C 	C 	0.38464 0.12466 0.31520 0.16000
H 	H 	0.36950 0.12220 0.35620 -0.00800
C 	C 	0.40665 0.09886 0.29900 -0.26000
C 	C 	0.40461 0.06916 0.34570 0.27700
C 	C 	0.43874 0.99189 0.35630 0.21500
C 	C 	0.43558 0.95835 0.39260 -0.13100
H 	H 	0.45510 0.95430 0.42520 0.06400
H 	H 	0.41570 0.95810 0.42550 0.05300
C 	C 	0.43290 0.93112 0.33490 -0.27700
H 	H 	0.41280 0.93430 0.30440 0.10700
H 	H 	0.43170 0.90970 0.36110 0.10200
H 	H 	0.45240 0.93150 0.30160 0.11600
N 	N 	0.23651 0.17592 0.91860 -0.26600
C 	C 	0.26699 0.18628 0.88970 0.08200
H 	H 	0.27460 0.20820 0.89900 0.00800
C 	C 	0.28640 0.16440 0.84700 -0.18600
H 	H 	0.30920 0.16830 0.83770 0.08700
C 	C 	0.26910 0.13450 0.81690 0.20100
C 	C 	0.24500 0.12570 0.85450 -0.31700
H 	H 	0.23580 0.10420 0.84850 0.13200
C 	C 	0.23190 0.14790 0.90560 0.23100
H 	H 	0.21550 0.13830 0.93740 -0.05600
C 	C 	0.28580 0.11150 0.76040 -0.19200
H 	H 	0.29550 0.09260 0.78840 0.08000
H 	H 	0.26880 0.10260 0.72530 0.08200
Mn	Mn	0.88581 0.52973 0.97182 1.33600
O 	O 	0.84797 0.50968 0.93695 -0.47300
O 	O 	0.88408 0.44700 0.11108 -0.43400
O 	O 	0.92652 0.54455 0.01899 -0.42900
N 	N 	0.89303 0.49388 0.04270 -0.29100
N 	N 	0.92329 0.49606 0.08530 -0.23700
N 	N 	0.85813 0.56136 0.05760 -0.23800
C 	C 	0.83064 0.48410 0.96540 0.30300
C 	C 	0.79953 0.47736 0.93400 -0.27800
H 	H 	0.79130 0.49090 0.89390 0.13300
C 	C 	0.78068 0.45152 0.96030 0.15600
H 	H 	0.75980 0.44720 0.93760 -0.03000
C 	C 	0.79152 0.43176 0.01930 -0.21900
H 	H 	0.77790 0.41460 0.03880 0.11200
C 	C 	0.82219 0.43733 0.04910 0.14600
H 	H 	0.83010 0.42300 0.08790 0.00800
C 	C 	0.84253 0.46349 0.02470 -0.24800
C 	C 	0.87477 0.46800 0.06150 0.29100
C 	C 	0.93801 0.52362 0.06800 0.25700
C 	C 	0.97021 0.53288 0.10650 -0.26400
H 	H 	0.97990 0.51330 0.13200 0.10100
H 	H 	0.98630 0.54100 0.06830 0.11000
C 	C 	0.83454 0.58173 0.03720 0.12000
H 	H 	0.82860 0.58220 0.98490 -0.00800
C 	C 	0.81779 0.60247 0.08550 -0.21000
H 	H 	0.79980 0.61550 0.06800 0.10500
C 	C 	0.82799 0.60376 0.16060 0.14700
C 	C 	0.85253 0.58221 0.18120 -0.20800
H 	H 	0.86000 0.58200 0.23240 0.09600
C 	C 	0.86611 0.56169 0.13160 0.12400
H 	H 	0.88230 0.54650 0.14930 -0.01400
C 	C 	0.81170 0.62719 0.21570 -0.14100
H 	H 	0.80200 0.64600 0.18700 0.06900
H 	H 	0.82870 0.63620 0.25060 0.06200
Mn	Mn	0.92531 0.45427 0.16797 1.32000
O 	O 	0.90369 0.47972 0.24160 -0.48300
O 	O 	0.00408 0.47431 0.31217 -0.41000
O 	O 	0.95431 0.42932 0.10093 -0.43800
N 	N 	0.96690 0.46089 0.21980 -0.29900
N 	N 	0.99448 0.44493 0.18428 -0.23300
C 	C 	0.91624 0.49643 0.29930 0.32900
C 	C 	0.89370 0.51680 0.33970 -0.31200
H 	H 	0.87130 0.51780 0.32390 0.14100
C 	C 	0.90340 0.53430 0.39830 0.18300
H 	H 	0.89090 0.55290 0.41470 -0.03700
C 	C 	0.93230 0.52520 0.43620 -0.21500
H 	H 	0.93480 0.52730 0.48980 0.10700
C 	C 	0.95810 0.51220 0.38760 0.14100
H 	H 	0.98090 0.51550 0.39900 -0.00200
C 	C 	0.94827 0.49471 0.32380 -0.26500
C 	C 	0.97437 0.47532 0.28360 0.27500
C 	C 	0.98458 0.42957 0.12370 0.22100
C 	C 	0.01056 0.41185 0.07720 -0.16000
H 	H 	0.02490 0.42860 0.05260 0.07600
H 	H 	0.02460 0.39860 0.11190 0.06600
C 	C 	0.99650 0.38890 0.01550 -0.25100
H 	H 	0.98280 0.40180 0.98020 0.10400
H 	H 	0.01480 0.37860 0.98750 0.09900
H 	H 	0.98300 0.37160 0.03940 0.10000
Mn	Mn	0.95922 0.53849 0.75551 1.33500
O 	O 	0.95132 0.58065 0.71727 -0.47300
O 	O 	0.88381 0.56771 0.90094 -0.41500
O 	O 	0.96141 0.49577 0.80509 -0.41800
N 	N 	0.92387 0.54329 0.82868 -0.28600
N 	N 	0.91787 0.51478 0.87310 -0.22600
C 	C 	0.92926 0.60307 0.73870 0.31500
C 	C 	0.92889 0.63332 0.69960 -0.28800
H 	H 	0.94440 0.63690 0.65970 0.13400
C 	C 	0.90660 0.65810 0.71770 0.17300
H 	H 	0.90710 0.67850 0.69060 -0.03800
C 	C 	0.88412 0.65349 0.77360 -0.24200
H 	H 	0.86810 0.67010 0.78410 0.11200
C 	C 	0.88464 0.62466 0.81520 0.16000
H 	H 	0.86950 0.62220 0.85620 -0.00800
C 	C 	0.90665 0.59886 0.79900 -0.26000
C 	C 	0.90461 0.56916 0.84570 0.27700
C 	C 	0.93874 0.49189 0.85630 0.21500
C 	C 	0.93558 0.45835 0.89260 -0.13100
H 	H 	0.95510 0.45430 0.92520 0.06500
H 	H 	0.91570 0.45810 0.92550 0.05300
C 	C 	0.93290 0.43112 0.83490 -0.27700
H 	H 	0.91280 0.43430 0.80440 0.10700
H 	H 	0.93170 0.40970 0.86110 0.10200
H 	H 	0.95240 0.43150 0.80160 0.11600
N 	N 	0.73651 0.67592 0.41860 -0.26600
C 	C 	0.76699 0.68628 0.38970 0.08200
H 	H 	0.77460 0.70820 0.39900 0.00700
C 	C 	0.78640 0.66440 0.34700 -0.18600
H 	H 	0.80920 0.66830 0.33770 0.08700
C 	C 	0.76910 0.63450 0.31690 0.20100
C 	C 	0.74500 0.62570 0.35450 -0.31700
H 	H 	0.73580 0.60420 0.34850 0.13200
C 	C 	0.73190 0.64790 0.40560 0.23100
H 	H 	0.71550 0.63830 0.43740 -0.05600
C 	C 	0.78580 0.61150 0.26040 -0.19200
H 	H 	0.79550 0.59260 0.28840 0.08000
H 	H 	0.76880 0.60260 0.22530 0.08200
Mn	Mn	0.11419 0.97027 0.97182 1.33600
O 	O 	0.15203 0.99032 0.93695 -0.47400
O 	O 	0.11592 0.05300 0.11108 -0.43400
O 	O 	0.07348 0.95545 0.01899 -0.42900
N 	N 	0.10697 0.00612 0.04270 -0.29100
N 	N 	0.07671 0.00394 0.08530 -0.23700
N 	N 	0.14187 0.93864 0.05760 -0.23800
C 	C 	0.16936 0.01590 0.96540 0.30300
C 	C 	0.20047 0.02264 0.93400 -0.27800
H 	H 	0.20870 0.00910 0.89390 0.13300
C 	C 	0.21932 0.04848 0.96030 0.15600
H 	H 	0.24020 0.05280 0.93760 -0.03000
C 	C 	0.20848 0.06824 0.01930 -0.21900
H 	H 	0.22210 0.08540 0.03880 0.11200
C 	C 	0.17781 0.06267 0.04910 0.14700
H 	H 	0.16990 0.07700 0.08790 0.00800
C 	C 	0.15747 0.03651 0.02470 -0.24800
C 	C 	0.12523 0.03200 0.06150 0.29100
C 	C 	0.06199 0.97638 0.06800 0.25700
C 	C 	0.02979 0.96712 0.10650 -0.26400
H 	H 	0.02010 0.98670 0.13200 0.10100
H 	H 	0.01370 0.95900 0.06830 0.11000
C 	C 	0.16546 0.91827 0.03720 0.12100
H 	H 	0.17140 0.91780 0.98490 -0.00800
C 	C 	0.18221 0.89753 0.08550 -0.21000
H 	H 	0.20020 0.88450 0.06800 0.10500
C 	C 	0.17201 0.89624 0.16060 0.14700
C 	C 	0.14747 0.91779 0.18120 -0.20800
H 	H 	0.14000 0.91800 0.23240 0.09600
C 	C 	0.13389 0.93831 0.13160 0.12400
H 	H 	0.11770 0.95350 0.14930 -0.01400
C 	C 	0.18830 0.87281 0.21570 -0.14100
H 	H 	0.19800 0.85400 0.18700 0.06900
H 	H 	0.17130 0.86380 0.25060 0.06200
Mn	Mn	0.07469 0.04573 0.16797 1.32000
O 	O 	0.09631 0.02028 0.24160 -0.48300
O 	O 	0.99592 0.02569 0.31217 -0.41000
O 	O 	0.04569 0.07068 0.10093 -0.43800
N 	N 	0.03310 0.03911 0.21980 -0.29900
N 	N 	0.00552 0.05507 0.18428 -0.23300
C 	C 	0.08376 0.00357 0.29930 0.32900
C 	C 	0.10630 0.98320 0.33970 -0.31200
H 	H 	0.12870 0.98220 0.32390 0.14100
C 	C 	0.09660 0.96570 0.39830 0.18300
H 	H 	0.10910 0.94710 0.41470 -0.03700
C 	C 	0.06770 0.97480 0.43620 -0.21500
H 	H 	0.06520 0.97270 0.48980 0.10700
C 	C 	0.04190 0.98780 0.38760 0.14100
H 	H 	0.01910 0.98450 0.39900 -0.00200
C 	C 	0.05173 0.00529 0.32380 -0.26500
C 	C 	0.02563 0.02468 0.28360 0.27500
C 	C 	0.01542 0.07043 0.12370 0.22100
C 	C 	0.98944 0.08815 0.07720 -0.16000
H 	H 	0.97510 0.07140 0.05260 0.07600
H 	H 	0.97540 0.10140 0.11190 0.06600
C 	C 	0.00350 0.11110 0.01550 -0.25100
H 	H 	0.01720 0.09820 0.98020 0.10400
H 	H 	0.98520 0.12140 0.98750 0.09900
H 	H 	0.01700 0.12840 0.03940 0.10000
Mn	Mn	0.04078 0.96151 0.75551 1.33500
O 	O 	0.04868 0.91935 0.71727 -0.47300
O 	O 	0.11619 0.93229 0.90094 -0.41500
O 	O 	0.03859 0.00423 0.80509 -0.41800
N 	N 	0.07613 0.95671 0.82868 -0.28600
N 	N 	0.08213 0.98522 0.87310 -0.22700
C 	C 	0.07074 0.89693 0.73870 0.31500
C 	C 	0.07111 0.86668 0.69960 -0.28800
H 	H 	0.05560 0.86310 0.65970 0.13400
C 	C 	0.09340 0.84190 0.71770 0.17300
H 	H 	0.09290 0.82150 0.69060 -0.03800
C 	C 	0.11588 0.84651 0.77360 -0.24200
H 	H 	0.13190 0.82990 0.78410 0.11200
C 	C 	0.11536 0.87534 0.81520 0.16000
H 	H 	0.13050 0.87780 0.85620 -0.00800
C 	C 	0.09335 0.90114 0.79900 -0.26000
C 	C 	0.09539 0.93084 0.84570 0.27700
C 	C 	0.06126 0.00811 0.85630 0.21500
C 	C 	0.06442 0.04165 0.89260 -0.13100
H 	H 	0.04490 0.04570 0.92520 0.06500
H 	H 	0.08430 0.04190 0.92550 0.05300
C 	C 	0.06710 0.06888 0.83490 -0.27700
H 	H 	0.08720 0.06570 0.80440 0.10700
H 	H 	0.06830 0.09030 0.86110 0.10200
H 	H 	0.04760 0.06850 0.80160 0.11600
N 	N 	0.26349 0.82408 0.41860 -0.26600
C 	C 	0.23301 0.81372 0.38970 0.08200
H 	H 	0.22540 0.79180 0.39900 0.00700
C 	C 	0.21360 0.83560 0.34700 -0.18600
H 	H 	0.19080 0.83170 0.33770 0.08700
C 	C 	0.23090 0.86550 0.31690 0.20100
C 	C 	0.25500 0.87430 0.35450 -0.31700
H 	H 	0.26420 0.89580 0.34850 0.13200
C 	C 	0.26810 0.85210 0.40560 0.23100
H 	H 	0.28450 0.86170 0.43740 -0.05600
C 	C 	0.21420 0.88850 0.26040 -0.19200
H 	H 	0.20450 0.90740 0.28840 0.08000
H 	H 	0.23120 0.89740 0.22530 0.08200
Mn	Mn	0.61419 0.47027 0.47182 1.33600
O 	O 	0.65203 0.49032 0.43695 -0.47300
O 	O 	0.61592 0.55300 0.61108 -0.43400
O 	O 	0.57348 0.45545 0.51899 -0.43000
N 	N 	0.60697 0.50612 0.54270 -0.29100
N 	N 	0.57671 0.50394 0.58530 -0.23700
N 	N 	0.64187 0.43864 0.55760 -0.23800
C 	C 	0.66936 0.51590 0.46540 0.30300
C 	C 	0.70047 0.52264 0.43400 -0.27800
H 	H 	0.70870 0.50910 0.39390 0.13300
C 	C 	0.71932 0.54848 0.46030 0.15600
H 	H 	0.74020 0.55280 0.43760 -0.03000
C 	C 	0.70848 0.56824 0.51930 -0.21900
H 	H 	0.72210 0.58540 0.53880 0.11200
C 	C 	0.67781 0.56267 0.54910 0.14600
H 	H 	0.66990 0.57700 0.58790 0.00800
C 	C 	0.65747 0.53651 0.52470 -0.24800
C 	C 	0.62523 0.53200 0.56150 0.29100
C 	C 	0.56199 0.47638 0.56800 0.25700
C 	C 	0.52979 0.46712 0.60650 -0.26400
H 	H 	0.52010 0.48670 0.63200 0.10100
H 	H 	0.51370 0.45900 0.56830 0.11000
C 	C 	0.66546 0.41827 0.53720 0.12000
H 	H 	0.67140 0.41780 0.48490 -0.00800
C 	C 	0.68221 0.39753 0.58550 -0.21000
H 	H 	0.70020 0.38450 0.56800 0.10500
C 	C 	0.67201 0.39624 0.66060 0.14600
C 	C 	0.64747 0.41779 0.68120 -0.20800
H 	H 	0.64000 0.41800 0.73240 0.09600
C 	C 	0.63389 0.43831 0.63160 0.12400
H 	H 	0.61770 0.45350 0.64930 -0.01400
C 	C 	0.68830 0.37281 0.71570 -0.14100
H 	H 	0.69800 0.35400 0.68700 0.06800
H 	H 	0.67130 0.36380 0.75060 0.06200
Mn	Mn	0.57469 0.54573 0.66797 1.32000
O 	O 	0.59631 0.52028 0.74160 -0.48300
O 	O 	0.49592 0.52569 0.81217 -0.41000
O 	O 	0.54569 0.57068 0.60093 -0.43800
N 	N 	0.53310 0.53911 0.71980 -0.29900
N 	N 	0.50552 0.55507 0.68428 -0.23300
C 	C 	0.58376 0.50357 0.79930 0.32900
C 	C 	0.60630 0.48320 0.83970 -0.31200
H 	H 	0.62870 0.48220 0.82390 0.14100
C 	C 	0.59660 0.46570 0.89830 0.18300
H 	H 	0.60910 0.44710 0.91470 -0.03700
C 	C 	0.56770 0.47480 0.93620 -0.21500
H 	H 	0.56520 0.47270 0.98980 0.10700
C 	C 	0.54190 0.48780 0.88760 0.14100
H 	H 	0.51910 0.48450 0.89900 -0.00100
C 	C 	0.55173 0.50529 0.82380 -0.26500
C 	C 	0.52563 0.52468 0.78360 0.27500
C 	C 	0.51542 0.57043 0.62370 0.22200
C 	C 	0.48944 0.58815 0.57720 -0.16100
H 	H 	0.47510 0.57140 0.55260 0.07700
H 	H 	0.47540 0.60140 0.61190 0.06600
C 	C 	0.50350 0.61110 0.51550 -0.24900
H 	H 	0.51720 0.59820 0.48020 0.10300
H 	H 	0.48520 0.62140 0.48750 0.09800
H 	H 	0.51700 0.62840 0.53940 0.10000
Mn	Mn	0.54078 0.46151 0.25551 1.33500
O 	O 	0.54868 0.41935 0.21727 -0.47300
O 	O 	0.61619 0.43229 0.40094 -0.41500
O 	O 	0.53859 0.50423 0.30509 -0.41800
N 	N 	0.57613 0.45671 0.32868 -0.28600
N 	N 	0.58213 0.48522 0.37310 -0.22600
C 	C 	0.57074 0.39693 0.23870 0.31500
C 	C 	0.57111 0.36668 0.19960 -0.28800
H 	H 	0.55560 0.36310 0.15970 0.13400
C 	C 	0.59340 0.34190 0.21770 0.17300
H 	H 	0.59290 0.32150 0.19060 -0.03800
C 	C 	0.61588 0.34651 0.27360 -0.24200
H 	H 	0.63190 0.32990 0.28410 0.11200
C 	C 	0.61536 0.37534 0.31520 0.16000
H 	H 	0.63050 0.37780 0.35620 -0.00800
C 	C 	0.59335 0.40114 0.29900 -0.26000
C 	C 	0.59539 0.43084 0.34570 0.27700
C 	C 	0.56126 0.50811 0.35630 0.21500
C 	C 	0.56442 0.54165 0.39260 -0.13100
H 	H 	0.54490 0.54570 0.42520 0.06400
H 	H 	0.58430 0.54190 0.42550 0.05300
C 	C 	0.56710 0.56888 0.33490 -0.27700
H 	H 	0.58720 0.56570 0.30440 0.10700
H 	H 	0.56830 0.59030 0.36110 0.10200
H 	H 	0.54760 0.56850 0.30160 0.11600
N 	N 	0.76349 0.32408 0.91860 -0.26600
C 	C 	0.73301 0.31372 0.88970 0.08200
H 	H 	0.72540 0.29180 0.89900 0.00800
C 	C 	0.71360 0.33560 0.84700 -0.18600
H 	H 	0.69080 0.33170 0.83770 0.08700
C 	C 	0.73090 0.36550 0.81690 0.20100
C 	C 	0.75500 0.37430 0.85450 -0.31700
H 	H 	0.76420 0.39580 0.84850 0.13200
C 	C 	0.76810 0.35210 0.90560 0.23100
H 	H 	0.78450 0.36170 0.93740 -0.05600
C 	C 	0.71420 0.38850 0.76040 -0.19200
H 	H 	0.70450 0.40740 0.78840 0.08000
H 	H 	0.73120 0.39740 0.72530 0.08200
