data_crystal

_cell_length_a 17.58800
_cell_length_b 29.83600
_cell_length_c 29.83600
_cell_angle_alpha 85.01610
_cell_angle_beta  72.85770
_cell_angle_gamma 72.85770

_symmetry_space_group_name_	'P 1'
_symmetry_space_group_name_H-M	'P 1'

loop_
_symmetry_equiv_pos_as_xyz
  x,y,z

loop_
_atom_site_label
_atom_site_type_symbol
_atom_site_fract_x
_atom_site_fract_y
_atom_site_fract_z
_atom_site_charge
Mn	Mn	0.91556 0.08564 0.64350 1.33400
Mn	Mn	0.75743 0.12161 0.52951 1.31900
Mn	Mn	0.20461 0.00254 0.57730 1.33300
Mn	Mn	0.14470 0.41436 0.85651 1.33400
Mn	Mn	0.90855 0.37839 0.97049 1.31900
Mn	Mn	0.28445 0.49746 0.92270 1.33300
Mn	Mn	0.55905 0.35651 0.58564 1.33400
Mn	Mn	0.28694 0.47049 0.62161 1.31900
Mn	Mn	0.78191 0.42270 0.50254 1.33400
Mn	Mn	0.00120 0.14349 0.91437 1.33500
Mn	Mn	0.87904 0.02951 0.87839 1.31900
Mn	Mn	0.20715 0.07730 0.99746 1.33300
Mn	Mn	0.08444 0.91436 0.35650 1.33500
Mn	Mn	0.24257 0.87839 0.47049 1.32000
Mn	Mn	0.79539 0.99746 0.42270 1.33400
Mn	Mn	0.85530 0.58564 0.14349 1.33500
Mn	Mn	0.09145 0.62161 0.02951 1.32000
Mn	Mn	0.71555 0.50254 0.07730 1.33400
Mn	Mn	0.44094 0.64349 0.41437 1.33500
Mn	Mn	0.71305 0.52952 0.37839 1.32000
Mn	Mn	0.21809 0.57730 0.49746 1.33400
Mn	Mn	0.99879 0.85651 0.08564 1.33500
Mn	Mn	0.12097 0.97048 0.12161 1.32000
Mn	Mn	0.79285 0.92270 0.00254 1.33300
H 	H 	0.89880 0.21860 0.69900 0.14600
H 	H 	0.82120 0.29290 0.69010 -0.03800
H 	H 	0.73960 0.30880 0.63680 0.12100
H 	H 	0.73850 0.24760 0.59660 -0.00200
H 	H 	0.84990 0.01040 0.53240 0.10500
H 	H 	0.91980 0.97540 0.55340 0.11500
H 	H 	0.84630 0.08680 0.75440 -0.00100
H 	H 	0.73680 0.07650 0.81530 0.09100
H 	H 	0.62220 0.06630 0.71950 0.08900
H 	H 	0.73310 0.07790 0.66190 -0.00900
H 	H 	0.61280 0.05360 0.84220 0.06900
H 	H 	0.58080 0.03280 0.80600 0.06300
H 	H 	0.54870 0.11160 0.64920 0.12900
H 	H 	0.44800 0.07400 0.65620 -0.02500
H 	H 	0.45400 0.02650 0.59790 0.10500
H 	H 	0.56650 0.01580 0.52900 0.00100
H 	H 	0.97460 0.04670 0.40570 0.07500
H 	H 	0.91360 0.07300 0.37500 0.06300
H 	H 	0.99490 0.11960 0.41740 0.10500
H 	H 	0.02430 0.10620 0.36300 0.09800
H 	H 	0.93740 0.14430 0.38430 0.10000
H 	H 	0.28900 0.92200 0.69140 0.13100
H 	H 	0.22700 0.92040 0.77080 -0.03200
H 	H 	0.08850 0.96490 0.80150 0.10200
H 	H 	0.01680 0.01140 0.75140 -0.00300
H 	H 	0.02370 0.09020 0.50180 0.06000
H 	H 	0.99660 0.12880 0.54160 0.05000
H 	H 	0.11700 0.15060 0.50780 0.11000
H 	H 	0.06520 0.15500 0.47080 0.10300
H 	H 	0.14560 0.11140 0.46820 0.11900
H 	H 	0.28660 0.14940 0.93100 -0.03100
H 	H 	0.39220 0.15940 0.87020 0.10700
H 	H 	0.47800 0.01870 0.86350 0.08600
H 	H 	0.37060 0.01670 0.93170 -0.00000
H 	H 	0.50440 0.10520 0.79300 0.07200
H 	H 	0.53850 0.12720 0.82740 0.07500
H 	H 	0.31640 0.28140 0.80100 0.14600
H 	H 	0.30420 0.20710 0.80990 -0.03800
H 	H 	0.18520 0.19120 0.86320 0.12100
H 	H 	0.08270 0.25240 0.90340 -0.00200
H 	H 	0.89270 0.48960 0.96760 0.10500
H 	H 	0.94860 0.52460 0.94660 0.11500
H 	H 	0.18750 0.41320 0.74560 -0.00100
H 	H 	0.12860 0.42350 0.68470 0.09100
H 	H 	0.90800 0.43370 0.78050 0.08900
H 	H 	0.97290 0.42210 0.83810 -0.00800
H 	H 	0.00860 0.44640 0.65780 0.06900
H 	H 	0.91960 0.46720 0.69400 0.06300
H 	H 	0.80950 0.38840 0.85080 0.12900
H 	H 	0.67820 0.42600 0.84380 -0.02500
H 	H 	0.57840 0.47350 0.90210 0.10500
H 	H 	0.61130 0.48420 0.97100 0.00100
H 	H 	0.92700 0.45330 0.09430 0.07500
H 	H 	0.86160 0.42700 0.12500 0.06300
H 	H 	0.03190 0.38040 0.08260 0.10500
H 	H 	0.99350 0.39380 0.13700 0.09800
H 	H 	0.96600 0.35570 0.11570 0.10000
H 	H 	0.40240 0.57800 0.80860 0.13000
H 	H 	0.41820 0.57960 0.72920 -0.03200
H 	H 	0.35490 0.53510 0.69850 0.10200
H 	H 	0.27960 0.48860 0.74860 -0.00200
H 	H 	0.11570 0.40980 0.99820 0.06100
H 	H 	0.16700 0.37120 0.95840 0.05100
H 	H 	0.27540 0.34940 0.99220 0.10900
H 	H 	0.19100 0.34500 0.02920 0.10200
H 	H 	0.22520 0.38860 0.03180 0.11800
H 	H 	0.86700 0.35060 0.56900 -0.03100
H 	H 	0.92180 0.34060 0.62980 0.10700
H 	H 	0.86020 0.48130 0.63650 0.08600
H 	H 	0.81900 0.48330 0.56830 0.00000
H 	H 	0.90260 0.39480 0.70700 0.07200
H 	H 	0.99310 0.37280 0.67260 0.07500
H 	H 	0.59780 0.30100 0.71860 0.14600
H 	H 	0.51130 0.30990 0.79290 -0.03800
H 	H 	0.37640 0.36320 0.80880 0.12100
H 	H 	0.33510 0.40340 0.74760 -0.00200
H 	H 	0.38230 0.46760 0.51040 0.10500
H 	H 	0.47320 0.44660 0.47540 0.11500
H 	H 	0.60070 0.24560 0.58680 -0.00100
H 	H 	0.55210 0.18470 0.57650 0.09100
H 	H 	0.34170 0.28050 0.56630 0.08900
H 	H 	0.39500 0.33810 0.57790 -0.00900
H 	H 	0.45500 0.15780 0.55360 0.06900
H 	H 	0.38680 0.19400 0.53280 0.06300
H 	H 	0.19790 0.35080 0.61160 0.12900
H 	H 	0.10420 0.34380 0.57400 -0.02500
H 	H 	0.05190 0.40210 0.52650 0.10500
H 	H 	0.09550 0.47100 0.51580 0.00100
H 	H 	0.38030 0.59430 0.54670 0.07500
H 	H 	0.28860 0.62500 0.57300 0.06300
H 	H 	0.41230 0.58260 0.61960 0.10500
H 	H 	0.38730 0.63700 0.60620 0.09800
H 	H 	0.32170 0.61570 0.64430 0.10000
H 	H 	0.98040 0.30860 0.42200 0.13000
H 	H 	0.99780 0.22920 0.42040 -0.03200
H 	H 	0.89000 0.19850 0.46490 0.10200
H 	H 	0.76820 0.24860 0.51140 -0.00200
H 	H 	0.52550 0.49820 0.59020 0.06000
H 	H 	0.53820 0.45840 0.62880 0.05000
H 	H 	0.62480 0.49220 0.65060 0.11100
H 	H 	0.53600 0.52920 0.65500 0.10400
H 	H 	0.61380 0.53180 0.61140 0.11900
H 	H 	0.21760 0.06900 0.64940 -0.03100
H 	H 	0.26240 0.12980 0.65940 0.10700
H 	H 	0.34150 0.13650 0.51870 0.08600
H 	H 	0.30230 0.06830 0.51670 0.00000
H 	H 	0.29740 0.20700 0.60520 0.07200
H 	H 	0.36590 0.17260 0.62720 0.07500
H 	H 	0.11740 0.19900 0.78140 0.14600
H 	H 	0.11410 0.19010 0.70710 -0.03800
H 	H 	0.04840 0.13680 0.69120 0.12100
H 	H 	0.98610 0.09660 0.75240 -0.00200
H 	H 	0.86030 0.03240 0.98960 0.10200
H 	H 	0.89520 0.05340 0.02460 0.11400
H 	H 	0.93310 0.25440 0.91320 -0.00100
H 	H 	0.81330 0.31530 0.92350 0.09100
H 	H 	0.68850 0.21950 0.93370 0.08900
H 	H 	0.81100 0.16190 0.92210 -0.00900
H 	H 	0.66640 0.34220 0.94640 0.06900
H 	H 	0.61360 0.30600 0.96720 0.06300
H 	H 	0.66030 0.14920 0.88840 0.12800
H 	H 	0.52200 0.15620 0.92600 -0.02500
H 	H 	0.48050 0.09790 0.97350 0.10500
H 	H 	0.58230 0.02900 0.98420 0.00100
H 	H 	0.02130 0.90570 0.95330 0.07500
H 	H 	0.98660 0.87500 0.92700 0.06300
H 	H 	0.11450 0.91740 0.88040 0.10600
H 	H 	0.13050 0.86300 0.89380 0.09900
H 	H 	0.08170 0.88430 0.85570 0.10000
H 	H 	0.21100 0.19140 0.07800 0.13000
H 	H 	0.14740 0.27080 0.07960 -0.03200
H 	H 	0.05340 0.30150 0.03510 0.10200
H 	H 	0.02820 0.25140 0.98860 -0.00300
H 	H 	0.11390 0.00180 0.90980 0.06100
H 	H 	0.12540 0.04160 0.87120 0.05200
H 	H 	0.26760 0.00780 0.84940 0.10700
H 	H 	0.22020 0.97080 0.84500 0.10100
H 	H 	0.25700 0.96820 0.88860 0.11600
H 	H 	0.43600 0.43100 0.85060 -0.03100
H 	H 	0.55160 0.37020 0.84060 0.10700
H 	H 	0.49670 0.36350 0.98130 0.08600
H 	H 	0.38730 0.43170 0.98330 0.00000
H 	H 	0.60960 0.29300 0.89480 0.07200
H 	H 	0.66570 0.32740 0.87280 0.07500
H 	H 	0.10120 0.78140 0.30100 0.14600
H 	H 	0.17880 0.70710 0.30990 -0.03800
H 	H 	0.26040 0.69120 0.36320 0.12100
H 	H 	0.26150 0.75240 0.40340 -0.00200
H 	H 	0.15010 0.98960 0.46760 0.10500
H 	H 	0.08020 0.02460 0.44660 0.11500
H 	H 	0.15370 0.91320 0.24560 -0.00100
H 	H 	0.26320 0.92350 0.18470 0.09100
H 	H 	0.37780 0.93370 0.28050 0.08900
H 	H 	0.26690 0.92210 0.33810 -0.00900
H 	H 	0.38720 0.94640 0.15780 0.06900
H 	H 	0.41920 0.96720 0.19400 0.06300
H 	H 	0.45130 0.88840 0.35080 0.12900
H 	H 	0.55200 0.92600 0.34380 -0.02500
H 	H 	0.54600 0.97350 0.40210 0.10500
H 	H 	0.43350 0.98420 0.47100 0.00100
H 	H 	0.02540 0.95330 0.59430 0.07500
H 	H 	0.08640 0.92700 0.62500 0.06300
H 	H 	0.00510 0.88040 0.58260 0.10500
H 	H 	0.97570 0.89380 0.63700 0.09800
H 	H 	0.06260 0.85570 0.61570 0.10000
H 	H 	0.71100 0.07800 0.30860 0.13100
H 	H 	0.77300 0.07960 0.22920 -0.03200
H 	H 	0.91150 0.03510 0.19850 0.10200
H 	H 	0.98320 0.98860 0.24860 -0.00300
H 	H 	0.97630 0.90980 0.49820 0.06000
H 	H 	0.00340 0.87120 0.45840 0.05000
H 	H 	0.88300 0.84940 0.49220 0.11000
H 	H 	0.93480 0.84500 0.52920 0.10300
H 	H 	0.85440 0.88860 0.53180 0.11900
H 	H 	0.71340 0.85060 0.06900 -0.03100
H 	H 	0.60780 0.84060 0.12980 0.10700
H 	H 	0.52200 0.98130 0.13650 0.08600
H 	H 	0.62940 0.98330 0.06830 -0.00000
H 	H 	0.49560 0.89480 0.20700 0.07200
H 	H 	0.46150 0.87280 0.17260 0.07500
H 	H 	0.68360 0.71860 0.19900 0.14600
H 	H 	0.69580 0.79290 0.19010 -0.03800
H 	H 	0.81480 0.80880 0.13680 0.12100
H 	H 	0.91730 0.74760 0.09660 -0.00200
H 	H 	0.10730 0.51040 0.03240 0.10500
H 	H 	0.05140 0.47540 0.05340 0.11500
H 	H 	0.81250 0.58680 0.25440 -0.00100
H 	H 	0.87140 0.57650 0.31530 0.09100
H 	H 	0.09200 0.56630 0.21950 0.08900
H 	H 	0.02710 0.57790 0.16190 -0.00800
H 	H 	0.99140 0.55360 0.34220 0.06900
H 	H 	0.08040 0.53280 0.30600 0.06300
H 	H 	0.19050 0.61160 0.14920 0.12900
H 	H 	0.32180 0.57400 0.15620 -0.02500
H 	H 	0.42160 0.52650 0.09790 0.10500
H 	H 	0.38870 0.51580 0.02900 0.00100
H 	H 	0.07300 0.54670 0.90570 0.07500
H 	H 	0.13840 0.57300 0.87500 0.06300
H 	H 	0.96810 0.61960 0.91740 0.10500
H 	H 	0.00650 0.60620 0.86300 0.09800
H 	H 	0.03400 0.64430 0.88430 0.10000
H 	H 	0.59760 0.42200 0.19140 0.13000
H 	H 	0.58180 0.42040 0.27080 -0.03200
H 	H 	0.64510 0.46490 0.30150 0.10200
H 	H 	0.72040 0.51140 0.25140 -0.00200
H 	H 	0.88430 0.59020 0.00180 0.06100
H 	H 	0.83300 0.62880 0.04160 0.05100
H 	H 	0.72460 0.65060 0.00780 0.10900
H 	H 	0.80900 0.65500 0.97080 0.10200
H 	H 	0.77480 0.61140 0.96820 0.11800
H 	H 	0.13300 0.64940 0.43100 -0.03100
H 	H 	0.07820 0.65940 0.37020 0.10700
H 	H 	0.13980 0.51870 0.36350 0.08600
H 	H 	0.18100 0.51670 0.43170 0.00000
H 	H 	0.09740 0.60520 0.29300 0.07200
H 	H 	0.00690 0.62720 0.32740 0.07500
H 	H 	0.40220 0.69900 0.28140 0.14600
H 	H 	0.48870 0.69010 0.20710 -0.03800
H 	H 	0.62360 0.63680 0.19120 0.12100
H 	H 	0.66490 0.59660 0.25240 -0.00200
H 	H 	0.61770 0.53240 0.48960 0.10500
H 	H 	0.52680 0.55340 0.52460 0.11500
H 	H 	0.39930 0.75440 0.41320 -0.00100
H 	H 	0.44790 0.81530 0.42350 0.09100
H 	H 	0.65830 0.71950 0.43370 0.08900
H 	H 	0.60500 0.66190 0.42210 -0.00900
H 	H 	0.54500 0.84220 0.44640 0.06900
H 	H 	0.61320 0.80600 0.46720 0.06300
H 	H 	0.80210 0.64920 0.38840 0.12900
H 	H 	0.89580 0.65620 0.42600 -0.02500
H 	H 	0.94810 0.59790 0.47350 0.10500
H 	H 	0.90450 0.52900 0.48420 0.00100
H 	H 	0.61970 0.40570 0.45330 0.07500
H 	H 	0.71140 0.37500 0.42700 0.06300
H 	H 	0.58770 0.41740 0.38040 0.10500
H 	H 	0.61270 0.36300 0.39380 0.09800
H 	H 	0.67830 0.38430 0.35570 0.10000
H 	H 	0.01960 0.69140 0.57800 0.13000
H 	H 	0.00220 0.77080 0.57960 -0.03200
H 	H 	0.11000 0.80150 0.53510 0.10200
H 	H 	0.23180 0.75140 0.48860 -0.00200
H 	H 	0.47450 0.50180 0.40980 0.06000
H 	H 	0.46180 0.54160 0.37120 0.05000
H 	H 	0.37520 0.50780 0.34940 0.11100
H 	H 	0.46400 0.47080 0.34500 0.10400
H 	H 	0.38620 0.46820 0.38860 0.11900
H 	H 	0.78240 0.93100 0.35060 -0.03100
H 	H 	0.73760 0.87020 0.34060 0.10700
H 	H 	0.65850 0.86350 0.48130 0.08600
H 	H 	0.69770 0.93170 0.48330 0.00000
H 	H 	0.70260 0.79300 0.39480 0.07200
H 	H 	0.63410 0.82740 0.37280 0.07500
H 	H 	0.88260 0.80100 0.21860 0.14600
H 	H 	0.88590 0.80990 0.29290 -0.03800
H 	H 	0.95160 0.86320 0.30880 0.12100
H 	H 	0.01390 0.90340 0.24760 -0.00200
H 	H 	0.13970 0.96760 0.01040 0.10200
H 	H 	0.10480 0.94660 0.97540 0.11400
H 	H 	0.06690 0.74560 0.08680 -0.00100
H 	H 	0.18670 0.68470 0.07650 0.09100
H 	H 	0.31150 0.78050 0.06630 0.08900
H 	H 	0.18900 0.83810 0.07790 -0.00900
H 	H 	0.33360 0.65780 0.05360 0.06900
H 	H 	0.38640 0.69400 0.03280 0.06300
H 	H 	0.33970 0.85080 0.11160 0.12800
H 	H 	0.47800 0.84380 0.07400 -0.02500
H 	H 	0.51950 0.90210 0.02650 0.10500
H 	H 	0.41770 0.97100 0.01580 0.00100
H 	H 	0.97870 0.09430 0.04670 0.07500
H 	H 	0.01340 0.12500 0.07300 0.06300
H 	H 	0.88550 0.08260 0.11960 0.10600
H 	H 	0.86950 0.13700 0.10620 0.09900
H 	H 	0.91830 0.11570 0.14430 0.10100
H 	H 	0.78900 0.80860 0.92200 0.13000
H 	H 	0.85260 0.72920 0.92040 -0.03200
H 	H 	0.94660 0.69850 0.96490 0.10200
H 	H 	0.97180 0.74860 0.01140 -0.00300
H 	H 	0.88610 0.99820 0.09020 0.06100
H 	H 	0.87460 0.95840 0.12880 0.05200
H 	H 	0.73240 0.99220 0.15060 0.10700
H 	H 	0.77980 0.02920 0.15500 0.10100
H 	H 	0.74300 0.03180 0.11140 0.11600
H 	H 	0.56400 0.56900 0.14940 -0.03100
H 	H 	0.44840 0.62980 0.15940 0.10700
H 	H 	0.50330 0.63650 0.01870 0.08600
H 	H 	0.61270 0.56830 0.01670 0.00000
H 	H 	0.39040 0.70700 0.10520 0.07200
H 	H 	0.33430 0.67260 0.12720 0.07500
C 	C 	0.86670 0.18636 0.65344 0.32900
C 	C 	0.86601 0.22400 0.67778 -0.31200
C 	C 	0.82028 0.26813 0.67251 0.18400
C 	C 	0.77150 0.27784 0.64116 -0.24600
C 	C 	0.77184 0.24135 0.61757 0.17700
C 	C 	0.81747 0.19517 0.62169 -0.27300
C 	C 	0.81403 0.15900 0.59394 0.29200
C 	C 	0.87217 0.03959 0.58487 0.25900
C 	C 	0.86600 0.99988 0.56152 -0.27800
C 	C 	0.79959 0.08251 0.74731 0.09800
C 	C 	0.73519 0.07588 0.78374 -0.18200
C 	C 	0.66624 0.06810 0.77382 0.12800
C 	C 	0.66804 0.07005 0.72787 -0.18600
C 	C 	0.73423 0.07721 0.69353 0.10700
C 	C 	0.59500 0.06054 0.81326 -0.14200
C 	C 	0.61397 0.09007 0.58119 0.29100
C 	C 	0.55076 0.09351 0.62397 -0.27100
C 	C 	0.49250 0.07020 0.62820 0.15300
C 	C 	0.49560 0.04190 0.59410 -0.21200
C 	C 	0.56261 0.03609 0.55289 0.14000
C 	C 	0.62216 0.05916 0.54632 -0.25200
C 	C 	0.68881 0.05071 0.50267 0.27500
C 	C 	0.86163 0.08551 0.44543 0.21400
C 	C 	0.93355 0.07660 0.40190 -0.15400
C 	C 	0.97630 0.11510 0.39070 -0.25300
C 	C 	0.19382 0.96934 0.67222 0.31300
C 	C 	0.23368 0.94104 0.70360 -0.27900
C 	C 	0.19703 0.93936 0.75078 0.15300
C 	C 	0.11542 0.96575 0.76881 -0.21500
C 	C 	0.07279 0.99374 0.73868 0.14800
C 	C 	0.10925 0.99632 0.69158 -0.25300
C 	C 	0.06219 0.02777 0.66305 0.27700
C 	C 	0.08280 0.06999 0.55201 0.20500
C 	C 	0.04507 0.10603 0.52123 -0.11800
C 	C 	0.09770 0.13309 0.48931 -0.28500
C 	C 	0.32990 0.12180 0.91900 0.15900
C 	C 	0.39240 0.12870 0.88190 -0.24100
C 	C 	0.45220 0.09260 0.86300 0.15700
C 	C 	0.44180 0.04680 0.87920 -0.18100
C 	C 	0.37620 0.04620 0.91880 0.10000
C 	C 	0.52350 0.09920 0.82160 -0.16300
C 	C 	0.20650 0.31364 0.84656 0.32900
C 	C 	0.26779 0.27600 0.82222 -0.31200
C 	C 	0.26092 0.23187 0.82749 0.18400
C 	C 	0.19050 0.22216 0.85884 -0.24600
C 	C 	0.13076 0.25865 0.88243 0.17700
C 	C 	0.13433 0.30483 0.87831 -0.27300
C 	C 	0.06697 0.34100 0.90606 0.29200
C 	C 	0.99663 0.46041 0.91513 0.25900
C 	C 	0.92740 0.50012 0.93848 -0.27800
C 	C 	0.12941 0.41749 0.75269 0.09800
C 	C 	0.09481 0.42412 0.71626 -0.18200
C 	C 	0.00816 0.43190 0.72618 0.12800
C 	C 	0.96596 0.42995 0.77213 -0.18600
C 	C 	0.00497 0.42279 0.80647 0.10700
C 	C 	0.96880 0.43946 0.68674 -0.14200
C 	C 	0.78523 0.40993 0.91881 0.29100
C 	C 	0.76824 0.40649 0.87603 -0.27100
C 	C 	0.69090 0.42980 0.87180 0.15300
C 	C 	0.63160 0.45810 0.90590 -0.21200
C 	C 	0.65159 0.46391 0.94711 0.14000
C 	C 	0.72764 0.44084 0.95368 -0.25200
C 	C 	0.74219 0.44929 0.99733 0.27500
C 	C 	0.89257 0.41449 0.05457 0.21400
C 	C 	0.91205 0.42340 0.09810 -0.15400
C 	C 	0.98210 0.38490 0.10930 -0.25400
C 	C 	0.33538 0.53066 0.82778 0.31200
C 	C 	0.37832 0.55896 0.79640 -0.27800
C 	C 	0.38717 0.56064 0.74922 0.15200
C 	C 	0.34998 0.53425 0.73119 -0.21400
C 	C 	0.30521 0.50626 0.76132 0.14600
C 	C 	0.29715 0.50368 0.80842 -0.25300
C 	C 	0.25301 0.47223 0.83695 0.27800
C 	C 	0.20480 0.43001 0.94799 0.20500
C 	C 	0.17233 0.39397 0.97877 -0.12000
C 	C 	0.22010 0.36691 0.01069 -0.28100
C 	C 	0.87070 0.37820 0.58100 0.15900
C 	C 	0.90300 0.37130 0.61810 -0.24100
C 	C 	0.90780 0.40740 0.63700 0.15700
C 	C 	0.86780 0.45320 0.62080 -0.18100
C 	C 	0.84120 0.45380 0.58120 0.10000
C 	C 	0.94430 0.40080 0.67840 -0.16400
C 	C 	0.52014 0.34656 0.68636 0.32900
C 	C 	0.54379 0.32222 0.72400 -0.31200
C 	C 	0.49279 0.32749 0.76813 0.18400
C 	C 	0.41266 0.35884 0.77784 -0.24600
C 	C 	0.38941 0.38243 0.74135 0.17700
C 	C 	0.43916 0.37831 0.69517 -0.27300
C 	C 	0.40797 0.40606 0.65900 0.29200
C 	C 	0.45704 0.41513 0.53959 0.25900
C 	C 	0.42752 0.43848 0.49988 -0.27800
C 	C 	0.54690 0.25269 0.58251 0.09800
C 	C 	0.51893 0.21626 0.57588 -0.18200
C 	C 	0.44006 0.22618 0.56810 0.12900
C 	C 	0.39591 0.27213 0.57005 -0.18600
C 	C 	0.42776 0.30647 0.57721 0.10700
C 	C 	0.40826 0.18674 0.56054 -0.14200
C 	C 	0.19516 0.41881 0.59007 0.29100
C 	C 	0.17473 0.37603 0.59351 -0.27100
C 	C 	0.12070 0.37180 0.57020 0.15300
C 	C 	0.08970 0.40590 0.54190 -0.21200
C 	C 	0.11550 0.44711 0.53609 0.14000
C 	C 	0.16848 0.45368 0.55916 -0.25200
C 	C 	0.19148 0.49733 0.55071 0.27500
C 	C 	0.30706 0.55457 0.58551 0.21400
C 	C 	0.33545 0.59810 0.57660 -0.15400
C 	C 	0.36700 0.60930 0.61510 -0.25400
C 	C 	0.86604 0.32778 0.46934 0.31200
C 	C 	0.93728 0.29640 0.44104 -0.27800
C 	C 	0.94781 0.24922 0.43936 0.15200
C 	C 	0.88423 0.23119 0.46575 -0.21400
C 	C 	0.81147 0.26132 0.49374 0.14600
C 	C 	0.80083 0.30842 0.49632 -0.25300
C 	C 	0.72524 0.33695 0.52777 0.27800
C 	C 	0.63481 0.44799 0.56999 0.20500
C 	C 	0.56630 0.47877 0.60603 -0.11800
C 	C 	0.58701 0.51069 0.63309 -0.28500
C 	C 	0.24890 0.08100 0.62180 0.15900
C 	C 	0.27430 0.11810 0.62870 -0.24100
C 	C 	0.31520 0.13700 0.59260 0.15700
C 	C 	0.32100 0.12080 0.54680 -0.18100
C 	C 	0.29500 0.08120 0.54620 0.10000
C 	C 	0.34510 0.17840 0.59920 -0.16300
C 	C 	0.05306 0.15344 0.81364 0.32900
C 	C 	0.09001 0.17778 0.77600 -0.31200
C 	C 	0.08841 0.17251 0.73187 0.18400
C 	C 	0.04934 0.14116 0.72216 -0.24600
C 	C 	0.01319 0.11757 0.75865 0.17600
C 	C 	0.01264 0.12169 0.80483 -0.27300
C 	C 	0.97303 0.09394 0.84100 0.29200
C 	C 	0.91176 0.08487 0.96041 0.25700
C 	C 	0.86588 0.06152 0.00012 -0.27300
C 	C 	0.88210 0.24731 0.91749 0.09800
C 	C 	0.81107 0.28374 0.92412 -0.18200
C 	C 	0.73434 0.27382 0.93190 0.12800
C 	C 	0.73809 0.22787 0.92995 -0.18600
C 	C 	0.81144 0.19353 0.92279 0.10700
C 	C 	0.65554 0.31326 0.93946 -0.14200
C 	C 	0.70404 0.08119 0.90993 0.29000
C 	C 	0.64427 0.12397 0.90649 -0.27100
C 	C 	0.56270 0.12820 0.92980 0.15200
C 	C 	0.53750 0.09410 0.95810 -0.21200
C 	C 	0.59870 0.05289 0.96391 0.13900
C 	C 	0.68132 0.04632 0.94084 -0.25100
C 	C 	0.73952 0.00267 0.94929 0.27200
C 	C 	0.94714 0.94543 0.91449 0.21400
C 	C 	0.01015 0.90190 0.92340 -0.15300
C 	C 	0.09140 0.89070 0.88490 -0.25500
C 	C 	0.16316 0.17222 0.03066 0.31300
C 	C 	0.17472 0.20360 0.05896 -0.27900
C 	C 	0.13639 0.25078 0.06064 0.15300
C 	C 	0.08117 0.26881 0.03425 -0.21500
C 	C 	0.06653 0.23868 0.00626 0.14700
C 	C 	0.10557 0.19158 0.00368 -0.25200
C 	C 	0.08996 0.16305 0.97223 0.27700
C 	C 	0.15279 0.05201 0.93001 0.20700
C 	C 	0.15110 0.02123 0.89397 -0.12500
C 	C 	0.23079 0.98931 0.86691 -0.27400
C 	C 	0.45170 0.41900 0.87820 0.15900
C 	C 	0.52110 0.38190 0.87130 -0.24100
C 	C 	0.54480 0.36300 0.90740 0.15700
C 	C 	0.48860 0.37920 0.95320 -0.18100
C 	C 	0.42240 0.41880 0.95380 0.10000
C 	C 	0.62270 0.32160 0.90080 -0.16300
C 	C 	0.13330 0.81364 0.34656 0.32900
C 	C 	0.13399 0.77600 0.32222 -0.31200
C 	C 	0.17972 0.73187 0.32749 0.18400
C 	C 	0.22850 0.72216 0.35884 -0.24600
C 	C 	0.22816 0.75865 0.38243 0.17700
C 	C 	0.18253 0.80483 0.37831 -0.27300
C 	C 	0.18597 0.84100 0.40606 0.29200
C 	C 	0.12783 0.96041 0.41513 0.25900
C 	C 	0.13400 0.00012 0.43848 -0.27800
C 	C 	0.20041 0.91749 0.25269 0.09800
C 	C 	0.26481 0.92412 0.21626 -0.18200
C 	C 	0.33376 0.93190 0.22618 0.12800
C 	C 	0.33196 0.92995 0.27213 -0.18600
C 	C 	0.26577 0.92279 0.30647 0.10700
C 	C 	0.40500 0.93946 0.18674 -0.14200
C 	C 	0.38603 0.90993 0.41881 0.29100
C 	C 	0.44924 0.90649 0.37603 -0.27100
C 	C 	0.50750 0.92980 0.37180 0.15300
C 	C 	0.50440 0.95810 0.40590 -0.21200
C 	C 	0.43739 0.96391 0.44711 0.14000
C 	C 	0.37784 0.94084 0.45368 -0.25200
C 	C 	0.31119 0.94929 0.49733 0.27500
C 	C 	0.13837 0.91449 0.55457 0.21400
C 	C 	0.06645 0.92340 0.59810 -0.15400
C 	C 	0.02370 0.88490 0.60930 -0.25300
C 	C 	0.80618 0.03066 0.32778 0.31300
C 	C 	0.76632 0.05896 0.29640 -0.27900
C 	C 	0.80297 0.06064 0.24922 0.15300
C 	C 	0.88458 0.03425 0.23119 -0.21500
C 	C 	0.92721 0.00626 0.26132 0.14800
C 	C 	0.89075 0.00368 0.30842 -0.25300
C 	C 	0.93781 0.97223 0.33695 0.27700
C 	C 	0.91720 0.93001 0.44799 0.20500
C 	C 	0.95493 0.89397 0.47877 -0.11800
C 	C 	0.90230 0.86691 0.51069 -0.28500
C 	C 	0.67010 0.87820 0.08100 0.15900
C 	C 	0.60760 0.87130 0.11810 -0.24100
C 	C 	0.54780 0.90740 0.13700 0.15700
C 	C 	0.55820 0.95320 0.12080 -0.18100
C 	C 	0.62380 0.95380 0.08120 0.10000
C 	C 	0.47650 0.90080 0.17840 -0.16300
C 	C 	0.79350 0.68636 0.15344 0.32900
C 	C 	0.73221 0.72400 0.17778 -0.31200
C 	C 	0.73908 0.76813 0.17251 0.18400
C 	C 	0.80950 0.77784 0.14116 -0.24600
C 	C 	0.86924 0.74135 0.11757 0.17700
C 	C 	0.86567 0.69517 0.12169 -0.27300
C 	C 	0.93303 0.65900 0.09394 0.29200
C 	C 	0.00337 0.53959 0.08487 0.25900
C 	C 	0.07260 0.49988 0.06152 -0.27800
C 	C 	0.87059 0.58251 0.24731 0.09800
C 	C 	0.90519 0.57588 0.28374 -0.18200
C 	C 	0.99184 0.56810 0.27382 0.12800
C 	C 	0.03404 0.57005 0.22787 -0.18600
C 	C 	0.99503 0.57721 0.19353 0.10700
C 	C 	0.03120 0.56054 0.31326 -0.14200
C 	C 	0.21477 0.59007 0.08119 0.29100
C 	C 	0.23176 0.59351 0.12397 -0.27100
C 	C 	0.30910 0.57020 0.12820 0.15300
C 	C 	0.36840 0.54190 0.09410 -0.21200
C 	C 	0.34841 0.53609 0.05289 0.14000
C 	C 	0.27236 0.55916 0.04632 -0.25200
C 	C 	0.25781 0.55071 0.00267 0.27500
C 	C 	0.10743 0.58551 0.94543 0.21400
C 	C 	0.08795 0.57660 0.90190 -0.15400
C 	C 	0.01790 0.61510 0.89070 -0.25400
C 	C 	0.66462 0.46934 0.17222 0.31200
C 	C 	0.62168 0.44104 0.20360 -0.27800
C 	C 	0.61283 0.43936 0.25078 0.15200
C 	C 	0.65002 0.46575 0.26881 -0.21400
C 	C 	0.69479 0.49374 0.23868 0.14600
C 	C 	0.70285 0.49632 0.19158 -0.25300
C 	C 	0.74699 0.52777 0.16305 0.27800
C 	C 	0.79520 0.56999 0.05201 0.20500
C 	C 	0.82767 0.60603 0.02123 -0.12000
C 	C 	0.77990 0.63309 0.98931 -0.28100
C 	C 	0.12930 0.62180 0.41900 0.15900
C 	C 	0.09700 0.62870 0.38190 -0.24100
C 	C 	0.09220 0.59260 0.36300 0.15700
C 	C 	0.13220 0.54680 0.37920 -0.18100
C 	C 	0.15880 0.54620 0.41880 0.10000
C 	C 	0.05570 0.59920 0.32160 -0.16400
C 	C 	0.47986 0.65344 0.31364 0.32900
C 	C 	0.45621 0.67778 0.27600 -0.31200
C 	C 	0.50721 0.67251 0.23187 0.18400
C 	C 	0.58734 0.64116 0.22216 -0.24600
C 	C 	0.61059 0.61757 0.25865 0.17700
C 	C 	0.56084 0.62169 0.30483 -0.27300
C 	C 	0.59203 0.59394 0.34100 0.29200
C 	C 	0.54296 0.58487 0.46041 0.25900
C 	C 	0.57248 0.56152 0.50012 -0.27800
C 	C 	0.45310 0.74731 0.41749 0.09800
C 	C 	0.48107 0.78374 0.42412 -0.18200
C 	C 	0.55994 0.77382 0.43190 0.12900
C 	C 	0.60409 0.72787 0.42995 -0.18600
C 	C 	0.57224 0.69353 0.42279 0.10700
C 	C 	0.59174 0.81326 0.43946 -0.14200
C 	C 	0.80484 0.58119 0.40993 0.29100
C 	C 	0.82527 0.62397 0.40649 -0.27100
C 	C 	0.87930 0.62820 0.42980 0.15300
C 	C 	0.91030 0.59410 0.45810 -0.21200
C 	C 	0.88450 0.55289 0.46391 0.14000
C 	C 	0.83152 0.54632 0.44084 -0.25200
C 	C 	0.80852 0.50267 0.44929 0.27500
C 	C 	0.69294 0.44543 0.41449 0.21400
C 	C 	0.66455 0.40190 0.42340 -0.15400
C 	C 	0.63300 0.39070 0.38490 -0.25400
C 	C 	0.13396 0.67222 0.53066 0.31200
C 	C 	0.06272 0.70360 0.55896 -0.27800
C 	C 	0.05219 0.75078 0.56064 0.15200
C 	C 	0.11577 0.76881 0.53425 -0.21400
C 	C 	0.18853 0.73868 0.50626 0.14600
C 	C 	0.19917 0.69158 0.50368 -0.25300
C 	C 	0.27476 0.66305 0.47223 0.27800
C 	C 	0.36519 0.55201 0.43001 0.20500
C 	C 	0.43370 0.52123 0.39397 -0.11800
C 	C 	0.41299 0.48931 0.36691 -0.28500
C 	C 	0.75110 0.91900 0.37820 0.15900
C 	C 	0.72570 0.88190 0.37130 -0.24100
C 	C 	0.68480 0.86300 0.40740 0.15700
C 	C 	0.67900 0.87920 0.45320 -0.18100
C 	C 	0.70500 0.91880 0.45380 0.10000
C 	C 	0.65490 0.82160 0.40080 -0.16300
C 	C 	0.94694 0.84656 0.18636 0.32900
C 	C 	0.90999 0.82222 0.22400 -0.31200
C 	C 	0.91159 0.82749 0.26813 0.18400
C 	C 	0.95066 0.85884 0.27784 -0.24600
C 	C 	0.98681 0.88243 0.24135 0.17600
C 	C 	0.98736 0.87831 0.19517 -0.27300
C 	C 	0.02697 0.90606 0.15900 0.29200
C 	C 	0.08824 0.91513 0.03959 0.25700
C 	C 	0.13412 0.93848 0.99988 -0.27300
C 	C 	0.11790 0.75269 0.08251 0.09800
C 	C 	0.18893 0.71626 0.07588 -0.18200
C 	C 	0.26566 0.72618 0.06810 0.12800
C 	C 	0.26191 0.77213 0.07005 -0.18600
C 	C 	0.18856 0.80647 0.07721 0.10700
C 	C 	0.34446 0.68674 0.06054 -0.14200
C 	C 	0.29596 0.91881 0.09007 0.29000
C 	C 	0.35573 0.87603 0.09351 -0.27100
C 	C 	0.43730 0.87180 0.07020 0.15200
C 	C 	0.46250 0.90590 0.04190 -0.21200
C 	C 	0.40130 0.94711 0.03609 0.13900
C 	C 	0.31868 0.95368 0.05916 -0.25100
C 	C 	0.26048 0.99733 0.05071 0.27200
C 	C 	0.05286 0.05457 0.08551 0.21400
C 	C 	0.98985 0.09810 0.07660 -0.15300
C 	C 	0.90860 0.10930 0.11510 -0.25500
C 	C 	0.83684 0.82778 0.96934 0.31300
C 	C 	0.82528 0.79640 0.94104 -0.27900
C 	C 	0.86361 0.74922 0.93936 0.15300
C 	C 	0.91883 0.73119 0.96575 -0.21500
C 	C 	0.93347 0.76132 0.99374 0.14700
C 	C 	0.89443 0.80842 0.99632 -0.25200
C 	C 	0.91004 0.83695 0.02777 0.27700
C 	C 	0.84721 0.94799 0.06999 0.20700
C 	C 	0.84890 0.97877 0.10603 -0.12500
C 	C 	0.76921 0.01069 0.13309 -0.27400
C 	C 	0.54830 0.58100 0.12180 0.15900
C 	C 	0.47890 0.61810 0.12870 -0.24100
C 	C 	0.45520 0.63700 0.09260 0.15700
C 	C 	0.51140 0.62080 0.04680 -0.18100
C 	C 	0.57760 0.58120 0.04620 0.10000
C 	C 	0.37730 0.67840 0.09920 -0.16300
N 	N 	0.85129 0.11452 0.60050 -0.28800
N 	N 	0.84090 0.08232 0.57248 -0.23500
N 	N 	0.80017 0.08323 0.70243 -0.23000
N 	N 	0.74742 0.07250 0.49526 -0.29300
N 	N 	0.80945 0.06067 0.45183 -0.23100
N 	N 	0.09550 0.03395 0.61865 -0.28600
N 	N 	0.04657 0.06830 0.59556 -0.22400
N 	N 	0.32101 0.08461 0.93957 -0.24500
N 	N 	0.06631 0.38548 0.89950 -0.28800
N 	N 	0.99570 0.41768 0.92752 -0.23500
N 	N 	0.08583 0.41677 0.79757 -0.23000
N 	N 	0.81518 0.42750 0.00474 -0.29300
N 	N 	0.82195 0.43933 0.04817 -0.23100
N 	N 	0.24810 0.46605 0.88135 -0.28600
N 	N 	0.21043 0.43170 0.90444 -0.22400
N 	N 	0.84519 0.41539 0.56043 -0.24500
N 	N 	0.45179 0.39950 0.61452 -0.28800
N 	N 	0.41338 0.42752 0.58232 -0.23500
N 	N 	0.50260 0.29757 0.58323 -0.23000
N 	N 	0.24268 0.50474 0.57250 -0.29300
N 	N 	0.26128 0.54817 0.56067 -0.23100
N 	N 	0.71415 0.38135 0.53395 -0.28600
N 	N 	0.64213 0.40444 0.56830 -0.22400
N 	N 	0.26058 0.06043 0.58461 -0.24500
N 	N 	0.96581 0.10050 0.88548 -0.28800
N 	N 	0.92322 0.07248 0.91768 -0.23400
N 	N 	0.88340 0.20243 0.91677 -0.23000
N 	N 	0.81992 0.99526 0.92750 -0.29200
N 	N 	0.87012 0.95183 0.93933 -0.23000
N 	N 	0.12945 0.11865 0.96605 -0.28600
N 	N 	0.11487 0.09556 0.93170 -0.22400
N 	N 	0.40562 0.43957 0.91539 -0.24500
N 	N 	0.14871 0.88548 0.39950 -0.28800
N 	N 	0.15910 0.91768 0.42752 -0.23500
N 	N 	0.19983 0.91677 0.29757 -0.23000
N 	N 	0.25258 0.92750 0.50474 -0.29300
N 	N 	0.19055 0.93933 0.54817 -0.23100
N 	N 	0.90450 0.96605 0.38135 -0.28600
N 	N 	0.95343 0.93170 0.40444 -0.22400
N 	N 	0.67899 0.91539 0.06043 -0.24500
N 	N 	0.93369 0.61452 0.10050 -0.28800
N 	N 	0.00430 0.58232 0.07248 -0.23500
N 	N 	0.91417 0.58323 0.20243 -0.23000
N 	N 	0.18482 0.57250 0.99526 -0.29300
N 	N 	0.17805 0.56067 0.95183 -0.23100
N 	N 	0.75190 0.53395 0.11865 -0.28600
N 	N 	0.78957 0.56830 0.09556 -0.22400
N 	N 	0.15481 0.58461 0.43957 -0.24500
N 	N 	0.54821 0.60050 0.38548 -0.28800
N 	N 	0.58662 0.57248 0.41768 -0.23500
N 	N 	0.49740 0.70243 0.41677 -0.23000
N 	N 	0.75732 0.49526 0.42750 -0.29300
N 	N 	0.73872 0.45183 0.43933 -0.23100
N 	N 	0.28585 0.61865 0.46605 -0.28600
N 	N 	0.35787 0.59556 0.43170 -0.22400
N 	N 	0.73942 0.93957 0.41539 -0.24500
N 	N 	0.03419 0.89950 0.11452 -0.28800
N 	N 	0.07678 0.92752 0.08232 -0.23400
N 	N 	0.11660 0.79757 0.08323 -0.23000
N 	N 	0.18008 0.00474 0.07250 -0.29200
N 	N 	0.12988 0.04817 0.06067 -0.23000
N 	N 	0.87055 0.88135 0.03395 -0.28600
N 	N 	0.88513 0.90444 0.06830 -0.22400
N 	N 	0.59438 0.56043 0.08461 -0.24500
O 	O 	0.91305 0.14417 0.66133 -0.47800
O 	O 	0.77373 0.17039 0.56275 -0.43000
O 	O 	0.90985 0.03037 0.61793 -0.43200
O 	O 	0.66357 0.11823 0.57703 -0.47100
O 	O 	0.69085 0.02199 0.47237 -0.41200
O 	O 	0.85304 0.11704 0.47512 -0.43500
O 	O 	0.23486 0.96975 0.62793 -0.47900
O 	O 	0.98550 0.04996 0.68292 -0.41400
O 	O 	0.15718 0.04237 0.53247 -0.41600
O 	O 	0.21855 0.35583 0.83867 -0.47800
O 	O 	0.00687 0.32961 0.93725 -0.43000
O 	O 	0.05815 0.46963 0.88207 -0.43200
O 	O 	0.85883 0.38177 0.92297 -0.47100
O 	O 	0.68521 0.47801 0.02763 -0.41200
O 	O 	0.94520 0.38296 0.02488 -0.43500
O 	O 	0.33254 0.53025 0.87207 -0.47900
O 	O 	0.21838 0.45004 0.81708 -0.41400
O 	O 	0.23202 0.45763 0.96753 -0.41600
O 	O 	0.57438 0.33867 0.64417 -0.47800
O 	O 	0.33648 0.43725 0.67039 -0.43000
O 	O 	0.52778 0.38207 0.53037 -0.43200
O 	O 	0.24060 0.42297 0.61823 -0.47100
O 	O 	0.16322 0.52763 0.52199 -0.41300
O 	O 	0.32816 0.52488 0.61704 -0.43500
O 	O 	0.86279 0.37207 0.46975 -0.47900
O 	O 	0.66842 0.31708 0.54996 -0.41400
O 	O 	0.68965 0.46753 0.54237 -0.41600
O 	O 	0.05722 0.16133 0.85583 -0.47800
O 	O 	0.94412 0.06275 0.82961 -0.43000
O 	O 	0.94022 0.11793 0.96963 -0.43200
O 	O 	0.78180 0.07703 0.88177 -0.47100
O 	O 	0.71284 0.97237 0.97801 -0.41000
O 	O 	0.97008 0.97512 0.88296 -0.43400
O 	O 	0.20461 0.12793 0.03025 -0.47900
O 	O 	0.03546 0.18292 0.95004 -0.41400
O 	O 	0.19955 0.03247 0.95763 -0.41700
O 	O 	0.08695 0.85583 0.33867 -0.47800
O 	O 	0.22627 0.82961 0.43725 -0.43000
O 	O 	0.09015 0.96963 0.38207 -0.43200
O 	O 	0.33643 0.88177 0.42297 -0.47100
O 	O 	0.30915 0.97801 0.52763 -0.41200
O 	O 	0.14696 0.88296 0.52488 -0.43500
O 	O 	0.76514 0.03025 0.37207 -0.47900
O 	O 	0.01450 0.95004 0.31708 -0.41400
O 	O 	0.84282 0.95763 0.46753 -0.41600
O 	O 	0.78145 0.64417 0.16133 -0.47800
O 	O 	0.99313 0.67039 0.06275 -0.43000
O 	O 	0.94185 0.53037 0.11793 -0.43200
O 	O 	0.14117 0.61823 0.07703 -0.47100
O 	O 	0.31479 0.52199 0.97237 -0.41200
O 	O 	0.05480 0.61704 0.97512 -0.43500
O 	O 	0.66746 0.46975 0.12793 -0.47900
O 	O 	0.78162 0.54996 0.18292 -0.41400
O 	O 	0.76798 0.54237 0.03247 -0.41600
O 	O 	0.42562 0.66133 0.35583 -0.47800
O 	O 	0.66352 0.56275 0.32961 -0.43000
O 	O 	0.47222 0.61793 0.46963 -0.43200
O 	O 	0.75940 0.57703 0.38177 -0.47100
O 	O 	0.83678 0.47237 0.47801 -0.41300
O 	O 	0.67184 0.47512 0.38296 -0.43500
O 	O 	0.13721 0.62793 0.53025 -0.47900
O 	O 	0.33158 0.68292 0.45004 -0.41400
O 	O 	0.31035 0.53247 0.45763 -0.41600
O 	O 	0.94278 0.83867 0.14417 -0.47800
O 	O 	0.05588 0.93725 0.17039 -0.43000
O 	O 	0.05978 0.88207 0.03037 -0.43200
O 	O 	0.21820 0.92297 0.11823 -0.47100
O 	O 	0.28716 0.02763 0.02199 -0.41000
O 	O 	0.02992 0.02488 0.11704 -0.43400
O 	O 	0.79539 0.87207 0.96975 -0.47900
O 	O 	0.96454 0.81708 0.04996 -0.41400
O 	O 	0.80045 0.96753 0.04237 -0.41700
