data_crystal

_cell_length_a 40.42450
_cell_length_b 40.42450
_cell_length_c 17.81430
_cell_angle_alpha 90.00000
_cell_angle_beta  90.00000
_cell_angle_gamma 90.00000

_symmetry_space_group_name_	'P 1'
_symmetry_space_group_name_H-M	'P 1'

loop_
_symmetry_equiv_pos_as_xyz
  x,y,z

loop_
_atom_site_label
_atom_site_type_symbol
_atom_site_fract_x
_atom_site_fract_y
_atom_site_fract_z
_atom_site_charge
Mn	Mn	0.92602 0.54334 0.82625 1.32000
O 	O 	0.90473 0.51625 0.75629 -0.48400
O 	O 	0.00485 0.52137 0.68616 -0.41200
O 	O 	0.95477 0.56953 0.89000 -0.42800
N 	N 	0.96793 0.53595 0.77644 -0.29400
N 	N 	0.99541 0.55160 0.81097 -0.22700
C 	C 	0.91634 0.50204 0.69680 0.30400
C 	C 	0.89387 0.48331 0.65240 -0.27100
H 	H 	0.87200 0.47960 0.67020 0.12600
C 	C 	0.90332 0.47050 0.58410 0.14100
H 	H 	0.88790 0.45760 0.55660 -0.02200
C 	C 	0.93420 0.47580 0.55420 -0.20000
H 	H 	0.93940 0.46880 0.50470 0.10000
C 	C 	0.95798 0.49200 0.59980 0.12800
H 	H 	0.98010 0.49420 0.58260 0.00300
C 	C 	0.94917 0.50451 0.66960 -0.25000
C 	C 	0.97525 0.52129 0.71230 0.27200
C 	C 	0.98600 0.56821 0.86989 0.20600
C 	C 	0.01126 0.58646 0.91510 -0.14700
H 	H 	0.02490 0.59990 0.88050 0.06200
H 	H 	0.02600 0.57010 0.93930 0.07200
C 	C 	0.99777 0.60882 0.97480 -0.25600
H 	H 	0.98620 0.62740 0.95120 0.10100
H 	H 	0.01600 0.61720 0.00560 0.09600
H 	H 	0.98230 0.59650 0.00650 0.10500
Mn	Mn	0.04183 0.53382 0.75312 1.33300
O 	O 	0.05100 0.57487 0.71146 -0.47100
O 	O 	0.11528 0.56578 0.89885 -0.41200
O 	O 	0.03915 0.49214 0.80561 -0.42000
N 	N 	0.07689 0.53994 0.82597 -0.28600
N 	N 	0.08236 0.51210 0.87243 -0.22600
N 	N 	0.07450 0.50622 0.66890 -0.24500
C 	C 	0.07313 0.59744 0.73050 0.29500
C 	C 	0.07517 0.62616 0.68530 -0.26300
H 	H 	0.06090 0.62840 0.64320 0.12500
C 	C 	0.09740 0.65072 0.70140 0.13900
H 	H 	0.09810 0.66980 0.67030 -0.02800
C 	C 	0.11887 0.64849 0.76190 -0.20300
H 	H 	0.13430 0.66570 0.77200 0.09800
C 	C 	0.11743 0.62088 0.80710 0.12600
H 	H 	0.13210 0.61920 0.84860 0.00500
C 	C 	0.09470 0.59494 0.79310 -0.23500
C 	C 	0.09579 0.56567 0.84226 0.27000
C 	C 	0.06186 0.48864 0.85660 0.21500
C 	C 	0.06481 0.45598 0.89480 -0.14200
H 	H 	0.04700 0.45410 0.93260 0.06600
H 	H 	0.08620 0.45520 0.92190 0.05600
C 	C 	0.06290 0.42637 0.84270 -0.26600
H 	H 	0.04190 0.42690 0.81530 0.10700
H 	H 	0.06430 0.40600 0.87220 0.09700
H 	H 	0.08130 0.42720 0.80690 0.10400
C 	C 	0.10454 0.51000 0.66120 0.17400
H 	H 	0.11450 0.52720 0.68970 -0.03800
C 	C 	0.12548 0.49160 0.61470 -0.27700
H 	H 	0.14850 0.49630 0.61450 0.11700
C 	C 	0.11463 0.46960 0.57420 0.19800
C 	C 	0.08270 0.45740 0.59390 -0.19800
H 	H 	0.07490 0.43690 0.57460 0.09000
C 	C 	0.06324 0.47600 0.64130 0.09500
H 	H 	0.04200 0.46820 0.65530 0.00000
C 	C 	0.13674 0.45090 0.51960 -0.19400
H 	H 	0.15520 0.46570 0.50520 0.08100
H 	H 	0.14650 0.43180 0.54660 0.07700
Mn	Mn	0.88697 0.47166 0.02845 1.33300
O 	O 	0.84861 0.49184 0.06021 -0.47200
O 	O 	0.88522 0.55197 0.88245 -0.43100
O 	O 	0.92776 0.45628 0.98463 -0.42400
N 	N 	0.89430 0.50636 0.95486 -0.28500
N 	N 	0.92449 0.50378 0.91515 -0.22600
N 	N 	0.18937 0.39096 0.30373 -0.23100
C 	C 	0.83159 0.51651 0.02820 0.29600
C 	C 	0.79992 0.52244 0.05600 -0.26200
H 	H 	0.79170 0.50910 0.09580 0.12900
C 	C 	0.78013 0.54742 0.02700 0.13400
H 	H 	0.75870 0.55100 0.04700 -0.02200
C 	C 	0.79161 0.56733 0.96840 -0.19800
H 	H 	0.77810 0.58430 0.94810 0.10600
C 	C 	0.82283 0.56190 0.94060 0.13200
H 	H 	0.83090 0.57550 0.90120 0.01100
C 	C 	0.84322 0.53664 0.96910 -0.23900
C 	C 	0.87578 0.53191 0.93390 0.27800
C 	C 	0.93972 0.47707 0.93520 0.21800
C 	C 	0.97168 0.46792 0.89800 -0.16500
H 	H 	0.98180 0.48770 0.87490 0.07000
H 	H 	0.98730 0.45890 0.93560 0.07900
C 	C 	0.96430 0.44100 0.83550 -0.26200
H 	H 	0.95120 0.45100 0.79510 0.10000
H 	H 	0.98520 0.43270 0.81500 0.10000
H 	H 	0.95190 0.42260 0.85770 0.10400
C 	C 	0.17195 0.41736 0.28370 0.10400
H 	H 	0.17430 0.42530 0.23380 -0.00300
C 	C 	0.15062 0.43391 0.33080 -0.19200
H 	H 	0.13890 0.45280 0.31380 0.09600
C 	C 	0.14667 0.42255 0.40270 0.12300
C 	C 	0.16450 0.39580 0.42380 -0.17900
H 	H 	0.16220 0.38720 0.47310 0.08300
C 	C 	0.18629 0.38075 0.37410 0.09700
H 	H 	0.19930 0.36270 0.39100 -0.01000
C 	C 	0.12260 0.43960 0.45650 -0.11300
H 	H 	0.11210 0.45840 0.43010 0.06200
H 	H 	0.10500 0.42370 0.47020 0.05300
Mn	Mn	0.42602 0.04334 0.32625 1.31900
O 	O 	0.40473 0.01625 0.25629 -0.48500
O 	O 	0.50485 0.02137 0.18616 -0.41300
O 	O 	0.45477 0.06953 0.39000 -0.42900
N 	N 	0.46793 0.03595 0.27644 -0.29400
N 	N 	0.49541 0.05160 0.31097 -0.22700
C 	C 	0.41634 0.00204 0.19680 0.30400
C 	C 	0.39387 0.98331 0.15240 -0.27100
H 	H 	0.37200 0.97960 0.17020 0.12600
C 	C 	0.40332 0.97050 0.08410 0.14100
H 	H 	0.38790 0.95760 0.05660 -0.02200
C 	C 	0.43420 0.97580 0.05420 -0.20000
H 	H 	0.43940 0.96880 0.00470 0.10100
C 	C 	0.45798 0.99200 0.09980 0.12800
H 	H 	0.48010 0.99420 0.08260 0.00300
C 	C 	0.44917 0.00451 0.16960 -0.25100
C 	C 	0.47525 0.02129 0.21230 0.27200
C 	C 	0.48600 0.06821 0.36989 0.20600
C 	C 	0.51126 0.08646 0.41510 -0.14800
H 	H 	0.52490 0.09990 0.38050 0.06300
H 	H 	0.52600 0.07010 0.43930 0.07300
C 	C 	0.49777 0.10882 0.47480 -0.25300
H 	H 	0.48620 0.12740 0.45120 0.10000
H 	H 	0.51600 0.11720 0.50560 0.09500
H 	H 	0.48230 0.09650 0.50650 0.10400
Mn	Mn	0.54183 0.03382 0.25312 1.33300
O 	O 	0.55100 0.07487 0.21146 -0.47100
O 	O 	0.61528 0.06578 0.39885 -0.41200
O 	O 	0.53915 0.99214 0.30561 -0.42000
N 	N 	0.57689 0.03994 0.32597 -0.28600
N 	N 	0.58236 0.01210 0.37243 -0.22700
N 	N 	0.57450 0.00622 0.16890 -0.24500
C 	C 	0.57313 0.09744 0.23050 0.29500
C 	C 	0.57517 0.12616 0.18530 -0.26300
H 	H 	0.56090 0.12840 0.14320 0.12500
C 	C 	0.59740 0.15072 0.20140 0.13900
H 	H 	0.59810 0.16980 0.17030 -0.02800
C 	C 	0.61887 0.14849 0.26190 -0.20300
H 	H 	0.63430 0.16570 0.27200 0.09800
C 	C 	0.61743 0.12088 0.30710 0.12600
H 	H 	0.63210 0.11920 0.34860 0.00500
C 	C 	0.59470 0.09494 0.29310 -0.23500
C 	C 	0.59579 0.06567 0.34226 0.27000
C 	C 	0.56186 0.98864 0.35660 0.21500
C 	C 	0.56481 0.95598 0.39480 -0.14200
H 	H 	0.54700 0.95410 0.43260 0.06600
H 	H 	0.58620 0.95520 0.42190 0.05600
C 	C 	0.56290 0.92637 0.34270 -0.26600
H 	H 	0.54190 0.92690 0.31530 0.10700
H 	H 	0.56430 0.90600 0.37220 0.09700
H 	H 	0.58130 0.92720 0.30690 0.10400
C 	C 	0.60454 0.01000 0.16120 0.17400
H 	H 	0.61450 0.02720 0.18970 -0.03800
C 	C 	0.62548 0.99160 0.11470 -0.27700
H 	H 	0.64850 0.99630 0.11450 0.11700
C 	C 	0.61463 0.96960 0.07420 0.19800
C 	C 	0.58270 0.95740 0.09390 -0.19800
H 	H 	0.57490 0.93690 0.07460 0.09000
C 	C 	0.56324 0.97600 0.14130 0.09500
H 	H 	0.54200 0.96820 0.15530 0.00000
C 	C 	0.63674 0.95090 0.01960 -0.19300
H 	H 	0.65520 0.96570 0.00520 0.08100
H 	H 	0.64650 0.93180 0.04660 0.07700
Mn	Mn	0.38697 0.97166 0.52845 1.33300
O 	O 	0.34861 0.99184 0.56021 -0.47200
O 	O 	0.38522 0.05197 0.38245 -0.43100
O 	O 	0.42776 0.95628 0.48463 -0.42400
N 	N 	0.39430 0.00636 0.45486 -0.28500
N 	N 	0.42449 0.00378 0.41515 -0.22600
N 	N 	0.68937 0.89096 0.80373 -0.23100
C 	C 	0.33159 0.01651 0.52820 0.29600
C 	C 	0.29992 0.02244 0.55600 -0.26200
H 	H 	0.29170 0.00910 0.59580 0.12900
C 	C 	0.28013 0.04742 0.52700 0.13400
H 	H 	0.25870 0.05100 0.54700 -0.02200
C 	C 	0.29161 0.06733 0.46840 -0.19700
H 	H 	0.27810 0.08430 0.44810 0.10600
C 	C 	0.32283 0.06190 0.44060 0.13200
H 	H 	0.33090 0.07550 0.40120 0.01100
C 	C 	0.34322 0.03664 0.46910 -0.23900
C 	C 	0.37578 0.03191 0.43390 0.27800
C 	C 	0.43972 0.97707 0.43520 0.21800
C 	C 	0.47168 0.96792 0.39800 -0.16500
H 	H 	0.48180 0.98770 0.37490 0.07000
H 	H 	0.48730 0.95890 0.43560 0.07900
C 	C 	0.46430 0.94100 0.33550 -0.26200
H 	H 	0.45120 0.95100 0.29510 0.10000
H 	H 	0.48520 0.93270 0.31500 0.10000
H 	H 	0.45190 0.92260 0.35770 0.10400
C 	C 	0.67195 0.91736 0.78370 0.10400
H 	H 	0.67430 0.92530 0.73380 -0.00300
C 	C 	0.65062 0.93391 0.83080 -0.19200
H 	H 	0.63890 0.95280 0.81380 0.09600
C 	C 	0.64667 0.92255 0.90270 0.12300
C 	C 	0.66450 0.89580 0.92380 -0.17900
H 	H 	0.66220 0.88720 0.97310 0.08300
C 	C 	0.68629 0.88075 0.87410 0.09700
H 	H 	0.69930 0.86270 0.89100 -0.01000
C 	C 	0.62260 0.93960 0.95650 -0.11400
H 	H 	0.61210 0.95840 0.93010 0.06200
H 	H 	0.60500 0.92370 0.97020 0.05300
Mn	Mn	0.57398 0.45666 0.32625 1.31900
O 	O 	0.59527 0.48375 0.25629 -0.48500
O 	O 	0.49515 0.47863 0.18616 -0.41300
O 	O 	0.54523 0.43047 0.39000 -0.42900
N 	N 	0.53207 0.46405 0.27644 -0.29400
N 	N 	0.50459 0.44840 0.31097 -0.22700
C 	C 	0.58366 0.49796 0.19680 0.30400
C 	C 	0.60613 0.51669 0.15240 -0.27100
H 	H 	0.62800 0.52040 0.17020 0.12600
C 	C 	0.59668 0.52950 0.08410 0.14100
H 	H 	0.61210 0.54240 0.05660 -0.02200
C 	C 	0.56580 0.52420 0.05420 -0.20000
H 	H 	0.56060 0.53120 0.00470 0.10100
C 	C 	0.54202 0.50800 0.09980 0.12800
H 	H 	0.51990 0.50580 0.08260 0.00300
C 	C 	0.55083 0.49549 0.16960 -0.25000
C 	C 	0.52475 0.47871 0.21230 0.27200
C 	C 	0.51400 0.43179 0.36989 0.20600
C 	C 	0.48874 0.41354 0.41510 -0.14800
H 	H 	0.47510 0.40010 0.38050 0.06300
H 	H 	0.47400 0.42990 0.43930 0.07300
C 	C 	0.50223 0.39118 0.47480 -0.25300
H 	H 	0.51380 0.37260 0.45120 0.10000
H 	H 	0.48400 0.38280 0.50560 0.09500
H 	H 	0.51770 0.40350 0.50650 0.10400
Mn	Mn	0.45817 0.46618 0.25312 1.33300
O 	O 	0.44900 0.42513 0.21146 -0.47100
O 	O 	0.38472 0.43422 0.39885 -0.41200
O 	O 	0.46085 0.50786 0.30561 -0.42000
N 	N 	0.42311 0.46006 0.32597 -0.28600
N 	N 	0.41764 0.48790 0.37243 -0.22600
N 	N 	0.42550 0.49378 0.16890 -0.24500
C 	C 	0.42687 0.40256 0.23050 0.29500
C 	C 	0.42483 0.37384 0.18530 -0.26300
H 	H 	0.43910 0.37160 0.14320 0.12500
C 	C 	0.40260 0.34928 0.20140 0.13900
H 	H 	0.40190 0.33020 0.17030 -0.02800
C 	C 	0.38113 0.35151 0.26190 -0.20300
H 	H 	0.36570 0.33430 0.27200 0.09800
C 	C 	0.38257 0.37912 0.30710 0.12600
H 	H 	0.36790 0.38080 0.34860 0.00500
C 	C 	0.40530 0.40506 0.29310 -0.23500
C 	C 	0.40421 0.43433 0.34226 0.27000
C 	C 	0.43814 0.51136 0.35660 0.21500
C 	C 	0.43519 0.54402 0.39480 -0.14200
H 	H 	0.45300 0.54590 0.43260 0.06600
H 	H 	0.41380 0.54480 0.42190 0.05600
C 	C 	0.43710 0.57363 0.34270 -0.26600
H 	H 	0.45810 0.57310 0.31530 0.10700
H 	H 	0.43570 0.59400 0.37220 0.09700
H 	H 	0.41870 0.57280 0.30690 0.10400
C 	C 	0.39546 0.49000 0.16120 0.17400
H 	H 	0.38550 0.47280 0.18970 -0.03800
C 	C 	0.37452 0.50840 0.11470 -0.27700
H 	H 	0.35150 0.50370 0.11450 0.11700
C 	C 	0.38537 0.53040 0.07420 0.19800
C 	C 	0.41730 0.54260 0.09390 -0.19800
H 	H 	0.42510 0.56310 0.07460 0.09000
C 	C 	0.43676 0.52400 0.14130 0.09500
H 	H 	0.45800 0.53180 0.15530 0.00000
C 	C 	0.36326 0.54910 0.01960 -0.19300
H 	H 	0.34480 0.53430 0.00520 0.08100
H 	H 	0.35350 0.56820 0.04660 0.07700
Mn	Mn	0.61303 0.52834 0.52845 1.33300
O 	O 	0.65139 0.50816 0.56021 -0.47200
O 	O 	0.61478 0.44803 0.38245 -0.43100
O 	O 	0.57224 0.54372 0.48463 -0.42400
N 	N 	0.60570 0.49364 0.45486 -0.28500
N 	N 	0.57551 0.49622 0.41515 -0.22600
N 	N 	0.31063 0.60904 0.80373 -0.23100
C 	C 	0.66841 0.48349 0.52820 0.29600
C 	C 	0.70008 0.47756 0.55600 -0.26200
H 	H 	0.70830 0.49090 0.59580 0.12900
C 	C 	0.71987 0.45258 0.52700 0.13400
H 	H 	0.74130 0.44900 0.54700 -0.02200
C 	C 	0.70839 0.43267 0.46840 -0.19700
H 	H 	0.72190 0.41570 0.44810 0.10600
C 	C 	0.67717 0.43810 0.44060 0.13200
H 	H 	0.66910 0.42450 0.40120 0.01100
C 	C 	0.65678 0.46336 0.46910 -0.23900
C 	C 	0.62422 0.46809 0.43390 0.27800
C 	C 	0.56028 0.52293 0.43520 0.21800
C 	C 	0.52832 0.53208 0.39800 -0.16500
H 	H 	0.51820 0.51230 0.37490 0.07000
H 	H 	0.51270 0.54110 0.43560 0.07900
C 	C 	0.53570 0.55900 0.33550 -0.26200
H 	H 	0.54880 0.54900 0.29510 0.10000
H 	H 	0.51480 0.56730 0.31500 0.10000
H 	H 	0.54810 0.57740 0.35770 0.10400
C 	C 	0.32805 0.58264 0.78370 0.10400
H 	H 	0.32570 0.57470 0.73380 -0.00300
C 	C 	0.34938 0.56609 0.83080 -0.19200
H 	H 	0.36110 0.54720 0.81380 0.09600
C 	C 	0.35333 0.57745 0.90270 0.12300
C 	C 	0.33550 0.60420 0.92380 -0.17900
H 	H 	0.33780 0.61280 0.97310 0.08300
C 	C 	0.31371 0.61925 0.87410 0.09700
H 	H 	0.30070 0.63730 0.89100 -0.01000
C 	C 	0.37740 0.56040 0.95650 -0.11300
H 	H 	0.38790 0.54160 0.93010 0.06200
H 	H 	0.39500 0.57630 0.97020 0.05300
Mn	Mn	0.07398 0.95666 0.82625 1.31900
O 	O 	0.09527 0.98375 0.75629 -0.48500
O 	O 	0.99515 0.97863 0.68616 -0.41300
O 	O 	0.04523 0.93047 0.89000 -0.42900
N 	N 	0.03207 0.96405 0.77644 -0.29400
N 	N 	0.00459 0.94840 0.81097 -0.22700
C 	C 	0.08366 0.99796 0.69680 0.30400
C 	C 	0.10613 0.01669 0.65240 -0.27100
H 	H 	0.12800 0.02040 0.67020 0.12600
C 	C 	0.09668 0.02950 0.58410 0.14100
H 	H 	0.11210 0.04240 0.55660 -0.02200
C 	C 	0.06580 0.02420 0.55420 -0.20000
H 	H 	0.06060 0.03120 0.50470 0.10000
C 	C 	0.04202 0.00800 0.59980 0.12800
H 	H 	0.01990 0.00580 0.58260 0.00300
C 	C 	0.05083 0.99549 0.66960 -0.25000
C 	C 	0.02475 0.97871 0.71230 0.27200
C 	C 	0.01400 0.93179 0.86989 0.20600
C 	C 	0.98874 0.91354 0.91510 -0.14700
H 	H 	0.97510 0.90010 0.88050 0.06200
H 	H 	0.97400 0.92990 0.93930 0.07200
C 	C 	0.00223 0.89118 0.97480 -0.25600
H 	H 	0.01380 0.87260 0.95120 0.10100
H 	H 	0.98400 0.88280 0.00560 0.09600
H 	H 	0.01770 0.90350 0.00650 0.10500
Mn	Mn	0.95817 0.96618 0.75312 1.33300
O 	O 	0.94900 0.92513 0.71146 -0.47100
O 	O 	0.88472 0.93422 0.89885 -0.41200
O 	O 	0.96085 0.00786 0.80561 -0.42000
N 	N 	0.92311 0.96006 0.82597 -0.28600
N 	N 	0.91764 0.98790 0.87243 -0.22700
N 	N 	0.92550 0.99378 0.66890 -0.24500
C 	C 	0.92687 0.90256 0.73050 0.29500
C 	C 	0.92483 0.87384 0.68530 -0.26300
H 	H 	0.93910 0.87160 0.64320 0.12500
C 	C 	0.90260 0.84928 0.70140 0.13900
H 	H 	0.90190 0.83020 0.67030 -0.02800
C 	C 	0.88113 0.85151 0.76190 -0.20300
H 	H 	0.86570 0.83430 0.77200 0.09800
C 	C 	0.88257 0.87912 0.80710 0.12600
H 	H 	0.86790 0.88080 0.84860 0.00500
C 	C 	0.90530 0.90506 0.79310 -0.23500
C 	C 	0.90421 0.93433 0.84226 0.27000
C 	C 	0.93814 0.01136 0.85660 0.21500
C 	C 	0.93519 0.04402 0.89480 -0.14200
H 	H 	0.95300 0.04590 0.93260 0.06600
H 	H 	0.91380 0.04480 0.92190 0.05600
C 	C 	0.93710 0.07363 0.84270 -0.26600
H 	H 	0.95810 0.07310 0.81530 0.10700
H 	H 	0.93570 0.09400 0.87220 0.09700
H 	H 	0.91870 0.07280 0.80690 0.10400
C 	C 	0.89546 0.99000 0.66120 0.17400
H 	H 	0.88550 0.97280 0.68970 -0.03800
C 	C 	0.87452 0.00840 0.61470 -0.27700
H 	H 	0.85150 0.00370 0.61450 0.11700
C 	C 	0.88537 0.03040 0.57420 0.19800
C 	C 	0.91730 0.04260 0.59390 -0.19800
H 	H 	0.92510 0.06310 0.57460 0.09000
C 	C 	0.93676 0.02400 0.64130 0.09500
H 	H 	0.95800 0.03180 0.65530 0.00000
C 	C 	0.86326 0.04910 0.51960 -0.19400
H 	H 	0.84480 0.03430 0.50520 0.08100
H 	H 	0.85350 0.06820 0.54660 0.07700
Mn	Mn	0.11303 0.02834 0.02845 1.33300
O 	O 	0.15139 0.00816 0.06021 -0.47200
O 	O 	0.11478 0.94803 0.88245 -0.43100
O 	O 	0.07224 0.04372 0.98463 -0.42400
N 	N 	0.10570 0.99364 0.95486 -0.28500
N 	N 	0.07551 0.99622 0.91515 -0.22600
N 	N 	0.81063 0.10904 0.30373 -0.23100
C 	C 	0.16841 0.98349 0.02820 0.29600
C 	C 	0.20008 0.97756 0.05600 -0.26200
H 	H 	0.20830 0.99090 0.09580 0.12900
C 	C 	0.21987 0.95258 0.02700 0.13500
H 	H 	0.24130 0.94900 0.04700 -0.02200
C 	C 	0.20839 0.93267 0.96840 -0.19800
H 	H 	0.22190 0.91570 0.94810 0.10600
C 	C 	0.17717 0.93810 0.94060 0.13200
H 	H 	0.16910 0.92450 0.90120 0.01100
C 	C 	0.15678 0.96336 0.96910 -0.23900
C 	C 	0.12422 0.96809 0.93390 0.27800
C 	C 	0.06028 0.02293 0.93520 0.21800
C 	C 	0.02832 0.03208 0.89800 -0.16500
H 	H 	0.01820 0.01230 0.87490 0.07000
H 	H 	0.01270 0.04110 0.93560 0.07900
C 	C 	0.03570 0.05900 0.83550 -0.26200
H 	H 	0.04880 0.04900 0.79510 0.10000
H 	H 	0.01480 0.06730 0.81500 0.10000
H 	H 	0.04810 0.07740 0.85770 0.10400
C 	C 	0.82805 0.08264 0.28370 0.10400
H 	H 	0.82570 0.07470 0.23380 -0.00300
C 	C 	0.84938 0.06609 0.33080 -0.19200
H 	H 	0.86110 0.04720 0.31380 0.09600
C 	C 	0.85333 0.07745 0.40270 0.12300
C 	C 	0.83550 0.10420 0.42380 -0.17900
H 	H 	0.83780 0.11280 0.47310 0.08300
C 	C 	0.81371 0.11925 0.37410 0.09700
H 	H 	0.80070 0.13730 0.39100 -0.01000
C 	C 	0.87740 0.06040 0.45650 -0.11300
H 	H 	0.88790 0.04160 0.43010 0.06200
H 	H 	0.89500 0.07630 0.47020 0.05300
Mn	Mn	0.20666 0.17602 0.07625 1.31900
O 	O 	0.23375 0.15473 0.00629 -0.48600
O 	O 	0.22863 0.25485 0.93616 -0.41300
O 	O 	0.18047 0.20477 0.14000 -0.42900
N 	N 	0.21405 0.21793 0.02644 -0.29400
N 	N 	0.19840 0.24541 0.06097 -0.22700
C 	C 	0.24796 0.16634 0.94680 0.30500
C 	C 	0.26669 0.14387 0.90240 -0.27200
H 	H 	0.27040 0.12200 0.92020 0.12600
C 	C 	0.27950 0.15332 0.83410 0.14100
H 	H 	0.29240 0.13790 0.80660 -0.02200
C 	C 	0.27420 0.18420 0.80420 -0.20100
H 	H 	0.28120 0.18940 0.75470 0.10100
C 	C 	0.25800 0.20798 0.84980 0.12800
H 	H 	0.25580 0.23010 0.83260 0.00300
C 	C 	0.24549 0.19917 0.91960 -0.25100
C 	C 	0.22871 0.22525 0.96230 0.27200
C 	C 	0.18179 0.23600 0.11989 0.20600
C 	C 	0.16354 0.26126 0.16510 -0.14800
H 	H 	0.15010 0.27490 0.13050 0.06300
H 	H 	0.17990 0.27600 0.18930 0.07300
C 	C 	0.14118 0.24777 0.22480 -0.25300
H 	H 	0.12260 0.23620 0.20120 0.10000
H 	H 	0.13280 0.26600 0.25560 0.09500
H 	H 	0.15350 0.23230 0.25650 0.10400
Mn	Mn	0.21618 0.29183 0.00312 1.33300
O 	O 	0.17513 0.30100 0.96146 -0.47100
O 	O 	0.18422 0.36528 0.14885 -0.41200
O 	O 	0.25786 0.28915 0.05561 -0.42000
N 	N 	0.21006 0.32689 0.07597 -0.28600
N 	N 	0.23790 0.33236 0.12243 -0.22600
N 	N 	0.24378 0.32450 0.91890 -0.24400
C 	C 	0.15256 0.32313 0.98050 0.29500
C 	C 	0.12384 0.32517 0.93530 -0.26400
H 	H 	0.12160 0.31090 0.89320 0.12500
C 	C 	0.09928 0.34740 0.95140 0.14000
H 	H 	0.08020 0.34810 0.92030 -0.02900
C 	C 	0.10151 0.36887 0.01190 -0.20400
H 	H 	0.08430 0.38430 0.02200 0.09800
C 	C 	0.12912 0.36743 0.05710 0.12700
H 	H 	0.13080 0.38210 0.09860 0.00500
C 	C 	0.15506 0.34470 0.04310 -0.23600
C 	C 	0.18433 0.34579 0.09226 0.27000
C 	C 	0.26136 0.31186 0.10660 0.21500
C 	C 	0.29402 0.31481 0.14480 -0.14200
H 	H 	0.29590 0.29700 0.18260 0.06600
H 	H 	0.29480 0.33620 0.17190 0.05600
C 	C 	0.32363 0.31290 0.09270 -0.26600
H 	H 	0.32310 0.29190 0.06530 0.10700
H 	H 	0.34400 0.31430 0.12220 0.09700
H 	H 	0.32280 0.33130 0.05690 0.10400
C 	C 	0.24000 0.35454 0.91120 0.17400
H 	H 	0.22280 0.36450 0.93970 -0.03800
C 	C 	0.25840 0.37548 0.86470 -0.27700
H 	H 	0.25370 0.39850 0.86450 0.11700
C 	C 	0.28040 0.36463 0.82420 0.19800
C 	C 	0.29260 0.33270 0.84390 -0.19800
H 	H 	0.31310 0.32490 0.82460 0.09000
C 	C 	0.27400 0.31324 0.89130 0.09500
H 	H 	0.28180 0.29200 0.90530 0.00000
C 	C 	0.29910 0.38674 0.76960 -0.19400
H 	H 	0.28430 0.40520 0.75520 0.08100
H 	H 	0.31820 0.39650 0.79660 0.07700
Mn	Mn	0.27834 0.13697 0.27845 1.33300
O 	O 	0.25816 0.09861 0.31021 -0.47200
O 	O 	0.19803 0.13522 0.13245 -0.43100
O 	O 	0.29372 0.17776 0.23463 -0.42400
N 	N 	0.24364 0.14430 0.20486 -0.28500
N 	N 	0.24622 0.17449 0.16515 -0.22600
N 	N 	0.35904 0.43937 0.55373 -0.23100
C 	C 	0.23349 0.08159 0.27820 0.29600
C 	C 	0.22756 0.04992 0.30600 -0.26200
H 	H 	0.24090 0.04170 0.34580 0.12900
C 	C 	0.20258 0.03013 0.27700 0.13400
H 	H 	0.19900 0.00870 0.29700 -0.02200
C 	C 	0.18267 0.04161 0.21840 -0.19700
H 	H 	0.16570 0.02810 0.19810 0.10600
C 	C 	0.18810 0.07283 0.19060 0.13200
H 	H 	0.17450 0.08090 0.15120 0.01100
C 	C 	0.21336 0.09322 0.21910 -0.23900
C 	C 	0.21809 0.12578 0.18390 0.27800
C 	C 	0.27293 0.18972 0.18520 0.21800
C 	C 	0.28208 0.22168 0.14800 -0.16500
H 	H 	0.26230 0.23180 0.12490 0.07000
H 	H 	0.29110 0.23730 0.18560 0.07900
C 	C 	0.30900 0.21430 0.08550 -0.26200
H 	H 	0.29900 0.20120 0.04510 0.10000
H 	H 	0.31730 0.23520 0.06500 0.10000
H 	H 	0.32740 0.20190 0.10770 0.10400
C 	C 	0.33264 0.42195 0.53370 0.10400
H 	H 	0.32470 0.42430 0.48380 -0.00300
C 	C 	0.31609 0.40062 0.58080 -0.19200
H 	H 	0.29720 0.38890 0.56380 0.09600
C 	C 	0.32745 0.39667 0.65270 0.12300
C 	C 	0.35420 0.41450 0.67380 -0.17900
H 	H 	0.36280 0.41220 0.72310 0.08300
C 	C 	0.36925 0.43629 0.62410 0.09700
H 	H 	0.38730 0.44930 0.64100 -0.01000
C 	C 	0.31040 0.37260 0.70650 -0.11300
H 	H 	0.29160 0.36210 0.68010 0.06200
H 	H 	0.32630 0.35500 0.72020 0.05300
Mn	Mn	0.70666 0.67602 0.57625 1.31900
O 	O 	0.73375 0.65473 0.50629 -0.48500
O 	O 	0.72863 0.75485 0.43616 -0.41300
O 	O 	0.68047 0.70477 0.64000 -0.42900
N 	N 	0.71405 0.71793 0.52644 -0.29400
N 	N 	0.69840 0.74541 0.56097 -0.22700
C 	C 	0.74796 0.66634 0.44680 0.30400
C 	C 	0.76669 0.64387 0.40240 -0.27100
H 	H 	0.77040 0.62200 0.42020 0.12600
C 	C 	0.77950 0.65332 0.33410 0.14100
H 	H 	0.79240 0.63790 0.30660 -0.02200
C 	C 	0.77420 0.68420 0.30420 -0.20000
H 	H 	0.78120 0.68940 0.25470 0.10000
C 	C 	0.75800 0.70798 0.34980 0.12800
H 	H 	0.75580 0.73010 0.33260 0.00300
C 	C 	0.74549 0.69917 0.41960 -0.25000
C 	C 	0.72871 0.72525 0.46230 0.27200
C 	C 	0.68179 0.73600 0.61989 0.20600
C 	C 	0.66354 0.76126 0.66510 -0.14800
H 	H 	0.65010 0.77490 0.63050 0.06300
H 	H 	0.67990 0.77600 0.68930 0.07300
C 	C 	0.64118 0.74777 0.72480 -0.25300
H 	H 	0.62260 0.73620 0.70120 0.10000
H 	H 	0.63280 0.76600 0.75560 0.09500
H 	H 	0.65350 0.73230 0.75650 0.10400
Mn	Mn	0.71618 0.79183 0.50312 1.33300
O 	O 	0.67513 0.80100 0.46146 -0.47100
O 	O 	0.68422 0.86528 0.64885 -0.41200
O 	O 	0.75786 0.78915 0.55561 -0.42000
N 	N 	0.71006 0.82689 0.57597 -0.28600
N 	N 	0.73790 0.83236 0.62243 -0.22600
N 	N 	0.74378 0.82450 0.41890 -0.24500
C 	C 	0.65256 0.82313 0.48050 0.29500
C 	C 	0.62384 0.82517 0.43530 -0.26300
H 	H 	0.62160 0.81090 0.39320 0.12500
C 	C 	0.59928 0.84740 0.45140 0.13900
H 	H 	0.58020 0.84810 0.42030 -0.02800
C 	C 	0.60151 0.86887 0.51190 -0.20300
H 	H 	0.58430 0.88430 0.52200 0.09800
C 	C 	0.62912 0.86743 0.55710 0.12600
H 	H 	0.63080 0.88210 0.59860 0.00500
C 	C 	0.65506 0.84470 0.54310 -0.23500
C 	C 	0.68433 0.84579 0.59226 0.27000
C 	C 	0.76136 0.81186 0.60660 0.21500
C 	C 	0.79402 0.81481 0.64480 -0.14200
H 	H 	0.79590 0.79700 0.68260 0.06600
H 	H 	0.79480 0.83620 0.67190 0.05600
C 	C 	0.82363 0.81290 0.59270 -0.26600
H 	H 	0.82310 0.79190 0.56530 0.10700
H 	H 	0.84400 0.81430 0.62220 0.09700
H 	H 	0.82280 0.83130 0.55690 0.10400
C 	C 	0.74000 0.85454 0.41120 0.17400
H 	H 	0.72280 0.86450 0.43970 -0.03800
C 	C 	0.75840 0.87548 0.36470 -0.27700
H 	H 	0.75370 0.89850 0.36450 0.11700
C 	C 	0.78040 0.86463 0.32420 0.19800
C 	C 	0.79260 0.83270 0.34390 -0.19800
H 	H 	0.81310 0.82490 0.32460 0.09000
C 	C 	0.77400 0.81324 0.39130 0.09500
H 	H 	0.78180 0.79200 0.40530 0.00000
C 	C 	0.79910 0.88674 0.26960 -0.19300
H 	H 	0.78430 0.90520 0.25520 0.08100
H 	H 	0.81820 0.89650 0.29660 0.07700
Mn	Mn	0.77834 0.63697 0.77845 1.33300
O 	O 	0.75816 0.59861 0.81021 -0.47200
O 	O 	0.69803 0.63522 0.63245 -0.43100
O 	O 	0.79372 0.67776 0.73463 -0.42400
N 	N 	0.74364 0.64430 0.70486 -0.28500
N 	N 	0.74622 0.67449 0.66515 -0.22600
N 	N 	0.85904 0.93937 0.05373 -0.23200
C 	C 	0.73349 0.58159 0.77820 0.29600
C 	C 	0.72756 0.54992 0.80600 -0.26200
H 	H 	0.74090 0.54170 0.84580 0.12900
C 	C 	0.70258 0.53013 0.77700 0.13400
H 	H 	0.69900 0.50870 0.79700 -0.02200
C 	C 	0.68267 0.54161 0.71840 -0.19700
H 	H 	0.66570 0.52810 0.69810 0.10600
C 	C 	0.68810 0.57283 0.69060 0.13200
H 	H 	0.67450 0.58090 0.65120 0.01100
C 	C 	0.71336 0.59322 0.71910 -0.23900
C 	C 	0.71809 0.62578 0.68390 0.27800
C 	C 	0.77293 0.68972 0.68520 0.21800
C 	C 	0.78208 0.72168 0.64800 -0.16500
H 	H 	0.76230 0.73180 0.62490 0.07000
H 	H 	0.79110 0.73730 0.68560 0.07900
C 	C 	0.80900 0.71430 0.58550 -0.26200
H 	H 	0.79900 0.70120 0.54510 0.10000
H 	H 	0.81730 0.73520 0.56500 0.10000
H 	H 	0.82740 0.70190 0.60770 0.10400
C 	C 	0.83264 0.92195 0.03370 0.10500
H 	H 	0.82470 0.92430 0.98380 -0.00400
C 	C 	0.81609 0.90062 0.08080 -0.19200
H 	H 	0.79720 0.88890 0.06380 0.09600
C 	C 	0.82745 0.89667 0.15270 0.12300
C 	C 	0.85420 0.91450 0.17380 -0.17900
H 	H 	0.86280 0.91220 0.22310 0.08300
C 	C 	0.86925 0.93629 0.12410 0.09700
H 	H 	0.88730 0.94930 0.14100 -0.01000
C 	C 	0.81040 0.87260 0.20650 -0.11300
H 	H 	0.79160 0.86210 0.18010 0.06200
H 	H 	0.82630 0.85500 0.22020 0.05300
Mn	Mn	0.29334 0.82398 0.57625 1.31900
O 	O 	0.26625 0.84527 0.50629 -0.48500
O 	O 	0.27137 0.74515 0.43616 -0.41300
O 	O 	0.31953 0.79523 0.64000 -0.42900
N 	N 	0.28595 0.78207 0.52644 -0.29400
N 	N 	0.30160 0.75459 0.56097 -0.22700
C 	C 	0.25204 0.83366 0.44680 0.30400
C 	C 	0.23331 0.85613 0.40240 -0.27100
H 	H 	0.22960 0.87800 0.42020 0.12600
C 	C 	0.22050 0.84668 0.33410 0.14100
H 	H 	0.20760 0.86210 0.30660 -0.02200
C 	C 	0.22580 0.81580 0.30420 -0.20000
H 	H 	0.21880 0.81060 0.25470 0.10000
C 	C 	0.24200 0.79202 0.34980 0.12800
H 	H 	0.24420 0.76990 0.33260 0.00300
C 	C 	0.25451 0.80083 0.41960 -0.25000
C 	C 	0.27129 0.77475 0.46230 0.27200
C 	C 	0.31821 0.76400 0.61989 0.20600
C 	C 	0.33646 0.73874 0.66510 -0.14800
H 	H 	0.34990 0.72510 0.63050 0.06300
H 	H 	0.32010 0.72400 0.68930 0.07300
C 	C 	0.35882 0.75223 0.72480 -0.25300
H 	H 	0.37740 0.76380 0.70120 0.10000
H 	H 	0.36720 0.73400 0.75560 0.09500
H 	H 	0.34650 0.76770 0.75650 0.10400
Mn	Mn	0.28382 0.70817 0.50312 1.33300
O 	O 	0.32487 0.69900 0.46146 -0.47100
O 	O 	0.31578 0.63472 0.64885 -0.41200
O 	O 	0.24214 0.71085 0.55561 -0.42000
N 	N 	0.28994 0.67311 0.57597 -0.28600
N 	N 	0.26210 0.66764 0.62243 -0.22600
N 	N 	0.25622 0.67550 0.41890 -0.24500
C 	C 	0.34744 0.67687 0.48050 0.29500
C 	C 	0.37616 0.67483 0.43530 -0.26300
H 	H 	0.37840 0.68910 0.39320 0.12500
C 	C 	0.40072 0.65260 0.45140 0.13900
H 	H 	0.41980 0.65190 0.42030 -0.02800
C 	C 	0.39849 0.63113 0.51190 -0.20300
H 	H 	0.41570 0.61570 0.52200 0.09800
C 	C 	0.37088 0.63257 0.55710 0.12600
H 	H 	0.36920 0.61790 0.59860 0.00500
C 	C 	0.34494 0.65530 0.54310 -0.23500
C 	C 	0.31567 0.65421 0.59226 0.27000
C 	C 	0.23864 0.68814 0.60660 0.21500
C 	C 	0.20598 0.68519 0.64480 -0.14200
H 	H 	0.20410 0.70300 0.68260 0.06600
H 	H 	0.20520 0.66380 0.67190 0.05600
C 	C 	0.17637 0.68710 0.59270 -0.26600
H 	H 	0.17690 0.70810 0.56530 0.10700
H 	H 	0.15600 0.68570 0.62220 0.09700
H 	H 	0.17720 0.66870 0.55690 0.10400
C 	C 	0.26000 0.64546 0.41120 0.17400
H 	H 	0.27720 0.63550 0.43970 -0.03800
C 	C 	0.24160 0.62452 0.36470 -0.27700
H 	H 	0.24630 0.60150 0.36450 0.11700
C 	C 	0.21960 0.63537 0.32420 0.19800
C 	C 	0.20740 0.66730 0.34390 -0.19800
H 	H 	0.18690 0.67510 0.32460 0.09000
C 	C 	0.22600 0.68676 0.39130 0.09500
H 	H 	0.21820 0.70800 0.40530 0.00000
C 	C 	0.20090 0.61326 0.26960 -0.19400
H 	H 	0.21570 0.59480 0.25520 0.08100
H 	H 	0.18180 0.60350 0.29660 0.07700
Mn	Mn	0.22166 0.86303 0.77845 1.33300
O 	O 	0.24184 0.90139 0.81021 -0.47200
O 	O 	0.30197 0.86478 0.63245 -0.43100
O 	O 	0.20628 0.82224 0.73463 -0.42400
N 	N 	0.25636 0.85570 0.70486 -0.28500
N 	N 	0.25378 0.82551 0.66515 -0.22600
N 	N 	0.14096 0.56063 0.05373 -0.23200
C 	C 	0.26651 0.91841 0.77820 0.29600
C 	C 	0.27244 0.95008 0.80600 -0.26200
H 	H 	0.25910 0.95830 0.84580 0.12900
C 	C 	0.29742 0.96987 0.77700 0.13400
H 	H 	0.30100 0.99130 0.79700 -0.02200
C 	C 	0.31733 0.95839 0.71840 -0.19700
H 	H 	0.33430 0.97190 0.69810 0.10600
C 	C 	0.31190 0.92717 0.69060 0.13200
H 	H 	0.32550 0.91910 0.65120 0.01100
C 	C 	0.28664 0.90678 0.71910 -0.23900
C 	C 	0.28191 0.87422 0.68390 0.27800
C 	C 	0.22707 0.81028 0.68520 0.21800
C 	C 	0.21792 0.77832 0.64800 -0.16500
H 	H 	0.23770 0.76820 0.62490 0.07000
H 	H 	0.20890 0.76270 0.68560 0.07900
C 	C 	0.19100 0.78570 0.58550 -0.26200
H 	H 	0.20100 0.79880 0.54510 0.10000
H 	H 	0.18270 0.76480 0.56500 0.10000
H 	H 	0.17260 0.79810 0.60770 0.10400
C 	C 	0.16736 0.57805 0.03370 0.10500
H 	H 	0.17530 0.57570 0.98380 -0.00400
C 	C 	0.18391 0.59938 0.08080 -0.19200
H 	H 	0.20280 0.61110 0.06380 0.09600
C 	C 	0.17255 0.60333 0.15270 0.12300
C 	C 	0.14580 0.58550 0.17380 -0.17900
H 	H 	0.13720 0.58780 0.22310 0.08300
C 	C 	0.13075 0.56371 0.12410 0.09700
H 	H 	0.11270 0.55070 0.14100 -0.01000
C 	C 	0.18960 0.62740 0.20650 -0.11300
H 	H 	0.20840 0.63790 0.18010 0.06200
H 	H 	0.17370 0.64500 0.22020 0.05300
Mn	Mn	0.79334 0.32398 0.07625 1.31900
O 	O 	0.76625 0.34527 0.00629 -0.48600
O 	O 	0.77137 0.24515 0.93616 -0.41300
O 	O 	0.81953 0.29523 0.14000 -0.42900
N 	N 	0.78595 0.28207 0.02644 -0.29400
N 	N 	0.80160 0.25459 0.06097 -0.22700
C 	C 	0.75204 0.33366 0.94680 0.30500
C 	C 	0.73331 0.35613 0.90240 -0.27200
H 	H 	0.72960 0.37800 0.92020 0.12600
C 	C 	0.72050 0.34668 0.83410 0.14100
H 	H 	0.70760 0.36210 0.80660 -0.02200
C 	C 	0.72580 0.31580 0.80420 -0.20100
H 	H 	0.71880 0.31060 0.75470 0.10100
C 	C 	0.74200 0.29202 0.84980 0.12800
H 	H 	0.74420 0.26990 0.83260 0.00300
C 	C 	0.75451 0.30083 0.91960 -0.25100
C 	C 	0.77129 0.27475 0.96230 0.27200
C 	C 	0.81821 0.26400 0.11989 0.20600
C 	C 	0.83646 0.23874 0.16510 -0.14800
H 	H 	0.84990 0.22510 0.13050 0.06300
H 	H 	0.82010 0.22400 0.18930 0.07300
C 	C 	0.85882 0.25223 0.22480 -0.25300
H 	H 	0.87740 0.26380 0.20120 0.10000
H 	H 	0.86720 0.23400 0.25560 0.09500
H 	H 	0.84650 0.26770 0.25650 0.10400
Mn	Mn	0.78382 0.20817 0.00312 1.33300
O 	O 	0.82487 0.19900 0.96146 -0.47100
O 	O 	0.81578 0.13472 0.14885 -0.41200
O 	O 	0.74214 0.21085 0.05561 -0.42000
N 	N 	0.78994 0.17311 0.07597 -0.28600
N 	N 	0.76210 0.16764 0.12243 -0.22700
N 	N 	0.75622 0.17550 0.91890 -0.24400
C 	C 	0.84744 0.17687 0.98050 0.29600
C 	C 	0.87616 0.17483 0.93530 -0.26400
H 	H 	0.87840 0.18910 0.89320 0.12500
C 	C 	0.90072 0.15260 0.95140 0.14000
H 	H 	0.91980 0.15190 0.92030 -0.02900
C 	C 	0.89849 0.13113 0.01190 -0.20400
H 	H 	0.91570 0.11570 0.02200 0.09800
C 	C 	0.87088 0.13257 0.05710 0.12700
H 	H 	0.86920 0.11790 0.09860 0.00500
C 	C 	0.84494 0.15530 0.04310 -0.23600
C 	C 	0.81567 0.15421 0.09226 0.27000
C 	C 	0.73864 0.18814 0.10660 0.21500
C 	C 	0.70598 0.18519 0.14480 -0.14200
H 	H 	0.70410 0.20300 0.18260 0.06600
H 	H 	0.70520 0.16380 0.17190 0.05600
C 	C 	0.67637 0.18710 0.09270 -0.26600
H 	H 	0.67690 0.20810 0.06530 0.10700
H 	H 	0.65600 0.18570 0.12220 0.09700
H 	H 	0.67720 0.16870 0.05690 0.10400
C 	C 	0.76000 0.14546 0.91120 0.17400
H 	H 	0.77720 0.13550 0.93970 -0.03800
C 	C 	0.74160 0.12452 0.86470 -0.27700
H 	H 	0.74630 0.10150 0.86450 0.11700
C 	C 	0.71960 0.13537 0.82420 0.19800
C 	C 	0.70740 0.16730 0.84390 -0.19800
H 	H 	0.68690 0.17510 0.82460 0.09000
C 	C 	0.72600 0.18676 0.89130 0.09500
H 	H 	0.71820 0.20800 0.90530 0.00000
C 	C 	0.70090 0.11326 0.76960 -0.19400
H 	H 	0.71570 0.09480 0.75520 0.08100
H 	H 	0.68180 0.10350 0.79660 0.07700
Mn	Mn	0.72166 0.36303 0.27845 1.33300
O 	O 	0.74184 0.40139 0.31021 -0.47200
O 	O 	0.80197 0.36478 0.13245 -0.43100
O 	O 	0.70628 0.32224 0.23463 -0.42400
N 	N 	0.75636 0.35570 0.20486 -0.28500
N 	N 	0.75378 0.32551 0.16515 -0.22600
N 	N 	0.64096 0.06063 0.55373 -0.23100
C 	C 	0.76651 0.41841 0.27820 0.29600
C 	C 	0.77244 0.45008 0.30600 -0.26200
H 	H 	0.75910 0.45830 0.34580 0.12900
C 	C 	0.79742 0.46987 0.27700 0.13400
H 	H 	0.80100 0.49130 0.29700 -0.02200
C 	C 	0.81733 0.45839 0.21840 -0.19700
H 	H 	0.83430 0.47190 0.19810 0.10600
C 	C 	0.81190 0.42717 0.19060 0.13200
H 	H 	0.82550 0.41910 0.15120 0.01100
C 	C 	0.78664 0.40678 0.21910 -0.23900
C 	C 	0.78191 0.37422 0.18390 0.27800
C 	C 	0.72707 0.31028 0.18520 0.21800
C 	C 	0.71792 0.27832 0.14800 -0.16500
H 	H 	0.73770 0.26820 0.12490 0.07000
H 	H 	0.70890 0.26270 0.18560 0.07900
C 	C 	0.69100 0.28570 0.08550 -0.26200
H 	H 	0.70100 0.29880 0.04510 0.10000
H 	H 	0.68270 0.26480 0.06500 0.10000
H 	H 	0.67260 0.29810 0.10770 0.10400
C 	C 	0.66736 0.07805 0.53370 0.10400
H 	H 	0.67530 0.07570 0.48380 -0.00300
C 	C 	0.68391 0.09938 0.58080 -0.19200
H 	H 	0.70280 0.11110 0.56380 0.09600
C 	C 	0.67255 0.10333 0.65270 0.12300
C 	C 	0.64580 0.08550 0.67380 -0.17900
H 	H 	0.63720 0.08780 0.72310 0.08300
C 	C 	0.63075 0.06371 0.62410 0.09700
H 	H 	0.61270 0.05070 0.64100 -0.01000
C 	C 	0.68960 0.12740 0.70650 -0.11300
H 	H 	0.70840 0.13790 0.68010 0.06200
H 	H 	0.67370 0.14500 0.72020 0.05300
Mn	Mn	0.07398 0.45666 0.17375 1.31900
O 	O 	0.09527 0.48375 0.24371 -0.48500
O 	O 	0.99515 0.47863 0.31384 -0.41300
O 	O 	0.04523 0.43047 0.11000 -0.42900
N 	N 	0.03207 0.46405 0.22356 -0.29400
N 	N 	0.00459 0.44840 0.18903 -0.22700
C 	C 	0.08366 0.49796 0.30320 0.30400
C 	C 	0.10613 0.51669 0.34760 -0.27100
H 	H 	0.12800 0.52040 0.32980 0.12600
C 	C 	0.09668 0.52950 0.41590 0.14100
H 	H 	0.11210 0.54240 0.44340 -0.02200
C 	C 	0.06580 0.52420 0.44580 -0.20000
H 	H 	0.06060 0.53120 0.49530 0.10000
C 	C 	0.04202 0.50800 0.40020 0.12800
H 	H 	0.01990 0.50580 0.41740 0.00300
C 	C 	0.05083 0.49549 0.33040 -0.25000
C 	C 	0.02475 0.47871 0.28770 0.27200
C 	C 	0.01400 0.43179 0.13011 0.20600
C 	C 	0.98874 0.41354 0.08490 -0.14700
H 	H 	0.97510 0.40010 0.11950 0.06200
H 	H 	0.97400 0.42990 0.06070 0.07200
C 	C 	0.00223 0.39118 0.02520 -0.25600
H 	H 	0.01380 0.37260 0.04880 0.10100
H 	H 	0.98400 0.38280 0.99440 0.09600
H 	H 	0.01770 0.40350 0.99350 0.10500
Mn	Mn	0.95817 0.46618 0.24688 1.33300
O 	O 	0.94900 0.42513 0.28854 -0.47100
O 	O 	0.88472 0.43422 0.10115 -0.41200
O 	O 	0.96085 0.50786 0.19439 -0.42000
N 	N 	0.92311 0.46006 0.17403 -0.28600
N 	N 	0.91764 0.48790 0.12757 -0.22600
N 	N 	0.92550 0.49378 0.33110 -0.24500
C 	C 	0.92687 0.40256 0.26950 0.29500
C 	C 	0.92483 0.37384 0.31470 -0.26300
H 	H 	0.93910 0.37160 0.35680 0.12500
C 	C 	0.90260 0.34928 0.29860 0.13900
H 	H 	0.90190 0.33020 0.32970 -0.02800
C 	C 	0.88113 0.35151 0.23810 -0.20300
H 	H 	0.86570 0.33430 0.22800 0.09800
C 	C 	0.88257 0.37912 0.19290 0.12600
H 	H 	0.86790 0.38080 0.15140 0.00500
C 	C 	0.90530 0.40506 0.20690 -0.23500
C 	C 	0.90421 0.43433 0.15774 0.27000
C 	C 	0.93814 0.51136 0.14340 0.21500
C 	C 	0.93519 0.54402 0.10520 -0.14200
H 	H 	0.95300 0.54590 0.06740 0.06600
H 	H 	0.91380 0.54480 0.07810 0.05600
C 	C 	0.93710 0.57363 0.15730 -0.26600
H 	H 	0.95810 0.57310 0.18470 0.10700
H 	H 	0.93570 0.59400 0.12780 0.09700
H 	H 	0.91870 0.57280 0.19310 0.10400
C 	C 	0.89546 0.49000 0.33880 0.17400
H 	H 	0.88550 0.47280 0.31030 -0.03800
C 	C 	0.87452 0.50840 0.38530 -0.27700
H 	H 	0.85150 0.50370 0.38550 0.11700
C 	C 	0.88537 0.53040 0.42580 0.19800
C 	C 	0.91730 0.54260 0.40610 -0.19800
H 	H 	0.92510 0.56310 0.42540 0.09000
C 	C 	0.93676 0.52400 0.35870 0.09500
H 	H 	0.95800 0.53180 0.34470 0.00000
C 	C 	0.86326 0.54910 0.48040 -0.19400
H 	H 	0.84480 0.53430 0.49480 0.08100
H 	H 	0.85350 0.56820 0.45340 0.07700
Mn	Mn	0.11303 0.52834 0.97155 1.33300
O 	O 	0.15139 0.50816 0.93979 -0.47200
O 	O 	0.11478 0.44803 0.11755 -0.43100
O 	O 	0.07224 0.54372 0.01537 -0.42400
N 	N 	0.10570 0.49364 0.04514 -0.28500
N 	N 	0.07551 0.49622 0.08485 -0.22600
N 	N 	0.81063 0.60904 0.69627 -0.23100
C 	C 	0.16841 0.48349 0.97180 0.29600
C 	C 	0.20008 0.47756 0.94400 -0.26200
H 	H 	0.20830 0.49090 0.90420 0.12900
C 	C 	0.21987 0.45258 0.97300 0.13400
H 	H 	0.24130 0.44900 0.95300 -0.02200
C 	C 	0.20839 0.43267 0.03160 -0.19800
H 	H 	0.22190 0.41570 0.05190 0.10600
C 	C 	0.17717 0.43810 0.05940 0.13200
H 	H 	0.16910 0.42450 0.09880 0.01100
C 	C 	0.15678 0.46336 0.03090 -0.23900
C 	C 	0.12422 0.46809 0.06610 0.27800
C 	C 	0.06028 0.52293 0.06480 0.21800
C 	C 	0.02832 0.53208 0.10200 -0.16500
H 	H 	0.01820 0.51230 0.12510 0.07000
H 	H 	0.01270 0.54110 0.06440 0.07900
C 	C 	0.03570 0.55900 0.16450 -0.26200
H 	H 	0.04880 0.54900 0.20490 0.10000
H 	H 	0.01480 0.56730 0.18500 0.10000
H 	H 	0.04810 0.57740 0.14230 0.10400
C 	C 	0.82805 0.58264 0.71630 0.10400
H 	H 	0.82570 0.57470 0.76620 -0.00300
C 	C 	0.84938 0.56609 0.66920 -0.19200
H 	H 	0.86110 0.54720 0.68620 0.09600
C 	C 	0.85333 0.57745 0.59730 0.12300
C 	C 	0.83550 0.60420 0.57620 -0.17900
H 	H 	0.83780 0.61280 0.52690 0.08300
C 	C 	0.81371 0.61925 0.62590 0.09700
H 	H 	0.80070 0.63730 0.60900 -0.01000
C 	C 	0.87740 0.56040 0.54350 -0.11300
H 	H 	0.88790 0.54160 0.56990 0.06200
H 	H 	0.89500 0.57630 0.52980 0.05300
Mn	Mn	0.57398 0.95666 0.67375 1.31900
O 	O 	0.59527 0.98375 0.74371 -0.48500
O 	O 	0.49515 0.97863 0.81384 -0.41300
O 	O 	0.54523 0.93047 0.61000 -0.42900
N 	N 	0.53207 0.96405 0.72356 -0.29400
N 	N 	0.50459 0.94840 0.68903 -0.22700
C 	C 	0.58366 0.99796 0.80320 0.30400
C 	C 	0.60613 0.01669 0.84760 -0.27100
H 	H 	0.62800 0.02040 0.82980 0.12600
C 	C 	0.59668 0.02950 0.91590 0.14100
H 	H 	0.61210 0.04240 0.94340 -0.02200
C 	C 	0.56580 0.02420 0.94580 -0.20000
H 	H 	0.56060 0.03120 0.99530 0.10100
C 	C 	0.54202 0.00800 0.90020 0.12800
H 	H 	0.51990 0.00580 0.91740 0.00300
C 	C 	0.55083 0.99549 0.83040 -0.25100
C 	C 	0.52475 0.97871 0.78770 0.27200
C 	C 	0.51400 0.93179 0.63011 0.20600
C 	C 	0.48874 0.91354 0.58490 -0.14800
H 	H 	0.47510 0.90010 0.61950 0.06300
H 	H 	0.47400 0.92990 0.56070 0.07300
C 	C 	0.50223 0.89118 0.52520 -0.25300
H 	H 	0.51380 0.87260 0.54880 0.10000
H 	H 	0.48400 0.88280 0.49440 0.09500
H 	H 	0.51770 0.90350 0.49350 0.10400
Mn	Mn	0.45817 0.96618 0.74688 1.33300
O 	O 	0.44900 0.92513 0.78854 -0.47100
O 	O 	0.38472 0.93422 0.60115 -0.41200
O 	O 	0.46085 0.00786 0.69439 -0.42000
N 	N 	0.42311 0.96006 0.67403 -0.28600
N 	N 	0.41764 0.98790 0.62757 -0.22700
N 	N 	0.42550 0.99378 0.83110 -0.24500
C 	C 	0.42687 0.90256 0.76950 0.29500
C 	C 	0.42483 0.87384 0.81470 -0.26300
H 	H 	0.43910 0.87160 0.85680 0.12500
C 	C 	0.40260 0.84928 0.79860 0.13900
H 	H 	0.40190 0.83020 0.82970 -0.02800
C 	C 	0.38113 0.85151 0.73810 -0.20300
H 	H 	0.36570 0.83430 0.72800 0.09800
C 	C 	0.38257 0.87912 0.69290 0.12600
H 	H 	0.36790 0.88080 0.65140 0.00500
C 	C 	0.40530 0.90506 0.70690 -0.23500
C 	C 	0.40421 0.93433 0.65774 0.27000
C 	C 	0.43814 0.01136 0.64340 0.21500
C 	C 	0.43519 0.04402 0.60520 -0.14200
H 	H 	0.45300 0.04590 0.56740 0.06600
H 	H 	0.41380 0.04480 0.57810 0.05600
C 	C 	0.43710 0.07363 0.65730 -0.26600
H 	H 	0.45810 0.07310 0.68470 0.10700
H 	H 	0.43570 0.09400 0.62780 0.09700
H 	H 	0.41870 0.07280 0.69310 0.10400
C 	C 	0.39546 0.99000 0.83880 0.17400
H 	H 	0.38550 0.97280 0.81030 -0.03800
C 	C 	0.37452 0.00840 0.88530 -0.27700
H 	H 	0.35150 0.00370 0.88550 0.11700
C 	C 	0.38537 0.03040 0.92580 0.19800
C 	C 	0.41730 0.04260 0.90610 -0.19800
H 	H 	0.42510 0.06310 0.92540 0.09000
C 	C 	0.43676 0.02400 0.85870 0.09500
H 	H 	0.45800 0.03180 0.84470 0.00000
C 	C 	0.36326 0.04910 0.98040 -0.19300
H 	H 	0.34480 0.03430 0.99480 0.08100
H 	H 	0.35350 0.06820 0.95340 0.07700
Mn	Mn	0.61303 0.02834 0.47155 1.33300
O 	O 	0.65139 0.00816 0.43979 -0.47200
O 	O 	0.61478 0.94803 0.61755 -0.43100
O 	O 	0.57224 0.04372 0.51537 -0.42400
N 	N 	0.60570 0.99364 0.54514 -0.28500
N 	N 	0.57551 0.99622 0.58485 -0.22600
N 	N 	0.31063 0.10904 0.19627 -0.23100
C 	C 	0.66841 0.98349 0.47180 0.29600
C 	C 	0.70008 0.97756 0.44400 -0.26200
H 	H 	0.70830 0.99090 0.40420 0.12900
C 	C 	0.71987 0.95258 0.47300 0.13400
H 	H 	0.74130 0.94900 0.45300 -0.02200
C 	C 	0.70839 0.93267 0.53160 -0.19700
H 	H 	0.72190 0.91570 0.55190 0.10600
C 	C 	0.67717 0.93810 0.55940 0.13200
H 	H 	0.66910 0.92450 0.59880 0.01100
C 	C 	0.65678 0.96336 0.53090 -0.23900
C 	C 	0.62422 0.96809 0.56610 0.27800
C 	C 	0.56028 0.02293 0.56480 0.21800
C 	C 	0.52832 0.03208 0.60200 -0.16500
H 	H 	0.51820 0.01230 0.62510 0.07000
H 	H 	0.51270 0.04110 0.56440 0.07900
C 	C 	0.53570 0.05900 0.66450 -0.26200
H 	H 	0.54880 0.04900 0.70490 0.10000
H 	H 	0.51480 0.06730 0.68500 0.10000
H 	H 	0.54810 0.07740 0.64230 0.10400
C 	C 	0.32805 0.08264 0.21630 0.10400
H 	H 	0.32570 0.07470 0.26620 -0.00300
C 	C 	0.34938 0.06609 0.16920 -0.19200
H 	H 	0.36110 0.04720 0.18620 0.09600
C 	C 	0.35333 0.07745 0.09730 0.12300
C 	C 	0.33550 0.10420 0.07620 -0.17900
H 	H 	0.33780 0.11280 0.02690 0.08300
C 	C 	0.31371 0.11925 0.12590 0.09700
H 	H 	0.30070 0.13730 0.10900 -0.01000
C 	C 	0.37740 0.06040 0.04350 -0.11400
H 	H 	0.38790 0.04160 0.06990 0.06200
H 	H 	0.39500 0.07630 0.02980 0.05300
Mn	Mn	0.42602 0.54334 0.67375 1.31900
O 	O 	0.40473 0.51625 0.74371 -0.48500
O 	O 	0.50485 0.52137 0.81384 -0.41300
O 	O 	0.45477 0.56953 0.61000 -0.42900
N 	N 	0.46793 0.53595 0.72356 -0.29400
N 	N 	0.49541 0.55160 0.68903 -0.22700
C 	C 	0.41634 0.50204 0.80320 0.30400
C 	C 	0.39387 0.48331 0.84760 -0.27100
H 	H 	0.37200 0.47960 0.82980 0.12600
C 	C 	0.40332 0.47050 0.91590 0.14100
H 	H 	0.38790 0.45760 0.94340 -0.02200
C 	C 	0.43420 0.47580 0.94580 -0.20000
H 	H 	0.43940 0.46880 0.99530 0.10100
C 	C 	0.45798 0.49200 0.90020 0.12800
H 	H 	0.48010 0.49420 0.91740 0.00300
C 	C 	0.44917 0.50451 0.83040 -0.25000
C 	C 	0.47525 0.52129 0.78770 0.27200
C 	C 	0.48600 0.56821 0.63011 0.20600
C 	C 	0.51126 0.58646 0.58490 -0.14800
H 	H 	0.52490 0.59990 0.61950 0.06300
H 	H 	0.52600 0.57010 0.56070 0.07300
C 	C 	0.49777 0.60882 0.52520 -0.25300
H 	H 	0.48620 0.62740 0.54880 0.10000
H 	H 	0.51600 0.61720 0.49440 0.09500
H 	H 	0.48230 0.59650 0.49350 0.10400
Mn	Mn	0.54183 0.53382 0.74688 1.33300
O 	O 	0.55100 0.57487 0.78854 -0.47100
O 	O 	0.61528 0.56578 0.60115 -0.41200
O 	O 	0.53915 0.49214 0.69439 -0.42000
N 	N 	0.57689 0.53994 0.67403 -0.28600
N 	N 	0.58236 0.51210 0.62757 -0.22600
N 	N 	0.57450 0.50622 0.83110 -0.24500
C 	C 	0.57313 0.59744 0.76950 0.29500
C 	C 	0.57517 0.62616 0.81470 -0.26300
H 	H 	0.56090 0.62840 0.85680 0.12500
C 	C 	0.59740 0.65072 0.79860 0.13900
H 	H 	0.59810 0.66980 0.82970 -0.02800
C 	C 	0.61887 0.64849 0.73810 -0.20300
H 	H 	0.63430 0.66570 0.72800 0.09800
C 	C 	0.61743 0.62088 0.69290 0.12600
H 	H 	0.63210 0.61920 0.65140 0.00500
C 	C 	0.59470 0.59494 0.70690 -0.23500
C 	C 	0.59579 0.56567 0.65774 0.27000
C 	C 	0.56186 0.48864 0.64340 0.21500
C 	C 	0.56481 0.45598 0.60520 -0.14200
H 	H 	0.54700 0.45410 0.56740 0.06600
H 	H 	0.58620 0.45520 0.57810 0.05600
C 	C 	0.56290 0.42637 0.65730 -0.26600
H 	H 	0.54190 0.42690 0.68470 0.10700
H 	H 	0.56430 0.40600 0.62780 0.09700
H 	H 	0.58130 0.42720 0.69310 0.10400
C 	C 	0.60454 0.51000 0.83880 0.17400
H 	H 	0.61450 0.52720 0.81030 -0.03800
C 	C 	0.62548 0.49160 0.88530 -0.27700
H 	H 	0.64850 0.49630 0.88550 0.11700
C 	C 	0.61463 0.46960 0.92580 0.19800
C 	C 	0.58270 0.45740 0.90610 -0.19800
H 	H 	0.57490 0.43690 0.92540 0.09000
C 	C 	0.56324 0.47600 0.85870 0.09500
H 	H 	0.54200 0.46820 0.84470 0.00000
C 	C 	0.63674 0.45090 0.98040 -0.19300
H 	H 	0.65520 0.46570 0.99480 0.08100
H 	H 	0.64650 0.43180 0.95340 0.07700
Mn	Mn	0.38697 0.47166 0.47155 1.33300
O 	O 	0.34861 0.49184 0.43979 -0.47200
O 	O 	0.38522 0.55197 0.61755 -0.43100
O 	O 	0.42776 0.45628 0.51537 -0.42400
N 	N 	0.39430 0.50636 0.54514 -0.28500
N 	N 	0.42449 0.50378 0.58485 -0.22600
N 	N 	0.68937 0.39096 0.19627 -0.23100
C 	C 	0.33159 0.51651 0.47180 0.29600
C 	C 	0.29992 0.52244 0.44400 -0.26200
H 	H 	0.29170 0.50910 0.40420 0.12900
C 	C 	0.28013 0.54742 0.47300 0.13400
H 	H 	0.25870 0.55100 0.45300 -0.02200
C 	C 	0.29161 0.56733 0.53160 -0.19700
H 	H 	0.27810 0.58430 0.55190 0.10600
C 	C 	0.32283 0.56190 0.55940 0.13200
H 	H 	0.33090 0.57550 0.59880 0.01100
C 	C 	0.34322 0.53664 0.53090 -0.23900
C 	C 	0.37578 0.53191 0.56610 0.27800
C 	C 	0.43972 0.47707 0.56480 0.21800
C 	C 	0.47168 0.46792 0.60200 -0.16500
H 	H 	0.48180 0.48770 0.62510 0.07000
H 	H 	0.48730 0.45890 0.56440 0.07900
C 	C 	0.46430 0.44100 0.66450 -0.26200
H 	H 	0.45120 0.45100 0.70490 0.10000
H 	H 	0.48520 0.43270 0.68500 0.10000
H 	H 	0.45190 0.42260 0.64230 0.10400
C 	C 	0.67195 0.41736 0.21630 0.10400
H 	H 	0.67430 0.42530 0.26620 -0.00300
C 	C 	0.65062 0.43391 0.16920 -0.19200
H 	H 	0.63890 0.45280 0.18620 0.09600
C 	C 	0.64667 0.42255 0.09730 0.12300
C 	C 	0.66450 0.39580 0.07620 -0.17900
H 	H 	0.66220 0.38720 0.02690 0.08300
C 	C 	0.68629 0.38075 0.12590 0.09700
H 	H 	0.69930 0.36270 0.10900 -0.01000
C 	C 	0.62260 0.43960 0.04350 -0.11300
H 	H 	0.61210 0.45840 0.06990 0.06200
H 	H 	0.60500 0.42370 0.02980 0.05300
Mn	Mn	0.92602 0.04334 0.17375 1.31900
O 	O 	0.90473 0.01625 0.24371 -0.48500
O 	O 	0.00485 0.02137 0.31384 -0.41300
O 	O 	0.95477 0.06953 0.11000 -0.42900
N 	N 	0.96793 0.03595 0.22356 -0.29400
N 	N 	0.99541 0.05160 0.18903 -0.22700
C 	C 	0.91634 0.00204 0.30320 0.30400
C 	C 	0.89387 0.98331 0.34760 -0.27100
H 	H 	0.87200 0.97960 0.32980 0.12600
C 	C 	0.90332 0.97050 0.41590 0.14100
H 	H 	0.88790 0.95760 0.44340 -0.02200
C 	C 	0.93420 0.97580 0.44580 -0.20000
H 	H 	0.93940 0.96880 0.49530 0.10000
C 	C 	0.95798 0.99200 0.40020 0.12800
H 	H 	0.98010 0.99420 0.41740 0.00300
C 	C 	0.94917 0.00451 0.33040 -0.25000
C 	C 	0.97525 0.02129 0.28770 0.27200
C 	C 	0.98600 0.06821 0.13011 0.20600
C 	C 	0.01126 0.08646 0.08490 -0.14700
H 	H 	0.02490 0.09990 0.11950 0.06200
H 	H 	0.02600 0.07010 0.06070 0.07200
C 	C 	0.99777 0.10882 0.02520 -0.25600
H 	H 	0.98620 0.12740 0.04880 0.10100
H 	H 	0.01600 0.11720 0.99440 0.09600
H 	H 	0.98230 0.09650 0.99350 0.10500
Mn	Mn	0.04183 0.03382 0.24688 1.33300
O 	O 	0.05100 0.07487 0.28854 -0.47100
O 	O 	0.11528 0.06578 0.10115 -0.41200
O 	O 	0.03915 0.99214 0.19439 -0.42000
N 	N 	0.07689 0.03994 0.17403 -0.28600
N 	N 	0.08236 0.01210 0.12757 -0.22700
N 	N 	0.07450 0.00622 0.33110 -0.24500
C 	C 	0.07313 0.09744 0.26950 0.29500
C 	C 	0.07517 0.12616 0.31470 -0.26300
H 	H 	0.06090 0.12840 0.35680 0.12500
C 	C 	0.09740 0.15072 0.29860 0.13900
H 	H 	0.09810 0.16980 0.32970 -0.02800
C 	C 	0.11887 0.14849 0.23810 -0.20300
H 	H 	0.13430 0.16570 0.22800 0.09800
C 	C 	0.11743 0.12088 0.19290 0.12600
H 	H 	0.13210 0.11920 0.15140 0.00500
C 	C 	0.09470 0.09494 0.20690 -0.23500
C 	C 	0.09579 0.06567 0.15774 0.27000
C 	C 	0.06186 0.98864 0.14340 0.21500
C 	C 	0.06481 0.95598 0.10520 -0.14200
H 	H 	0.04700 0.95410 0.06740 0.06600
H 	H 	0.08620 0.95520 0.07810 0.05600
C 	C 	0.06290 0.92637 0.15730 -0.26600
H 	H 	0.04190 0.92690 0.18470 0.10700
H 	H 	0.06430 0.90600 0.12780 0.09700
H 	H 	0.08130 0.92720 0.19310 0.10400
C 	C 	0.10454 0.01000 0.33880 0.17400
H 	H 	0.11450 0.02720 0.31030 -0.03800
C 	C 	0.12548 0.99160 0.38530 -0.27700
H 	H 	0.14850 0.99630 0.38550 0.11700
C 	C 	0.11463 0.96960 0.42580 0.19800
C 	C 	0.08270 0.95740 0.40610 -0.19800
H 	H 	0.07490 0.93690 0.42540 0.09000
C 	C 	0.06324 0.97600 0.35870 0.09500
H 	H 	0.04200 0.96820 0.34470 0.00000
C 	C 	0.13674 0.95090 0.48040 -0.19400
H 	H 	0.15520 0.96570 0.49480 0.08100
H 	H 	0.14650 0.93180 0.45340 0.07700
Mn	Mn	0.88697 0.97166 0.97155 1.33300
O 	O 	0.84861 0.99184 0.93979 -0.47200
O 	O 	0.88522 0.05197 0.11755 -0.43100
O 	O 	0.92776 0.95628 0.01537 -0.42400
N 	N 	0.89430 0.00636 0.04514 -0.28500
N 	N 	0.92449 0.00378 0.08485 -0.22600
N 	N 	0.18937 0.89096 0.69627 -0.23100
C 	C 	0.83159 0.01651 0.97180 0.29600
C 	C 	0.79992 0.02244 0.94400 -0.26200
H 	H 	0.79170 0.00910 0.90420 0.12900
C 	C 	0.78013 0.04742 0.97300 0.13500
H 	H 	0.75870 0.05100 0.95300 -0.02200
C 	C 	0.79161 0.06733 0.03160 -0.19800
H 	H 	0.77810 0.08430 0.05190 0.10600
C 	C 	0.82283 0.06190 0.05940 0.13200
H 	H 	0.83090 0.07550 0.09880 0.01100
C 	C 	0.84322 0.03664 0.03090 -0.23900
C 	C 	0.87578 0.03191 0.06610 0.27800
C 	C 	0.93972 0.97707 0.06480 0.21800
C 	C 	0.97168 0.96792 0.10200 -0.16500
H 	H 	0.98180 0.98770 0.12510 0.07000
H 	H 	0.98730 0.95890 0.06440 0.07900
C 	C 	0.96430 0.94100 0.16450 -0.26200
H 	H 	0.95120 0.95100 0.20490 0.10000
H 	H 	0.98520 0.93270 0.18500 0.10000
H 	H 	0.95190 0.92260 0.14230 0.10400
C 	C 	0.17195 0.91736 0.71630 0.10400
H 	H 	0.17430 0.92530 0.76620 -0.00300
C 	C 	0.15062 0.93391 0.66920 -0.19200
H 	H 	0.13890 0.95280 0.68620 0.09600
C 	C 	0.14667 0.92255 0.59730 0.12300
C 	C 	0.16450 0.89580 0.57620 -0.17900
H 	H 	0.16220 0.88720 0.52690 0.08300
C 	C 	0.18629 0.88075 0.62590 0.09700
H 	H 	0.19930 0.86270 0.60900 -0.01000
C 	C 	0.12260 0.93960 0.54350 -0.11300
H 	H 	0.11210 0.95840 0.56990 0.06200
H 	H 	0.10500 0.92370 0.52980 0.05300
Mn	Mn	0.79334 0.82398 0.92375 1.31900
O 	O 	0.76625 0.84527 0.99371 -0.48600
O 	O 	0.77137 0.74515 0.06384 -0.41300
O 	O 	0.81953 0.79523 0.86000 -0.42900
N 	N 	0.78595 0.78207 0.97356 -0.29400
N 	N 	0.80160 0.75459 0.93903 -0.22700
C 	C 	0.75204 0.83366 0.05320 0.30500
C 	C 	0.73331 0.85613 0.09760 -0.27200
H 	H 	0.72960 0.87800 0.07980 0.12600
C 	C 	0.72050 0.84668 0.16590 0.14100
H 	H 	0.70760 0.86210 0.19340 -0.02200
C 	C 	0.72580 0.81580 0.19580 -0.20100
H 	H 	0.71880 0.81060 0.24530 0.10100
C 	C 	0.74200 0.79202 0.15020 0.12800
H 	H 	0.74420 0.76990 0.16740 0.00300
C 	C 	0.75451 0.80083 0.08040 -0.25100
C 	C 	0.77129 0.77475 0.03770 0.27200
C 	C 	0.81821 0.76400 0.88011 0.20600
C 	C 	0.83646 0.73874 0.83490 -0.14800
H 	H 	0.84990 0.72510 0.86950 0.06300
H 	H 	0.82010 0.72400 0.81070 0.07300
C 	C 	0.85882 0.75223 0.77520 -0.25300
H 	H 	0.87740 0.76380 0.79880 0.10000
H 	H 	0.86720 0.73400 0.74440 0.09500
H 	H 	0.84650 0.76770 0.74350 0.10400
Mn	Mn	0.78382 0.70817 0.99688 1.33300
O 	O 	0.82487 0.69900 0.03854 -0.47100
O 	O 	0.81578 0.63472 0.85115 -0.41200
O 	O 	0.74214 0.71085 0.94439 -0.42000
N 	N 	0.78994 0.67311 0.92403 -0.28600
N 	N 	0.76210 0.66764 0.87757 -0.22600
N 	N 	0.75622 0.67550 0.08110 -0.24400
C 	C 	0.84744 0.67687 0.01950 0.29500
C 	C 	0.87616 0.67483 0.06470 -0.26400
H 	H 	0.87840 0.68910 0.10680 0.12500
C 	C 	0.90072 0.65260 0.04860 0.14000
H 	H 	0.91980 0.65190 0.07970 -0.02900
C 	C 	0.89849 0.63113 0.98810 -0.20400
H 	H 	0.91570 0.61570 0.97800 0.09800
C 	C 	0.87088 0.63257 0.94290 0.12700
H 	H 	0.86920 0.61790 0.90140 0.00500
C 	C 	0.84494 0.65530 0.95690 -0.23600
C 	C 	0.81567 0.65421 0.90774 0.27000
C 	C 	0.73864 0.68814 0.89340 0.21500
C 	C 	0.70598 0.68519 0.85520 -0.14200
H 	H 	0.70410 0.70300 0.81740 0.06600
H 	H 	0.70520 0.66380 0.82810 0.05600
C 	C 	0.67637 0.68710 0.90730 -0.26600
H 	H 	0.67690 0.70810 0.93470 0.10700
H 	H 	0.65600 0.68570 0.87780 0.09700
H 	H 	0.67720 0.66870 0.94310 0.10400
C 	C 	0.76000 0.64546 0.08880 0.17400
H 	H 	0.77720 0.63550 0.06030 -0.03800
C 	C 	0.74160 0.62452 0.13530 -0.27700
H 	H 	0.74630 0.60150 0.13550 0.11700
C 	C 	0.71960 0.63537 0.17580 0.19800
C 	C 	0.70740 0.66730 0.15610 -0.19800
H 	H 	0.68690 0.67510 0.17540 0.09000
C 	C 	0.72600 0.68676 0.10870 0.09500
H 	H 	0.71820 0.70800 0.09470 0.00000
C 	C 	0.70090 0.61326 0.23040 -0.19400
H 	H 	0.71570 0.59480 0.24480 0.08100
H 	H 	0.68180 0.60350 0.20340 0.07700
Mn	Mn	0.72166 0.86303 0.72155 1.33300
O 	O 	0.74184 0.90139 0.68979 -0.47200
O 	O 	0.80197 0.86478 0.86755 -0.43100
O 	O 	0.70628 0.82224 0.76537 -0.42400
N 	N 	0.75636 0.85570 0.79514 -0.28500
N 	N 	0.75378 0.82551 0.83485 -0.22600
N 	N 	0.64096 0.56063 0.44627 -0.23100
C 	C 	0.76651 0.91841 0.72180 0.29600
C 	C 	0.77244 0.95008 0.69400 -0.26200
H 	H 	0.75910 0.95830 0.65420 0.12900
C 	C 	0.79742 0.96987 0.72300 0.13400
H 	H 	0.80100 0.99130 0.70300 -0.02200
C 	C 	0.81733 0.95839 0.78160 -0.19700
H 	H 	0.83430 0.97190 0.80190 0.10600
C 	C 	0.81190 0.92717 0.80940 0.13200
H 	H 	0.82550 0.91910 0.84880 0.01100
C 	C 	0.78664 0.90678 0.78090 -0.23900
C 	C 	0.78191 0.87422 0.81610 0.27800
C 	C 	0.72707 0.81028 0.81480 0.21800
C 	C 	0.71792 0.77832 0.85200 -0.16500
H 	H 	0.73770 0.76820 0.87510 0.07000
H 	H 	0.70890 0.76270 0.81440 0.07900
C 	C 	0.69100 0.78570 0.91450 -0.26200
H 	H 	0.70100 0.79880 0.95490 0.10000
H 	H 	0.68270 0.76480 0.93500 0.10000
H 	H 	0.67260 0.79810 0.89230 0.10400
C 	C 	0.66736 0.57805 0.46630 0.10400
H 	H 	0.67530 0.57570 0.51620 -0.00300
C 	C 	0.68391 0.59938 0.41920 -0.19200
H 	H 	0.70280 0.61110 0.43620 0.09600
C 	C 	0.67255 0.60333 0.34730 0.12300
C 	C 	0.64580 0.58550 0.32620 -0.17900
H 	H 	0.63720 0.58780 0.27690 0.08300
C 	C 	0.63075 0.56371 0.37590 0.09700
H 	H 	0.61270 0.55070 0.35900 -0.01000
C 	C 	0.68960 0.62740 0.29350 -0.11300
H 	H 	0.70840 0.63790 0.31990 0.06200
H 	H 	0.67370 0.64500 0.27980 0.05300
Mn	Mn	0.29334 0.32398 0.42375 1.31900
O 	O 	0.26625 0.34527 0.49371 -0.48500
O 	O 	0.27137 0.24515 0.56384 -0.41300
O 	O 	0.31953 0.29523 0.36000 -0.42900
N 	N 	0.28595 0.28207 0.47356 -0.29400
N 	N 	0.30160 0.25459 0.43903 -0.22700
C 	C 	0.25204 0.33366 0.55320 0.30400
C 	C 	0.23331 0.35613 0.59760 -0.27100
H 	H 	0.22960 0.37800 0.57980 0.12600
C 	C 	0.22050 0.34668 0.66590 0.14100
H 	H 	0.20760 0.36210 0.69340 -0.02200
C 	C 	0.22580 0.31580 0.69580 -0.20000
H 	H 	0.21880 0.31060 0.74530 0.10000
C 	C 	0.24200 0.29202 0.65020 0.12800
H 	H 	0.24420 0.26990 0.66740 0.00300
C 	C 	0.25451 0.30083 0.58040 -0.25000
C 	C 	0.27129 0.27475 0.53770 0.27200
C 	C 	0.31821 0.26400 0.38011 0.20600
C 	C 	0.33646 0.23874 0.33490 -0.14800
H 	H 	0.34990 0.22510 0.36950 0.06300
H 	H 	0.32010 0.22400 0.31070 0.07300
C 	C 	0.35882 0.25223 0.27520 -0.25300
H 	H 	0.37740 0.26380 0.29880 0.10000
H 	H 	0.36720 0.23400 0.24440 0.09500
H 	H 	0.34650 0.26770 0.24350 0.10400
Mn	Mn	0.28382 0.20817 0.49688 1.33300
O 	O 	0.32487 0.19900 0.53854 -0.47100
O 	O 	0.31578 0.13472 0.35115 -0.41200
O 	O 	0.24214 0.21085 0.44439 -0.42000
N 	N 	0.28994 0.17311 0.42403 -0.28600
N 	N 	0.26210 0.16764 0.37757 -0.22600
N 	N 	0.25622 0.17550 0.58110 -0.24500
C 	C 	0.34744 0.17687 0.51950 0.29500
C 	C 	0.37616 0.17483 0.56470 -0.26300
H 	H 	0.37840 0.18910 0.60680 0.12500
C 	C 	0.40072 0.15260 0.54860 0.13900
H 	H 	0.41980 0.15190 0.57970 -0.02800
C 	C 	0.39849 0.13113 0.48810 -0.20300
H 	H 	0.41570 0.11570 0.47800 0.09800
C 	C 	0.37088 0.13257 0.44290 0.12600
H 	H 	0.36920 0.11790 0.40140 0.00500
C 	C 	0.34494 0.15530 0.45690 -0.23500
C 	C 	0.31567 0.15421 0.40774 0.27000
C 	C 	0.23864 0.18814 0.39340 0.21500
C 	C 	0.20598 0.18519 0.35520 -0.14200
H 	H 	0.20410 0.20300 0.31740 0.06600
H 	H 	0.20520 0.16380 0.32810 0.05600
C 	C 	0.17637 0.18710 0.40730 -0.26600
H 	H 	0.17690 0.20810 0.43470 0.10700
H 	H 	0.15600 0.18570 0.37780 0.09700
H 	H 	0.17720 0.16870 0.44310 0.10400
C 	C 	0.26000 0.14546 0.58880 0.17400
H 	H 	0.27720 0.13550 0.56030 -0.03800
C 	C 	0.24160 0.12452 0.63530 -0.27700
H 	H 	0.24630 0.10150 0.63550 0.11700
C 	C 	0.21960 0.13537 0.67580 0.19800
C 	C 	0.20740 0.16730 0.65610 -0.19800
H 	H 	0.18690 0.17510 0.67540 0.09000
C 	C 	0.22600 0.18676 0.60870 0.09500
H 	H 	0.21820 0.20800 0.59470 0.00000
C 	C 	0.20090 0.11326 0.73040 -0.19300
H 	H 	0.21570 0.09480 0.74480 0.08100
H 	H 	0.18180 0.10350 0.70340 0.07700
Mn	Mn	0.22166 0.36303 0.22155 1.33300
O 	O 	0.24184 0.40139 0.18979 -0.47200
O 	O 	0.30197 0.36478 0.36755 -0.43100
O 	O 	0.20628 0.32224 0.26537 -0.42400
N 	N 	0.25636 0.35570 0.29514 -0.28500
N 	N 	0.25378 0.32551 0.33485 -0.22600
N 	N 	0.14096 0.06063 0.94627 -0.23200
C 	C 	0.26651 0.41841 0.22180 0.29600
C 	C 	0.27244 0.45008 0.19400 -0.26200
H 	H 	0.25910 0.45830 0.15420 0.12900
C 	C 	0.29742 0.46987 0.22300 0.13400
H 	H 	0.30100 0.49130 0.20300 -0.02200
C 	C 	0.31733 0.45839 0.28160 -0.19700
H 	H 	0.33430 0.47190 0.30190 0.10600
C 	C 	0.31190 0.42717 0.30940 0.13200
H 	H 	0.32550 0.41910 0.34880 0.01100
C 	C 	0.28664 0.40678 0.28090 -0.23900
C 	C 	0.28191 0.37422 0.31610 0.27800
C 	C 	0.22707 0.31028 0.31480 0.21800
C 	C 	0.21792 0.27832 0.35200 -0.16500
H 	H 	0.23770 0.26820 0.37510 0.07000
H 	H 	0.20890 0.26270 0.31440 0.07900
C 	C 	0.19100 0.28570 0.41450 -0.26200
H 	H 	0.20100 0.29880 0.45490 0.10000
H 	H 	0.18270 0.26480 0.43500 0.10000
H 	H 	0.17260 0.29810 0.39230 0.10400
C 	C 	0.16736 0.07805 0.96630 0.10500
H 	H 	0.17530 0.07570 0.01620 -0.00400
C 	C 	0.18391 0.09938 0.91920 -0.19200
H 	H 	0.20280 0.11110 0.93620 0.09600
C 	C 	0.17255 0.10333 0.84730 0.12300
C 	C 	0.14580 0.08550 0.82620 -0.17900
H 	H 	0.13720 0.08780 0.77690 0.08300
C 	C 	0.13075 0.06371 0.87590 0.09700
H 	H 	0.11270 0.05070 0.85900 -0.01000
C 	C 	0.18960 0.12740 0.79350 -0.11300
H 	H 	0.20840 0.13790 0.81990 0.06200
H 	H 	0.17370 0.14500 0.77980 0.05300
Mn	Mn	0.70666 0.17602 0.42375 1.31900
O 	O 	0.73375 0.15473 0.49371 -0.48500
O 	O 	0.72863 0.25485 0.56384 -0.41300
O 	O 	0.68047 0.20477 0.36000 -0.42900
N 	N 	0.71405 0.21793 0.47356 -0.29400
N 	N 	0.69840 0.24541 0.43903 -0.22700
C 	C 	0.74796 0.16634 0.55320 0.30400
C 	C 	0.76669 0.14387 0.59760 -0.27100
H 	H 	0.77040 0.12200 0.57980 0.12600
C 	C 	0.77950 0.15332 0.66590 0.14100
H 	H 	0.79240 0.13790 0.69340 -0.02200
C 	C 	0.77420 0.18420 0.69580 -0.20000
H 	H 	0.78120 0.18940 0.74530 0.10000
C 	C 	0.75800 0.20798 0.65020 0.12800
H 	H 	0.75580 0.23010 0.66740 0.00300
C 	C 	0.74549 0.19917 0.58040 -0.25000
C 	C 	0.72871 0.22525 0.53770 0.27200
C 	C 	0.68179 0.23600 0.38011 0.20600
C 	C 	0.66354 0.26126 0.33490 -0.14800
H 	H 	0.65010 0.27490 0.36950 0.06300
H 	H 	0.67990 0.27600 0.31070 0.07300
C 	C 	0.64118 0.24777 0.27520 -0.25300
H 	H 	0.62260 0.23620 0.29880 0.10000
H 	H 	0.63280 0.26600 0.24440 0.09500
H 	H 	0.65350 0.23230 0.24350 0.10400
Mn	Mn	0.71618 0.29183 0.49688 1.33300
O 	O 	0.67513 0.30100 0.53854 -0.47100
O 	O 	0.68422 0.36528 0.35115 -0.41200
O 	O 	0.75786 0.28915 0.44439 -0.42000
N 	N 	0.71006 0.32689 0.42403 -0.28600
N 	N 	0.73790 0.33236 0.37757 -0.22600
N 	N 	0.74378 0.32450 0.58110 -0.24500
C 	C 	0.65256 0.32313 0.51950 0.29500
C 	C 	0.62384 0.32517 0.56470 -0.26300
H 	H 	0.62160 0.31090 0.60680 0.12500
C 	C 	0.59928 0.34740 0.54860 0.13900
H 	H 	0.58020 0.34810 0.57970 -0.02800
C 	C 	0.60151 0.36887 0.48810 -0.20300
H 	H 	0.58430 0.38430 0.47800 0.09800
C 	C 	0.62912 0.36743 0.44290 0.12600
H 	H 	0.63080 0.38210 0.40140 0.00500
C 	C 	0.65506 0.34470 0.45690 -0.23500
C 	C 	0.68433 0.34579 0.40774 0.27000
C 	C 	0.76136 0.31186 0.39340 0.21500
C 	C 	0.79402 0.31481 0.35520 -0.14200
H 	H 	0.79590 0.29700 0.31740 0.06600
H 	H 	0.79480 0.33620 0.32810 0.05600
C 	C 	0.82363 0.31290 0.40730 -0.26600
H 	H 	0.82310 0.29190 0.43470 0.10700
H 	H 	0.84400 0.31430 0.37780 0.09700
H 	H 	0.82280 0.33130 0.44310 0.10400
C 	C 	0.74000 0.35454 0.58880 0.17400
H 	H 	0.72280 0.36450 0.56030 -0.03800
C 	C 	0.75840 0.37548 0.63530 -0.27700
H 	H 	0.75370 0.39850 0.63550 0.11700
C 	C 	0.78040 0.36463 0.67580 0.19800
C 	C 	0.79260 0.33270 0.65610 -0.19800
H 	H 	0.81310 0.32490 0.67540 0.09000
C 	C 	0.77400 0.31324 0.60870 0.09500
H 	H 	0.78180 0.29200 0.59470 0.00000
C 	C 	0.79910 0.38674 0.73040 -0.19400
H 	H 	0.78430 0.40520 0.74480 0.08100
H 	H 	0.81820 0.39650 0.70340 0.07700
Mn	Mn	0.77834 0.13697 0.22155 1.33300
O 	O 	0.75816 0.09861 0.18979 -0.47200
O 	O 	0.69803 0.13522 0.36755 -0.43100
O 	O 	0.79372 0.17776 0.26537 -0.42400
N 	N 	0.74364 0.14430 0.29514 -0.28500
N 	N 	0.74622 0.17449 0.33485 -0.22600
N 	N 	0.85904 0.43937 0.94627 -0.23200
C 	C 	0.73349 0.08159 0.22180 0.29600
C 	C 	0.72756 0.04992 0.19400 -0.26200
H 	H 	0.74090 0.04170 0.15420 0.12900
C 	C 	0.70258 0.03013 0.22300 0.13400
H 	H 	0.69900 0.00870 0.20300 -0.02200
C 	C 	0.68267 0.04161 0.28160 -0.19700
H 	H 	0.66570 0.02810 0.30190 0.10600
C 	C 	0.68810 0.07283 0.30940 0.13200
H 	H 	0.67450 0.08090 0.34880 0.01100
C 	C 	0.71336 0.09322 0.28090 -0.23900
C 	C 	0.71809 0.12578 0.31610 0.27800
C 	C 	0.77293 0.18972 0.31480 0.21800
C 	C 	0.78208 0.22168 0.35200 -0.16500
H 	H 	0.76230 0.23180 0.37510 0.07000
H 	H 	0.79110 0.23730 0.31440 0.07900
C 	C 	0.80900 0.21430 0.41450 -0.26200
H 	H 	0.79900 0.20120 0.45490 0.10000
H 	H 	0.81730 0.23520 0.43500 0.10000
H 	H 	0.82740 0.20190 0.39230 0.10400
C 	C 	0.83264 0.42195 0.96630 0.10500
H 	H 	0.82470 0.42430 0.01620 -0.00400
C 	C 	0.81609 0.40062 0.91920 -0.19200
H 	H 	0.79720 0.38890 0.93620 0.09600
C 	C 	0.82745 0.39667 0.84730 0.12300
C 	C 	0.85420 0.41450 0.82620 -0.17900
H 	H 	0.86280 0.41220 0.77690 0.08300
C 	C 	0.86925 0.43629 0.87590 0.09700
H 	H 	0.88730 0.44930 0.85900 -0.01000
C 	C 	0.81040 0.37260 0.79350 -0.11300
H 	H 	0.79160 0.36210 0.81990 0.06200
H 	H 	0.82630 0.35500 0.77980 0.05300
Mn	Mn	0.20666 0.67602 0.92375 1.31900
O 	O 	0.23375 0.65473 0.99371 -0.48600
O 	O 	0.22863 0.75485 0.06384 -0.41300
O 	O 	0.18047 0.70477 0.86000 -0.42900
N 	N 	0.21405 0.71793 0.97356 -0.29400
N 	N 	0.19840 0.74541 0.93903 -0.22700
C 	C 	0.24796 0.66634 0.05320 0.30500
C 	C 	0.26669 0.64387 0.09760 -0.27200
H 	H 	0.27040 0.62200 0.07980 0.12600
C 	C 	0.27950 0.65332 0.16590 0.14100
H 	H 	0.29240 0.63790 0.19340 -0.02200
C 	C 	0.27420 0.68420 0.19580 -0.20100
H 	H 	0.28120 0.68940 0.24530 0.10100
C 	C 	0.25800 0.70798 0.15020 0.12800
H 	H 	0.25580 0.73010 0.16740 0.00300
C 	C 	0.24549 0.69917 0.08040 -0.25100
C 	C 	0.22871 0.72525 0.03770 0.27200
C 	C 	0.18179 0.73600 0.88011 0.20600
C 	C 	0.16354 0.76126 0.83490 -0.14800
H 	H 	0.15010 0.77490 0.86950 0.06300
H 	H 	0.17990 0.77600 0.81070 0.07300
C 	C 	0.14118 0.74777 0.77520 -0.25300
H 	H 	0.12260 0.73620 0.79880 0.10000
H 	H 	0.13280 0.76600 0.74440 0.09500
H 	H 	0.15350 0.73230 0.74350 0.10400
Mn	Mn	0.21618 0.79183 0.99688 1.33300
O 	O 	0.17513 0.80100 0.03854 -0.47100
O 	O 	0.18422 0.86528 0.85115 -0.41200
O 	O 	0.25786 0.78915 0.94439 -0.42000
N 	N 	0.21006 0.82689 0.92403 -0.28600
N 	N 	0.23790 0.83236 0.87757 -0.22700
N 	N 	0.24378 0.82450 0.08110 -0.24400
C 	C 	0.15256 0.82313 0.01950 0.29600
C 	C 	0.12384 0.82517 0.06470 -0.26400
H 	H 	0.12160 0.81090 0.10680 0.12500
C 	C 	0.09928 0.84740 0.04860 0.14000
H 	H 	0.08020 0.84810 0.07970 -0.02900
C 	C 	0.10151 0.86887 0.98810 -0.20400
H 	H 	0.08430 0.88430 0.97800 0.09800
C 	C 	0.12912 0.86743 0.94290 0.12700
H 	H 	0.13080 0.88210 0.90140 0.00500
C 	C 	0.15506 0.84470 0.95690 -0.23600
C 	C 	0.18433 0.84579 0.90774 0.27000
C 	C 	0.26136 0.81186 0.89340 0.21500
C 	C 	0.29402 0.81481 0.85520 -0.14200
H 	H 	0.29590 0.79700 0.81740 0.06600
H 	H 	0.29480 0.83620 0.82810 0.05600
C 	C 	0.32363 0.81290 0.90730 -0.26600
H 	H 	0.32310 0.79190 0.93470 0.10700
H 	H 	0.34400 0.81430 0.87780 0.09700
H 	H 	0.32280 0.83130 0.94310 0.10400
C 	C 	0.24000 0.85454 0.08880 0.17400
H 	H 	0.22280 0.86450 0.06030 -0.03800
C 	C 	0.25840 0.87548 0.13530 -0.27700
H 	H 	0.25370 0.89850 0.13550 0.11700
C 	C 	0.28040 0.86463 0.17580 0.19800
C 	C 	0.29260 0.83270 0.15610 -0.19800
H 	H 	0.31310 0.82490 0.17540 0.09000
C 	C 	0.27400 0.81324 0.10870 0.09500
H 	H 	0.28180 0.79200 0.09470 0.00000
C 	C 	0.29910 0.88674 0.23040 -0.19400
H 	H 	0.28430 0.90520 0.24480 0.08100
H 	H 	0.31820 0.89650 0.20340 0.07700
Mn	Mn	0.27834 0.63697 0.72155 1.33300
O 	O 	0.25816 0.59861 0.68979 -0.47200
O 	O 	0.19803 0.63522 0.86755 -0.43100
O 	O 	0.29372 0.67776 0.76537 -0.42400
N 	N 	0.24364 0.64430 0.79514 -0.28500
N 	N 	0.24622 0.67449 0.83485 -0.22600
N 	N 	0.35904 0.93937 0.44627 -0.23100
C 	C 	0.23349 0.58159 0.72180 0.29600
C 	C 	0.22756 0.54992 0.69400 -0.26200
H 	H 	0.24090 0.54170 0.65420 0.12900
C 	C 	0.20258 0.53013 0.72300 0.13400
H 	H 	0.19900 0.50870 0.70300 -0.02200
C 	C 	0.18267 0.54161 0.78160 -0.19700
H 	H 	0.16570 0.52810 0.80190 0.10600
C 	C 	0.18810 0.57283 0.80940 0.13200
H 	H 	0.17450 0.58090 0.84880 0.01100
C 	C 	0.21336 0.59322 0.78090 -0.23900
C 	C 	0.21809 0.62578 0.81610 0.27800
C 	C 	0.27293 0.68972 0.81480 0.21800
C 	C 	0.28208 0.72168 0.85200 -0.16500
H 	H 	0.26230 0.73180 0.87510 0.07000
H 	H 	0.29110 0.73730 0.81440 0.07900
C 	C 	0.30900 0.71430 0.91450 -0.26200
H 	H 	0.29900 0.70120 0.95490 0.10000
H 	H 	0.31730 0.73520 0.93500 0.10000
H 	H 	0.32740 0.70190 0.89230 0.10400
C 	C 	0.33264 0.92195 0.46630 0.10400
H 	H 	0.32470 0.92430 0.51620 -0.00300
C 	C 	0.31609 0.90062 0.41920 -0.19200
H 	H 	0.29720 0.88890 0.43620 0.09600
C 	C 	0.32745 0.89667 0.34730 0.12300
C 	C 	0.35420 0.91450 0.32620 -0.17900
H 	H 	0.36280 0.91220 0.27690 0.08300
C 	C 	0.36925 0.93629 0.37590 0.09700
H 	H 	0.38730 0.94930 0.35900 -0.01000
C 	C 	0.31040 0.87260 0.29350 -0.11300
H 	H 	0.29160 0.86210 0.31990 0.06200
H 	H 	0.32630 0.85500 0.27980 0.05300
