data_crystal

_cell_length_a 17.56420
_cell_length_b 30.05410
_cell_length_c 30.05410
_cell_angle_alpha 85.10180
_cell_angle_beta  73.00970
_cell_angle_gamma 73.00970

_symmetry_space_group_name_	'P 1'
_symmetry_space_group_name_H-M	'P 1'

loop_
_symmetry_equiv_pos_as_xyz
  x,y,z

loop_
_atom_site_label
_atom_site_type_symbol
_atom_site_fract_x
_atom_site_fract_y
_atom_site_fract_z
_atom_site_charge
Mn	Mn	0.24251 0.87892 0.47038 1.31900
Mn	Mn	0.20687 0.00269 0.57636 1.33100
Mn	Mn	0.08263 0.91465 0.35701 1.33200
Mn	Mn	0.09181 0.62108 0.02962 1.31900
Mn	Mn	0.28593 0.49731 0.92364 1.33100
Mn	Mn	0.85429 0.58535 0.14299 1.33200
Mn	Mn	0.71289 0.52962 0.37892 1.31900
Mn	Mn	0.78324 0.42364 0.50268 1.33100
Mn	Mn	0.43964 0.64299 0.41465 1.33200
Mn	Mn	0.12143 0.97038 0.12108 1.31900
Mn	Mn	0.20956 0.07636 0.99732 1.33100
Mn	Mn	0.99728 0.85701 0.08535 1.33200
Mn	Mn	0.75749 0.12108 0.52962 1.31900
Mn	Mn	0.79313 0.99731 0.42364 1.33100
Mn	Mn	0.91737 0.08535 0.64299 1.33100
Mn	Mn	0.90819 0.37892 0.97038 1.31800
Mn	Mn	0.71407 0.50269 0.07636 1.33000
Mn	Mn	0.14571 0.41465 0.85701 1.33100
Mn	Mn	0.28711 0.47038 0.62108 1.31800
Mn	Mn	0.21676 0.57636 0.49732 1.33000
Mn	Mn	0.56036 0.35701 0.58535 1.33100
Mn	Mn	0.87857 0.02962 0.87892 1.31800
Mn	Mn	0.79044 0.92364 0.00268 1.33000
Mn	Mn	0.00272 0.14299 0.91465 1.33100
H 	H 	0.45260 0.88640 0.35300 0.13200
H 	H 	0.54940 0.92620 0.34220 -0.02400
H 	H 	0.54780 0.97260 0.40180 0.10000
H 	H 	0.43730 0.98310 0.47110 0.00400
H 	H 	0.09120 0.92210 0.62470 0.06300
H 	H 	0.03090 0.95380 0.59640 0.07200
H 	H 	0.05620 0.85610 0.60830 0.10300
H 	H 	0.97640 0.89450 0.63710 0.09800
H 	H 	0.99290 0.88910 0.58230 0.10400
H 	H 	0.29640 0.92670 0.69010 0.12800
H 	H 	0.23540 0.92600 0.76820 -0.02900
H 	H 	0.09540 0.96860 0.80040 0.10000
H 	H 	0.02140 0.01260 0.75080 0.00200
H 	H 	0.02120 0.09130 0.50230 0.06300
H 	H 	0.99730 0.12950 0.54170 0.05300
H 	H 	0.15030 0.10850 0.46950 0.11900
H 	H 	0.07350 0.15320 0.46960 0.10400
H 	H 	0.12250 0.14840 0.50780 0.11000
H 	H 	0.22080 0.06780 0.64940 -0.01500
H 	H 	0.26780 0.12930 0.65870 0.09100
H 	H 	0.34390 0.13720 0.51780 0.07700
H 	H 	0.30370 0.06970 0.51450 0.00600
H 	H 	0.35990 0.17890 0.62430 0.06500
H 	H 	0.29620 0.20900 0.59740 0.06100
H 	H 	0.10020 0.78290 0.30050 0.13100
H 	H 	0.17850 0.70770 0.31010 -0.02400
H 	H 	0.25850 0.69260 0.36160 0.10700
H 	H 	0.26000 0.75270 0.40470 0.01100
H 	H 	0.14490 0.99020 0.46860 0.10300
H 	H 	0.07720 0.02470 0.44590 0.11400
H 	H 	0.39590 0.33760 0.57780 -0.00800
H 	H 	0.34140 0.27980 0.56760 0.09000
H 	H 	0.55230 0.18580 0.57700 0.09400
H 	H 	0.60140 0.24670 0.58710 -0.00300
H 	H 	0.45490 0.15850 0.55350 0.07400
H 	H 	0.39110 0.19520 0.53040 0.06800
H 	H 	0.19200 0.61360 0.14700 0.13200
H 	H 	0.31780 0.57380 0.15780 -0.02400
H 	H 	0.42220 0.52740 0.09820 0.10000
H 	H 	0.39150 0.51690 0.02890 0.00400
H 	H 	0.13800 0.57790 0.87530 0.06200
H 	H 	0.08110 0.54620 0.90360 0.07100
H 	H 	0.02060 0.64390 0.89170 0.10300
H 	H 	0.00800 0.60550 0.86290 0.09900
H 	H 	0.96430 0.61090 0.91770 0.10500
H 	H 	0.41320 0.57330 0.80990 0.12800
H 	H 	0.42960 0.57400 0.73180 -0.02900
H 	H 	0.36440 0.53140 0.69960 0.09900
H 	H 	0.28480 0.48740 0.74920 0.00300
H 	H 	0.11480 0.40870 0.99770 0.06300
H 	H 	0.16850 0.37050 0.95830 0.05300
H 	H 	0.22830 0.39150 0.03050 0.11900
H 	H 	0.19630 0.34680 0.03040 0.10300
H 	H 	0.27870 0.35160 0.99220 0.10900
H 	H 	0.43800 0.43220 0.85060 -0.01500
H 	H 	0.55580 0.37070 0.84130 0.09100
H 	H 	0.49890 0.36280 0.98220 0.07700
H 	H 	0.38790 0.43030 0.98550 0.00600
H 	H 	0.66310 0.32110 0.87570 0.06500
H 	H 	0.60260 0.29100 0.90260 0.06100
H 	H 	0.68360 0.71710 0.19950 0.13100
H 	H 	0.69630 0.79230 0.18990 -0.02400
H 	H 	0.81270 0.80740 0.13840 0.10700
H 	H 	0.91740 0.74730 0.09530 0.01100
H 	H 	0.10370 0.50980 0.03140 0.10300
H 	H 	0.04780 0.47530 0.05410 0.11400
H 	H 	0.81130 0.16240 0.92220 -0.00800
H 	H 	0.68880 0.22020 0.93240 0.09000
H 	H 	0.81510 0.31420 0.92300 0.09400
H 	H 	0.93520 0.25330 0.91290 -0.00300
H 	H 	0.66690 0.34150 0.94650 0.07400
H 	H 	0.61670 0.30480 0.96960 0.06800
H 	H 	0.80560 0.64700 0.38640 0.13200
H 	H 	0.89160 0.65780 0.42620 -0.02400
H 	H 	0.94960 0.59820 0.47260 0.10000
H 	H 	0.90840 0.52890 0.48310 0.00400
H 	H 	0.71590 0.37530 0.42210 0.06200
H 	H 	0.62730 0.40360 0.45380 0.07100
H 	H 	0.66450 0.39170 0.35610 0.10300
H 	H 	0.61350 0.36290 0.39450 0.09900
H 	H 	0.57520 0.41770 0.38910 0.10500
H 	H 	0.98650 0.30990 0.42670 0.12800
H 	H 	0.00360 0.23180 0.42600 -0.02900
H 	H 	0.89580 0.19960 0.46860 0.09900
H 	H 	0.77220 0.24920 0.51260 0.00300
H 	H 	0.52350 0.49770 0.59130 0.06300
H 	H 	0.53900 0.45830 0.62950 0.05300
H 	H 	0.61980 0.53050 0.60850 0.11900
H 	H 	0.54310 0.53040 0.65320 0.10400
H 	H 	0.63030 0.49220 0.64840 0.11000
H 	H 	0.87020 0.35060 0.56780 -0.01500
H 	H 	0.92650 0.34130 0.62930 0.09100
H 	H 	0.86170 0.48220 0.63720 0.07700
H 	H 	0.81820 0.48550 0.56970 0.00600
H 	H 	0.98420 0.37570 0.67890 0.06500
H 	H 	0.89360 0.40260 0.70900 0.06100
H 	H 	0.40070 0.69950 0.28290 0.13100
H 	H 	0.48860 0.68990 0.20770 -0.02400
H 	H 	0.62010 0.63840 0.19260 0.10700
H 	H 	0.66470 0.59530 0.25270 0.01100
H 	H 	0.61350 0.53140 0.49020 0.10300
H 	H 	0.52310 0.55410 0.52470 0.11400
H 	H 	0.97370 0.42220 0.83760 -0.00800
H 	H 	0.90900 0.43240 0.77980 0.09000
H 	H 	0.12930 0.42300 0.68580 0.09400
H 	H 	0.18850 0.41290 0.74670 -0.00300
H 	H 	0.00840 0.44650 0.65850 0.07400
H 	H 	0.92150 0.46960 0.69520 0.06800
H 	H 	0.33900 0.85300 0.11360 0.13200
H 	H 	0.47560 0.84220 0.07380 -0.02400
H 	H 	0.52040 0.90180 0.02740 0.09900
H 	H 	0.42040 0.97110 0.01690 0.00400
H 	H 	0.01330 0.12470 0.07790 0.06200
H 	H 	0.98470 0.09640 0.04620 0.07200
H 	H 	0.91230 0.10830 0.14390 0.10400
H 	H 	0.87090 0.13710 0.10550 0.09900
H 	H 	0.88200 0.08230 0.11090 0.10500
H 	H 	0.22310 0.19010 0.07330 0.12800
H 	H 	0.16140 0.26820 0.07400 -0.02900
H 	H 	0.06400 0.30040 0.03140 0.09900
H 	H 	0.03400 0.25080 0.98740 0.00200
H 	H 	0.11250 0.00230 0.90870 0.06400
H 	H 	0.12680 0.04170 0.87050 0.05400
H 	H 	0.25880 0.96950 0.89150 0.11700
H 	H 	0.22670 0.96960 0.84680 0.10100
H 	H 	0.27090 0.00780 0.85160 0.10700
H 	H 	0.28860 0.14940 0.93220 -0.01600
H 	H 	0.39710 0.15870 0.87070 0.09100
H 	H 	0.48110 0.01780 0.86280 0.07700
H 	H 	0.37340 0.01450 0.93030 0.00600
H 	H 	0.53880 0.12430 0.82110 0.06500
H 	H 	0.50520 0.09740 0.79100 0.06100
H 	H 	0.88310 0.80050 0.21710 0.13100
H 	H 	0.88620 0.81010 0.29230 -0.02400
H 	H 	0.95110 0.86160 0.30740 0.10700
H 	H 	0.01270 0.90470 0.24730 0.01100
H 	H 	0.13510 0.96860 0.00980 0.10100
H 	H 	0.10190 0.94590 0.97530 0.11300
H 	H 	0.73350 0.07780 0.66240 -0.00800
H 	H 	0.62120 0.06760 0.72020 0.09000
H 	H 	0.73810 0.07700 0.81420 0.09400
H 	H 	0.84810 0.08710 0.75330 -0.00300
H 	H 	0.61340 0.05350 0.84150 0.07400
H 	H 	0.58630 0.03040 0.80480 0.06800
H 	H 	0.54740 0.11360 0.64700 0.13200
H 	H 	0.45060 0.07380 0.65780 -0.02400
H 	H 	0.45220 0.02740 0.59820 0.10000
H 	H 	0.56270 0.01690 0.52890 0.00400
H 	H 	0.90880 0.07790 0.37530 0.06300
H 	H 	0.96910 0.04620 0.40360 0.07200
H 	H 	0.94380 0.14390 0.39170 0.10300
H 	H 	0.02360 0.10550 0.36290 0.09800
H 	H 	0.00710 0.11090 0.41770 0.10400
H 	H 	0.70360 0.07330 0.30990 0.12800
H 	H 	0.76460 0.07400 0.23180 -0.02900
H 	H 	0.90460 0.03140 0.19960 0.10000
H 	H 	0.97860 0.98740 0.24920 0.00200
H 	H 	0.97880 0.90870 0.49770 0.06300
H 	H 	0.00270 0.87050 0.45830 0.05300
H 	H 	0.84970 0.89150 0.53050 0.11900
H 	H 	0.92650 0.84680 0.53040 0.10400
H 	H 	0.87750 0.85160 0.49220 0.11000
H 	H 	0.77920 0.93220 0.35060 -0.01500
H 	H 	0.73220 0.87070 0.34130 0.09100
H 	H 	0.65610 0.86280 0.48220 0.07700
H 	H 	0.69630 0.93030 0.48550 0.00600
H 	H 	0.64010 0.82110 0.37570 0.06500
H 	H 	0.70380 0.79100 0.40260 0.06100
H 	H 	0.89980 0.21710 0.69950 0.13100
H 	H 	0.82150 0.29230 0.68990 -0.02400
H 	H 	0.74150 0.30740 0.63840 0.10700
H 	H 	0.74000 0.24730 0.59530 0.01100
H 	H 	0.85510 0.00980 0.53140 0.10300
H 	H 	0.92280 0.97530 0.55410 0.11400
H 	H 	0.60410 0.66240 0.42220 -0.00800
H 	H 	0.65860 0.72020 0.43240 0.09000
H 	H 	0.44770 0.81420 0.42300 0.09400
H 	H 	0.39860 0.75330 0.41290 -0.00300
H 	H 	0.54510 0.84150 0.44650 0.07400
H 	H 	0.60890 0.80480 0.46960 0.06800
H 	H 	0.80800 0.38640 0.85300 0.13200
H 	H 	0.68220 0.42620 0.84220 -0.02400
H 	H 	0.57780 0.47260 0.90180 0.10000
H 	H 	0.60850 0.48310 0.97110 0.00400
H 	H 	0.86200 0.42210 0.12470 0.06200
H 	H 	0.91890 0.45380 0.09640 0.07100
H 	H 	0.97940 0.35610 0.10830 0.10300
H 	H 	0.99200 0.39450 0.13710 0.09900
H 	H 	0.03570 0.38910 0.08230 0.10500
H 	H 	0.58680 0.42670 0.19010 0.12800
H 	H 	0.57040 0.42600 0.26820 -0.02900
H 	H 	0.63560 0.46860 0.30040 0.09900
H 	H 	0.71520 0.51260 0.25080 0.00300
H 	H 	0.88520 0.59130 0.00230 0.06300
H 	H 	0.83150 0.62950 0.04170 0.05300
H 	H 	0.77170 0.60850 0.96950 0.11900
H 	H 	0.80370 0.65320 0.96960 0.10300
H 	H 	0.72130 0.64840 0.00780 0.10900
H 	H 	0.56200 0.56780 0.14940 -0.01500
H 	H 	0.44420 0.62930 0.15870 0.09100
H 	H 	0.50110 0.63720 0.01780 0.07700
H 	H 	0.61210 0.56970 0.01450 0.00600
H 	H 	0.33690 0.67890 0.12430 0.06500
H 	H 	0.39740 0.70900 0.09740 0.06100
H 	H 	0.31640 0.28290 0.80050 0.13100
H 	H 	0.30370 0.20770 0.81010 -0.02400
H 	H 	0.18730 0.19260 0.86160 0.10700
H 	H 	0.08260 0.25270 0.90470 0.01100
H 	H 	0.89630 0.49020 0.96860 0.10300
H 	H 	0.95220 0.52470 0.94590 0.11400
H 	H 	0.18870 0.83760 0.07780 -0.00800
H 	H 	0.31120 0.77980 0.06760 0.09000
H 	H 	0.18490 0.68580 0.07700 0.09400
H 	H 	0.06480 0.74670 0.08710 -0.00300
H 	H 	0.33310 0.65850 0.05350 0.07400
H 	H 	0.38330 0.69520 0.03040 0.06800
H 	H 	0.19440 0.35300 0.61360 0.13200
H 	H 	0.10840 0.34220 0.57380 -0.02400
H 	H 	0.05040 0.40180 0.52740 0.10000
H 	H 	0.09160 0.47110 0.51690 0.00400
H 	H 	0.28410 0.62470 0.57790 0.06200
H 	H 	0.37270 0.59640 0.54620 0.07100
H 	H 	0.33550 0.60830 0.64390 0.10300
H 	H 	0.38650 0.63710 0.60550 0.09900
H 	H 	0.42480 0.58230 0.61090 0.10500
H 	H 	0.01350 0.69010 0.57330 0.12800
H 	H 	0.99640 0.76820 0.57400 -0.02900
H 	H 	0.10420 0.80040 0.53140 0.09900
H 	H 	0.22780 0.75080 0.48740 0.00300
H 	H 	0.47650 0.50230 0.40870 0.06300
H 	H 	0.46100 0.54170 0.37050 0.05300
H 	H 	0.38020 0.46950 0.39150 0.11900
H 	H 	0.45690 0.46960 0.34680 0.10400
H 	H 	0.36970 0.50780 0.35160 0.11000
H 	H 	0.12980 0.64940 0.43220 -0.01500
H 	H 	0.07350 0.65870 0.37070 0.09100
H 	H 	0.13830 0.51780 0.36280 0.07700
H 	H 	0.18180 0.51450 0.43030 0.00600
H 	H 	0.01580 0.62430 0.32110 0.06500
H 	H 	0.10640 0.59740 0.29100 0.06100
H 	H 	0.59930 0.30050 0.71710 0.13100
H 	H 	0.51140 0.31010 0.79230 -0.02400
H 	H 	0.37990 0.36160 0.80740 0.10700
H 	H 	0.33530 0.40470 0.74730 0.01100
H 	H 	0.38650 0.46860 0.50980 0.10300
H 	H 	0.47690 0.44590 0.47530 0.11400
H 	H 	0.02630 0.57780 0.16240 -0.00800
H 	H 	0.09100 0.56760 0.22020 0.09000
H 	H 	0.87070 0.57700 0.31420 0.09400
H 	H 	0.81150 0.58710 0.25330 -0.00300
H 	H 	0.99160 0.55350 0.34150 0.07400
H 	H 	0.07850 0.53040 0.30480 0.06800
H 	H 	0.66100 0.14700 0.88640 0.13200
H 	H 	0.52440 0.15780 0.92620 -0.02400
H 	H 	0.47960 0.09820 0.97260 0.09900
H 	H 	0.57960 0.02890 0.98310 0.00400
H 	H 	0.98670 0.87530 0.92210 0.06200
H 	H 	0.01530 0.90360 0.95380 0.07200
H 	H 	0.08770 0.89170 0.85610 0.10400
H 	H 	0.12910 0.86290 0.89450 0.09900
H 	H 	0.11800 0.91770 0.88910 0.10500
H 	H 	0.77690 0.80990 0.92670 0.12800
H 	H 	0.83860 0.73180 0.92600 -0.02900
H 	H 	0.93600 0.69960 0.96860 0.09900
H 	H 	0.96600 0.74920 0.01260 0.00200
H 	H 	0.88750 0.99770 0.09130 0.06400
H 	H 	0.87320 0.95830 0.12950 0.05400
H 	H 	0.74120 0.03050 0.10850 0.11700
H 	H 	0.77330 0.03040 0.15320 0.10100
H 	H 	0.72910 0.99220 0.14840 0.10700
H 	H 	0.71140 0.85060 0.06780 -0.01600
H 	H 	0.60290 0.84130 0.12930 0.09100
H 	H 	0.51890 0.98220 0.13720 0.07700
H 	H 	0.62660 0.98550 0.06970 0.00600
H 	H 	0.46120 0.87570 0.17890 0.06500
H 	H 	0.49480 0.90260 0.20900 0.06100
H 	H 	0.11690 0.19950 0.78290 0.13100
H 	H 	0.11380 0.18990 0.70770 -0.02400
H 	H 	0.04890 0.13840 0.69260 0.10700
H 	H 	0.98730 0.09530 0.75270 0.01100
H 	H 	0.86490 0.03140 0.99020 0.10100
H 	H 	0.89810 0.05410 0.02470 0.11300
H 	H 	0.26650 0.92220 0.33760 -0.00800
H 	H 	0.37880 0.93240 0.27980 0.09000
H 	H 	0.26190 0.92300 0.18580 0.09400
H 	H 	0.15190 0.91290 0.24670 -0.00300
H 	H 	0.38660 0.94650 0.15850 0.07400
H 	H 	0.41370 0.96960 0.19520 0.06800
C 	C 	0.38512 0.90904 0.41872 0.30900
C 	C 	0.44945 0.90566 0.37724 -0.28000
C 	C 	0.50731 0.92912 0.37086 0.14700
C 	C 	0.50573 0.95748 0.40586 -0.19600
C 	C 	0.44034 0.96312 0.44740 0.12800
C 	C 	0.38049 0.93975 0.45387 -0.24200
C 	C 	0.31263 0.94851 0.49703 0.26500
C 	C 	0.13955 0.91497 0.55447 0.20300
C 	C 	0.06902 0.92245 0.59791 -0.14800
C 	C 	0.01930 0.88741 0.60719 -0.25500
C 	C 	0.19745 0.97126 0.67164 0.29500
C 	C 	0.24044 0.94463 0.70229 -0.27000
C 	C 	0.20432 0.94391 0.74845 0.14500
C 	C 	0.12097 0.96934 0.76792 -0.20600
C 	C 	0.07768 0.99539 0.73825 0.13400
C 	C 	0.11444 0.99701 0.69051 -0.23800
C 	C 	0.06397 0.02826 0.66208 0.26900
C 	C 	0.08463 0.07013 0.55121 0.20600
C 	C 	0.04419 0.10629 0.52133 -0.12700
C 	C 	0.10284 0.13132 0.48920 -0.28400
C 	C 	0.25032 0.08061 0.62215 0.11000
C 	C 	0.27696 0.11814 0.62834 -0.19100
C 	C 	0.31483 0.13767 0.59167 0.11900
C 	C 	0.32249 0.12157 0.54525 -0.15400
C 	C 	0.29657 0.08224 0.54382 0.07900
C 	C 	0.34403 0.18107 0.59507 -0.12900
C 	C 	0.13192 0.81451 0.34705 0.29600
C 	C 	0.13252 0.77730 0.32186 -0.26600
C 	C 	0.17921 0.73243 0.32755 0.14400
C 	C 	0.22638 0.72344 0.35800 -0.20500
C 	C 	0.22722 0.75926 0.38350 0.13300
C 	C 	0.18038 0.80543 0.37857 -0.23900
C 	C 	0.18439 0.84184 0.40682 0.27600
C 	C 	0.12621 0.96059 0.41539 0.25800
C 	C 	0.13086 0.00027 0.43901 -0.27500
C 	C 	0.42881 0.30626 0.57732 0.10600
C 	C 	0.39606 0.27190 0.57078 -0.18900
C 	C 	0.44176 0.22665 0.56883 0.13800
C 	C 	0.51938 0.21696 0.57628 -0.19200
C 	C 	0.54777 0.25359 0.58267 0.10200
C 	C 	0.40929 0.18773 0.55909 -0.16000
C 	C 	0.21288 0.59096 0.08128 0.30900
C 	C 	0.23235 0.59434 0.12276 -0.28000
C 	C 	0.30729 0.57088 0.12914 0.14700
C 	C 	0.36907 0.54252 0.09414 -0.19600
C 	C 	0.35086 0.53688 0.05260 0.12800
C 	C 	0.27411 0.56025 0.04613 -0.24200
C 	C 	0.25817 0.55149 0.00297 0.26500
C 	C 	0.10899 0.58503 0.94553 0.20300
C 	C 	0.08938 0.57755 0.90209 -0.14700
C 	C 	0.01390 0.61259 0.89281 -0.25700
C 	C 	0.34035 0.52874 0.82836 0.29500
C 	C 	0.38736 0.55537 0.79771 -0.26900
C 	C 	0.39668 0.55609 0.75155 0.14400
C 	C 	0.35823 0.53066 0.73208 -0.20500
C 	C 	0.31132 0.50461 0.76175 0.13200
C 	C 	0.30196 0.50299 0.80949 -0.23800
C 	C 	0.25431 0.47174 0.83792 0.27000
C 	C 	0.20597 0.42987 0.94879 0.20600
C 	C 	0.17181 0.39371 0.97867 -0.12800
C 	C 	0.22336 0.36868 0.01080 -0.28100
C 	C 	0.45308 0.41939 0.87785 0.11000
C 	C 	0.52344 0.38186 0.87166 -0.19100
C 	C 	0.54417 0.36233 0.90833 0.11900
C 	C 	0.48931 0.37843 0.95475 -0.15400
C 	C 	0.42263 0.41776 0.95618 0.07900
C 	C 	0.62017 0.31893 0.90493 -0.12900
C 	C 	0.79348 0.68549 0.15295 0.29600
C 	C 	0.73168 0.72270 0.17814 -0.26600
C 	C 	0.73919 0.76757 0.17245 0.14400
C 	C 	0.80782 0.77656 0.14200 -0.20500
C 	C 	0.86998 0.74074 0.11650 0.13300
C 	C 	0.86438 0.69457 0.12143 -0.23900
C 	C 	0.93305 0.65816 0.09318 0.27600
C 	C 	0.00219 0.53941 0.08461 0.25800
C 	C 	0.07014 0.49973 0.06099 -0.27500
C 	C 	0.81239 0.19374 0.92268 0.10600
C 	C 	0.73874 0.22810 0.92922 -0.18900
C 	C 	0.73724 0.27335 0.93117 0.13800
C 	C 	0.81262 0.28304 0.92372 -0.19200
C 	C 	0.88403 0.24641 0.91733 0.10200
C 	C 	0.65611 0.31227 0.94091 -0.16000
C 	C 	0.80384 0.58128 0.40904 0.30900
C 	C 	0.82669 0.62276 0.40566 -0.28000
C 	C 	0.87817 0.62914 0.42912 0.14700
C 	C 	0.91159 0.59414 0.45748 -0.19700
C 	C 	0.88774 0.55260 0.46312 0.12800
C 	C 	0.83436 0.54613 0.43975 -0.24200
C 	C 	0.80966 0.50297 0.44851 0.26500
C 	C 	0.69402 0.44553 0.41497 0.20300
C 	C 	0.66693 0.40209 0.42245 -0.14700
C 	C 	0.62649 0.39281 0.38741 -0.25700
C 	C 	0.86909 0.32836 0.47126 0.29500
C 	C 	0.94273 0.29771 0.44463 -0.27000
C 	C 	0.95277 0.25155 0.44391 0.14400
C 	C 	0.88889 0.23208 0.46934 -0.20500
C 	C 	0.81593 0.26175 0.49539 0.13200
C 	C 	0.80495 0.30949 0.49701 -0.23800
C 	C 	0.72605 0.33792 0.52826 0.27000
C 	C 	0.63584 0.44879 0.57013 0.20600
C 	C 	0.56552 0.47867 0.60629 -0.12600
C 	C 	0.59204 0.51080 0.63132 -0.28500
C 	C 	0.87247 0.37785 0.58061 0.11000
C 	C 	0.90530 0.37166 0.61814 -0.19100
C 	C 	0.90650 0.40833 0.63767 0.11900
C 	C 	0.86774 0.45475 0.62157 -0.15400
C 	C 	0.84039 0.45618 0.58224 0.07900
C 	C 	0.93910 0.40493 0.68107 -0.12900
C 	C 	0.47897 0.65295 0.31451 0.29600
C 	C 	0.45438 0.67814 0.27730 -0.26600
C 	C 	0.50676 0.67245 0.23243 0.14400
C 	C 	0.58438 0.64200 0.22344 -0.20500
C 	C 	0.61072 0.61650 0.25926 0.13300
C 	C 	0.55895 0.62143 0.30543 -0.23900
C 	C 	0.59121 0.59318 0.34184 0.27600
C 	C 	0.54160 0.58461 0.46059 0.25800
C 	C 	0.56987 0.56099 0.50027 -0.27500
C 	C 	0.00613 0.42268 0.80626 0.10600
C 	C 	0.96684 0.42922 0.77190 -0.18900
C 	C 	0.01059 0.43117 0.72665 0.13800
C 	C 	0.09566 0.42372 0.71696 -0.19200
C 	C 	0.13044 0.41733 0.75359 0.10200
C 	C 	0.96838 0.44091 0.68773 -0.15900
C 	C 	0.29416 0.91872 0.09096 0.30800
C 	C 	0.35511 0.87724 0.09434 -0.28000
C 	C 	0.43643 0.87086 0.07088 0.14700
C 	C 	0.46321 0.90586 0.04252 -0.19600
C 	C 	0.40346 0.94740 0.03688 0.12700
C 	C 	0.32024 0.95387 0.06025 -0.24100
C 	C 	0.26114 0.99703 0.05149 0.26300
C 	C 	0.05452 0.05447 0.08503 0.20300
C 	C 	0.99147 0.09791 0.07755 -0.14700
C 	C 	0.90671 0.10719 0.11259 -0.25800
C 	C 	0.16871 0.17164 0.02874 0.29500
C 	C 	0.18507 0.20229 0.05537 -0.26900
C 	C 	0.14823 0.24845 0.05609 0.14400
C 	C 	0.09031 0.26792 0.03066 -0.20500
C 	C 	0.07307 0.23825 0.00461 0.13300
C 	C 	0.11145 0.19051 0.00299 -0.23800
C 	C 	0.09223 0.16208 0.97174 0.26900
C 	C 	0.15476 0.05121 0.92987 0.20700
C 	C 	0.15048 0.02133 0.89371 -0.13200
C 	C 	0.23416 0.98920 0.86868 -0.27500
C 	C 	0.33093 0.12215 0.91939 0.11000
C 	C 	0.39510 0.12834 0.88186 -0.19100
C 	C 	0.45250 0.09167 0.86233 0.11900
C 	C 	0.44406 0.04525 0.87843 -0.15400
C 	C 	0.37881 0.04382 0.91776 0.07900
C 	C 	0.52510 0.09507 0.81893 -0.12900
C 	C 	0.94643 0.84705 0.18549 0.29600
C 	C 	0.90982 0.82186 0.22270 -0.26600
C 	C 	0.91164 0.82755 0.26757 0.14400
C 	C 	0.94982 0.85800 0.27656 -0.20400
C 	C 	0.98648 0.88350 0.24074 0.13200
C 	C 	0.98581 0.87857 0.19457 -0.23900
C 	C 	0.02623 0.90682 0.15816 0.27700
C 	C 	0.08680 0.91539 0.03941 0.25600
C 	C 	0.13113 0.93901 0.99973 -0.27100
C 	C 	0.73507 0.07732 0.69374 0.10600
C 	C 	0.66796 0.07078 0.72810 -0.18900
C 	C 	0.66841 0.06883 0.77335 0.13800
C 	C 	0.73634 0.07628 0.78304 -0.19200
C 	C 	0.80136 0.08267 0.74641 0.10200
C 	C 	0.59702 0.05909 0.81227 -0.16000
C 	C 	0.61488 0.09096 0.58128 0.30900
C 	C 	0.55055 0.09434 0.62276 -0.28000
C 	C 	0.49269 0.07088 0.62914 0.14700
C 	C 	0.49427 0.04252 0.59414 -0.19600
C 	C 	0.55966 0.03688 0.55260 0.12800
C 	C 	0.61951 0.06025 0.54613 -0.24200
C 	C 	0.68737 0.05149 0.50297 0.26500
C 	C 	0.86045 0.08503 0.44553 0.20300
C 	C 	0.93098 0.07755 0.40209 -0.14800
C 	C 	0.98070 0.11259 0.39281 -0.25500
C 	C 	0.80255 0.02874 0.32836 0.29500
C 	C 	0.75956 0.05537 0.29771 -0.27000
C 	C 	0.79568 0.05609 0.25155 0.14500
C 	C 	0.87903 0.03066 0.23208 -0.20600
C 	C 	0.92232 0.00461 0.26175 0.13400
C 	C 	0.88556 0.00299 0.30949 -0.23800
C 	C 	0.93603 0.97174 0.33792 0.26900
C 	C 	0.91537 0.92987 0.44879 0.20600
C 	C 	0.95581 0.89371 0.47867 -0.12700
C 	C 	0.89716 0.86868 0.51080 -0.28400
C 	C 	0.74968 0.91939 0.37785 0.11000
C 	C 	0.72304 0.88186 0.37166 -0.19100
C 	C 	0.68517 0.86233 0.40833 0.11900
C 	C 	0.67751 0.87843 0.45475 -0.15400
C 	C 	0.70343 0.91776 0.45618 0.07900
C 	C 	0.65597 0.81893 0.40493 -0.12900
C 	C 	0.86808 0.18549 0.65295 0.29600
C 	C 	0.86748 0.22270 0.67814 -0.26600
C 	C 	0.82079 0.26757 0.67245 0.14400
C 	C 	0.77362 0.27656 0.64200 -0.20500
C 	C 	0.77278 0.24074 0.61650 0.13300
C 	C 	0.81962 0.19457 0.62143 -0.23900
C 	C 	0.81561 0.15816 0.59318 0.27600
C 	C 	0.87379 0.03941 0.58461 0.25800
C 	C 	0.86914 0.99973 0.56099 -0.27500
C 	C 	0.57119 0.69374 0.42268 0.10600
C 	C 	0.60394 0.72810 0.42922 -0.18900
C 	C 	0.55824 0.77335 0.43117 0.13800
C 	C 	0.48062 0.78304 0.42372 -0.19200
C 	C 	0.45223 0.74641 0.41733 0.10200
C 	C 	0.59071 0.81227 0.44091 -0.16000
C 	C 	0.78712 0.40904 0.91872 0.30900
C 	C 	0.76765 0.40566 0.87724 -0.28000
C 	C 	0.69271 0.42912 0.87086 0.14700
C 	C 	0.63093 0.45748 0.90586 -0.19600
C 	C 	0.64914 0.46312 0.94740 0.12800
C 	C 	0.72589 0.43975 0.95387 -0.24200
C 	C 	0.74183 0.44851 0.99703 0.26500
C 	C 	0.89101 0.41497 0.05447 0.20300
C 	C 	0.91062 0.42245 0.09791 -0.14700
C 	C 	0.98610 0.38741 0.10719 -0.25700
C 	C 	0.65965 0.47126 0.17164 0.29500
C 	C 	0.61264 0.44463 0.20229 -0.26900
C 	C 	0.60332 0.44391 0.24845 0.14400
C 	C 	0.64177 0.46934 0.26792 -0.20500
C 	C 	0.68868 0.49539 0.23825 0.13200
C 	C 	0.69804 0.49701 0.19051 -0.23800
C 	C 	0.74569 0.52826 0.16208 0.27000
C 	C 	0.79403 0.57013 0.05121 0.20600
C 	C 	0.82819 0.60629 0.02133 -0.12800
C 	C 	0.77664 0.63132 0.98920 -0.28100
C 	C 	0.54692 0.58061 0.12215 0.11000
C 	C 	0.47656 0.61814 0.12834 -0.19100
C 	C 	0.45583 0.63767 0.09167 0.11900
C 	C 	0.51069 0.62157 0.04525 -0.15400
C 	C 	0.57737 0.58224 0.04382 0.07900
C 	C 	0.37983 0.68107 0.09507 -0.12900
C 	C 	0.20652 0.31451 0.84705 0.29600
C 	C 	0.26832 0.27730 0.82186 -0.26600
C 	C 	0.26081 0.23243 0.82755 0.14400
C 	C 	0.19218 0.22344 0.85800 -0.20500
C 	C 	0.13002 0.25926 0.88350 0.13300
C 	C 	0.13562 0.30543 0.87857 -0.23900
C 	C 	0.06695 0.34184 0.90682 0.27600
C 	C 	0.99781 0.46059 0.91539 0.25800
C 	C 	0.92986 0.50027 0.93901 -0.27500
C 	C 	0.18761 0.80626 0.07732 0.10600
C 	C 	0.26126 0.77190 0.07078 -0.18900
C 	C 	0.26276 0.72665 0.06883 0.13800
C 	C 	0.18738 0.71696 0.07628 -0.19200
C 	C 	0.11597 0.75359 0.08267 0.10200
C 	C 	0.34389 0.68773 0.05909 -0.16000
C 	C 	0.19616 0.41872 0.59096 0.30900
C 	C 	0.17331 0.37724 0.59434 -0.28000
C 	C 	0.12183 0.37086 0.57088 0.14700
C 	C 	0.08841 0.40586 0.54252 -0.19700
C 	C 	0.11226 0.44740 0.53688 0.12800
C 	C 	0.16564 0.45387 0.56025 -0.24200
C 	C 	0.19034 0.49703 0.55149 0.26500
C 	C 	0.30598 0.55447 0.58503 0.20300
C 	C 	0.33307 0.59791 0.57755 -0.14700
C 	C 	0.37351 0.60719 0.61259 -0.25700
C 	C 	0.13091 0.67164 0.52874 0.29500
C 	C 	0.05727 0.70229 0.55537 -0.27000
C 	C 	0.04723 0.74845 0.55609 0.14400
C 	C 	0.11111 0.76792 0.53066 -0.20500
C 	C 	0.18407 0.73825 0.50461 0.13200
C 	C 	0.19505 0.69051 0.50299 -0.23800
C 	C 	0.27395 0.66208 0.47174 0.27000
C 	C 	0.36416 0.55121 0.42987 0.20600
C 	C 	0.43448 0.52133 0.39371 -0.12600
C 	C 	0.40796 0.48920 0.36868 -0.28500
C 	C 	0.12753 0.62215 0.41939 0.11000
C 	C 	0.09470 0.62834 0.38186 -0.19100
C 	C 	0.09350 0.59167 0.36233 0.11900
C 	C 	0.13226 0.54525 0.37843 -0.15400
C 	C 	0.15961 0.54382 0.41776 0.07900
C 	C 	0.06090 0.59507 0.31893 -0.12900
C 	C 	0.52103 0.34705 0.68549 0.29600
C 	C 	0.54562 0.32186 0.72270 -0.26600
C 	C 	0.49324 0.32755 0.76757 0.14400
C 	C 	0.41562 0.35800 0.77656 -0.20500
C 	C 	0.38928 0.38350 0.74074 0.13300
C 	C 	0.44105 0.37857 0.69457 -0.23900
C 	C 	0.40879 0.40682 0.65816 0.27600
C 	C 	0.45840 0.41539 0.53941 0.25800
C 	C 	0.43013 0.43901 0.49973 -0.27500
C 	C 	0.99387 0.57732 0.19374 0.10600
C 	C 	0.03316 0.57078 0.22810 -0.18900
C 	C 	0.98941 0.56883 0.27335 0.13800
C 	C 	0.90434 0.57628 0.28304 -0.19200
C 	C 	0.86956 0.58267 0.24641 0.10200
C 	C 	0.03162 0.55909 0.31227 -0.15900
C 	C 	0.70584 0.08128 0.90904 0.30800
C 	C 	0.64489 0.12276 0.90566 -0.28000
C 	C 	0.56357 0.12914 0.92912 0.14700
C 	C 	0.53679 0.09414 0.95748 -0.19600
C 	C 	0.59654 0.05260 0.96312 0.12700
C 	C 	0.67976 0.04613 0.93975 -0.24100
C 	C 	0.73886 0.00297 0.94851 0.26300
C 	C 	0.94548 0.94553 0.91497 0.20300
C 	C 	0.00853 0.90209 0.92245 -0.14700
C 	C 	0.09329 0.89281 0.88741 -0.25800
C 	C 	0.83129 0.82836 0.97126 0.29500
C 	C 	0.81493 0.79771 0.94463 -0.26900
C 	C 	0.85177 0.75155 0.94391 0.14400
C 	C 	0.90969 0.73208 0.96934 -0.20500
C 	C 	0.92693 0.76175 0.99539 0.13300
C 	C 	0.88855 0.80949 0.99701 -0.23800
C 	C 	0.90777 0.83792 0.02826 0.26900
C 	C 	0.84524 0.94879 0.07013 0.20700
C 	C 	0.84952 0.97867 0.10629 -0.13200
C 	C 	0.76584 0.01080 0.13132 -0.27500
C 	C 	0.66907 0.87785 0.08061 0.11000
C 	C 	0.60490 0.87166 0.11814 -0.19100
C 	C 	0.54750 0.90833 0.13767 0.11900
C 	C 	0.55594 0.95475 0.12157 -0.15400
C 	C 	0.62119 0.95618 0.08224 0.07900
C 	C 	0.47490 0.90493 0.18107 -0.12900
C 	C 	0.05357 0.15295 0.81451 0.29600
C 	C 	0.09018 0.17814 0.77730 -0.26600
C 	C 	0.08836 0.17245 0.73243 0.14400
C 	C 	0.05018 0.14200 0.72344 -0.20400
C 	C 	0.01352 0.11650 0.75926 0.13200
C 	C 	0.01419 0.12143 0.80543 -0.23900
C 	C 	0.97377 0.09318 0.84184 0.27700
C 	C 	0.91320 0.08461 0.96059 0.25600
C 	C 	0.86887 0.06099 0.00027 -0.27100
C 	C 	0.26493 0.92268 0.30626 0.10600
C 	C 	0.33204 0.92922 0.27190 -0.18900
C 	C 	0.33159 0.93117 0.22665 0.13800
C 	C 	0.26366 0.92372 0.21696 -0.19200
C 	C 	0.19864 0.91733 0.25359 0.10200
C 	C 	0.40298 0.94091 0.18773 -0.16000
N 	N 	0.25450 0.92716 0.50520 -0.29000
N 	N 	0.19228 0.93956 0.54756 -0.22700
N 	N 	0.09845 0.03362 0.61754 -0.28600
N 	N 	0.04756 0.06821 0.59523 -0.22400
N 	N 	0.26152 0.06135 0.58281 -0.22600
N 	N 	0.14749 0.88596 0.39976 -0.28500
N 	N 	0.15856 0.91807 0.42779 -0.23400
N 	N 	0.50410 0.29801 0.58297 -0.23100
N 	N 	0.18686 0.57284 0.99480 -0.29000
N 	N 	0.17940 0.56044 0.95244 -0.22600
N 	N 	0.24961 0.46638 0.88246 -0.28600
N 	N 	0.21100 0.43179 0.90477 -0.22400
N 	N 	0.40568 0.43865 0.91719 -0.22600
N 	N 	0.93321 0.61404 0.10024 -0.28600
N 	N 	0.00442 0.58193 0.07221 -0.23400
N 	N 	0.88508 0.20199 0.91703 -0.23100
N 	N 	0.75970 0.49480 0.42716 -0.29000
N 	N 	0.73984 0.45244 0.43956 -0.22700
N 	N 	0.71599 0.38246 0.53362 -0.28600
N 	N 	0.64279 0.40477 0.56821 -0.22400
N 	N 	0.84433 0.41719 0.56135 -0.22600
N 	N 	0.54725 0.60024 0.38596 -0.28500
N 	N 	0.58635 0.57221 0.41807 -0.23400
N 	N 	0.08707 0.41703 0.79801 -0.23000
N 	N 	0.18166 0.00520 0.07284 -0.28900
N 	N 	0.13184 0.04756 0.06044 -0.22600
N 	N 	0.13207 0.11754 0.96638 -0.28600
N 	N 	0.11577 0.09523 0.93179 -0.22500
N 	N 	0.32287 0.08281 0.93865 -0.22600
N 	N 	0.03345 0.89976 0.11404 -0.28500
N 	N 	0.07663 0.92779 0.08193 -0.23400
N 	N 	0.80211 0.08297 0.70199 -0.23100
N 	N 	0.74550 0.07284 0.49480 -0.29000
N 	N 	0.80772 0.06044 0.45244 -0.22700
N 	N 	0.90155 0.96638 0.38246 -0.28600
N 	N 	0.95244 0.93179 0.40477 -0.22400
N 	N 	0.73848 0.93865 0.41719 -0.22600
N 	N 	0.85251 0.11404 0.60024 -0.28500
N 	N 	0.84144 0.08193 0.57221 -0.23400
N 	N 	0.49590 0.70199 0.41703 -0.23100
N 	N 	0.81314 0.42716 0.00520 -0.29000
N 	N 	0.82060 0.43956 0.04756 -0.22600
N 	N 	0.75039 0.53362 0.11754 -0.28600
N 	N 	0.78900 0.56821 0.09523 -0.22400
N 	N 	0.59432 0.56135 0.08281 -0.22600
N 	N 	0.06679 0.38596 0.89976 -0.28600
N 	N 	0.99558 0.41807 0.92779 -0.23400
N 	N 	0.11492 0.79801 0.08297 -0.23100
N 	N 	0.24030 0.50520 0.57284 -0.29000
N 	N 	0.26016 0.54756 0.56044 -0.22700
N 	N 	0.28401 0.61754 0.46638 -0.28600
N 	N 	0.35721 0.59523 0.43179 -0.22400
N 	N 	0.15567 0.58281 0.43865 -0.22600
N 	N 	0.45275 0.39976 0.61404 -0.28500
N 	N 	0.41365 0.42779 0.58193 -0.23400
N 	N 	0.91293 0.58297 0.20199 -0.23000
N 	N 	0.81834 0.99480 0.92716 -0.28900
N 	N 	0.86816 0.95244 0.93956 -0.22600
N 	N 	0.86793 0.88246 0.03362 -0.28600
N 	N 	0.88423 0.90477 0.06821 -0.22500
N 	N 	0.67713 0.91719 0.06135 -0.22600
N 	N 	0.96655 0.10024 0.88596 -0.28500
N 	N 	0.92337 0.07221 0.91807 -0.23400
N 	N 	0.19789 0.91703 0.29801 -0.23100
O 	O 	0.33617 0.88273 0.42301 -0.48500
O 	O 	0.31145 0.97784 0.52678 -0.40600
O 	O 	0.14770 0.88334 0.52454 -0.43000
O 	O 	0.23916 0.97042 0.62666 -0.46700
O 	O 	0.98835 0.04938 0.68222 -0.41200
O 	O 	0.15772 0.04226 0.53180 -0.41500
O 	O 	0.08496 0.85645 0.33881 -0.46600
O 	O 	0.22489 0.83038 0.43744 -0.42600
O 	O 	0.08988 0.96994 0.38224 -0.42900
O 	O 	0.14191 0.61727 0.07699 -0.48500
O 	O 	0.31607 0.52216 0.97322 -0.40600
O 	O 	0.05558 0.61666 0.97546 -0.43000
O 	O 	0.33624 0.52958 0.87334 -0.46700
O 	O 	0.21995 0.45062 0.81778 -0.41300
O 	O 	0.23178 0.45774 0.96820 -0.41500
O 	O 	0.78022 0.64355 0.16119 -0.46600
O 	O 	0.99271 0.66962 0.06256 -0.42600
O 	O 	0.94206 0.53006 0.11776 -0.42900
O 	O 	0.75918 0.57699 0.38273 -0.48500
O 	O 	0.83823 0.47322 0.47784 -0.40700
O 	O 	0.67224 0.47546 0.38334 -0.43000
O 	O 	0.86582 0.37334 0.47042 -0.46700
O 	O 	0.67057 0.31778 0.54938 -0.41300
O 	O 	0.68952 0.46820 0.54226 -0.41400
O 	O 	0.42377 0.66119 0.35645 -0.46600
O 	O 	0.66233 0.56256 0.33038 -0.42600
O 	O 	0.47212 0.61776 0.46994 -0.42900
O 	O 	0.21890 0.92301 0.11727 -0.48500
O 	O 	0.28929 0.02678 0.02216 -0.40400
O 	O 	0.03104 0.02454 0.11666 -0.42900
O 	O 	0.20958 0.12666 0.02958 -0.46600
O 	O 	0.03773 0.18222 0.95062 -0.41300
O 	O 	0.19998 0.03180 0.95774 -0.41500
O 	O 	0.94141 0.83881 0.14355 -0.46600
O 	O 	0.05527 0.93744 0.16962 -0.42600
O 	O 	0.05982 0.88224 0.03006 -0.42900
O 	O 	0.66383 0.11727 0.57699 -0.48500
O 	O 	0.68855 0.02216 0.47322 -0.40600
O 	O 	0.85230 0.11666 0.47546 -0.43000
O 	O 	0.76084 0.02958 0.37334 -0.46700
O 	O 	0.01165 0.95062 0.31778 -0.41200
O 	O 	0.84228 0.95774 0.46820 -0.41500
O 	O 	0.91504 0.14355 0.66119 -0.46600
O 	O 	0.77511 0.16962 0.56256 -0.42600
O 	O 	0.91012 0.03006 0.61776 -0.42900
O 	O 	0.85809 0.38273 0.92301 -0.48500
O 	O 	0.68393 0.47784 0.02678 -0.40600
O 	O 	0.94442 0.38334 0.02454 -0.43000
O 	O 	0.66376 0.47042 0.12666 -0.46700
O 	O 	0.78005 0.54938 0.18222 -0.41300
O 	O 	0.76822 0.54226 0.03180 -0.41500
O 	O 	0.21978 0.35645 0.83881 -0.46600
O 	O 	0.00729 0.33038 0.93744 -0.42600
O 	O 	0.05794 0.46994 0.88224 -0.42900
O 	O 	0.24082 0.42301 0.61727 -0.48500
O 	O 	0.16177 0.52678 0.52216 -0.40700
O 	O 	0.32776 0.52454 0.61666 -0.43000
O 	O 	0.13418 0.62666 0.52958 -0.46700
O 	O 	0.32943 0.68222 0.45062 -0.41300
O 	O 	0.31048 0.53180 0.45774 -0.41400
O 	O 	0.57623 0.33881 0.64355 -0.46600
O 	O 	0.33767 0.43744 0.66962 -0.42600
O 	O 	0.52788 0.38224 0.53006 -0.42900
O 	O 	0.78110 0.07699 0.88273 -0.48500
O 	O 	0.71071 0.97322 0.97784 -0.40400
O 	O 	0.96896 0.97546 0.88334 -0.42900
O 	O 	0.79042 0.87334 0.97042 -0.46600
O 	O 	0.96227 0.81778 0.04938 -0.41300
O 	O 	0.80002 0.96820 0.04226 -0.41500
O 	O 	0.05859 0.16119 0.85645 -0.46600
O 	O 	0.94473 0.06256 0.83038 -0.42600
O 	O 	0.94018 0.11776 0.96994 -0.42900
