data_crystal

_cell_length_a 40.54080
_cell_length_b 40.54080
_cell_length_c 17.60550
_cell_angle_alpha 90.00000
_cell_angle_beta  90.00000
_cell_angle_gamma 90.00000

_symmetry_space_group_name_	'P 1'
_symmetry_space_group_name_H-M	'P 1'

loop_
_symmetry_equiv_pos_as_xyz
  x,y,z

loop_
_atom_site_label
_atom_site_type_symbol
_atom_site_fract_x
_atom_site_fract_y
_atom_site_fract_z
_atom_site_charge
Mn	Mn	0.57439 0.45518 0.32838 1.31900
O 	O 	0.59564 0.48175 0.25620 -0.49500
O 	O 	0.49600 0.47497 0.18383 -0.40700
O 	O 	0.54562 0.42969 0.39455 -0.42900
N 	N 	0.53268 0.46152 0.27646 -0.29400
N 	N 	0.50535 0.44557 0.31224 -0.22900
C 	C 	0.58417 0.49710 0.19910 0.34000
C 	C 	0.60535 0.51721 0.15800 -0.30400
H 	H 	0.62700 0.52070 0.17690 0.13900
C 	C 	0.59670 0.53200 0.09270 0.15500
H 	H 	0.61180 0.54650 0.06850 -0.02500
C 	C 	0.56480 0.52640 0.05830 -0.19700
H 	H 	0.55960 0.53400 0.00870 0.10200
C 	C 	0.54173 0.50860 0.10380 0.13900
H 	H 	0.51950 0.50700 0.08750 0.00300
C 	C 	0.55099 0.49404 0.17050 -0.25800
C 	C 	0.52545 0.47642 0.21200 0.27500
C 	C 	0.51476 0.42998 0.37290 0.21300
C 	C 	0.48987 0.41220 0.41910 -0.15200
H 	H 	0.47570 0.39920 0.38430 0.06400
H 	H 	0.47560 0.42880 0.44410 0.07500
C 	C 	0.50290 0.38952 0.47860 -0.24500
H 	H 	0.51840 0.37390 0.45550 0.10100
H 	H 	0.48460 0.37730 0.50170 0.09700
H 	H 	0.51430 0.40240 0.51780 0.10200
Mn	Mn	0.45902 0.46272 0.25253 1.33300
O 	O 	0.44998 0.42109 0.21261 -0.46800
O 	O 	0.38483 0.43293 0.39966 -0.41400
O 	O 	0.46183 0.50500 0.30337 -0.41200
N 	N 	0.42408 0.45735 0.32713 -0.28600
N 	N 	0.41891 0.48558 0.37260 -0.22000
N 	N 	0.42570 0.48829 0.16580 -0.26300
C 	C 	0.42744 0.39900 0.23240 0.30500
C 	C 	0.42526 0.37026 0.18800 -0.27900
H 	H 	0.43950 0.36750 0.14570 0.13300
C 	C 	0.40281 0.34635 0.20530 0.15800
H 	H 	0.40180 0.32700 0.17480 -0.03100
C 	C 	0.38149 0.34955 0.26600 -0.22300
H 	H 	0.36600 0.33260 0.27730 0.10600
C 	C 	0.38292 0.37740 0.30990 0.14700
H 	H 	0.36810 0.37970 0.35140 -0.00100
C 	C 	0.40564 0.40256 0.29510 -0.24600
C 	C 	0.40472 0.43209 0.34380 0.27900
C 	C 	0.43940 0.50888 0.35490 0.19200
C 	C 	0.43636 0.54208 0.39300 -0.07200
H 	H 	0.41930 0.54050 0.43310 0.03400
H 	H 	0.45760 0.54730 0.41810 0.04700
C 	C 	0.42820 0.56830 0.34420 -0.32300
H 	H 	0.44760 0.58230 0.33640 0.12000
H 	H 	0.41040 0.58140 0.36700 0.11700
H 	H 	0.42080 0.55950 0.29530 0.12500
C 	C 	0.43670 0.51940 0.14220 0.08300
H 	H 	0.45810 0.52700 0.15630 0.00600
C 	C 	0.41560 0.53980 0.09670 -0.20600
H 	H 	0.42180 0.56170 0.08290 0.09400
C 	C 	0.38481 0.52570 0.07310 0.25300
C 	C 	0.37529 0.50460 0.11430 -0.35500
H 	H 	0.35230 0.50020 0.11690 0.14200
C 	C 	0.39666 0.48620 0.15900 0.23700
H 	H 	0.38650 0.46940 0.18850 -0.05900
C 	C 	0.36140 0.54450 0.01970 -0.24600
H 	H 	0.34480 0.52880 0.99990 0.09500
H 	H 	0.34940 0.56130 0.04980 0.09200
Mn	Mn	0.61301 0.52921 0.52836 1.33200
O 	O 	0.65088 0.50868 0.56457 -0.47000
O 	O 	0.61526 0.44753 0.38603 -0.43200
O 	O 	0.57260 0.54440 0.48114 -0.43000
N 	N 	0.60602 0.49361 0.45623 -0.28800
N 	N 	0.57594 0.49608 0.41500 -0.23400
N 	N 	0.31004 0.60828 0.80630 -0.22900
C 	C 	0.66795 0.48388 0.53420 0.30200
C 	C 	0.69928 0.47760 0.56330 -0.28100
H 	H 	0.70750 0.49110 0.60320 0.13400
C 	C 	0.71859 0.45259 0.53630 0.15900
H 	H 	0.73950 0.44870 0.55870 -0.03300
C 	C 	0.70828 0.43295 0.47720 -0.21500
H 	H 	0.72220 0.41610 0.45750 0.11000
C 	C 	0.67718 0.43823 0.44720 0.14100
H 	H 	0.66950 0.42420 0.40770 0.00800
C 	C 	0.65680 0.46353 0.47330 -0.24300
C 	C 	0.62426 0.46807 0.43690 0.28400
C 	C 	0.56107 0.52342 0.43240 0.25900
C 	C 	0.52923 0.53168 0.39460 -0.27000
H 	H 	0.52000 0.51200 0.36900 0.10200
H 	H 	0.51300 0.53960 0.43240 0.11200
C 	C 	0.32898 0.58336 0.78530 0.10200
H 	H 	0.32830 0.57660 0.73360 -0.00300
C 	C 	0.34944 0.56686 0.83350 -0.18100
H 	H 	0.36230 0.54890 0.81560 0.09300
C 	C 	0.35129 0.57629 0.90790 0.10300
C 	C 	0.33132 0.60153 0.93090 -0.16300
H 	H 	0.33160 0.60850 0.98240 0.07900
C 	C 	0.31084 0.61694 0.87990 0.08900
H 	H 	0.29690 0.63420 0.89720 -0.00300
C 	C 	0.37550 0.55920 0.96180 -0.06500
H 	H 	0.38830 0.54270 0.93280 0.04700
H 	H 	0.39120 0.57590 0.98140 0.04000
Mn	Mn	0.07439 0.95518 0.82838 1.31800
O 	O 	0.09564 0.98175 0.75620 -0.49600
O 	O 	0.99600 0.97497 0.68383 -0.40800
O 	O 	0.04562 0.92969 0.89455 -0.43000
N 	N 	0.03268 0.96152 0.77646 -0.29500
N 	N 	0.00535 0.94557 0.81224 -0.22900
C 	C 	0.08417 0.99710 0.69910 0.33900
C 	C 	0.10535 0.01721 0.65800 -0.30500
H 	H 	0.12700 0.02070 0.67690 0.13800
C 	C 	0.09670 0.03200 0.59270 0.15400
H 	H 	0.11180 0.04650 0.56850 -0.02700
C 	C 	0.06480 0.02640 0.55830 -0.19800
H 	H 	0.05960 0.03400 0.50870 0.10100
C 	C 	0.04173 0.00860 0.60380 0.13800
H 	H 	0.01950 0.00700 0.58750 0.00200
C 	C 	0.05099 0.99404 0.67050 -0.25900
C 	C 	0.02545 0.97642 0.71200 0.27400
C 	C 	0.01476 0.92998 0.87290 0.21100
C 	C 	0.98987 0.91220 0.91910 -0.15100
H 	H 	0.97570 0.89920 0.88430 0.06300
H 	H 	0.97560 0.92880 0.94410 0.07300
C 	C 	0.00290 0.88952 0.97860 -0.24900
H 	H 	0.01840 0.87390 0.95550 0.10100
H 	H 	0.98460 0.87730 0.00170 0.09700
H 	H 	0.01430 0.90240 0.01780 0.10200
Mn	Mn	0.95902 0.96272 0.75253 1.33100
O 	O 	0.94998 0.92109 0.71261 -0.46900
O 	O 	0.88483 0.93293 0.89966 -0.41500
O 	O 	0.96183 0.00500 0.80337 -0.41300
N 	N 	0.92408 0.95735 0.82713 -0.28700
N 	N 	0.91891 0.98558 0.87260 -0.22100
N 	N 	0.92570 0.98829 0.66580 -0.26400
C 	C 	0.92744 0.89900 0.73240 0.30400
C 	C 	0.92526 0.87026 0.68800 -0.28000
H 	H 	0.93950 0.86750 0.64570 0.13200
C 	C 	0.90281 0.84635 0.70530 0.15700
H 	H 	0.90180 0.82700 0.67480 -0.03200
C 	C 	0.88149 0.84955 0.76600 -0.22400
H 	H 	0.86600 0.83260 0.77730 0.10500
C 	C 	0.88292 0.87740 0.80990 0.14600
H 	H 	0.86810 0.87970 0.85140 -0.00200
C 	C 	0.90564 0.90256 0.79510 -0.24700
C 	C 	0.90472 0.93209 0.84380 0.27800
C 	C 	0.93940 0.00888 0.85490 0.19100
C 	C 	0.93636 0.04208 0.89300 -0.07200
H 	H 	0.91930 0.04050 0.93310 0.03400
H 	H 	0.95760 0.04730 0.91810 0.04800
C 	C 	0.92820 0.06830 0.84420 -0.32300
H 	H 	0.94760 0.08230 0.83640 0.12000
H 	H 	0.91040 0.08140 0.86700 0.11700
H 	H 	0.92080 0.05950 0.79530 0.12500
C 	C 	0.93670 0.01940 0.64220 0.08300
H 	H 	0.95810 0.02700 0.65630 0.00600
C 	C 	0.91560 0.03980 0.59670 -0.20700
H 	H 	0.92180 0.06170 0.58290 0.09400
C 	C 	0.88481 0.02570 0.57310 0.25400
C 	C 	0.87529 0.00460 0.61430 -0.35500
H 	H 	0.85230 0.00020 0.61690 0.14200
C 	C 	0.89666 0.98620 0.65900 0.23700
H 	H 	0.88650 0.96940 0.68850 -0.05900
C 	C 	0.86140 0.04450 0.51970 -0.24800
H 	H 	0.84480 0.02880 0.49990 0.09600
H 	H 	0.84940 0.06130 0.54980 0.09300
Mn	Mn	0.11301 0.02921 0.02836 1.33200
O 	O 	0.15088 0.00868 0.06457 -0.47000
O 	O 	0.11526 0.94753 0.88603 -0.43200
O 	O 	0.07260 0.04440 0.98114 -0.43000
N 	N 	0.10602 0.99361 0.95623 -0.28800
N 	N 	0.07594 0.99608 0.91500 -0.23400
N 	N 	0.81004 0.10828 0.30630 -0.22900
C 	C 	0.16795 0.98388 0.03420 0.30300
C 	C 	0.19928 0.97760 0.06330 -0.28100
H 	H 	0.20750 0.99110 0.10320 0.13400
C 	C 	0.21859 0.95259 0.03630 0.16000
H 	H 	0.23950 0.94870 0.05870 -0.03300
C 	C 	0.20828 0.93295 0.97720 -0.21600
H 	H 	0.22220 0.91610 0.95750 0.11100
C 	C 	0.17718 0.93823 0.94720 0.14200
H 	H 	0.16950 0.92420 0.90770 0.00800
C 	C 	0.15680 0.96353 0.97330 -0.24300
C 	C 	0.12426 0.96807 0.93690 0.28400
C 	C 	0.06107 0.02342 0.93240 0.25900
C 	C 	0.02923 0.03168 0.89460 -0.27000
H 	H 	0.02000 0.01200 0.86900 0.10200
H 	H 	0.01300 0.03960 0.93240 0.11200
C 	C 	0.82898 0.08336 0.28530 0.10200
H 	H 	0.82830 0.07660 0.23360 -0.00300
C 	C 	0.84944 0.06686 0.33350 -0.18100
H 	H 	0.86230 0.04890 0.31560 0.09200
C 	C 	0.85129 0.07629 0.40790 0.10200
C 	C 	0.83132 0.10153 0.43090 -0.16300
H 	H 	0.83160 0.10850 0.48240 0.07900
C 	C 	0.81084 0.11694 0.37990 0.08900
H 	H 	0.79690 0.13420 0.39720 -0.00300
C 	C 	0.87550 0.05920 0.46180 -0.06300
H 	H 	0.88830 0.04270 0.43280 0.04700
H 	H 	0.89120 0.07590 0.48140 0.04000
Mn	Mn	0.92561 0.54482 0.82838 1.31800
O 	O 	0.90436 0.51825 0.75620 -0.49600
O 	O 	0.00400 0.52503 0.68383 -0.40800
O 	O 	0.95438 0.57031 0.89455 -0.43000
N 	N 	0.96732 0.53848 0.77646 -0.29500
N 	N 	0.99465 0.55443 0.81224 -0.22900
C 	C 	0.91583 0.50290 0.69910 0.33900
C 	C 	0.89465 0.48279 0.65800 -0.30500
H 	H 	0.87300 0.47930 0.67690 0.13800
C 	C 	0.90330 0.46800 0.59270 0.15400
H 	H 	0.88820 0.45350 0.56850 -0.02700
C 	C 	0.93520 0.47360 0.55830 -0.19800
H 	H 	0.94040 0.46600 0.50870 0.10100
C 	C 	0.95827 0.49140 0.60380 0.13800
H 	H 	0.98050 0.49300 0.58750 0.00200
C 	C 	0.94901 0.50596 0.67050 -0.25900
C 	C 	0.97455 0.52358 0.71200 0.27400
C 	C 	0.98524 0.57002 0.87290 0.21100
C 	C 	0.01013 0.58780 0.91910 -0.15100
H 	H 	0.02430 0.60080 0.88430 0.06300
H 	H 	0.02440 0.57120 0.94410 0.07400
C 	C 	0.99710 0.61048 0.97860 -0.24900
H 	H 	0.98160 0.62610 0.95550 0.10100
H 	H 	0.01540 0.62270 0.00170 0.09700
H 	H 	0.98570 0.59760 0.01780 0.10200
Mn	Mn	0.04098 0.53728 0.75253 1.33200
O 	O 	0.05002 0.57891 0.71261 -0.46900
O 	O 	0.11517 0.56707 0.89966 -0.41500
O 	O 	0.03817 0.49500 0.80337 -0.41300
N 	N 	0.07592 0.54265 0.82713 -0.28700
N 	N 	0.08109 0.51442 0.87260 -0.22100
N 	N 	0.07430 0.51171 0.66580 -0.26400
C 	C 	0.07256 0.60100 0.73240 0.30400
C 	C 	0.07474 0.62974 0.68800 -0.28000
H 	H 	0.06050 0.63250 0.64570 0.13200
C 	C 	0.09719 0.65365 0.70530 0.15700
H 	H 	0.09820 0.67300 0.67480 -0.03200
C 	C 	0.11851 0.65045 0.76600 -0.22400
H 	H 	0.13400 0.66740 0.77730 0.10500
C 	C 	0.11708 0.62260 0.80990 0.14600
H 	H 	0.13190 0.62030 0.85140 -0.00200
C 	C 	0.09436 0.59744 0.79510 -0.24700
C 	C 	0.09528 0.56791 0.84380 0.27800
C 	C 	0.06060 0.49112 0.85490 0.19100
C 	C 	0.06364 0.45792 0.89300 -0.07200
H 	H 	0.08070 0.45950 0.93310 0.03400
H 	H 	0.04240 0.45270 0.91810 0.04700
C 	C 	0.07180 0.43170 0.84420 -0.32300
H 	H 	0.05240 0.41770 0.83640 0.12000
H 	H 	0.08960 0.41860 0.86700 0.11700
H 	H 	0.07920 0.44050 0.79530 0.12500
C 	C 	0.06330 0.48060 0.64220 0.08300
H 	H 	0.04190 0.47300 0.65630 0.00600
C 	C 	0.08440 0.46020 0.59670 -0.20700
H 	H 	0.07820 0.43830 0.58290 0.09400
C 	C 	0.11519 0.47430 0.57310 0.25400
C 	C 	0.12471 0.49540 0.61430 -0.35500
H 	H 	0.14770 0.49980 0.61690 0.14300
C 	C 	0.10334 0.51380 0.65900 0.23800
H 	H 	0.11350 0.53060 0.68850 -0.05900
C 	C 	0.13860 0.45550 0.51970 -0.24800
H 	H 	0.15520 0.47120 0.49990 0.09600
H 	H 	0.15060 0.43870 0.54980 0.09300
Mn	Mn	0.88699 0.47079 0.02836 1.33200
O 	O 	0.84912 0.49132 0.06457 -0.47000
O 	O 	0.88474 0.55247 0.88603 -0.43200
O 	O 	0.92740 0.45560 0.98114 -0.43000
N 	N 	0.89398 0.50639 0.95623 -0.28800
N 	N 	0.92406 0.50392 0.91500 -0.23400
N 	N 	0.18996 0.39172 0.30630 -0.22900
C 	C 	0.83205 0.51612 0.03420 0.30200
C 	C 	0.80072 0.52240 0.06330 -0.28100
H 	H 	0.79250 0.50890 0.10320 0.13400
C 	C 	0.78141 0.54741 0.03630 0.15900
H 	H 	0.76050 0.55130 0.05870 -0.03300
C 	C 	0.79172 0.56705 0.97720 -0.21500
H 	H 	0.77780 0.58390 0.95750 0.11000
C 	C 	0.82282 0.56177 0.94720 0.14100
H 	H 	0.83050 0.57580 0.90770 0.00800
C 	C 	0.84320 0.53647 0.97330 -0.24300
C 	C 	0.87574 0.53193 0.93690 0.28400
C 	C 	0.93893 0.47658 0.93240 0.25900
C 	C 	0.97077 0.46832 0.89460 -0.27000
H 	H 	0.98000 0.48800 0.86900 0.10200
H 	H 	0.98700 0.46040 0.93240 0.11200
C 	C 	0.17102 0.41664 0.28530 0.10200
H 	H 	0.17170 0.42340 0.23360 -0.00300
C 	C 	0.15056 0.43314 0.33350 -0.18100
H 	H 	0.13770 0.45110 0.31560 0.09200
C 	C 	0.14871 0.42371 0.40790 0.10200
C 	C 	0.16868 0.39847 0.43090 -0.16300
H 	H 	0.16840 0.39150 0.48240 0.07900
C 	C 	0.18916 0.38306 0.37990 0.08900
H 	H 	0.20310 0.36580 0.39720 -0.00300
C 	C 	0.12450 0.44080 0.46180 -0.06300
H 	H 	0.11170 0.45730 0.43280 0.04700
H 	H 	0.10880 0.42410 0.48140 0.04000
Mn	Mn	0.42561 0.04482 0.32838 1.31800
O 	O 	0.40436 0.01825 0.25620 -0.49600
O 	O 	0.50400 0.02503 0.18383 -0.40800
O 	O 	0.45438 0.07031 0.39455 -0.43000
N 	N 	0.46732 0.03848 0.27646 -0.29500
N 	N 	0.49465 0.05443 0.31224 -0.23000
C 	C 	0.41583 0.00290 0.19910 0.33900
C 	C 	0.39465 0.98279 0.15800 -0.30500
H 	H 	0.37300 0.97930 0.17690 0.13800
C 	C 	0.40330 0.96800 0.09270 0.15400
H 	H 	0.38820 0.95350 0.06850 -0.02600
C 	C 	0.43520 0.97360 0.05830 -0.19800
H 	H 	0.44040 0.96600 0.00870 0.10100
C 	C 	0.45827 0.99140 0.10380 0.13800
H 	H 	0.48050 0.99300 0.08750 0.00200
C 	C 	0.44901 0.00596 0.17050 -0.25900
C 	C 	0.47455 0.02358 0.21200 0.27400
C 	C 	0.48524 0.07002 0.37290 0.21200
C 	C 	0.51013 0.08780 0.41910 -0.15300
H 	H 	0.52430 0.10080 0.38430 0.06300
H 	H 	0.52440 0.07120 0.44410 0.07400
C 	C 	0.49710 0.11048 0.47860 -0.24600
H 	H 	0.48160 0.12610 0.45550 0.10000
H 	H 	0.51540 0.12270 0.50170 0.09600
H 	H 	0.48570 0.09760 0.51780 0.10100
Mn	Mn	0.54098 0.03728 0.25253 1.33100
O 	O 	0.55002 0.07891 0.21261 -0.46900
O 	O 	0.61517 0.06707 0.39966 -0.41500
O 	O 	0.53817 0.99500 0.30337 -0.41300
N 	N 	0.57592 0.04265 0.32713 -0.28700
N 	N 	0.58109 0.01442 0.37260 -0.22100
N 	N 	0.57430 0.01171 0.16580 -0.26400
C 	C 	0.57256 0.10100 0.23240 0.30400
C 	C 	0.57474 0.12974 0.18800 -0.28000
H 	H 	0.56050 0.13250 0.14570 0.13200
C 	C 	0.59719 0.15365 0.20530 0.15700
H 	H 	0.59820 0.17300 0.17480 -0.03200
C 	C 	0.61851 0.15045 0.26600 -0.22400
H 	H 	0.63400 0.16740 0.27730 0.10500
C 	C 	0.61708 0.12260 0.30990 0.14600
H 	H 	0.63190 0.12030 0.35140 -0.00200
C 	C 	0.59436 0.09744 0.29510 -0.24700
C 	C 	0.59528 0.06791 0.34380 0.27800
C 	C 	0.56060 0.99112 0.35490 0.19100
C 	C 	0.56364 0.95792 0.39300 -0.07200
H 	H 	0.58070 0.95950 0.43310 0.03400
H 	H 	0.54240 0.95270 0.41810 0.04700
C 	C 	0.57180 0.93170 0.34420 -0.32300
H 	H 	0.55240 0.91770 0.33640 0.12000
H 	H 	0.58960 0.91860 0.36700 0.11700
H 	H 	0.57920 0.94050 0.29530 0.12500
C 	C 	0.56330 0.98060 0.14220 0.08300
H 	H 	0.54190 0.97300 0.15630 0.00600
C 	C 	0.58440 0.96020 0.09670 -0.20600
H 	H 	0.57820 0.93830 0.08290 0.09400
C 	C 	0.61519 0.97430 0.07310 0.25200
C 	C 	0.62471 0.99540 0.11430 -0.35400
H 	H 	0.64770 0.99980 0.11690 0.14200
C 	C 	0.60334 0.01380 0.15900 0.23700
H 	H 	0.61350 0.03060 0.18850 -0.05900
C 	C 	0.63860 0.95550 0.01970 -0.24600
H 	H 	0.65520 0.97120 0.99990 0.09500
H 	H 	0.65060 0.93870 0.04980 0.09200
Mn	Mn	0.38699 0.97079 0.52836 1.33200
O 	O 	0.34912 0.99132 0.56457 -0.47000
O 	O 	0.38474 0.05247 0.38603 -0.43200
O 	O 	0.42740 0.95560 0.48114 -0.43000
N 	N 	0.39398 0.00639 0.45623 -0.28800
N 	N 	0.42406 0.00392 0.41500 -0.23400
N 	N 	0.68996 0.89172 0.80630 -0.22900
C 	C 	0.33205 0.01612 0.53420 0.30200
C 	C 	0.30072 0.02240 0.56330 -0.28100
H 	H 	0.29250 0.00890 0.60320 0.13400
C 	C 	0.28141 0.04741 0.53630 0.15900
H 	H 	0.26050 0.05130 0.55870 -0.03300
C 	C 	0.29172 0.06705 0.47720 -0.21500
H 	H 	0.27780 0.08390 0.45750 0.11000
C 	C 	0.32282 0.06177 0.44720 0.14100
H 	H 	0.33050 0.07580 0.40770 0.00800
C 	C 	0.34320 0.03647 0.47330 -0.24300
C 	C 	0.37574 0.03193 0.43690 0.28400
C 	C 	0.43893 0.97658 0.43240 0.25900
C 	C 	0.47077 0.96832 0.39460 -0.27000
H 	H 	0.48000 0.98800 0.36900 0.10200
H 	H 	0.48700 0.96040 0.43240 0.11200
C 	C 	0.67102 0.91664 0.78530 0.10200
H 	H 	0.67170 0.92340 0.73360 -0.00300
C 	C 	0.65056 0.93314 0.83350 -0.18100
H 	H 	0.63770 0.95110 0.81560 0.09300
C 	C 	0.64871 0.92371 0.90790 0.10300
C 	C 	0.66868 0.89847 0.93090 -0.16400
H 	H 	0.66840 0.89150 0.98240 0.08000
C 	C 	0.68916 0.88306 0.87990 0.08900
H 	H 	0.70310 0.86580 0.89720 -0.00300
C 	C 	0.62450 0.94080 0.96180 -0.06600
H 	H 	0.61170 0.95730 0.93280 0.04800
H 	H 	0.60880 0.92410 0.98140 0.04000
Mn	Mn	0.29482 0.82439 0.57838 1.31800
O 	O 	0.26825 0.84564 0.50620 -0.49600
O 	O 	0.27503 0.74600 0.43383 -0.40800
O 	O 	0.32031 0.79562 0.64455 -0.43000
N 	N 	0.28848 0.78268 0.52646 -0.29500
N 	N 	0.30443 0.75535 0.56224 -0.23000
C 	C 	0.25290 0.83417 0.44910 0.33900
C 	C 	0.23279 0.85535 0.40800 -0.30500
H 	H 	0.22930 0.87700 0.42690 0.13800
C 	C 	0.21800 0.84670 0.34270 0.15400
H 	H 	0.20350 0.86180 0.31850 -0.02700
C 	C 	0.22360 0.81480 0.30830 -0.19800
H 	H 	0.21600 0.80960 0.25870 0.10100
C 	C 	0.24140 0.79173 0.35380 0.13800
H 	H 	0.24300 0.76950 0.33750 0.00200
C 	C 	0.25596 0.80099 0.42050 -0.25900
C 	C 	0.27358 0.77545 0.46200 0.27400
C 	C 	0.32002 0.76476 0.62290 0.21200
C 	C 	0.33780 0.73987 0.66910 -0.15300
H 	H 	0.35080 0.72570 0.63430 0.06300
H 	H 	0.32120 0.72560 0.69410 0.07400
C 	C 	0.36048 0.75290 0.72860 -0.24600
H 	H 	0.37610 0.76840 0.70550 0.10000
H 	H 	0.37270 0.73460 0.75170 0.09600
H 	H 	0.34760 0.76430 0.76780 0.10100
Mn	Mn	0.28728 0.70902 0.50253 1.33200
O 	O 	0.32891 0.69998 0.46261 -0.46900
O 	O 	0.31707 0.63483 0.64966 -0.41500
O 	O 	0.24500 0.71183 0.55337 -0.41300
N 	N 	0.29265 0.67408 0.57713 -0.28700
N 	N 	0.26442 0.66891 0.62260 -0.22100
N 	N 	0.26171 0.67570 0.41580 -0.26400
C 	C 	0.35100 0.67744 0.48240 0.30400
C 	C 	0.37974 0.67526 0.43800 -0.28000
H 	H 	0.38250 0.68950 0.39570 0.13200
C 	C 	0.40365 0.65281 0.45530 0.15700
H 	H 	0.42300 0.65180 0.42480 -0.03200
C 	C 	0.40045 0.63149 0.51600 -0.22400
H 	H 	0.41740 0.61600 0.52730 0.10500
C 	C 	0.37260 0.63292 0.55990 0.14600
H 	H 	0.37030 0.61810 0.60140 -0.00200
C 	C 	0.34744 0.65564 0.54510 -0.24700
C 	C 	0.31791 0.65472 0.59380 0.27800
C 	C 	0.24112 0.68940 0.60490 0.19100
C 	C 	0.20792 0.68636 0.64300 -0.07200
H 	H 	0.20950 0.66930 0.68310 0.03400
H 	H 	0.20270 0.70760 0.66810 0.04700
C 	C 	0.18170 0.67820 0.59420 -0.32300
H 	H 	0.16770 0.69760 0.58640 0.12000
H 	H 	0.16860 0.66040 0.61700 0.11700
H 	H 	0.19050 0.67080 0.54530 0.12500
C 	C 	0.23060 0.68670 0.39220 0.08300
H 	H 	0.22300 0.70810 0.40630 0.00600
C 	C 	0.21020 0.66560 0.34670 -0.20700
H 	H 	0.18830 0.67180 0.33290 0.09400
C 	C 	0.22430 0.63481 0.32310 0.25400
C 	C 	0.24540 0.62529 0.36430 -0.35500
H 	H 	0.24980 0.60230 0.36690 0.14200
C 	C 	0.26380 0.64666 0.40900 0.23800
H 	H 	0.28060 0.63650 0.43850 -0.05900
C 	C 	0.20550 0.61140 0.26970 -0.24800
H 	H 	0.22120 0.59480 0.24990 0.09600
H 	H 	0.18870 0.59940 0.29980 0.09300
Mn	Mn	0.22079 0.86301 0.77836 1.33200
O 	O 	0.24132 0.90088 0.81457 -0.47000
O 	O 	0.30247 0.86526 0.63603 -0.43200
O 	O 	0.20560 0.82260 0.73114 -0.43000
N 	N 	0.25639 0.85602 0.70623 -0.28800
N 	N 	0.25392 0.82594 0.66500 -0.23400
N 	N 	0.14172 0.56004 0.05630 -0.22900
C 	C 	0.26612 0.91795 0.78420 0.30200
C 	C 	0.27240 0.94928 0.81330 -0.28100
H 	H 	0.25890 0.95750 0.85320 0.13400
C 	C 	0.29741 0.96859 0.78630 0.15900
H 	H 	0.30130 0.98950 0.80870 -0.03300
C 	C 	0.31705 0.95828 0.72720 -0.21500
H 	H 	0.33390 0.97220 0.70750 0.11000
C 	C 	0.31177 0.92718 0.69720 0.14100
H 	H 	0.32580 0.91950 0.65770 0.00800
C 	C 	0.28647 0.90680 0.72330 -0.24300
C 	C 	0.28193 0.87426 0.68690 0.28400
C 	C 	0.22658 0.81107 0.68240 0.25900
C 	C 	0.21832 0.77923 0.64460 -0.27000
H 	H 	0.23800 0.77000 0.61900 0.10200
H 	H 	0.21040 0.76300 0.68240 0.11200
C 	C 	0.16664 0.57898 0.03530 0.10300
H 	H 	0.17340 0.57830 0.98360 -0.00300
C 	C 	0.18314 0.59944 0.08350 -0.18100
H 	H 	0.20110 0.61230 0.06560 0.09300
C 	C 	0.17371 0.60129 0.15790 0.10300
C 	C 	0.14847 0.58132 0.18090 -0.16300
H 	H 	0.14150 0.58160 0.23240 0.07900
C 	C 	0.13306 0.56084 0.12990 0.08900
H 	H 	0.11580 0.54690 0.14720 -0.00300
C 	C 	0.19080 0.62550 0.21180 -0.06400
H 	H 	0.20730 0.63830 0.18280 0.04700
H 	H 	0.17410 0.64120 0.23140 0.04000
Mn	Mn	0.79482 0.32439 0.07838 1.31800
O 	O 	0.76825 0.34564 0.00620 -0.49600
O 	O 	0.77503 0.24600 0.93383 -0.40800
O 	O 	0.82031 0.29562 0.14455 -0.43000
N 	N 	0.78848 0.28268 0.02646 -0.29500
N 	N 	0.80443 0.25535 0.06224 -0.23000
C 	C 	0.75290 0.33417 0.94910 0.34000
C 	C 	0.73279 0.35535 0.90800 -0.30500
H 	H 	0.72930 0.37700 0.92690 0.13900
C 	C 	0.71800 0.34670 0.84270 0.15500
H 	H 	0.70350 0.36180 0.81850 -0.02700
C 	C 	0.72360 0.31480 0.80830 -0.19800
H 	H 	0.71600 0.30960 0.75870 0.10100
C 	C 	0.74140 0.29173 0.85380 0.13800
H 	H 	0.74300 0.26950 0.83750 0.00200
C 	C 	0.75596 0.30099 0.92050 -0.25900
C 	C 	0.77358 0.27545 0.96200 0.27400
C 	C 	0.82002 0.26476 0.12290 0.21200
C 	C 	0.83780 0.23987 0.16910 -0.15300
H 	H 	0.85080 0.22570 0.13430 0.06300
H 	H 	0.82120 0.22560 0.19410 0.07400
C 	C 	0.86048 0.25290 0.22860 -0.24600
H 	H 	0.87610 0.26840 0.20550 0.10000
H 	H 	0.87270 0.23460 0.25170 0.09600
H 	H 	0.84760 0.26430 0.26780 0.10100
Mn	Mn	0.78728 0.20902 0.00253 1.33100
O 	O 	0.82891 0.19998 0.96261 -0.46900
O 	O 	0.81707 0.13483 0.14966 -0.41500
O 	O 	0.74500 0.21183 0.05337 -0.41300
N 	N 	0.79265 0.17408 0.07713 -0.28700
N 	N 	0.76442 0.16891 0.12260 -0.22100
N 	N 	0.76171 0.17570 0.91580 -0.26400
C 	C 	0.85100 0.17744 0.98240 0.30500
C 	C 	0.87974 0.17526 0.93800 -0.28100
H 	H 	0.88250 0.18950 0.89570 0.13300
C 	C 	0.90365 0.15281 0.95530 0.15900
H 	H 	0.92300 0.15180 0.92480 -0.03300
C 	C 	0.90045 0.13149 0.01600 -0.22500
H 	H 	0.91740 0.11600 0.02730 0.10600
C 	C 	0.87260 0.13292 0.05990 0.14700
H 	H 	0.87030 0.11810 0.10140 -0.00200
C 	C 	0.84744 0.15564 0.04510 -0.24800
C 	C 	0.81791 0.15472 0.09380 0.27900
C 	C 	0.74112 0.18940 0.10490 0.19100
C 	C 	0.70792 0.18636 0.14300 -0.07300
H 	H 	0.70950 0.16930 0.18310 0.03400
H 	H 	0.70270 0.20760 0.16810 0.04700
C 	C 	0.68170 0.17820 0.09420 -0.32200
H 	H 	0.66770 0.19760 0.08640 0.12000
H 	H 	0.66860 0.16040 0.11700 0.11700
H 	H 	0.69050 0.17080 0.04530 0.12400
C 	C 	0.73060 0.18670 0.89220 0.08300
H 	H 	0.72300 0.20810 0.90630 0.00600
C 	C 	0.71020 0.16560 0.84670 -0.20700
H 	H 	0.68830 0.17180 0.83290 0.09400
C 	C 	0.72430 0.13481 0.82310 0.25400
C 	C 	0.74540 0.12529 0.86430 -0.35500
H 	H 	0.74980 0.10230 0.86690 0.14300
C 	C 	0.76380 0.14666 0.90900 0.23800
H 	H 	0.78060 0.13650 0.93850 -0.05900
C 	C 	0.70550 0.11140 0.76970 -0.24800
H 	H 	0.72120 0.09480 0.74990 0.09600
H 	H 	0.68870 0.09940 0.79980 0.09300
Mn	Mn	0.72079 0.36301 0.27836 1.33200
O 	O 	0.74132 0.40088 0.31457 -0.47000
O 	O 	0.80247 0.36526 0.13603 -0.43200
O 	O 	0.70560 0.32260 0.23114 -0.43000
N 	N 	0.75639 0.35602 0.20623 -0.28800
N 	N 	0.75392 0.32594 0.16500 -0.23400
N 	N 	0.64172 0.06004 0.55630 -0.22900
C 	C 	0.76612 0.41795 0.28420 0.30200
C 	C 	0.77240 0.44928 0.31330 -0.28100
H 	H 	0.75890 0.45750 0.35320 0.13400
C 	C 	0.79741 0.46859 0.28630 0.15900
H 	H 	0.80130 0.48950 0.30870 -0.03300
C 	C 	0.81705 0.45828 0.22720 -0.21500
H 	H 	0.83390 0.47220 0.20750 0.11000
C 	C 	0.81177 0.42718 0.19720 0.14100
H 	H 	0.82580 0.41950 0.15770 0.00800
C 	C 	0.78647 0.40680 0.22330 -0.24300
C 	C 	0.78193 0.37426 0.18690 0.28400
C 	C 	0.72658 0.31107 0.18240 0.25900
C 	C 	0.71832 0.27923 0.14460 -0.27000
H 	H 	0.73800 0.27000 0.11900 0.10200
H 	H 	0.71040 0.26300 0.18240 0.11200
C 	C 	0.66664 0.07898 0.53530 0.10200
H 	H 	0.67340 0.07830 0.48360 -0.00300
C 	C 	0.68314 0.09944 0.58350 -0.18100
H 	H 	0.70110 0.11230 0.56560 0.09200
C 	C 	0.67371 0.10129 0.65790 0.10200
C 	C 	0.64847 0.08132 0.68090 -0.16300
H 	H 	0.64150 0.08160 0.73240 0.07900
C 	C 	0.63306 0.06084 0.62990 0.08900
H 	H 	0.61580 0.04690 0.64720 -0.00300
C 	C 	0.69080 0.12550 0.71180 -0.06300
H 	H 	0.70730 0.13830 0.68280 0.04700
H 	H 	0.67410 0.14120 0.73140 0.04000
Mn	Mn	0.20518 0.17561 0.07838 1.31800
O 	O 	0.23175 0.15436 0.00620 -0.49700
O 	O 	0.22497 0.25400 0.93383 -0.40800
O 	O 	0.17969 0.20438 0.14455 -0.43000
N 	N 	0.21152 0.21732 0.02646 -0.29500
N 	N 	0.19557 0.24465 0.06224 -0.23000
C 	C 	0.24710 0.16583 0.94910 0.34000
C 	C 	0.26721 0.14465 0.90800 -0.30500
H 	H 	0.27070 0.12300 0.92690 0.13900
C 	C 	0.28200 0.15330 0.84270 0.15500
H 	H 	0.29650 0.13820 0.81850 -0.02700
C 	C 	0.27640 0.18520 0.80830 -0.19800
H 	H 	0.28400 0.19040 0.75870 0.10100
C 	C 	0.25860 0.20827 0.85380 0.13800
H 	H 	0.25700 0.23050 0.83750 0.00200
C 	C 	0.24404 0.19901 0.92050 -0.25900
C 	C 	0.22642 0.22455 0.96200 0.27400
C 	C 	0.17998 0.23524 0.12290 0.21200
C 	C 	0.16220 0.26013 0.16910 -0.15300
H 	H 	0.14920 0.27430 0.13430 0.06300
H 	H 	0.17880 0.27440 0.19410 0.07400
C 	C 	0.13952 0.24710 0.22860 -0.24600
H 	H 	0.12390 0.23160 0.20550 0.10000
H 	H 	0.12730 0.26540 0.25170 0.09600
H 	H 	0.15240 0.23570 0.26780 0.10100
Mn	Mn	0.21272 0.29098 0.00253 1.33100
O 	O 	0.17109 0.30002 0.96261 -0.46900
O 	O 	0.18293 0.36517 0.14966 -0.41500
O 	O 	0.25500 0.28817 0.05337 -0.41300
N 	N 	0.20735 0.32592 0.07713 -0.28700
N 	N 	0.23558 0.33109 0.12260 -0.22100
N 	N 	0.23829 0.32430 0.91580 -0.26400
C 	C 	0.14900 0.32256 0.98240 0.30500
C 	C 	0.12026 0.32474 0.93800 -0.28100
H 	H 	0.11750 0.31050 0.89570 0.13300
C 	C 	0.09635 0.34719 0.95530 0.15900
H 	H 	0.07700 0.34820 0.92480 -0.03300
C 	C 	0.09955 0.36851 0.01600 -0.22500
H 	H 	0.08260 0.38400 0.02730 0.10600
C 	C 	0.12740 0.36708 0.05990 0.14600
H 	H 	0.12970 0.38190 0.10140 -0.00200
C 	C 	0.15256 0.34436 0.04510 -0.24800
C 	C 	0.18209 0.34528 0.09380 0.27900
C 	C 	0.25888 0.31060 0.10490 0.19100
C 	C 	0.29208 0.31364 0.14300 -0.07200
H 	H 	0.29050 0.33070 0.18310 0.03400
H 	H 	0.29730 0.29240 0.16810 0.04700
C 	C 	0.31830 0.32180 0.09420 -0.32200
H 	H 	0.33230 0.30240 0.08640 0.12000
H 	H 	0.33140 0.33960 0.11700 0.11700
H 	H 	0.30950 0.32920 0.04530 0.12400
C 	C 	0.26940 0.31330 0.89220 0.08300
H 	H 	0.27700 0.29190 0.90630 0.00600
C 	C 	0.28980 0.33440 0.84670 -0.20700
H 	H 	0.31170 0.32820 0.83290 0.09400
C 	C 	0.27570 0.36519 0.82310 0.25400
C 	C 	0.25460 0.37471 0.86430 -0.35500
H 	H 	0.25020 0.39770 0.86690 0.14300
C 	C 	0.23620 0.35334 0.90900 0.23800
H 	H 	0.21940 0.36350 0.93850 -0.05900
C 	C 	0.29450 0.38860 0.76970 -0.24800
H 	H 	0.27880 0.40520 0.74990 0.09600
H 	H 	0.31130 0.40060 0.79980 0.09300
Mn	Mn	0.27921 0.13699 0.27836 1.33200
O 	O 	0.25868 0.09912 0.31457 -0.47000
O 	O 	0.19753 0.13474 0.13603 -0.43200
O 	O 	0.29440 0.17740 0.23114 -0.43000
N 	N 	0.24361 0.14398 0.20623 -0.28800
N 	N 	0.24608 0.17406 0.16500 -0.23400
N 	N 	0.35828 0.43996 0.55630 -0.22900
C 	C 	0.23388 0.08205 0.28420 0.30200
C 	C 	0.22760 0.05072 0.31330 -0.28100
H 	H 	0.24110 0.04250 0.35320 0.13400
C 	C 	0.20259 0.03141 0.28630 0.15900
H 	H 	0.19870 0.01050 0.30870 -0.03300
C 	C 	0.18295 0.04172 0.22720 -0.21500
H 	H 	0.16610 0.02780 0.20750 0.11000
C 	C 	0.18823 0.07282 0.19720 0.14100
H 	H 	0.17420 0.08050 0.15770 0.00800
C 	C 	0.21353 0.09320 0.22330 -0.24300
C 	C 	0.21807 0.12574 0.18690 0.28400
C 	C 	0.27342 0.18893 0.18240 0.25900
C 	C 	0.28168 0.22077 0.14460 -0.27000
H 	H 	0.26200 0.23000 0.11900 0.10200
H 	H 	0.28960 0.23700 0.18240 0.11200
C 	C 	0.33336 0.42102 0.53530 0.10200
H 	H 	0.32660 0.42170 0.48360 -0.00300
C 	C 	0.31686 0.40056 0.58350 -0.18100
H 	H 	0.29890 0.38770 0.56560 0.09200
C 	C 	0.32629 0.39871 0.65790 0.10200
C 	C 	0.35153 0.41868 0.68090 -0.16300
H 	H 	0.35850 0.41840 0.73240 0.07900
C 	C 	0.36694 0.43916 0.62990 0.08900
H 	H 	0.38420 0.45310 0.64720 -0.00300
C 	C 	0.30920 0.37450 0.71180 -0.06300
H 	H 	0.29270 0.36170 0.68280 0.04700
H 	H 	0.32590 0.35880 0.73140 0.04000
Mn	Mn	0.70518 0.67561 0.57838 1.31800
O 	O 	0.73175 0.65436 0.50620 -0.49600
O 	O 	0.72497 0.75400 0.43383 -0.40800
O 	O 	0.67969 0.70438 0.64455 -0.43000
N 	N 	0.71152 0.71732 0.52646 -0.29500
N 	N 	0.69557 0.74465 0.56224 -0.23000
C 	C 	0.74710 0.66583 0.44910 0.33900
C 	C 	0.76721 0.64465 0.40800 -0.30500
H 	H 	0.77070 0.62300 0.42690 0.13800
C 	C 	0.78200 0.65330 0.34270 0.15400
H 	H 	0.79650 0.63820 0.31850 -0.02700
C 	C 	0.77640 0.68520 0.30830 -0.19800
H 	H 	0.78400 0.69040 0.25870 0.10100
C 	C 	0.75860 0.70827 0.35380 0.13800
H 	H 	0.75700 0.73050 0.33750 0.00200
C 	C 	0.74404 0.69901 0.42050 -0.25900
C 	C 	0.72642 0.72455 0.46200 0.27400
C 	C 	0.67998 0.73524 0.62290 0.21200
C 	C 	0.66220 0.76013 0.66910 -0.15300
H 	H 	0.64920 0.77430 0.63430 0.06300
H 	H 	0.67880 0.77440 0.69410 0.07400
C 	C 	0.63952 0.74710 0.72860 -0.24600
H 	H 	0.62390 0.73160 0.70550 0.10000
H 	H 	0.62730 0.76540 0.75170 0.09600
H 	H 	0.65240 0.73570 0.76780 0.10100
Mn	Mn	0.71272 0.79098 0.50253 1.33200
O 	O 	0.67109 0.80002 0.46261 -0.46900
O 	O 	0.68293 0.86517 0.64966 -0.41500
O 	O 	0.75500 0.78817 0.55337 -0.41300
N 	N 	0.70735 0.82592 0.57713 -0.28700
N 	N 	0.73558 0.83109 0.62260 -0.22100
N 	N 	0.73829 0.82430 0.41580 -0.26400
C 	C 	0.64900 0.82256 0.48240 0.30400
C 	C 	0.62026 0.82474 0.43800 -0.28000
H 	H 	0.61750 0.81050 0.39570 0.13200
C 	C 	0.59635 0.84719 0.45530 0.15700
H 	H 	0.57700 0.84820 0.42480 -0.03200
C 	C 	0.59955 0.86851 0.51600 -0.22400
H 	H 	0.58260 0.88400 0.52730 0.10500
C 	C 	0.62740 0.86708 0.55990 0.14600
H 	H 	0.62970 0.88190 0.60140 -0.00200
C 	C 	0.65256 0.84436 0.54510 -0.24700
C 	C 	0.68209 0.84528 0.59380 0.27800
C 	C 	0.75888 0.81060 0.60490 0.19100
C 	C 	0.79208 0.81364 0.64300 -0.07200
H 	H 	0.79050 0.83070 0.68310 0.03400
H 	H 	0.79730 0.79240 0.66810 0.04700
C 	C 	0.81830 0.82180 0.59420 -0.32300
H 	H 	0.83230 0.80240 0.58640 0.12000
H 	H 	0.83140 0.83960 0.61700 0.11700
H 	H 	0.80950 0.82920 0.54530 0.12500
C 	C 	0.76940 0.81330 0.39220 0.08300
H 	H 	0.77700 0.79190 0.40630 0.00600
C 	C 	0.78980 0.83440 0.34670 -0.20700
H 	H 	0.81170 0.82820 0.33290 0.09400
C 	C 	0.77570 0.86519 0.32310 0.25400
C 	C 	0.75460 0.87471 0.36430 -0.35500
H 	H 	0.75020 0.89770 0.36690 0.14200
C 	C 	0.73620 0.85334 0.40900 0.23800
H 	H 	0.71940 0.86350 0.43850 -0.05900
C 	C 	0.79450 0.88860 0.26970 -0.24800
H 	H 	0.77880 0.90520 0.24990 0.09600
H 	H 	0.81130 0.90060 0.29980 0.09300
Mn	Mn	0.77921 0.63699 0.77836 1.33200
O 	O 	0.75868 0.59912 0.81457 -0.47000
O 	O 	0.69753 0.63474 0.63603 -0.43200
O 	O 	0.79440 0.67740 0.73114 -0.43000
N 	N 	0.74361 0.64398 0.70623 -0.28800
N 	N 	0.74608 0.67406 0.66500 -0.23400
N 	N 	0.85828 0.93996 0.05630 -0.22900
C 	C 	0.73388 0.58205 0.78420 0.30200
C 	C 	0.72760 0.55072 0.81330 -0.28100
H 	H 	0.74110 0.54250 0.85320 0.13400
C 	C 	0.70259 0.53141 0.78630 0.15900
H 	H 	0.69870 0.51050 0.80870 -0.03300
C 	C 	0.68295 0.54172 0.72720 -0.21500
H 	H 	0.66610 0.52780 0.70750 0.11000
C 	C 	0.68823 0.57282 0.69720 0.14100
H 	H 	0.67420 0.58050 0.65770 0.00800
C 	C 	0.71353 0.59320 0.72330 -0.24300
C 	C 	0.71807 0.62574 0.68690 0.28400
C 	C 	0.77342 0.68893 0.68240 0.25900
C 	C 	0.78168 0.72077 0.64460 -0.27000
H 	H 	0.76200 0.73000 0.61900 0.10200
H 	H 	0.78960 0.73700 0.68240 0.11200
C 	C 	0.83336 0.92102 0.03530 0.10300
H 	H 	0.82660 0.92170 0.98360 -0.00300
C 	C 	0.81686 0.90056 0.08350 -0.18100
H 	H 	0.79890 0.88770 0.06560 0.09300
C 	C 	0.82629 0.89871 0.15790 0.10300
C 	C 	0.85153 0.91868 0.18090 -0.16300
H 	H 	0.85850 0.91840 0.23240 0.07900
C 	C 	0.86694 0.93916 0.12990 0.08900
H 	H 	0.88420 0.95310 0.14720 -0.00300
C 	C 	0.80920 0.87450 0.21180 -0.06400
H 	H 	0.79270 0.86170 0.18280 0.04700
H 	H 	0.82590 0.85880 0.23140 0.04000
Mn	Mn	0.42561 0.54482 0.67162 1.31800
O 	O 	0.40436 0.51825 0.74380 -0.49600
O 	O 	0.50400 0.52503 0.81617 -0.40800
O 	O 	0.45438 0.57031 0.60545 -0.43000
N 	N 	0.46732 0.53848 0.72354 -0.29500
N 	N 	0.49465 0.55443 0.68776 -0.23000
C 	C 	0.41583 0.50290 0.80090 0.33900
C 	C 	0.39465 0.48279 0.84200 -0.30500
H 	H 	0.37300 0.47930 0.82310 0.13800
C 	C 	0.40330 0.46800 0.90730 0.15400
H 	H 	0.38820 0.45350 0.93150 -0.02600
C 	C 	0.43520 0.47360 0.94170 -0.19800
H 	H 	0.44040 0.46600 0.99130 0.10100
C 	C 	0.45827 0.49140 0.89620 0.13800
H 	H 	0.48050 0.49300 0.91250 0.00200
C 	C 	0.44901 0.50596 0.82950 -0.25900
C 	C 	0.47455 0.52358 0.78800 0.27400
C 	C 	0.48524 0.57002 0.62710 0.21200
C 	C 	0.51013 0.58780 0.58090 -0.15300
H 	H 	0.52430 0.60080 0.61570 0.06300
H 	H 	0.52440 0.57120 0.55590 0.07400
C 	C 	0.49710 0.61048 0.52140 -0.24600
H 	H 	0.48160 0.62610 0.54450 0.10000
H 	H 	0.51540 0.62270 0.49830 0.09600
H 	H 	0.48570 0.59760 0.48220 0.10100
Mn	Mn	0.54098 0.53728 0.74747 1.33200
O 	O 	0.55002 0.57891 0.78739 -0.46900
O 	O 	0.61517 0.56707 0.60034 -0.41500
O 	O 	0.53817 0.49500 0.69663 -0.41300
N 	N 	0.57592 0.54265 0.67287 -0.28700
N 	N 	0.58109 0.51442 0.62740 -0.22100
N 	N 	0.57430 0.51171 0.83420 -0.26400
C 	C 	0.57256 0.60100 0.76760 0.30400
C 	C 	0.57474 0.62974 0.81200 -0.28000
H 	H 	0.56050 0.63250 0.85430 0.13200
C 	C 	0.59719 0.65365 0.79470 0.15700
H 	H 	0.59820 0.67300 0.82520 -0.03200
C 	C 	0.61851 0.65045 0.73400 -0.22400
H 	H 	0.63400 0.66740 0.72270 0.10500
C 	C 	0.61708 0.62260 0.69010 0.14600
H 	H 	0.63190 0.62030 0.64860 -0.00200
C 	C 	0.59436 0.59744 0.70490 -0.24700
C 	C 	0.59528 0.56791 0.65620 0.27800
C 	C 	0.56060 0.49112 0.64510 0.19100
C 	C 	0.56364 0.45792 0.60700 -0.07200
H 	H 	0.58070 0.45950 0.56690 0.03400
H 	H 	0.54240 0.45270 0.58190 0.04700
C 	C 	0.57180 0.43170 0.65580 -0.32300
H 	H 	0.55240 0.41770 0.66360 0.12000
H 	H 	0.58960 0.41860 0.63300 0.11700
H 	H 	0.57920 0.44050 0.70470 0.12500
C 	C 	0.56330 0.48060 0.85780 0.08300
H 	H 	0.54190 0.47300 0.84370 0.00600
C 	C 	0.58440 0.46020 0.90330 -0.20600
H 	H 	0.57820 0.43830 0.91710 0.09400
C 	C 	0.61519 0.47430 0.92690 0.25300
C 	C 	0.62471 0.49540 0.88570 -0.35500
H 	H 	0.64770 0.49980 0.88310 0.14200
C 	C 	0.60334 0.51380 0.84100 0.23700
H 	H 	0.61350 0.53060 0.81150 -0.05900
C 	C 	0.63860 0.45550 0.98030 -0.24600
H 	H 	0.65520 0.47120 0.00010 0.09500
H 	H 	0.65060 0.43870 0.95020 0.09200
Mn	Mn	0.38699 0.47079 0.47164 1.33200
O 	O 	0.34912 0.49132 0.43543 -0.47000
O 	O 	0.38474 0.55247 0.61397 -0.43200
O 	O 	0.42740 0.45560 0.51886 -0.43000
N 	N 	0.39398 0.50639 0.54377 -0.28800
N 	N 	0.42406 0.50392 0.58500 -0.23400
N 	N 	0.68996 0.39172 0.19370 -0.22900
C 	C 	0.33205 0.51612 0.46580 0.30200
C 	C 	0.30072 0.52240 0.43670 -0.28100
H 	H 	0.29250 0.50890 0.39680 0.13400
C 	C 	0.28141 0.54741 0.46370 0.15900
H 	H 	0.26050 0.55130 0.44130 -0.03300
C 	C 	0.29172 0.56705 0.52280 -0.21500
H 	H 	0.27780 0.58390 0.54250 0.11000
C 	C 	0.32282 0.56177 0.55280 0.14100
H 	H 	0.33050 0.57580 0.59230 0.00800
C 	C 	0.34320 0.53647 0.52670 -0.24300
C 	C 	0.37574 0.53193 0.56310 0.28400
C 	C 	0.43893 0.47658 0.56760 0.25900
C 	C 	0.47077 0.46832 0.60540 -0.27000
H 	H 	0.48000 0.48800 0.63100 0.10200
H 	H 	0.48700 0.46040 0.56760 0.11200
C 	C 	0.67102 0.41664 0.21470 0.10200
H 	H 	0.67170 0.42340 0.26640 -0.00300
C 	C 	0.65056 0.43314 0.16650 -0.18100
H 	H 	0.63770 0.45110 0.18440 0.09300
C 	C 	0.64871 0.42371 0.09210 0.10300
C 	C 	0.66868 0.39847 0.06910 -0.16300
H 	H 	0.66840 0.39150 0.01760 0.07900
C 	C 	0.68916 0.38306 0.12010 0.08900
H 	H 	0.70310 0.36580 0.10280 -0.00300
C 	C 	0.62450 0.44080 0.03820 -0.06500
H 	H 	0.61170 0.45730 0.06720 0.04700
H 	H 	0.60880 0.42410 0.01860 0.04000
Mn	Mn	0.92561 0.04482 0.17162 1.31800
O 	O 	0.90436 0.01825 0.24380 -0.49600
O 	O 	0.00400 0.02503 0.31617 -0.40800
O 	O 	0.95438 0.07031 0.10545 -0.43000
N 	N 	0.96732 0.03848 0.22354 -0.29500
N 	N 	0.99465 0.05443 0.18776 -0.22900
C 	C 	0.91583 0.00290 0.30090 0.33900
C 	C 	0.89465 0.98279 0.34200 -0.30500
H 	H 	0.87300 0.97930 0.32310 0.13800
C 	C 	0.90330 0.96800 0.40730 0.15400
H 	H 	0.88820 0.95350 0.43150 -0.02700
C 	C 	0.93520 0.97360 0.44170 -0.19800
H 	H 	0.94040 0.96600 0.49130 0.10100
C 	C 	0.95827 0.99140 0.39620 0.13800
H 	H 	0.98050 0.99300 0.41250 0.00200
C 	C 	0.94901 0.00596 0.32950 -0.25900
C 	C 	0.97455 0.02358 0.28800 0.27400
C 	C 	0.98524 0.07002 0.12710 0.21100
C 	C 	0.01013 0.08780 0.08090 -0.15100
H 	H 	0.02430 0.10080 0.11570 0.06300
H 	H 	0.02440 0.07120 0.05590 0.07300
C 	C 	0.99710 0.11048 0.02140 -0.24900
H 	H 	0.98160 0.12610 0.04450 0.10100
H 	H 	0.01540 0.12270 0.99830 0.09700
H 	H 	0.98570 0.09760 0.98220 0.10200
Mn	Mn	0.04098 0.03728 0.24747 1.33100
O 	O 	0.05002 0.07891 0.28739 -0.46900
O 	O 	0.11517 0.06707 0.10034 -0.41500
O 	O 	0.03817 0.99500 0.19663 -0.41300
N 	N 	0.07592 0.04265 0.17287 -0.28700
N 	N 	0.08109 0.01442 0.12740 -0.22100
N 	N 	0.07430 0.01171 0.33420 -0.26400
C 	C 	0.07256 0.10100 0.26760 0.30400
C 	C 	0.07474 0.12974 0.31200 -0.28000
H 	H 	0.06050 0.13250 0.35430 0.13200
C 	C 	0.09719 0.15365 0.29470 0.15700
H 	H 	0.09820 0.17300 0.32520 -0.03200
C 	C 	0.11851 0.15045 0.23400 -0.22400
H 	H 	0.13400 0.16740 0.22270 0.10500
C 	C 	0.11708 0.12260 0.19010 0.14600
H 	H 	0.13190 0.12030 0.14860 -0.00200
C 	C 	0.09436 0.09744 0.20490 -0.24700
C 	C 	0.09528 0.06791 0.15620 0.27800
C 	C 	0.06060 0.99112 0.14510 0.19100
C 	C 	0.06364 0.95792 0.10700 -0.07200
H 	H 	0.08070 0.95950 0.06690 0.03400
H 	H 	0.04240 0.95270 0.08190 0.04800
C 	C 	0.07180 0.93170 0.15580 -0.32300
H 	H 	0.05240 0.91770 0.16360 0.12000
H 	H 	0.08960 0.91860 0.13300 0.11700
H 	H 	0.07920 0.94050 0.20470 0.12500
C 	C 	0.06330 0.98060 0.35780 0.08300
H 	H 	0.04190 0.97300 0.34370 0.00600
C 	C 	0.08440 0.96020 0.40330 -0.20700
H 	H 	0.07820 0.93830 0.41710 0.09400
C 	C 	0.11519 0.97430 0.42690 0.25400
C 	C 	0.12471 0.99540 0.38570 -0.35500
H 	H 	0.14770 0.99980 0.38310 0.14200
C 	C 	0.10334 0.01380 0.34100 0.23700
H 	H 	0.11350 0.03060 0.31150 -0.05900
C 	C 	0.13860 0.95550 0.48030 -0.24800
H 	H 	0.15520 0.97120 0.50010 0.09600
H 	H 	0.15060 0.93870 0.45020 0.09300
Mn	Mn	0.88699 0.97079 0.97164 1.33200
O 	O 	0.84912 0.99132 0.93543 -0.47000
O 	O 	0.88474 0.05247 0.11397 -0.43200
O 	O 	0.92740 0.95560 0.01886 -0.43000
N 	N 	0.89398 0.00639 0.04377 -0.28800
N 	N 	0.92406 0.00392 0.08500 -0.23400
N 	N 	0.18996 0.89172 0.69370 -0.22900
C 	C 	0.83205 0.01612 0.96580 0.30300
C 	C 	0.80072 0.02240 0.93670 -0.28100
H 	H 	0.79250 0.00890 0.89680 0.13400
C 	C 	0.78141 0.04741 0.96370 0.16000
H 	H 	0.76050 0.05130 0.94130 -0.03300
C 	C 	0.79172 0.06705 0.02280 -0.21600
H 	H 	0.77780 0.08390 0.04250 0.11100
C 	C 	0.82282 0.06177 0.05280 0.14200
H 	H 	0.83050 0.07580 0.09230 0.00800
C 	C 	0.84320 0.03647 0.02670 -0.24300
C 	C 	0.87574 0.03193 0.06310 0.28400
C 	C 	0.93893 0.97658 0.06760 0.25900
C 	C 	0.97077 0.96832 0.10540 -0.27000
H 	H 	0.98000 0.98800 0.13100 0.10200
H 	H 	0.98700 0.96040 0.06760 0.11200
C 	C 	0.17102 0.91664 0.71470 0.10200
H 	H 	0.17170 0.92340 0.76640 -0.00300
C 	C 	0.15056 0.93314 0.66650 -0.18100
H 	H 	0.13770 0.95110 0.68440 0.09200
C 	C 	0.14871 0.92371 0.59210 0.10200
C 	C 	0.16868 0.89847 0.56910 -0.16300
H 	H 	0.16840 0.89150 0.51760 0.07900
C 	C 	0.18916 0.88306 0.62010 0.08900
H 	H 	0.20310 0.86580 0.60280 -0.00300
C 	C 	0.12450 0.94080 0.53820 -0.06300
H 	H 	0.11170 0.95730 0.56720 0.04700
H 	H 	0.10880 0.92410 0.51860 0.04000
Mn	Mn	0.07439 0.45518 0.17162 1.31800
O 	O 	0.09564 0.48175 0.24380 -0.49600
O 	O 	0.99600 0.47497 0.31617 -0.40800
O 	O 	0.04562 0.42969 0.10545 -0.43000
N 	N 	0.03268 0.46152 0.22354 -0.29500
N 	N 	0.00535 0.44557 0.18776 -0.22900
C 	C 	0.08417 0.49710 0.30090 0.33900
C 	C 	0.10535 0.51721 0.34200 -0.30500
H 	H 	0.12700 0.52070 0.32310 0.13800
C 	C 	0.09670 0.53200 0.40730 0.15400
H 	H 	0.11180 0.54650 0.43150 -0.02700
C 	C 	0.06480 0.52640 0.44170 -0.19800
H 	H 	0.05960 0.53400 0.49130 0.10100
C 	C 	0.04173 0.50860 0.39620 0.13800
H 	H 	0.01950 0.50700 0.41250 0.00200
C 	C 	0.05099 0.49404 0.32950 -0.25900
C 	C 	0.02545 0.47642 0.28800 0.27400
C 	C 	0.01476 0.42998 0.12710 0.21100
C 	C 	0.98987 0.41220 0.08090 -0.15100
H 	H 	0.97570 0.39920 0.11570 0.06300
H 	H 	0.97560 0.42880 0.05590 0.07400
C 	C 	0.00290 0.38952 0.02140 -0.24900
H 	H 	0.01840 0.37390 0.04450 0.10100
H 	H 	0.98460 0.37730 0.99830 0.09700
H 	H 	0.01430 0.40240 0.98220 0.10200
Mn	Mn	0.95902 0.46272 0.24747 1.33200
O 	O 	0.94998 0.42109 0.28739 -0.46900
O 	O 	0.88483 0.43293 0.10034 -0.41500
O 	O 	0.96183 0.50500 0.19663 -0.41300
N 	N 	0.92408 0.45735 0.17287 -0.28700
N 	N 	0.91891 0.48558 0.12740 -0.22100
N 	N 	0.92570 0.48829 0.33420 -0.26400
C 	C 	0.92744 0.39900 0.26760 0.30400
C 	C 	0.92526 0.37026 0.31200 -0.28000
H 	H 	0.93950 0.36750 0.35430 0.13200
C 	C 	0.90281 0.34635 0.29470 0.15700
H 	H 	0.90180 0.32700 0.32520 -0.03200
C 	C 	0.88149 0.34955 0.23400 -0.22400
H 	H 	0.86600 0.33260 0.22270 0.10500
C 	C 	0.88292 0.37740 0.19010 0.14600
H 	H 	0.86810 0.37970 0.14860 -0.00200
C 	C 	0.90564 0.40256 0.20490 -0.24700
C 	C 	0.90472 0.43209 0.15620 0.27800
C 	C 	0.93940 0.50888 0.14510 0.19100
C 	C 	0.93636 0.54208 0.10700 -0.07200
H 	H 	0.91930 0.54050 0.06690 0.03400
H 	H 	0.95760 0.54730 0.08190 0.04700
C 	C 	0.92820 0.56830 0.15580 -0.32300
H 	H 	0.94760 0.58230 0.16360 0.12000
H 	H 	0.91040 0.58140 0.13300 0.11700
H 	H 	0.92080 0.55950 0.20470 0.12500
C 	C 	0.93670 0.51940 0.35780 0.08300
H 	H 	0.95810 0.52700 0.34370 0.00600
C 	C 	0.91560 0.53980 0.40330 -0.20700
H 	H 	0.92180 0.56170 0.41710 0.09400
C 	C 	0.88481 0.52570 0.42690 0.25400
C 	C 	0.87529 0.50460 0.38570 -0.35500
H 	H 	0.85230 0.50020 0.38310 0.14300
C 	C 	0.89666 0.48620 0.34100 0.23800
H 	H 	0.88650 0.46940 0.31150 -0.05900
C 	C 	0.86140 0.54450 0.48030 -0.24800
H 	H 	0.84480 0.52880 0.50010 0.09600
H 	H 	0.84940 0.56130 0.45020 0.09300
Mn	Mn	0.11301 0.52921 0.97164 1.33200
O 	O 	0.15088 0.50868 0.93543 -0.47000
O 	O 	0.11526 0.44753 0.11397 -0.43200
O 	O 	0.07260 0.54440 0.01886 -0.43000
N 	N 	0.10602 0.49361 0.04377 -0.28800
N 	N 	0.07594 0.49608 0.08500 -0.23400
N 	N 	0.81004 0.60828 0.69370 -0.22900
C 	C 	0.16795 0.48388 0.96580 0.30200
C 	C 	0.19928 0.47760 0.93670 -0.28100
H 	H 	0.20750 0.49110 0.89680 0.13400
C 	C 	0.21859 0.45259 0.96370 0.15900
H 	H 	0.23950 0.44870 0.94130 -0.03300
C 	C 	0.20828 0.43295 0.02280 -0.21500
H 	H 	0.22220 0.41610 0.04250 0.11000
C 	C 	0.17718 0.43823 0.05280 0.14100
H 	H 	0.16950 0.42420 0.09230 0.00800
C 	C 	0.15680 0.46353 0.02670 -0.24300
C 	C 	0.12426 0.46807 0.06310 0.28400
C 	C 	0.06107 0.52342 0.06760 0.25900
C 	C 	0.02923 0.53168 0.10540 -0.27000
H 	H 	0.02000 0.51200 0.13100 0.10200
H 	H 	0.01300 0.53960 0.06760 0.11200
C 	C 	0.82898 0.58336 0.71470 0.10200
H 	H 	0.82830 0.57660 0.76640 -0.00300
C 	C 	0.84944 0.56686 0.66650 -0.18100
H 	H 	0.86230 0.54890 0.68440 0.09200
C 	C 	0.85129 0.57629 0.59210 0.10200
C 	C 	0.83132 0.60153 0.56910 -0.16300
H 	H 	0.83160 0.60850 0.51760 0.07900
C 	C 	0.81084 0.61694 0.62010 0.08900
H 	H 	0.79690 0.63420 0.60280 -0.00300
C 	C 	0.87550 0.55920 0.53820 -0.06300
H 	H 	0.88830 0.54270 0.56720 0.04700
H 	H 	0.89120 0.57590 0.51860 0.04000
Mn	Mn	0.57439 0.95518 0.67162 1.31800
O 	O 	0.59564 0.98175 0.74380 -0.49600
O 	O 	0.49600 0.97497 0.81617 -0.40800
O 	O 	0.54562 0.92969 0.60545 -0.43000
N 	N 	0.53268 0.96152 0.72354 -0.29500
N 	N 	0.50535 0.94557 0.68776 -0.23000
C 	C 	0.58417 0.99710 0.80090 0.33900
C 	C 	0.60535 0.01721 0.84200 -0.30500
H 	H 	0.62700 0.02070 0.82310 0.13800
C 	C 	0.59670 0.03200 0.90730 0.15400
H 	H 	0.61180 0.04650 0.93150 -0.02600
C 	C 	0.56480 0.02640 0.94170 -0.19800
H 	H 	0.55960 0.03400 0.99130 0.10100
C 	C 	0.54173 0.00860 0.89620 0.13800
H 	H 	0.51950 0.00700 0.91250 0.00200
C 	C 	0.55099 0.99404 0.82950 -0.25900
C 	C 	0.52545 0.97642 0.78800 0.27400
C 	C 	0.51476 0.92998 0.62710 0.21200
C 	C 	0.48987 0.91220 0.58090 -0.15300
H 	H 	0.47570 0.89920 0.61570 0.06300
H 	H 	0.47560 0.92880 0.55590 0.07400
C 	C 	0.50290 0.88952 0.52140 -0.24600
H 	H 	0.51840 0.87390 0.54450 0.10000
H 	H 	0.48460 0.87730 0.49830 0.09600
H 	H 	0.51430 0.90240 0.48220 0.10100
Mn	Mn	0.45902 0.96272 0.74747 1.33100
O 	O 	0.44998 0.92109 0.78739 -0.46900
O 	O 	0.38483 0.93293 0.60034 -0.41500
O 	O 	0.46183 0.00500 0.69663 -0.41300
N 	N 	0.42408 0.95735 0.67287 -0.28700
N 	N 	0.41891 0.98558 0.62740 -0.22100
N 	N 	0.42570 0.98829 0.83420 -0.26400
C 	C 	0.42744 0.89900 0.76760 0.30400
C 	C 	0.42526 0.87026 0.81200 -0.28000
H 	H 	0.43950 0.86750 0.85430 0.13200
C 	C 	0.40281 0.84635 0.79470 0.15700
H 	H 	0.40180 0.82700 0.82520 -0.03200
C 	C 	0.38149 0.84955 0.73400 -0.22400
H 	H 	0.36600 0.83260 0.72270 0.10500
C 	C 	0.38292 0.87740 0.69010 0.14600
H 	H 	0.36810 0.87970 0.64860 -0.00200
C 	C 	0.40564 0.90256 0.70490 -0.24700
C 	C 	0.40472 0.93209 0.65620 0.27800
C 	C 	0.43940 0.00888 0.64510 0.19100
C 	C 	0.43636 0.04208 0.60700 -0.07200
H 	H 	0.41930 0.04050 0.56690 0.03400
H 	H 	0.45760 0.04730 0.58190 0.04700
C 	C 	0.42820 0.06830 0.65580 -0.32300
H 	H 	0.44760 0.08230 0.66360 0.12000
H 	H 	0.41040 0.08140 0.63300 0.11700
H 	H 	0.42080 0.05950 0.70470 0.12500
C 	C 	0.43670 0.01940 0.85780 0.08300
H 	H 	0.45810 0.02700 0.84370 0.00600
C 	C 	0.41560 0.03980 0.90330 -0.20600
H 	H 	0.42180 0.06170 0.91710 0.09400
C 	C 	0.38481 0.02570 0.92690 0.25200
C 	C 	0.37529 0.00460 0.88570 -0.35400
H 	H 	0.35230 0.00020 0.88310 0.14200
C 	C 	0.39666 0.98620 0.84100 0.23700
H 	H 	0.38650 0.96940 0.81150 -0.05900
C 	C 	0.36140 0.04450 0.98030 -0.24600
H 	H 	0.34480 0.02880 0.00010 0.09500
H 	H 	0.34940 0.06130 0.95020 0.09200
Mn	Mn	0.61301 0.02921 0.47164 1.33200
O 	O 	0.65088 0.00868 0.43543 -0.47000
O 	O 	0.61526 0.94753 0.61397 -0.43200
O 	O 	0.57260 0.04440 0.51886 -0.43000
N 	N 	0.60602 0.99361 0.54377 -0.28800
N 	N 	0.57594 0.99608 0.58500 -0.23400
N 	N 	0.31004 0.10828 0.19370 -0.22900
C 	C 	0.66795 0.98388 0.46580 0.30200
C 	C 	0.69928 0.97760 0.43670 -0.28100
H 	H 	0.70750 0.99110 0.39680 0.13400
C 	C 	0.71859 0.95259 0.46370 0.15900
H 	H 	0.73950 0.94870 0.44130 -0.03300
C 	C 	0.70828 0.93295 0.52280 -0.21500
H 	H 	0.72220 0.91610 0.54250 0.11000
C 	C 	0.67718 0.93823 0.55280 0.14100
H 	H 	0.66950 0.92420 0.59230 0.00800
C 	C 	0.65680 0.96353 0.52670 -0.24300
C 	C 	0.62426 0.96807 0.56310 0.28400
C 	C 	0.56107 0.02342 0.56760 0.25900
C 	C 	0.52923 0.03168 0.60540 -0.27000
H 	H 	0.52000 0.01200 0.63100 0.10200
H 	H 	0.51300 0.03960 0.56760 0.11200
C 	C 	0.32898 0.08336 0.21470 0.10200
H 	H 	0.32830 0.07660 0.26640 -0.00300
C 	C 	0.34944 0.06686 0.16650 -0.18100
H 	H 	0.36230 0.04890 0.18440 0.09300
C 	C 	0.35129 0.07629 0.09210 0.10300
C 	C 	0.33132 0.10153 0.06910 -0.16400
H 	H 	0.33160 0.10850 0.01760 0.08000
C 	C 	0.31084 0.11694 0.12010 0.08900
H 	H 	0.29690 0.13420 0.10280 -0.00300
C 	C 	0.37550 0.05920 0.03820 -0.06600
H 	H 	0.38830 0.04270 0.06720 0.04800
H 	H 	0.39120 0.07590 0.01860 0.04000
Mn	Mn	0.70518 0.17561 0.42162 1.31800
O 	O 	0.73175 0.15436 0.49380 -0.49600
O 	O 	0.72497 0.25400 0.56617 -0.40800
O 	O 	0.67969 0.20438 0.35545 -0.43000
N 	N 	0.71152 0.21732 0.47354 -0.29500
N 	N 	0.69557 0.24465 0.43776 -0.23000
C 	C 	0.74710 0.16583 0.55090 0.33900
C 	C 	0.76721 0.14465 0.59200 -0.30500
H 	H 	0.77070 0.12300 0.57310 0.13800
C 	C 	0.78200 0.15330 0.65730 0.15400
H 	H 	0.79650 0.13820 0.68150 -0.02700
C 	C 	0.77640 0.18520 0.69170 -0.19800
H 	H 	0.78400 0.19040 0.74130 0.10100
C 	C 	0.75860 0.20827 0.64620 0.13800
H 	H 	0.75700 0.23050 0.66250 0.00200
C 	C 	0.74404 0.19901 0.57950 -0.25900
C 	C 	0.72642 0.22455 0.53800 0.27400
C 	C 	0.67998 0.23524 0.37710 0.21200
C 	C 	0.66220 0.26013 0.33090 -0.15300
H 	H 	0.64920 0.27430 0.36570 0.06300
H 	H 	0.67880 0.27440 0.30590 0.07400
C 	C 	0.63952 0.24710 0.27140 -0.24600
H 	H 	0.62390 0.23160 0.29450 0.10000
H 	H 	0.62730 0.26540 0.24830 0.09600
H 	H 	0.65240 0.23570 0.23220 0.10100
Mn	Mn	0.71272 0.29098 0.49747 1.33200
O 	O 	0.67109 0.30002 0.53739 -0.46900
O 	O 	0.68293 0.36517 0.35034 -0.41500
O 	O 	0.75500 0.28817 0.44663 -0.41300
N 	N 	0.70735 0.32592 0.42287 -0.28700
N 	N 	0.73558 0.33109 0.37740 -0.22100
N 	N 	0.73829 0.32430 0.58420 -0.26400
C 	C 	0.64900 0.32256 0.51760 0.30400
C 	C 	0.62026 0.32474 0.56200 -0.28000
H 	H 	0.61750 0.31050 0.60430 0.13200
C 	C 	0.59635 0.34719 0.54470 0.15700
H 	H 	0.57700 0.34820 0.57520 -0.03200
C 	C 	0.59955 0.36851 0.48400 -0.22400
H 	H 	0.58260 0.38400 0.47270 0.10500
C 	C 	0.62740 0.36708 0.44010 0.14600
H 	H 	0.62970 0.38190 0.39860 -0.00200
C 	C 	0.65256 0.34436 0.45490 -0.24700
C 	C 	0.68209 0.34528 0.40620 0.27800
C 	C 	0.75888 0.31060 0.39510 0.19100
C 	C 	0.79208 0.31364 0.35700 -0.07200
H 	H 	0.79050 0.33070 0.31690 0.03400
H 	H 	0.79730 0.29240 0.33190 0.04700
C 	C 	0.81830 0.32180 0.40580 -0.32300
H 	H 	0.83230 0.30240 0.41360 0.12000
H 	H 	0.83140 0.33960 0.38300 0.11700
H 	H 	0.80950 0.32920 0.45470 0.12500
C 	C 	0.76940 0.31330 0.60780 0.08300
H 	H 	0.77700 0.29190 0.59370 0.00600
C 	C 	0.78980 0.33440 0.65330 -0.20700
H 	H 	0.81170 0.32820 0.66710 0.09400
C 	C 	0.77570 0.36519 0.67690 0.25400
C 	C 	0.75460 0.37471 0.63570 -0.35500
H 	H 	0.75020 0.39770 0.63310 0.14200
C 	C 	0.73620 0.35334 0.59100 0.23800
H 	H 	0.71940 0.36350 0.56150 -0.05900
C 	C 	0.79450 0.38860 0.73030 -0.24800
H 	H 	0.77880 0.40520 0.75010 0.09600
H 	H 	0.81130 0.40060 0.70020 0.09300
Mn	Mn	0.77921 0.13699 0.22164 1.33200
O 	O 	0.75868 0.09912 0.18543 -0.47000
O 	O 	0.69753 0.13474 0.36397 -0.43200
O 	O 	0.79440 0.17740 0.26886 -0.43000
N 	N 	0.74361 0.14398 0.29377 -0.28800
N 	N 	0.74608 0.17406 0.33500 -0.23400
N 	N 	0.85828 0.43996 0.94370 -0.22900
C 	C 	0.73388 0.08205 0.21580 0.30200
C 	C 	0.72760 0.05072 0.18670 -0.28100
H 	H 	0.74110 0.04250 0.14680 0.13400
C 	C 	0.70259 0.03141 0.21370 0.15900
H 	H 	0.69870 0.01050 0.19130 -0.03300
C 	C 	0.68295 0.04172 0.27280 -0.21500
H 	H 	0.66610 0.02780 0.29250 0.11000
C 	C 	0.68823 0.07282 0.30280 0.14100
H 	H 	0.67420 0.08050 0.34230 0.00800
C 	C 	0.71353 0.09320 0.27670 -0.24300
C 	C 	0.71807 0.12574 0.31310 0.28400
C 	C 	0.77342 0.18893 0.31760 0.25900
C 	C 	0.78168 0.22077 0.35540 -0.27000
H 	H 	0.76200 0.23000 0.38100 0.10200
H 	H 	0.78960 0.23700 0.31760 0.11200
C 	C 	0.83336 0.42102 0.96470 0.10300
H 	H 	0.82660 0.42170 0.01640 -0.00300
C 	C 	0.81686 0.40056 0.91650 -0.18100
H 	H 	0.79890 0.38770 0.93440 0.09300
C 	C 	0.82629 0.39871 0.84210 0.10300
C 	C 	0.85153 0.41868 0.81910 -0.16300
H 	H 	0.85850 0.41840 0.76760 0.07900
C 	C 	0.86694 0.43916 0.87010 0.08900
H 	H 	0.88420 0.45310 0.85280 -0.00300
C 	C 	0.80920 0.37450 0.78820 -0.06400
H 	H 	0.79270 0.36170 0.81720 0.04700
H 	H 	0.82590 0.35880 0.76860 0.04000
Mn	Mn	0.20518 0.67561 0.92162 1.31800
O 	O 	0.23175 0.65436 0.99380 -0.49600
O 	O 	0.22497 0.75400 0.06617 -0.40800
O 	O 	0.17969 0.70438 0.85545 -0.43000
N 	N 	0.21152 0.71732 0.97354 -0.29500
N 	N 	0.19557 0.74465 0.93776 -0.23000
C 	C 	0.24710 0.66583 0.05090 0.34000
C 	C 	0.26721 0.64465 0.09200 -0.30500
H 	H 	0.27070 0.62300 0.07310 0.13900
C 	C 	0.28200 0.65330 0.15730 0.15500
H 	H 	0.29650 0.63820 0.18150 -0.02700
C 	C 	0.27640 0.68520 0.19170 -0.19800
H 	H 	0.28400 0.69040 0.24130 0.10100
C 	C 	0.25860 0.70827 0.14620 0.13800
H 	H 	0.25700 0.73050 0.16250 0.00200
C 	C 	0.24404 0.69901 0.07950 -0.25900
C 	C 	0.22642 0.72455 0.03800 0.27400
C 	C 	0.17998 0.73524 0.87710 0.21200
C 	C 	0.16220 0.76013 0.83090 -0.15300
H 	H 	0.14920 0.77430 0.86570 0.06300
H 	H 	0.17880 0.77440 0.80590 0.07400
C 	C 	0.13952 0.74710 0.77140 -0.24600
H 	H 	0.12390 0.73160 0.79450 0.10000
H 	H 	0.12730 0.76540 0.74830 0.09600
H 	H 	0.15240 0.73570 0.73220 0.10100
Mn	Mn	0.21272 0.79098 0.99747 1.33100
O 	O 	0.17109 0.80002 0.03739 -0.46900
O 	O 	0.18293 0.86517 0.85034 -0.41500
O 	O 	0.25500 0.78817 0.94663 -0.41300
N 	N 	0.20735 0.82592 0.92287 -0.28700
N 	N 	0.23558 0.83109 0.87740 -0.22100
N 	N 	0.23829 0.82430 0.08420 -0.26400
C 	C 	0.14900 0.82256 0.01760 0.30500
C 	C 	0.12026 0.82474 0.06200 -0.28100
H 	H 	0.11750 0.81050 0.10430 0.13300
C 	C 	0.09635 0.84719 0.04470 0.15900
H 	H 	0.07700 0.84820 0.07520 -0.03300
C 	C 	0.09955 0.86851 0.98400 -0.22500
H 	H 	0.08260 0.88400 0.97270 0.10600
C 	C 	0.12740 0.86708 0.94010 0.14700
H 	H 	0.12970 0.88190 0.89860 -0.00200
C 	C 	0.15256 0.84436 0.95490 -0.24800
C 	C 	0.18209 0.84528 0.90620 0.27900
C 	C 	0.25888 0.81060 0.89510 0.19100
C 	C 	0.29208 0.81364 0.85700 -0.07300
H 	H 	0.29050 0.83070 0.81690 0.03400
H 	H 	0.29730 0.79240 0.83190 0.04700
C 	C 	0.31830 0.82180 0.90580 -0.32200
H 	H 	0.33230 0.80240 0.91360 0.12000
H 	H 	0.33140 0.83960 0.88300 0.11700
H 	H 	0.30950 0.82920 0.95470 0.12400
C 	C 	0.26940 0.81330 0.10780 0.08300
H 	H 	0.27700 0.79190 0.09370 0.00600
C 	C 	0.28980 0.83440 0.15330 -0.20700
H 	H 	0.31170 0.82820 0.16710 0.09400
C 	C 	0.27570 0.86519 0.17690 0.25400
C 	C 	0.25460 0.87471 0.13570 -0.35500
H 	H 	0.25020 0.89770 0.13310 0.14300
C 	C 	0.23620 0.85334 0.09100 0.23800
H 	H 	0.21940 0.86350 0.06150 -0.05900
C 	C 	0.29450 0.88860 0.23030 -0.24800
H 	H 	0.27880 0.90520 0.25010 0.09600
H 	H 	0.31130 0.90060 0.20020 0.09300
Mn	Mn	0.27921 0.63699 0.72164 1.33200
O 	O 	0.25868 0.59912 0.68543 -0.47000
O 	O 	0.19753 0.63474 0.86397 -0.43200
O 	O 	0.29440 0.67740 0.76886 -0.43000
N 	N 	0.24361 0.64398 0.79377 -0.28800
N 	N 	0.24608 0.67406 0.83500 -0.23400
N 	N 	0.35828 0.93996 0.44370 -0.22900
C 	C 	0.23388 0.58205 0.71580 0.30200
C 	C 	0.22760 0.55072 0.68670 -0.28100
H 	H 	0.24110 0.54250 0.64680 0.13400
C 	C 	0.20259 0.53141 0.71370 0.15900
H 	H 	0.19870 0.51050 0.69130 -0.03300
C 	C 	0.18295 0.54172 0.77280 -0.21500
H 	H 	0.16610 0.52780 0.79250 0.11000
C 	C 	0.18823 0.57282 0.80280 0.14100
H 	H 	0.17420 0.58050 0.84230 0.00800
C 	C 	0.21353 0.59320 0.77670 -0.24300
C 	C 	0.21807 0.62574 0.81310 0.28400
C 	C 	0.27342 0.68893 0.81760 0.25900
C 	C 	0.28168 0.72077 0.85540 -0.27000
H 	H 	0.26200 0.73000 0.88100 0.10200
H 	H 	0.28960 0.73700 0.81760 0.11200
C 	C 	0.33336 0.92102 0.46470 0.10200
H 	H 	0.32660 0.92170 0.51640 -0.00300
C 	C 	0.31686 0.90056 0.41650 -0.18100
H 	H 	0.29890 0.88770 0.43440 0.09200
C 	C 	0.32629 0.89871 0.34210 0.10200
C 	C 	0.35153 0.91868 0.31910 -0.16300
H 	H 	0.35850 0.91840 0.26760 0.07900
C 	C 	0.36694 0.93916 0.37010 0.08900
H 	H 	0.38420 0.95310 0.35280 -0.00300
C 	C 	0.30920 0.87450 0.28820 -0.06300
H 	H 	0.29270 0.86170 0.31720 0.04700
H 	H 	0.32590 0.85880 0.26860 0.04000
Mn	Mn	0.79482 0.82439 0.92162 1.31800
O 	O 	0.76825 0.84564 0.99380 -0.49700
O 	O 	0.77503 0.74600 0.06617 -0.40800
O 	O 	0.82031 0.79562 0.85545 -0.43000
N 	N 	0.78848 0.78268 0.97354 -0.29500
N 	N 	0.80443 0.75535 0.93776 -0.23000
C 	C 	0.75290 0.83417 0.05090 0.34000
C 	C 	0.73279 0.85535 0.09200 -0.30500
H 	H 	0.72930 0.87700 0.07310 0.13900
C 	C 	0.71800 0.84670 0.15730 0.15500
H 	H 	0.70350 0.86180 0.18150 -0.02700
C 	C 	0.72360 0.81480 0.19170 -0.19800
H 	H 	0.71600 0.80960 0.24130 0.10100
C 	C 	0.74140 0.79173 0.14620 0.13800
H 	H 	0.74300 0.76950 0.16250 0.00200
C 	C 	0.75596 0.80099 0.07950 -0.25900
C 	C 	0.77358 0.77545 0.03800 0.27400
C 	C 	0.82002 0.76476 0.87710 0.21200
C 	C 	0.83780 0.73987 0.83090 -0.15300
H 	H 	0.85080 0.72570 0.86570 0.06300
H 	H 	0.82120 0.72560 0.80590 0.07400
C 	C 	0.86048 0.75290 0.77140 -0.24600
H 	H 	0.87610 0.76840 0.79450 0.10000
H 	H 	0.87270 0.73460 0.74830 0.09600
H 	H 	0.84760 0.76430 0.73220 0.10100
Mn	Mn	0.78728 0.70902 0.99747 1.33100
O 	O 	0.82891 0.69998 0.03739 -0.46900
O 	O 	0.81707 0.63483 0.85034 -0.41500
O 	O 	0.74500 0.71183 0.94663 -0.41300
N 	N 	0.79265 0.67408 0.92287 -0.28700
N 	N 	0.76442 0.66891 0.87740 -0.22100
N 	N 	0.76171 0.67570 0.08420 -0.26400
C 	C 	0.85100 0.67744 0.01760 0.30500
C 	C 	0.87974 0.67526 0.06200 -0.28100
H 	H 	0.88250 0.68950 0.10430 0.13300
C 	C 	0.90365 0.65281 0.04470 0.15900
H 	H 	0.92300 0.65180 0.07520 -0.03300
C 	C 	0.90045 0.63149 0.98400 -0.22500
H 	H 	0.91740 0.61600 0.97270 0.10600
C 	C 	0.87260 0.63292 0.94010 0.14600
H 	H 	0.87030 0.61810 0.89860 -0.00200
C 	C 	0.84744 0.65564 0.95490 -0.24800
C 	C 	0.81791 0.65472 0.90620 0.27900
C 	C 	0.74112 0.68940 0.89510 0.19100
C 	C 	0.70792 0.68636 0.85700 -0.07200
H 	H 	0.70950 0.66930 0.81690 0.03400
H 	H 	0.70270 0.70760 0.83190 0.04700
C 	C 	0.68170 0.67820 0.90580 -0.32200
H 	H 	0.66770 0.69760 0.91360 0.12000
H 	H 	0.66860 0.66040 0.88300 0.11700
H 	H 	0.69050 0.67080 0.95470 0.12400
C 	C 	0.73060 0.68670 0.10780 0.08300
H 	H 	0.72300 0.70810 0.09370 0.00600
C 	C 	0.71020 0.66560 0.15330 -0.20700
H 	H 	0.68830 0.67180 0.16710 0.09400
C 	C 	0.72430 0.63481 0.17690 0.25400
C 	C 	0.74540 0.62529 0.13570 -0.35500
H 	H 	0.74980 0.60230 0.13310 0.14300
C 	C 	0.76380 0.64666 0.09100 0.23800
H 	H 	0.78060 0.63650 0.06150 -0.05900
C 	C 	0.70550 0.61140 0.23030 -0.24800
H 	H 	0.72120 0.59480 0.25010 0.09600
H 	H 	0.68870 0.59940 0.20020 0.09300
Mn	Mn	0.72079 0.86301 0.72164 1.33200
O 	O 	0.74132 0.90088 0.68543 -0.47000
O 	O 	0.80247 0.86526 0.86397 -0.43200
O 	O 	0.70560 0.82260 0.76886 -0.43000
N 	N 	0.75639 0.85602 0.79377 -0.28800
N 	N 	0.75392 0.82594 0.83500 -0.23400
N 	N 	0.64172 0.56004 0.44370 -0.22900
C 	C 	0.76612 0.91795 0.71580 0.30200
C 	C 	0.77240 0.94928 0.68670 -0.28100
H 	H 	0.75890 0.95750 0.64680 0.13400
C 	C 	0.79741 0.96859 0.71370 0.15900
H 	H 	0.80130 0.98950 0.69130 -0.03300
C 	C 	0.81705 0.95828 0.77280 -0.21500
H 	H 	0.83390 0.97220 0.79250 0.11000
C 	C 	0.81177 0.92718 0.80280 0.14100
H 	H 	0.82580 0.91950 0.84230 0.00800
C 	C 	0.78647 0.90680 0.77670 -0.24300
C 	C 	0.78193 0.87426 0.81310 0.28400
C 	C 	0.72658 0.81107 0.81760 0.25900
C 	C 	0.71832 0.77923 0.85540 -0.27000
H 	H 	0.73800 0.77000 0.88100 0.10200
H 	H 	0.71040 0.76300 0.81760 0.11200
C 	C 	0.66664 0.57898 0.46470 0.10200
H 	H 	0.67340 0.57830 0.51640 -0.00300
C 	C 	0.68314 0.59944 0.41650 -0.18100
H 	H 	0.70110 0.61230 0.43440 0.09200
C 	C 	0.67371 0.60129 0.34210 0.10200
C 	C 	0.64847 0.58132 0.31910 -0.16300
H 	H 	0.64150 0.58160 0.26760 0.07900
C 	C 	0.63306 0.56084 0.37010 0.08900
H 	H 	0.61580 0.54690 0.35280 -0.00300
C 	C 	0.69080 0.62550 0.28820 -0.06300
H 	H 	0.70730 0.63830 0.31720 0.04700
H 	H 	0.67410 0.64120 0.26860 0.04000
Mn	Mn	0.29482 0.32439 0.42162 1.31800
O 	O 	0.26825 0.34564 0.49380 -0.49600
O 	O 	0.27503 0.24600 0.56617 -0.40800
O 	O 	0.32031 0.29562 0.35545 -0.43000
N 	N 	0.28848 0.28268 0.47354 -0.29500
N 	N 	0.30443 0.25535 0.43776 -0.23000
C 	C 	0.25290 0.33417 0.55090 0.33900
C 	C 	0.23279 0.35535 0.59200 -0.30500
H 	H 	0.22930 0.37700 0.57310 0.13800
C 	C 	0.21800 0.34670 0.65730 0.15400
H 	H 	0.20350 0.36180 0.68150 -0.02700
C 	C 	0.22360 0.31480 0.69170 -0.19800
H 	H 	0.21600 0.30960 0.74130 0.10100
C 	C 	0.24140 0.29173 0.64620 0.13800
H 	H 	0.24300 0.26950 0.66250 0.00200
C 	C 	0.25596 0.30099 0.57950 -0.25900
C 	C 	0.27358 0.27545 0.53800 0.27400
C 	C 	0.32002 0.26476 0.37710 0.21200
C 	C 	0.33780 0.23987 0.33090 -0.15300
H 	H 	0.35080 0.22570 0.36570 0.06300
H 	H 	0.32120 0.22560 0.30590 0.07400
C 	C 	0.36048 0.25290 0.27140 -0.24600
H 	H 	0.37610 0.26840 0.29450 0.10000
H 	H 	0.37270 0.23460 0.24830 0.09600
H 	H 	0.34760 0.26430 0.23220 0.10100
Mn	Mn	0.28728 0.20902 0.49747 1.33200
O 	O 	0.32891 0.19998 0.53739 -0.46900
O 	O 	0.31707 0.13483 0.35034 -0.41500
O 	O 	0.24500 0.21183 0.44663 -0.41300
N 	N 	0.29265 0.17408 0.42287 -0.28700
N 	N 	0.26442 0.16891 0.37740 -0.22100
N 	N 	0.26171 0.17570 0.58420 -0.26400
C 	C 	0.35100 0.17744 0.51760 0.30400
C 	C 	0.37974 0.17526 0.56200 -0.28000
H 	H 	0.38250 0.18950 0.60430 0.13200
C 	C 	0.40365 0.15281 0.54470 0.15700
H 	H 	0.42300 0.15180 0.57520 -0.03200
C 	C 	0.40045 0.13149 0.48400 -0.22400
H 	H 	0.41740 0.11600 0.47270 0.10500
C 	C 	0.37260 0.13292 0.44010 0.14600
H 	H 	0.37030 0.11810 0.39860 -0.00200
C 	C 	0.34744 0.15564 0.45490 -0.24700
C 	C 	0.31791 0.15472 0.40620 0.27800
C 	C 	0.24112 0.18940 0.39510 0.19100
C 	C 	0.20792 0.18636 0.35700 -0.07200
H 	H 	0.20950 0.16930 0.31690 0.03400
H 	H 	0.20270 0.20760 0.33190 0.04700
C 	C 	0.18170 0.17820 0.40580 -0.32300
H 	H 	0.16770 0.19760 0.41360 0.12000
H 	H 	0.16860 0.16040 0.38300 0.11700
H 	H 	0.19050 0.17080 0.45470 0.12500
C 	C 	0.23060 0.18670 0.60780 0.08300
H 	H 	0.22300 0.20810 0.59370 0.00600
C 	C 	0.21020 0.16560 0.65330 -0.20700
H 	H 	0.18830 0.17180 0.66710 0.09400
C 	C 	0.22430 0.13481 0.67690 0.25400
C 	C 	0.24540 0.12529 0.63570 -0.35500
H 	H 	0.24980 0.10230 0.63310 0.14200
C 	C 	0.26380 0.14666 0.59100 0.23800
H 	H 	0.28060 0.13650 0.56150 -0.05900
C 	C 	0.20550 0.11140 0.73030 -0.24800
H 	H 	0.22120 0.09480 0.75010 0.09600
H 	H 	0.18870 0.09940 0.70020 0.09300
Mn	Mn	0.22079 0.36301 0.22164 1.33200
O 	O 	0.24132 0.40088 0.18543 -0.47000
O 	O 	0.30247 0.36526 0.36397 -0.43200
O 	O 	0.20560 0.32260 0.26886 -0.43000
N 	N 	0.25639 0.35602 0.29377 -0.28800
N 	N 	0.25392 0.32594 0.33500 -0.23400
N 	N 	0.14172 0.06004 0.94370 -0.22900
C 	C 	0.26612 0.41795 0.21580 0.30200
C 	C 	0.27240 0.44928 0.18670 -0.28100
H 	H 	0.25890 0.45750 0.14680 0.13400
C 	C 	0.29741 0.46859 0.21370 0.15900
H 	H 	0.30130 0.48950 0.19130 -0.03300
C 	C 	0.31705 0.45828 0.27280 -0.21500
H 	H 	0.33390 0.47220 0.29250 0.11000
C 	C 	0.31177 0.42718 0.30280 0.14100
H 	H 	0.32580 0.41950 0.34230 0.00800
C 	C 	0.28647 0.40680 0.27670 -0.24300
C 	C 	0.28193 0.37426 0.31310 0.28400
C 	C 	0.22658 0.31107 0.31760 0.25900
C 	C 	0.21832 0.27923 0.35540 -0.27000
H 	H 	0.23800 0.27000 0.38100 0.10200
H 	H 	0.21040 0.26300 0.31760 0.11200
C 	C 	0.16664 0.07898 0.96470 0.10300
H 	H 	0.17340 0.07830 0.01640 -0.00300
C 	C 	0.18314 0.09944 0.91650 -0.18100
H 	H 	0.20110 0.11230 0.93440 0.09300
C 	C 	0.17371 0.10129 0.84210 0.10300
C 	C 	0.14847 0.08132 0.81910 -0.16300
H 	H 	0.14150 0.08160 0.76760 0.07900
C 	C 	0.13306 0.06084 0.87010 0.08900
H 	H 	0.11580 0.04690 0.85280 -0.00300
C 	C 	0.19080 0.12550 0.78820 -0.06400
H 	H 	0.20730 0.13830 0.81720 0.04700
H 	H 	0.17410 0.14120 0.76860 0.04000
