data_crystal

_cell_length_a 40.90600
_cell_length_b 40.90600
_cell_length_c 17.29500
_cell_angle_alpha 90.00000
_cell_angle_beta  90.00000
_cell_angle_gamma 90.00000

_symmetry_space_group_name_	'P 1'
_symmetry_space_group_name_H-M	'P 1'

loop_
_symmetry_equiv_pos_as_xyz
  x,y,z

loop_
_atom_site_label
_atom_site_type_symbol
_atom_site_fract_x
_atom_site_fract_y
_atom_site_fract_z
_atom_site_charge
Mn	Mn	0.57646 0.54115 0.18184 1.31700
O 	O 	0.59498 0.51400 0.25670 -0.47900
O 	O 	0.49550 0.52560 0.32103 -0.41700
O 	O 	0.55058 0.56736 0.11152 -0.44800
N 	N 	0.53403 0.53665 0.23000 -0.29800
N 	N 	0.50820 0.55219 0.18940 -0.24200
C 	C 	0.58182 0.50088 0.31950 0.29500
C 	C 	0.60176 0.48022 0.36490 -0.27800
H 	H 	0.62340 0.47530 0.34850 0.12300
C 	C 	0.59013 0.46732 0.43230 0.15300
H 	H 	0.60420 0.45400 0.46260 -0.03100
C 	C 	0.55885 0.47284 0.45780 -0.21300
H 	H 	0.55140 0.46390 0.50530 0.10400
C 	C 	0.53839 0.49192 0.41220 0.13600
H 	H 	0.51660 0.49590 0.42910 -0.00200
C 	C 	0.54877 0.50544 0.34250 -0.24900
C 	C 	0.52482 0.52348 0.29600 0.27300
C 	C 	0.51948 0.56693 0.12830 0.26800
C 	C 	0.49659 0.58442 0.07500 -0.35500
H 	H 	0.47400 0.58220 0.09470 0.11700
H 	H 	0.49750 0.57410 0.02320 0.12900
C 	C 	0.50493 0.62024 0.06750 0.15900
H 	H 	0.49110 0.63020 0.02690 -0.02400
H 	H 	0.52800 0.62250 0.05150 -0.01400
C 	C 	0.49967 0.63848 0.14350 -0.36500
H 	H 	0.47710 0.63450 0.16190 0.13200
H 	H 	0.51490 0.62970 0.18280 0.12700
C 	C 	0.50500 0.67500 0.13580 0.29000
H 	H 	0.52770 0.67900 0.11850 -0.06800
H 	H 	0.49010 0.68360 0.09560 -0.07000
C 	C 	0.49920 0.69300 0.20940 -0.63900
H 	H 	0.47600 0.69880 0.21330 0.20300
H 	H 	0.51250 0.71290 0.21010 0.20000
H 	H 	0.50530 0.67900 0.25320 0.19900
Mn	Mn	0.46060 0.53807 0.24670 1.33100
O 	O 	0.45228 0.57945 0.28670 -0.47400
O 	O 	0.38526 0.56698 0.10026 -0.41700
O 	O 	0.46339 0.49633 0.19429 -0.44100
N 	N 	0.42627 0.54364 0.17060 -0.28900
N 	N 	0.42153 0.51611 0.12180 -0.24200
N 	N 	0.42650 0.51173 0.33120 -0.22600
C 	C 	0.42844 0.60023 0.26970 0.29500
C 	C 	0.42626 0.62860 0.31580 -0.26800
H 	H 	0.44180 0.63220 0.35580 0.12100
C 	C 	0.40155 0.65129 0.30310 0.14300
H 	H 	0.40020 0.67010 0.33510 -0.02800
C 	C 	0.37898 0.64694 0.24500 -0.21700
H 	H 	0.36200 0.66240 0.23700 0.10700
C 	C 	0.38158 0.62005 0.19900 0.14000
H 	H 	0.36620 0.61720 0.15850 0.00000
C 	C 	0.40602 0.59632 0.20890 -0.24800
C 	C 	0.40567 0.56772 0.15620 0.27300
C 	C 	0.44192 0.49288 0.14040 0.27400
C 	C 	0.43910 0.46015 0.10200 -0.33700
H 	H 	0.46110 0.45280 0.08530 0.12300
H 	H 	0.42520 0.46220 0.05530 0.11200
C 	C 	0.42426 0.43464 0.15630 0.11900
H 	H 	0.42650 0.41270 0.13260 -0.01300
H 	H 	0.43660 0.43460 0.20550 -0.00600
C 	C 	0.38835 0.44119 0.17340 -0.30300
H 	H 	0.37600 0.44150 0.12420 0.11600
H 	H 	0.38620 0.46300 0.19760 0.11700
C 	C 	0.37310 0.41545 0.22730 0.19200
H 	H 	0.37530 0.39350 0.20350 -0.03100
H 	H 	0.38510 0.41530 0.27710 -0.03500
C 	C 	0.33690 0.42280 0.24210 -0.54600
H 	H 	0.33420 0.44630 0.25210 0.17900
H 	H 	0.32940 0.41040 0.28700 0.17800
H 	H 	0.32410 0.41660 0.19660 0.18300
C 	C 	0.43515 0.48272 0.35610 0.09900
H 	H 	0.45680 0.47540 0.34600 -0.00900
C 	C 	0.41430 0.46240 0.39650 -0.17300
H 	H 	0.42160 0.44160 0.41390 0.07800
C 	C 	0.38242 0.47280 0.41150 0.12100
C 	C 	0.37461 0.50295 0.38660 -0.18000
H 	H 	0.35340 0.51130 0.39760 0.07900
C 	C 	0.39600 0.52219 0.34590 0.09000
H 	H 	0.38920 0.54310 0.32800 -0.01300
C 	C 	0.35979 0.45110 0.45770 -0.13400
H 	H 	0.33710 0.45900 0.45120 0.05900
H 	H 	0.36090 0.42860 0.43680 0.05700
Mn	Mn	0.61290 0.47013 0.97275 1.33300
O 	O 	0.64919 0.49169 0.93288 -0.47800
O 	O 	0.61759 0.54845 0.12546 -0.42700
O 	O 	0.57497 0.45326 0.02602 -0.43400
N 	N 	0.60622 0.50505 0.04830 -0.28600
N 	N 	0.57813 0.50065 0.09460 -0.23700
N 	N 	0.30859 0.39432 0.69310 -0.23000
C 	C 	0.66588 0.51595 0.96330 0.30600
C 	C 	0.69637 0.52292 0.92890 -0.27900
H 	H 	0.70350 0.51040 0.88590 0.13100
C 	C 	0.71598 0.54765 0.95690 0.15000
H 	H 	0.73660 0.55170 0.93360 -0.03400
C 	C 	0.70590 0.56666 0.01850 -0.22200
H 	H 	0.71930 0.58390 0.03690 0.10800
C 	C 	0.67654 0.56044 0.05260 0.14900
H 	H 	0.66970 0.57370 0.09470 0.00300
C 	C 	0.65617 0.53505 0.02720 -0.25400
C 	C 	0.62521 0.52962 0.06810 0.27600
C 	C 	0.56397 0.47314 0.07780 0.26300
C 	C 	0.53491 0.46221 0.12350 -0.29900
H 	H 	0.52590 0.48100 0.15250 0.10800
H 	H 	0.51780 0.45420 0.08770 0.11200
C 	C 	0.54440 0.43390 0.18230 0.04500
H 	H 	0.55180 0.41460 0.15260 0.02000
H 	H 	0.56300 0.44130 0.21450 0.01700
C 	C 	0.51460 0.42290 0.23900 -0.26700
H 	H 	0.49720 0.41220 0.20820 0.10300
H 	H 	0.50500 0.44250 0.26400 0.11100
C 	C 	0.52520 0.40260 0.29240 0.15000
H 	H 	0.53380 0.38190 0.27060 -0.02500
H 	H 	0.54160 0.41260 0.32730 -0.01800
C 	C 	0.48870 0.39820 0.33380 -0.45200
H 	H 	0.47770 0.41940 0.33650 0.15200
H 	H 	0.47540 0.38310 0.30300 0.14600
H 	H 	0.49140 0.38940 0.38610 0.14800
C 	C 	0.30641 0.38941 0.61670 0.09500
H 	H 	0.29160 0.37320 0.59840 -0.00600
C 	C 	0.32436 0.40655 0.56340 -0.17500
H 	H 	0.32210 0.40210 0.50980 0.08200
C 	C 	0.34593 0.43061 0.58910 0.12800
C 	C 	0.34749 0.43601 0.66730 -0.19300
H 	H 	0.36160 0.45240 0.68740 0.09200
C 	C 	0.32862 0.41773 0.71640 0.10500
H 	H 	0.33000 0.42210 0.77030 -0.00300
C 	C 	0.36700 0.45030 0.53420 -0.15400
H 	H 	0.36710 0.47310 0.55300 0.07400
H 	H 	0.38970 0.44200 0.53920 0.06700
Mn	Mn	0.07646 0.04115 0.68184 1.31800
O 	O 	0.09498 0.01400 0.75670 -0.47800
O 	O 	0.99550 0.02560 0.82103 -0.41600
O 	O 	0.05058 0.06736 0.61152 -0.44700
N 	N 	0.03403 0.03665 0.73000 -0.29700
N 	N 	0.00820 0.05219 0.68940 -0.24100
C 	C 	0.08182 0.00088 0.81950 0.29600
C 	C 	0.10176 0.98022 0.86490 -0.27700
H 	H 	0.12340 0.97530 0.84850 0.12400
C 	C 	0.09013 0.96732 0.93230 0.15400
H 	H 	0.10420 0.95400 0.96260 -0.03100
C 	C 	0.05885 0.97284 0.95780 -0.21300
H 	H 	0.05140 0.96390 0.00530 0.10400
C 	C 	0.03839 0.99192 0.91220 0.13600
H 	H 	0.01660 0.99590 0.92910 -0.00200
C 	C 	0.04877 0.00544 0.84250 -0.24900
C 	C 	0.02482 0.02348 0.79600 0.27300
C 	C 	0.01948 0.06693 0.62830 0.26800
C 	C 	0.99659 0.08442 0.57500 -0.35500
H 	H 	0.97400 0.08220 0.59470 0.11700
H 	H 	0.99750 0.07410 0.52320 0.12900
C 	C 	0.00493 0.12024 0.56750 0.15900
H 	H 	0.99110 0.13020 0.52690 -0.02400
H 	H 	0.02800 0.12250 0.55150 -0.01400
C 	C 	0.99967 0.13848 0.64350 -0.36500
H 	H 	0.97710 0.13450 0.66190 0.13200
H 	H 	0.01490 0.12970 0.68280 0.12700
C 	C 	0.00500 0.17500 0.63580 0.29000
H 	H 	0.02770 0.17900 0.61850 -0.06800
H 	H 	0.99010 0.18360 0.59560 -0.07000
C 	C 	0.99920 0.19300 0.70940 -0.63900
H 	H 	0.97600 0.19880 0.71330 0.20300
H 	H 	0.01250 0.21290 0.71010 0.20000
H 	H 	0.00530 0.17900 0.75320 0.19900
Mn	Mn	0.96060 0.03807 0.74670 1.33100
O 	O 	0.95228 0.07945 0.78670 -0.47400
O 	O 	0.88526 0.06698 0.60026 -0.41700
O 	O 	0.96339 0.99633 0.69429 -0.44100
N 	N 	0.92627 0.04364 0.67060 -0.28900
N 	N 	0.92153 0.01611 0.62180 -0.24200
N 	N 	0.92650 0.01173 0.83120 -0.22600
C 	C 	0.92844 0.10023 0.76970 0.29500
C 	C 	0.92626 0.12860 0.81580 -0.26800
H 	H 	0.94180 0.13220 0.85580 0.12100
C 	C 	0.90155 0.15129 0.80310 0.14300
H 	H 	0.90020 0.17010 0.83510 -0.02800
C 	C 	0.87898 0.14694 0.74500 -0.21700
H 	H 	0.86200 0.16240 0.73700 0.10700
C 	C 	0.88158 0.12005 0.69900 0.14000
H 	H 	0.86620 0.11720 0.65850 0.00000
C 	C 	0.90602 0.09632 0.70890 -0.24800
C 	C 	0.90567 0.06772 0.65620 0.27300
C 	C 	0.94192 0.99288 0.64040 0.27400
C 	C 	0.93910 0.96015 0.60200 -0.33700
H 	H 	0.96110 0.95280 0.58530 0.12300
H 	H 	0.92520 0.96220 0.55530 0.11200
C 	C 	0.92426 0.93464 0.65630 0.11900
H 	H 	0.92650 0.91270 0.63260 -0.01300
H 	H 	0.93660 0.93460 0.70550 -0.00600
C 	C 	0.88835 0.94119 0.67340 -0.30300
H 	H 	0.87600 0.94150 0.62420 0.11600
H 	H 	0.88620 0.96300 0.69760 0.11600
C 	C 	0.87310 0.91545 0.72730 0.19200
H 	H 	0.87530 0.89350 0.70350 -0.03100
H 	H 	0.88510 0.91530 0.77710 -0.03500
C 	C 	0.83690 0.92280 0.74210 -0.54600
H 	H 	0.83420 0.94630 0.75210 0.17900
H 	H 	0.82940 0.91040 0.78700 0.17800
H 	H 	0.82410 0.91660 0.69660 0.18300
C 	C 	0.93515 0.98272 0.85610 0.09900
H 	H 	0.95680 0.97540 0.84600 -0.00900
C 	C 	0.91430 0.96240 0.89650 -0.17300
H 	H 	0.92160 0.94160 0.91390 0.07800
C 	C 	0.88242 0.97280 0.91150 0.12100
C 	C 	0.87461 0.00295 0.88660 -0.18000
H 	H 	0.85340 0.01130 0.89760 0.07900
C 	C 	0.89600 0.02219 0.84590 0.09000
H 	H 	0.88920 0.04310 0.82800 -0.01300
C 	C 	0.85979 0.95110 0.95770 -0.13300
H 	H 	0.83710 0.95900 0.95120 0.05900
H 	H 	0.86090 0.92860 0.93680 0.05700
Mn	Mn	0.11290 0.97013 0.47275 1.33300
O 	O 	0.14919 0.99169 0.43288 -0.47800
O 	O 	0.11759 0.04845 0.62546 -0.42700
O 	O 	0.07497 0.95326 0.52602 -0.43500
N 	N 	0.10622 0.00505 0.54830 -0.28600
N 	N 	0.07813 0.00065 0.59460 -0.23700
N 	N 	0.80859 0.89432 0.19310 -0.23000
C 	C 	0.16588 0.01595 0.46330 0.30600
C 	C 	0.19637 0.02292 0.42890 -0.27900
H 	H 	0.20350 0.01040 0.38590 0.13100
C 	C 	0.21598 0.04765 0.45690 0.15000
H 	H 	0.23660 0.05170 0.43360 -0.03400
C 	C 	0.20590 0.06666 0.51850 -0.22200
H 	H 	0.21930 0.08390 0.53690 0.10800
C 	C 	0.17654 0.06044 0.55260 0.14900
H 	H 	0.16970 0.07370 0.59470 0.00300
C 	C 	0.15617 0.03505 0.52720 -0.25400
C 	C 	0.12521 0.02962 0.56810 0.27600
C 	C 	0.06397 0.97314 0.57780 0.26300
C 	C 	0.03491 0.96221 0.62350 -0.29900
H 	H 	0.02590 0.98100 0.65250 0.10800
H 	H 	0.01780 0.95420 0.58770 0.11200
C 	C 	0.04440 0.93390 0.68230 0.04500
H 	H 	0.05180 0.91460 0.65260 0.02000
H 	H 	0.06300 0.94130 0.71450 0.01700
C 	C 	0.01460 0.92290 0.73900 -0.26700
H 	H 	0.99720 0.91220 0.70820 0.10300
H 	H 	0.00500 0.94250 0.76400 0.11100
C 	C 	0.02520 0.90260 0.79240 0.15000
H 	H 	0.03380 0.88190 0.77060 -0.02500
H 	H 	0.04160 0.91260 0.82730 -0.01800
C 	C 	0.98870 0.89820 0.83380 -0.45200
H 	H 	0.97770 0.91940 0.83650 0.15200
H 	H 	0.97540 0.88310 0.80300 0.14600
H 	H 	0.99140 0.88940 0.88610 0.14800
C 	C 	0.80641 0.88941 0.11670 0.09500
H 	H 	0.79160 0.87320 0.09840 -0.00600
C 	C 	0.82436 0.90655 0.06340 -0.17600
H 	H 	0.82210 0.90210 0.00980 0.08200
C 	C 	0.84593 0.93061 0.08910 0.12900
C 	C 	0.84749 0.93601 0.16730 -0.19300
H 	H 	0.86160 0.95240 0.18740 0.09200
C 	C 	0.82862 0.91773 0.21640 0.10500
H 	H 	0.83000 0.92210 0.27030 -0.00300
C 	C 	0.86700 0.95030 0.03420 -0.15500
H 	H 	0.86710 0.97310 0.05300 0.07400
H 	H 	0.88970 0.94200 0.03920 0.06700
Mn	Mn	0.92354 0.45885 0.68184 1.31800
O 	O 	0.90502 0.48600 0.75670 -0.47800
O 	O 	0.00450 0.47440 0.82103 -0.41600
O 	O 	0.94942 0.43264 0.61152 -0.44700
N 	N 	0.96597 0.46335 0.73000 -0.29700
N 	N 	0.99180 0.44781 0.68940 -0.24100
C 	C 	0.91818 0.49912 0.81950 0.29600
C 	C 	0.89824 0.51978 0.86490 -0.27700
H 	H 	0.87660 0.52470 0.84850 0.12400
C 	C 	0.90987 0.53268 0.93230 0.15400
H 	H 	0.89580 0.54600 0.96260 -0.03100
C 	C 	0.94115 0.52716 0.95780 -0.21300
H 	H 	0.94860 0.53610 0.00530 0.10400
C 	C 	0.96161 0.50808 0.91220 0.13600
H 	H 	0.98340 0.50410 0.92910 -0.00200
C 	C 	0.95123 0.49456 0.84250 -0.24900
C 	C 	0.97518 0.47652 0.79600 0.27300
C 	C 	0.98052 0.43307 0.62830 0.26800
C 	C 	0.00341 0.41558 0.57500 -0.35500
H 	H 	0.02600 0.41780 0.59470 0.11700
H 	H 	0.00250 0.42590 0.52320 0.12900
C 	C 	0.99507 0.37976 0.56750 0.15900
H 	H 	0.00890 0.36980 0.52690 -0.02400
H 	H 	0.97200 0.37750 0.55150 -0.01400
C 	C 	0.00033 0.36152 0.64350 -0.36500
H 	H 	0.02290 0.36550 0.66190 0.13200
H 	H 	0.98510 0.37030 0.68280 0.12700
C 	C 	0.99500 0.32500 0.63580 0.29000
H 	H 	0.97230 0.32100 0.61850 -0.06800
H 	H 	0.00990 0.31640 0.59560 -0.07000
C 	C 	0.00080 0.30700 0.70940 -0.63900
H 	H 	0.02400 0.30120 0.71330 0.20300
H 	H 	0.98750 0.28710 0.71010 0.20000
H 	H 	0.99470 0.32100 0.75320 0.19900
Mn	Mn	0.03940 0.46193 0.74670 1.33100
O 	O 	0.04772 0.42055 0.78670 -0.47400
O 	O 	0.11474 0.43302 0.60026 -0.41700
O 	O 	0.03661 0.50367 0.69429 -0.44100
N 	N 	0.07373 0.45636 0.67060 -0.28900
N 	N 	0.07847 0.48389 0.62180 -0.24200
N 	N 	0.07350 0.48827 0.83120 -0.22600
C 	C 	0.07156 0.39977 0.76970 0.29500
C 	C 	0.07374 0.37140 0.81580 -0.26800
H 	H 	0.05820 0.36780 0.85580 0.12100
C 	C 	0.09845 0.34871 0.80310 0.14300
H 	H 	0.09980 0.32990 0.83510 -0.02800
C 	C 	0.12102 0.35306 0.74500 -0.21700
H 	H 	0.13800 0.33760 0.73700 0.10700
C 	C 	0.11842 0.37995 0.69900 0.14000
H 	H 	0.13380 0.38280 0.65850 0.00000
C 	C 	0.09398 0.40368 0.70890 -0.24800
C 	C 	0.09433 0.43228 0.65620 0.27300
C 	C 	0.05808 0.50712 0.64040 0.27400
C 	C 	0.06090 0.53985 0.60200 -0.33700
H 	H 	0.03890 0.54720 0.58530 0.12300
H 	H 	0.07480 0.53780 0.55530 0.11200
C 	C 	0.07574 0.56536 0.65630 0.11900
H 	H 	0.07350 0.58730 0.63260 -0.01300
H 	H 	0.06340 0.56540 0.70550 -0.00600
C 	C 	0.11165 0.55881 0.67340 -0.30300
H 	H 	0.12400 0.55850 0.62420 0.11600
H 	H 	0.11380 0.53700 0.69760 0.11700
C 	C 	0.12690 0.58455 0.72730 0.19200
H 	H 	0.12470 0.60650 0.70350 -0.03100
H 	H 	0.11490 0.58470 0.77710 -0.03500
C 	C 	0.16310 0.57720 0.74210 -0.54600
H 	H 	0.16580 0.55370 0.75210 0.17900
H 	H 	0.17060 0.58960 0.78700 0.17800
H 	H 	0.17590 0.58340 0.69660 0.18300
C 	C 	0.06485 0.51728 0.85610 0.09900
H 	H 	0.04320 0.52460 0.84600 -0.00900
C 	C 	0.08570 0.53760 0.89650 -0.17200
H 	H 	0.07840 0.55840 0.91390 0.07800
C 	C 	0.11758 0.52720 0.91150 0.12100
C 	C 	0.12539 0.49705 0.88660 -0.17900
H 	H 	0.14660 0.48870 0.89760 0.07900
C 	C 	0.10400 0.47781 0.84590 0.09000
H 	H 	0.11080 0.45690 0.82800 -0.01300
C 	C 	0.14021 0.54890 0.95770 -0.13300
H 	H 	0.16290 0.54100 0.95120 0.05900
H 	H 	0.13910 0.57140 0.93680 0.05700
Mn	Mn	0.88710 0.52987 0.47275 1.33300
O 	O 	0.85081 0.50831 0.43288 -0.47800
O 	O 	0.88241 0.45155 0.62546 -0.42700
O 	O 	0.92503 0.54674 0.52602 -0.43500
N 	N 	0.89378 0.49495 0.54830 -0.28600
N 	N 	0.92187 0.49935 0.59460 -0.23700
N 	N 	0.19141 0.60568 0.19310 -0.23000
C 	C 	0.83412 0.48405 0.46330 0.30700
C 	C 	0.80363 0.47708 0.42890 -0.27900
H 	H 	0.79650 0.48960 0.38590 0.13100
C 	C 	0.78402 0.45235 0.45690 0.15000
H 	H 	0.76340 0.44830 0.43360 -0.03400
C 	C 	0.79410 0.43334 0.51850 -0.22200
H 	H 	0.78070 0.41610 0.53690 0.10800
C 	C 	0.82346 0.43956 0.55260 0.14900
H 	H 	0.83030 0.42630 0.59470 0.00300
C 	C 	0.84383 0.46495 0.52720 -0.25400
C 	C 	0.87479 0.47038 0.56810 0.27600
C 	C 	0.93603 0.52686 0.57780 0.26300
C 	C 	0.96509 0.53779 0.62350 -0.29900
H 	H 	0.97410 0.51900 0.65250 0.10800
H 	H 	0.98220 0.54580 0.58770 0.11200
C 	C 	0.95560 0.56610 0.68230 0.04500
H 	H 	0.94820 0.58540 0.65260 0.02000
H 	H 	0.93700 0.55870 0.71450 0.01700
C 	C 	0.98540 0.57710 0.73900 -0.26700
H 	H 	0.00280 0.58780 0.70820 0.10300
H 	H 	0.99500 0.55750 0.76400 0.11100
C 	C 	0.97480 0.59740 0.79240 0.15000
H 	H 	0.96620 0.61810 0.77060 -0.02500
H 	H 	0.95840 0.58740 0.82730 -0.01800
C 	C 	0.01130 0.60180 0.83380 -0.45200
H 	H 	0.02230 0.58060 0.83650 0.15200
H 	H 	0.02460 0.61690 0.80300 0.14600
H 	H 	0.00860 0.61060 0.88610 0.14800
C 	C 	0.19359 0.61059 0.11670 0.09500
H 	H 	0.20840 0.62680 0.09840 -0.00600
C 	C 	0.17564 0.59345 0.06340 -0.17600
H 	H 	0.17790 0.59790 0.00980 0.08200
C 	C 	0.15407 0.56939 0.08910 0.12900
C 	C 	0.15251 0.56399 0.16730 -0.19300
H 	H 	0.13840 0.54760 0.18740 0.09200
C 	C 	0.17138 0.58227 0.21640 0.10500
H 	H 	0.17000 0.57790 0.27030 -0.00300
C 	C 	0.13300 0.54970 0.03420 -0.15500
H 	H 	0.13290 0.52690 0.05300 0.07400
H 	H 	0.11030 0.55800 0.03920 0.06700
Mn	Mn	0.42354 0.95885 0.18184 1.31800
O 	O 	0.40502 0.98600 0.25670 -0.47800
O 	O 	0.50450 0.97440 0.32103 -0.41600
O 	O 	0.44942 0.93264 0.11152 -0.44700
N 	N 	0.46597 0.96335 0.23000 -0.29700
N 	N 	0.49180 0.94781 0.18940 -0.24100
C 	C 	0.41818 0.99912 0.31950 0.29600
C 	C 	0.39824 0.01978 0.36490 -0.27700
H 	H 	0.37660 0.02470 0.34850 0.12400
C 	C 	0.40987 0.03268 0.43230 0.15400
H 	H 	0.39580 0.04600 0.46260 -0.03100
C 	C 	0.44115 0.02716 0.45780 -0.21300
H 	H 	0.44860 0.03610 0.50530 0.10400
C 	C 	0.46161 0.00808 0.41220 0.13600
H 	H 	0.48340 0.00410 0.42910 -0.00200
C 	C 	0.45123 0.99456 0.34250 -0.24900
C 	C 	0.47518 0.97652 0.29600 0.27300
C 	C 	0.48052 0.93307 0.12830 0.26800
C 	C 	0.50341 0.91558 0.07500 -0.35500
H 	H 	0.52600 0.91780 0.09470 0.11700
H 	H 	0.50250 0.92590 0.02320 0.12900
C 	C 	0.49507 0.87976 0.06750 0.15900
H 	H 	0.50890 0.86980 0.02690 -0.02400
H 	H 	0.47200 0.87750 0.05150 -0.01400
C 	C 	0.50033 0.86152 0.14350 -0.36500
H 	H 	0.52290 0.86550 0.16190 0.13200
H 	H 	0.48510 0.87030 0.18280 0.12700
C 	C 	0.49500 0.82500 0.13580 0.29000
H 	H 	0.47230 0.82100 0.11850 -0.06800
H 	H 	0.50990 0.81640 0.09560 -0.07000
C 	C 	0.50080 0.80700 0.20940 -0.63900
H 	H 	0.52400 0.80120 0.21330 0.20300
H 	H 	0.48750 0.78710 0.21010 0.20000
H 	H 	0.49470 0.82100 0.25320 0.19900
Mn	Mn	0.53940 0.96193 0.24670 1.33100
O 	O 	0.54772 0.92055 0.28670 -0.47400
O 	O 	0.61474 0.93302 0.10026 -0.41700
O 	O 	0.53661 0.00367 0.19429 -0.44100
N 	N 	0.57373 0.95636 0.17060 -0.28900
N 	N 	0.57847 0.98389 0.12180 -0.24200
N 	N 	0.57350 0.98827 0.33120 -0.22600
C 	C 	0.57156 0.89977 0.26970 0.29500
C 	C 	0.57374 0.87140 0.31580 -0.26800
H 	H 	0.55820 0.86780 0.35580 0.12100
C 	C 	0.59845 0.84871 0.30310 0.14300
H 	H 	0.59980 0.82990 0.33510 -0.02800
C 	C 	0.62102 0.85306 0.24500 -0.21700
H 	H 	0.63800 0.83760 0.23700 0.10700
C 	C 	0.61842 0.87995 0.19900 0.14000
H 	H 	0.63380 0.88280 0.15850 0.00000
C 	C 	0.59398 0.90368 0.20890 -0.24800
C 	C 	0.59433 0.93228 0.15620 0.27300
C 	C 	0.55808 0.00712 0.14040 0.27400
C 	C 	0.56090 0.03985 0.10200 -0.33700
H 	H 	0.53890 0.04720 0.08530 0.12300
H 	H 	0.57480 0.03780 0.05530 0.11200
C 	C 	0.57574 0.06536 0.15630 0.11900
H 	H 	0.57350 0.08730 0.13260 -0.01300
H 	H 	0.56340 0.06540 0.20550 -0.00600
C 	C 	0.61165 0.05881 0.17340 -0.30300
H 	H 	0.62400 0.05850 0.12420 0.11600
H 	H 	0.61380 0.03700 0.19760 0.11700
C 	C 	0.62690 0.08455 0.22730 0.19200
H 	H 	0.62470 0.10650 0.20350 -0.03100
H 	H 	0.61490 0.08470 0.27710 -0.03500
C 	C 	0.66310 0.07720 0.24210 -0.54600
H 	H 	0.66580 0.05370 0.25210 0.17900
H 	H 	0.67060 0.08960 0.28700 0.17800
H 	H 	0.67590 0.08340 0.19660 0.18300
C 	C 	0.56485 0.01728 0.35610 0.09900
H 	H 	0.54320 0.02460 0.34600 -0.00900
C 	C 	0.58570 0.03760 0.39650 -0.17300
H 	H 	0.57840 0.05840 0.41390 0.07800
C 	C 	0.61758 0.02720 0.41150 0.12100
C 	C 	0.62539 0.99705 0.38660 -0.18000
H 	H 	0.64660 0.98870 0.39760 0.07900
C 	C 	0.60400 0.97781 0.34590 0.09000
H 	H 	0.61080 0.95690 0.32800 -0.01300
C 	C 	0.64021 0.04890 0.45770 -0.13400
H 	H 	0.66290 0.04100 0.45120 0.05900
H 	H 	0.63910 0.07140 0.43680 0.05700
Mn	Mn	0.38710 0.02987 0.97275 1.33300
O 	O 	0.35081 0.00831 0.93288 -0.47800
O 	O 	0.38241 0.95155 0.12546 -0.42700
O 	O 	0.42503 0.04674 0.02602 -0.43400
N 	N 	0.39378 0.99495 0.04830 -0.28600
N 	N 	0.42187 0.99935 0.09460 -0.23700
N 	N 	0.69141 0.10568 0.69310 -0.23000
C 	C 	0.33412 0.98405 0.96330 0.30700
C 	C 	0.30363 0.97708 0.92890 -0.27900
H 	H 	0.29650 0.98960 0.88590 0.13100
C 	C 	0.28402 0.95235 0.95690 0.15000
H 	H 	0.26340 0.94830 0.93360 -0.03400
C 	C 	0.29410 0.93334 0.01850 -0.22200
H 	H 	0.28070 0.91610 0.03690 0.10800
C 	C 	0.32346 0.93956 0.05260 0.14900
H 	H 	0.33030 0.92630 0.09470 0.00300
C 	C 	0.34383 0.96495 0.02720 -0.25400
C 	C 	0.37479 0.97038 0.06810 0.27600
C 	C 	0.43603 0.02686 0.07780 0.26300
C 	C 	0.46509 0.03779 0.12350 -0.29900
H 	H 	0.47410 0.01900 0.15250 0.10800
H 	H 	0.48220 0.04580 0.08770 0.11200
C 	C 	0.45560 0.06610 0.18230 0.04500
H 	H 	0.44820 0.08540 0.15260 0.02000
H 	H 	0.43700 0.05870 0.21450 0.01700
C 	C 	0.48540 0.07710 0.23900 -0.26700
H 	H 	0.50280 0.08780 0.20820 0.10300
H 	H 	0.49500 0.05750 0.26400 0.11100
C 	C 	0.47480 0.09740 0.29240 0.15000
H 	H 	0.46620 0.11810 0.27060 -0.02500
H 	H 	0.45840 0.08740 0.32730 -0.01800
C 	C 	0.51130 0.10180 0.33380 -0.45200
H 	H 	0.52230 0.08060 0.33650 0.15200
H 	H 	0.52460 0.11690 0.30300 0.14600
H 	H 	0.50860 0.11060 0.38610 0.14800
C 	C 	0.69359 0.11059 0.61670 0.09500
H 	H 	0.70840 0.12680 0.59840 -0.00600
C 	C 	0.67564 0.09345 0.56340 -0.17500
H 	H 	0.67790 0.09790 0.50980 0.08200
C 	C 	0.65407 0.06939 0.58910 0.12800
C 	C 	0.65251 0.06399 0.66730 -0.19300
H 	H 	0.63840 0.04760 0.68740 0.09200
C 	C 	0.67138 0.08227 0.71640 0.10500
H 	H 	0.67000 0.07790 0.77030 -0.00300
C 	C 	0.63300 0.04970 0.53420 -0.15400
H 	H 	0.63290 0.02690 0.55300 0.07400
H 	H 	0.61030 0.05800 0.53920 0.06700
Mn	Mn	0.20885 0.82646 0.43184 1.31800
O 	O 	0.23600 0.84498 0.50670 -0.47800
O 	O 	0.22440 0.74550 0.57103 -0.41600
O 	O 	0.18264 0.80058 0.36152 -0.44700
N 	N 	0.21335 0.78403 0.48000 -0.29700
N 	N 	0.19781 0.75820 0.43940 -0.24100
C 	C 	0.24912 0.83182 0.56950 0.29600
C 	C 	0.26978 0.85176 0.61490 -0.27700
H 	H 	0.27470 0.87340 0.59850 0.12400
C 	C 	0.28268 0.84013 0.68230 0.15400
H 	H 	0.29600 0.85420 0.71260 -0.03100
C 	C 	0.27716 0.80885 0.70780 -0.21300
H 	H 	0.28610 0.80140 0.75530 0.10400
C 	C 	0.25808 0.78839 0.66220 0.13600
H 	H 	0.25410 0.76660 0.67910 -0.00200
C 	C 	0.24456 0.79877 0.59250 -0.24900
C 	C 	0.22652 0.77482 0.54600 0.27300
C 	C 	0.18307 0.76948 0.37830 0.26800
C 	C 	0.16558 0.74659 0.32500 -0.35500
H 	H 	0.16780 0.72400 0.34470 0.11700
H 	H 	0.17590 0.74750 0.27320 0.12900
C 	C 	0.12976 0.75493 0.31750 0.15900
H 	H 	0.11980 0.74110 0.27690 -0.02400
H 	H 	0.12750 0.77800 0.30150 -0.01400
C 	C 	0.11152 0.74967 0.39350 -0.36500
H 	H 	0.11550 0.72710 0.41190 0.13200
H 	H 	0.12030 0.76490 0.43280 0.12700
C 	C 	0.07500 0.75500 0.38580 0.29000
H 	H 	0.07100 0.77770 0.36850 -0.06800
H 	H 	0.06640 0.74010 0.34560 -0.07000
C 	C 	0.05700 0.74920 0.45940 -0.63900
H 	H 	0.05120 0.72600 0.46330 0.20300
H 	H 	0.03710 0.76250 0.46010 0.20000
H 	H 	0.07100 0.75530 0.50320 0.19900
Mn	Mn	0.21193 0.71060 0.49670 1.33100
O 	O 	0.17055 0.70228 0.53670 -0.47400
O 	O 	0.18302 0.63526 0.35026 -0.41700
O 	O 	0.25367 0.71339 0.44429 -0.44100
N 	N 	0.20636 0.67627 0.42060 -0.28900
N 	N 	0.23389 0.67153 0.37180 -0.24200
N 	N 	0.23827 0.67650 0.58120 -0.22600
C 	C 	0.14977 0.67844 0.51970 0.29500
C 	C 	0.12140 0.67626 0.56580 -0.26800
H 	H 	0.11780 0.69180 0.60580 0.12100
C 	C 	0.09871 0.65155 0.55310 0.14300
H 	H 	0.07990 0.65020 0.58510 -0.02800
C 	C 	0.10306 0.62898 0.49500 -0.21700
H 	H 	0.08760 0.61200 0.48700 0.10700
C 	C 	0.12995 0.63158 0.44900 0.14000
H 	H 	0.13280 0.61620 0.40850 0.00000
C 	C 	0.15368 0.65602 0.45890 -0.24800
C 	C 	0.18228 0.65567 0.40620 0.27300
C 	C 	0.25712 0.69192 0.39040 0.27400
C 	C 	0.28985 0.68910 0.35200 -0.33700
H 	H 	0.29720 0.71110 0.33530 0.12300
H 	H 	0.28780 0.67520 0.30530 0.11200
C 	C 	0.31536 0.67426 0.40630 0.11900
H 	H 	0.33730 0.67650 0.38260 -0.01300
H 	H 	0.31540 0.68660 0.45550 -0.00600
C 	C 	0.30881 0.63835 0.42340 -0.30300
H 	H 	0.30850 0.62600 0.37420 0.11600
H 	H 	0.28700 0.63620 0.44760 0.11700
C 	C 	0.33455 0.62310 0.47730 0.19200
H 	H 	0.35650 0.62530 0.45350 -0.03100
H 	H 	0.33470 0.63510 0.52710 -0.03500
C 	C 	0.32720 0.58690 0.49210 -0.54600
H 	H 	0.30370 0.58420 0.50210 0.17900
H 	H 	0.33960 0.57940 0.53700 0.17800
H 	H 	0.33340 0.57410 0.44660 0.18300
C 	C 	0.26728 0.68515 0.60610 0.09900
H 	H 	0.27460 0.70680 0.59600 -0.00900
C 	C 	0.28760 0.66430 0.64650 -0.17300
H 	H 	0.30840 0.67160 0.66390 0.07800
C 	C 	0.27720 0.63242 0.66150 0.12100
C 	C 	0.24705 0.62461 0.63660 -0.18000
H 	H 	0.23870 0.60340 0.64760 0.07900
C 	C 	0.22781 0.64600 0.59590 0.09000
H 	H 	0.20690 0.63920 0.57800 -0.01300
C 	C 	0.29890 0.60979 0.70770 -0.13400
H 	H 	0.29100 0.58710 0.70120 0.05900
H 	H 	0.32140 0.61090 0.68680 0.05700
Mn	Mn	0.27987 0.86290 0.22275 1.33300
O 	O 	0.25831 0.89919 0.18288 -0.47800
O 	O 	0.20155 0.86759 0.37546 -0.42700
O 	O 	0.29674 0.82497 0.27602 -0.43500
N 	N 	0.24495 0.85622 0.29830 -0.28600
N 	N 	0.24935 0.82813 0.34460 -0.23700
N 	N 	0.35568 0.55859 0.94310 -0.23000
C 	C 	0.23405 0.91588 0.21330 0.30700
C 	C 	0.22708 0.94637 0.17890 -0.27900
H 	H 	0.23960 0.95350 0.13590 0.13100
C 	C 	0.20235 0.96598 0.20690 0.15000
H 	H 	0.19830 0.98660 0.18360 -0.03400
C 	C 	0.18334 0.95590 0.26850 -0.22200
H 	H 	0.16610 0.96930 0.28690 0.10800
C 	C 	0.18956 0.92654 0.30260 0.14900
H 	H 	0.17630 0.91970 0.34470 0.00300
C 	C 	0.21495 0.90617 0.27720 -0.25400
C 	C 	0.22038 0.87521 0.31810 0.27600
C 	C 	0.27686 0.81397 0.32780 0.26300
C 	C 	0.28779 0.78491 0.37350 -0.29900
H 	H 	0.26900 0.77590 0.40250 0.10800
H 	H 	0.29580 0.76780 0.33770 0.11200
C 	C 	0.31610 0.79440 0.43230 0.04500
H 	H 	0.33540 0.80180 0.40260 0.02000
H 	H 	0.30870 0.81300 0.46450 0.01700
C 	C 	0.32710 0.76460 0.48900 -0.26700
H 	H 	0.33780 0.74720 0.45820 0.10300
H 	H 	0.30750 0.75500 0.51400 0.11100
C 	C 	0.34740 0.77520 0.54240 0.15000
H 	H 	0.36810 0.78380 0.52060 -0.02500
H 	H 	0.33740 0.79160 0.57730 -0.01800
C 	C 	0.35180 0.73870 0.58380 -0.45200
H 	H 	0.33060 0.72770 0.58650 0.15200
H 	H 	0.36690 0.72540 0.55300 0.14600
H 	H 	0.36060 0.74140 0.63610 0.14800
C 	C 	0.36059 0.55641 0.86670 0.09500
H 	H 	0.37680 0.54160 0.84840 -0.00600
C 	C 	0.34345 0.57436 0.81340 -0.17600
H 	H 	0.34790 0.57210 0.75980 0.08200
C 	C 	0.31939 0.59593 0.83910 0.12900
C 	C 	0.31399 0.59749 0.91730 -0.19400
H 	H 	0.29760 0.61160 0.93740 0.09200
C 	C 	0.33227 0.57862 0.96640 0.10600
H 	H 	0.32790 0.58000 0.02030 -0.00300
C 	C 	0.29970 0.61700 0.78420 -0.15400
H 	H 	0.27690 0.61710 0.80300 0.07400
H 	H 	0.30800 0.63970 0.78920 0.06700
Mn	Mn	0.70885 0.32646 0.93184 1.31800
O 	O 	0.73600 0.34498 0.00670 -0.47800
O 	O 	0.72440 0.24550 0.07103 -0.41600
O 	O 	0.68264 0.30058 0.86152 -0.44700
N 	N 	0.71335 0.28403 0.98000 -0.29700
N 	N 	0.69781 0.25820 0.93940 -0.24100
C 	C 	0.74912 0.33182 0.06950 0.29600
C 	C 	0.76978 0.35176 0.11490 -0.27700
H 	H 	0.77470 0.37340 0.09850 0.12400
C 	C 	0.78268 0.34013 0.18230 0.15400
H 	H 	0.79600 0.35420 0.21260 -0.03100
C 	C 	0.77716 0.30885 0.20780 -0.21300
H 	H 	0.78610 0.30140 0.25530 0.10400
C 	C 	0.75808 0.28839 0.16220 0.13700
H 	H 	0.75410 0.26660 0.17910 -0.00200
C 	C 	0.74456 0.29877 0.09250 -0.24900
C 	C 	0.72652 0.27482 0.04600 0.27300
C 	C 	0.68307 0.26948 0.87830 0.26800
C 	C 	0.66558 0.24659 0.82500 -0.35500
H 	H 	0.66780 0.22400 0.84470 0.11700
H 	H 	0.67590 0.24750 0.77320 0.12900
C 	C 	0.62976 0.25493 0.81750 0.15900
H 	H 	0.61980 0.24110 0.77690 -0.02400
H 	H 	0.62750 0.27800 0.80150 -0.01400
C 	C 	0.61152 0.24967 0.89350 -0.36600
H 	H 	0.61550 0.22710 0.91190 0.13200
H 	H 	0.62030 0.26490 0.93280 0.12700
C 	C 	0.57500 0.25500 0.88580 0.29200
H 	H 	0.57100 0.27770 0.86850 -0.06900
H 	H 	0.56640 0.24010 0.84560 -0.07100
C 	C 	0.55700 0.24920 0.95940 -0.64200
H 	H 	0.55120 0.22600 0.96330 0.20400
H 	H 	0.53710 0.26250 0.96010 0.20100
H 	H 	0.57100 0.25530 0.00320 0.20100
Mn	Mn	0.71193 0.21060 0.99670 1.33100
O 	O 	0.67055 0.20228 0.03670 -0.47400
O 	O 	0.68302 0.13526 0.85026 -0.41700
O 	O 	0.75367 0.21339 0.94429 -0.44100
N 	N 	0.70636 0.17627 0.92060 -0.28900
N 	N 	0.73389 0.17153 0.87180 -0.24200
N 	N 	0.73827 0.17650 0.08120 -0.22600
C 	C 	0.64977 0.17844 0.01970 0.29600
C 	C 	0.62140 0.17626 0.06580 -0.26900
H 	H 	0.61780 0.19180 0.10580 0.12100
C 	C 	0.59871 0.15155 0.05310 0.14400
H 	H 	0.57990 0.15020 0.08510 -0.02800
C 	C 	0.60306 0.12898 0.99500 -0.21900
H 	H 	0.58760 0.11200 0.98700 0.10800
C 	C 	0.62995 0.13158 0.94900 0.14100
H 	H 	0.63280 0.11620 0.90850 -0.00000
C 	C 	0.65368 0.15602 0.95890 -0.24900
C 	C 	0.68228 0.15567 0.90620 0.27300
C 	C 	0.75712 0.19192 0.89040 0.27400
C 	C 	0.78985 0.18910 0.85200 -0.33700
H 	H 	0.79720 0.21110 0.83530 0.12300
H 	H 	0.78780 0.17520 0.80530 0.11200
C 	C 	0.81536 0.17426 0.90630 0.11900
H 	H 	0.83730 0.17650 0.88260 -0.01300
H 	H 	0.81540 0.18660 0.95550 -0.00600
C 	C 	0.80881 0.13835 0.92340 -0.30300
H 	H 	0.80850 0.12600 0.87420 0.11600
H 	H 	0.78700 0.13620 0.94760 0.11600
C 	C 	0.83455 0.12310 0.97730 0.19100
H 	H 	0.85650 0.12530 0.95350 -0.03100
H 	H 	0.83470 0.13510 0.02710 -0.03400
C 	C 	0.82720 0.08690 0.99210 -0.54700
H 	H 	0.80370 0.08420 0.00210 0.17900
H 	H 	0.83960 0.07940 0.03700 0.17800
H 	H 	0.83340 0.07410 0.94660 0.18300
C 	C 	0.76728 0.18515 0.10610 0.09900
H 	H 	0.77460 0.20680 0.09600 -0.00900
C 	C 	0.78760 0.16430 0.14650 -0.17300
H 	H 	0.80840 0.17160 0.16390 0.07800
C 	C 	0.77720 0.13242 0.16150 0.12100
C 	C 	0.74705 0.12461 0.13660 -0.18000
H 	H 	0.73870 0.10340 0.14760 0.07900
C 	C 	0.72781 0.14600 0.09590 0.09000
H 	H 	0.70690 0.13920 0.07800 -0.01300
C 	C 	0.79890 0.10979 0.20770 -0.13400
H 	H 	0.79100 0.08710 0.20120 0.05900
H 	H 	0.82140 0.11090 0.18680 0.05700
Mn	Mn	0.77987 0.36290 0.72275 1.33300
O 	O 	0.75831 0.39919 0.68288 -0.47800
O 	O 	0.70155 0.36759 0.87546 -0.42700
O 	O 	0.79674 0.32497 0.77602 -0.43500
N 	N 	0.74495 0.35622 0.79830 -0.28600
N 	N 	0.74935 0.32813 0.84460 -0.23700
N 	N 	0.85568 0.05859 0.44310 -0.23000
C 	C 	0.73405 0.41588 0.71330 0.30700
C 	C 	0.72708 0.44637 0.67890 -0.27900
H 	H 	0.73960 0.45350 0.63590 0.13100
C 	C 	0.70235 0.46598 0.70690 0.15000
H 	H 	0.69830 0.48660 0.68360 -0.03400
C 	C 	0.68334 0.45590 0.76850 -0.22200
H 	H 	0.66610 0.46930 0.78690 0.10800
C 	C 	0.68956 0.42654 0.80260 0.14900
H 	H 	0.67630 0.41970 0.84470 0.00300
C 	C 	0.71495 0.40617 0.77720 -0.25400
C 	C 	0.72038 0.37521 0.81810 0.27600
C 	C 	0.77686 0.31397 0.82780 0.26400
C 	C 	0.78779 0.28491 0.87350 -0.29900
H 	H 	0.76900 0.27590 0.90250 0.10800
H 	H 	0.79580 0.26780 0.83770 0.11300
C 	C 	0.81610 0.29440 0.93230 0.04700
H 	H 	0.83540 0.30180 0.90260 0.01900
H 	H 	0.80870 0.31300 0.96450 0.01600
C 	C 	0.82710 0.26460 0.98900 -0.27100
H 	H 	0.83780 0.24720 0.95820 0.10400
H 	H 	0.80750 0.25500 0.01400 0.11300
C 	C 	0.84740 0.27520 0.04240 0.15400
H 	H 	0.86810 0.28380 0.02060 -0.02600
H 	H 	0.83740 0.29160 0.07730 -0.01900
C 	C 	0.85180 0.23870 0.08380 -0.45400
H 	H 	0.83060 0.22770 0.08650 0.15300
H 	H 	0.86690 0.22540 0.05300 0.14700
H 	H 	0.86060 0.24140 0.13610 0.14800
C 	C 	0.86059 0.05641 0.36670 0.09500
H 	H 	0.87680 0.04160 0.34840 -0.00600
C 	C 	0.84345 0.07436 0.31340 -0.17500
H 	H 	0.84790 0.07210 0.25980 0.08200
C 	C 	0.81939 0.09593 0.33910 0.12800
C 	C 	0.81399 0.09749 0.41730 -0.19300
H 	H 	0.79760 0.11160 0.43740 0.09200
C 	C 	0.83227 0.07862 0.46640 0.10500
H 	H 	0.82790 0.08000 0.52030 -0.00300
C 	C 	0.79970 0.11700 0.28420 -0.15400
H 	H 	0.77690 0.11710 0.30300 0.07400
H 	H 	0.80800 0.13970 0.28920 0.06700
Mn	Mn	0.29115 0.17354 0.93184 1.31800
O 	O 	0.26400 0.15502 0.00670 -0.47800
O 	O 	0.27560 0.25450 0.07103 -0.41600
O 	O 	0.31736 0.19942 0.86152 -0.44700
N 	N 	0.28665 0.21597 0.98000 -0.29700
N 	N 	0.30219 0.24180 0.93940 -0.24100
C 	C 	0.25088 0.16818 0.06950 0.29600
C 	C 	0.23022 0.14824 0.11490 -0.27700
H 	H 	0.22530 0.12660 0.09850 0.12400
C 	C 	0.21732 0.15987 0.18230 0.15400
H 	H 	0.20400 0.14580 0.21260 -0.03100
C 	C 	0.22284 0.19115 0.20780 -0.21300
H 	H 	0.21390 0.19860 0.25530 0.10400
C 	C 	0.24192 0.21161 0.16220 0.13700
H 	H 	0.24590 0.23340 0.17910 -0.00200
C 	C 	0.25544 0.20123 0.09250 -0.24900
C 	C 	0.27348 0.22518 0.04600 0.27300
C 	C 	0.31693 0.23052 0.87830 0.26800
C 	C 	0.33442 0.25341 0.82500 -0.35500
H 	H 	0.33220 0.27600 0.84470 0.11700
H 	H 	0.32410 0.25250 0.77320 0.12900
C 	C 	0.37024 0.24507 0.81750 0.15900
H 	H 	0.38020 0.25890 0.77690 -0.02400
H 	H 	0.37250 0.22200 0.80150 -0.01400
C 	C 	0.38848 0.25033 0.89350 -0.36600
H 	H 	0.38450 0.27290 0.91190 0.13200
H 	H 	0.37970 0.23510 0.93280 0.12700
C 	C 	0.42500 0.24500 0.88580 0.29200
H 	H 	0.42900 0.22230 0.86850 -0.06900
H 	H 	0.43360 0.25990 0.84560 -0.07100
C 	C 	0.44300 0.25080 0.95940 -0.64200
H 	H 	0.44880 0.27400 0.96330 0.20400
H 	H 	0.46290 0.23750 0.96010 0.20100
H 	H 	0.42900 0.24470 0.00320 0.20100
Mn	Mn	0.28807 0.28940 0.99670 1.33100
O 	O 	0.32945 0.29772 0.03670 -0.47400
O 	O 	0.31698 0.36474 0.85026 -0.41700
O 	O 	0.24633 0.28661 0.94429 -0.44100
N 	N 	0.29364 0.32373 0.92060 -0.28900
N 	N 	0.26611 0.32847 0.87180 -0.24200
N 	N 	0.26173 0.32350 0.08120 -0.22600
C 	C 	0.35023 0.32156 0.01970 0.29600
C 	C 	0.37860 0.32374 0.06580 -0.26900
H 	H 	0.38220 0.30820 0.10580 0.12100
C 	C 	0.40129 0.34845 0.05310 0.14400
H 	H 	0.42010 0.34980 0.08510 -0.02800
C 	C 	0.39694 0.37102 0.99500 -0.21900
H 	H 	0.41240 0.38800 0.98700 0.10800
C 	C 	0.37005 0.36842 0.94900 0.14100
H 	H 	0.36720 0.38380 0.90850 -0.00000
C 	C 	0.34632 0.34398 0.95890 -0.24900
C 	C 	0.31772 0.34433 0.90620 0.27300
C 	C 	0.24288 0.30808 0.89040 0.27400
C 	C 	0.21015 0.31090 0.85200 -0.33700
H 	H 	0.20280 0.28890 0.83530 0.12300
H 	H 	0.21220 0.32480 0.80530 0.11200
C 	C 	0.18464 0.32574 0.90630 0.11900
H 	H 	0.16270 0.32350 0.88260 -0.01300
H 	H 	0.18460 0.31340 0.95550 -0.00600
C 	C 	0.19119 0.36165 0.92340 -0.30300
H 	H 	0.19150 0.37400 0.87420 0.11600
H 	H 	0.21300 0.36380 0.94760 0.11600
C 	C 	0.16545 0.37690 0.97730 0.19100
H 	H 	0.14350 0.37470 0.95350 -0.03100
H 	H 	0.16530 0.36490 0.02710 -0.03400
C 	C 	0.17280 0.41310 0.99210 -0.54700
H 	H 	0.19630 0.41580 0.00210 0.17900
H 	H 	0.16040 0.42060 0.03700 0.17800
H 	H 	0.16660 0.42590 0.94660 0.18300
C 	C 	0.23272 0.31485 0.10610 0.09900
H 	H 	0.22540 0.29320 0.09600 -0.00900
C 	C 	0.21240 0.33570 0.14650 -0.17300
H 	H 	0.19160 0.32840 0.16390 0.07800
C 	C 	0.22280 0.36758 0.16150 0.12100
C 	C 	0.25295 0.37539 0.13660 -0.18000
H 	H 	0.26130 0.39660 0.14760 0.07900
C 	C 	0.27219 0.35400 0.09590 0.09000
H 	H 	0.29310 0.36080 0.07800 -0.01300
C 	C 	0.20110 0.39021 0.20770 -0.13400
H 	H 	0.20900 0.41290 0.20120 0.05900
H 	H 	0.17860 0.38910 0.18680 0.05700
Mn	Mn	0.22013 0.13710 0.72275 1.33300
O 	O 	0.24169 0.10081 0.68288 -0.47800
O 	O 	0.29845 0.13241 0.87546 -0.42700
O 	O 	0.20326 0.17503 0.77602 -0.43500
N 	N 	0.25505 0.14378 0.79830 -0.28600
N 	N 	0.25065 0.17187 0.84460 -0.23700
N 	N 	0.14432 0.44141 0.44310 -0.23000
C 	C 	0.26595 0.08412 0.71330 0.30700
C 	C 	0.27292 0.05363 0.67890 -0.27900
H 	H 	0.26040 0.04650 0.63590 0.13100
C 	C 	0.29765 0.03402 0.70690 0.15000
H 	H 	0.30170 0.01340 0.68360 -0.03400
C 	C 	0.31666 0.04410 0.76850 -0.22200
H 	H 	0.33390 0.03070 0.78690 0.10800
C 	C 	0.31044 0.07346 0.80260 0.14900
H 	H 	0.32370 0.08030 0.84470 0.00300
C 	C 	0.28505 0.09383 0.77720 -0.25400
C 	C 	0.27962 0.12479 0.81810 0.27600
C 	C 	0.22314 0.18603 0.82780 0.26400
C 	C 	0.21221 0.21509 0.87350 -0.29900
H 	H 	0.23100 0.22410 0.90250 0.10800
H 	H 	0.20420 0.23220 0.83770 0.11300
C 	C 	0.18390 0.20560 0.93230 0.04700
H 	H 	0.16460 0.19820 0.90260 0.01900
H 	H 	0.19130 0.18700 0.96450 0.01600
C 	C 	0.17290 0.23540 0.98900 -0.27100
H 	H 	0.16220 0.25280 0.95820 0.10400
H 	H 	0.19250 0.24500 0.01400 0.11300
C 	C 	0.15260 0.22480 0.04240 0.15400
H 	H 	0.13190 0.21620 0.02060 -0.02600
H 	H 	0.16260 0.20840 0.07730 -0.01900
C 	C 	0.14820 0.26130 0.08380 -0.45400
H 	H 	0.16940 0.27230 0.08650 0.15300
H 	H 	0.13310 0.27460 0.05300 0.14700
H 	H 	0.13940 0.25860 0.13610 0.14800
C 	C 	0.13941 0.44359 0.36670 0.09500
H 	H 	0.12320 0.45840 0.34840 -0.00600
C 	C 	0.15655 0.42564 0.31340 -0.17500
H 	H 	0.15210 0.42790 0.25980 0.08200
C 	C 	0.18061 0.40407 0.33910 0.12800
C 	C 	0.18601 0.40251 0.41730 -0.19300
H 	H 	0.20240 0.38840 0.43740 0.09200
C 	C 	0.16773 0.42138 0.46640 0.10500
H 	H 	0.17210 0.42000 0.52030 -0.00300
C 	C 	0.20030 0.38300 0.28420 -0.15400
H 	H 	0.22310 0.38290 0.30300 0.07400
H 	H 	0.19200 0.36030 0.28920 0.06700
Mn	Mn	0.79115 0.67354 0.43184 1.31800
O 	O 	0.76400 0.65502 0.50670 -0.47800
O 	O 	0.77560 0.75450 0.57103 -0.41600
O 	O 	0.81736 0.69942 0.36152 -0.44700
N 	N 	0.78665 0.71597 0.48000 -0.29700
N 	N 	0.80219 0.74180 0.43940 -0.24100
C 	C 	0.75088 0.66818 0.56950 0.29600
C 	C 	0.73022 0.64824 0.61490 -0.27700
H 	H 	0.72530 0.62660 0.59850 0.12400
C 	C 	0.71732 0.65987 0.68230 0.15400
H 	H 	0.70400 0.64580 0.71260 -0.03100
C 	C 	0.72284 0.69115 0.70780 -0.21300
H 	H 	0.71390 0.69860 0.75530 0.10400
C 	C 	0.74192 0.71161 0.66220 0.13600
H 	H 	0.74590 0.73340 0.67910 -0.00200
C 	C 	0.75544 0.70123 0.59250 -0.24900
C 	C 	0.77348 0.72518 0.54600 0.27300
C 	C 	0.81693 0.73052 0.37830 0.26800
C 	C 	0.83442 0.75341 0.32500 -0.35500
H 	H 	0.83220 0.77600 0.34470 0.11700
H 	H 	0.82410 0.75250 0.27320 0.12900
C 	C 	0.87024 0.74507 0.31750 0.15900
H 	H 	0.88020 0.75890 0.27690 -0.02400
H 	H 	0.87250 0.72200 0.30150 -0.01400
C 	C 	0.88848 0.75033 0.39350 -0.36500
H 	H 	0.88450 0.77290 0.41190 0.13200
H 	H 	0.87970 0.73510 0.43280 0.12700
C 	C 	0.92500 0.74500 0.38580 0.29000
H 	H 	0.92900 0.72230 0.36850 -0.06800
H 	H 	0.93360 0.75990 0.34560 -0.07000
C 	C 	0.94300 0.75080 0.45940 -0.63900
H 	H 	0.94880 0.77400 0.46330 0.20300
H 	H 	0.96290 0.73750 0.46010 0.20000
H 	H 	0.92900 0.74470 0.50320 0.19900
Mn	Mn	0.78807 0.78940 0.49670 1.33100
O 	O 	0.82945 0.79772 0.53670 -0.47400
O 	O 	0.81698 0.86474 0.35026 -0.41700
O 	O 	0.74633 0.78661 0.44429 -0.44100
N 	N 	0.79364 0.82373 0.42060 -0.28900
N 	N 	0.76611 0.82847 0.37180 -0.24200
N 	N 	0.76173 0.82350 0.58120 -0.22600
C 	C 	0.85023 0.82156 0.51970 0.29500
C 	C 	0.87860 0.82374 0.56580 -0.26800
H 	H 	0.88220 0.80820 0.60580 0.12100
C 	C 	0.90129 0.84845 0.55310 0.14300
H 	H 	0.92010 0.84980 0.58510 -0.02800
C 	C 	0.89694 0.87102 0.49500 -0.21700
H 	H 	0.91240 0.88800 0.48700 0.10700
C 	C 	0.87005 0.86842 0.44900 0.14000
H 	H 	0.86720 0.88380 0.40850 0.00000
C 	C 	0.84632 0.84398 0.45890 -0.24800
C 	C 	0.81772 0.84433 0.40620 0.27300
C 	C 	0.74288 0.80808 0.39040 0.27400
C 	C 	0.71015 0.81090 0.35200 -0.33700
H 	H 	0.70280 0.78890 0.33530 0.12300
H 	H 	0.71220 0.82480 0.30530 0.11200
C 	C 	0.68464 0.82574 0.40630 0.11900
H 	H 	0.66270 0.82350 0.38260 -0.01300
H 	H 	0.68460 0.81340 0.45550 -0.00600
C 	C 	0.69119 0.86165 0.42340 -0.30300
H 	H 	0.69150 0.87400 0.37420 0.11600
H 	H 	0.71300 0.86380 0.44760 0.11700
C 	C 	0.66545 0.87690 0.47730 0.19200
H 	H 	0.64350 0.87470 0.45350 -0.03100
H 	H 	0.66530 0.86490 0.52710 -0.03500
C 	C 	0.67280 0.91310 0.49210 -0.54600
H 	H 	0.69630 0.91580 0.50210 0.17900
H 	H 	0.66040 0.92060 0.53700 0.17800
H 	H 	0.66660 0.92590 0.44660 0.18300
C 	C 	0.73272 0.81485 0.60610 0.09900
H 	H 	0.72540 0.79320 0.59600 -0.00900
C 	C 	0.71240 0.83570 0.64650 -0.17300
H 	H 	0.69160 0.82840 0.66390 0.07800
C 	C 	0.72280 0.86758 0.66150 0.12100
C 	C 	0.75295 0.87539 0.63660 -0.18000
H 	H 	0.76130 0.89660 0.64760 0.07900
C 	C 	0.77219 0.85400 0.59590 0.09000
H 	H 	0.79310 0.86080 0.57800 -0.01300
C 	C 	0.70110 0.89021 0.70770 -0.13400
H 	H 	0.70900 0.91290 0.70120 0.05900
H 	H 	0.67860 0.88910 0.68680 0.05700
Mn	Mn	0.72013 0.63710 0.22275 1.33300
O 	O 	0.74169 0.60081 0.18288 -0.47800
O 	O 	0.79845 0.63241 0.37546 -0.42700
O 	O 	0.70326 0.67503 0.27602 -0.43500
N 	N 	0.75505 0.64378 0.29830 -0.28600
N 	N 	0.75065 0.67187 0.34460 -0.23700
N 	N 	0.64432 0.94141 0.94310 -0.23000
C 	C 	0.76595 0.58412 0.21330 0.30700
C 	C 	0.77292 0.55363 0.17890 -0.27900
H 	H 	0.76040 0.54650 0.13590 0.13100
C 	C 	0.79765 0.53402 0.20690 0.15000
H 	H 	0.80170 0.51340 0.18360 -0.03400
C 	C 	0.81666 0.54410 0.26850 -0.22200
H 	H 	0.83390 0.53070 0.28690 0.10800
C 	C 	0.81044 0.57346 0.30260 0.14900
H 	H 	0.82370 0.58030 0.34470 0.00300
C 	C 	0.78505 0.59383 0.27720 -0.25400
C 	C 	0.77962 0.62479 0.31810 0.27600
C 	C 	0.72314 0.68603 0.32780 0.26300
C 	C 	0.71221 0.71509 0.37350 -0.29900
H 	H 	0.73100 0.72410 0.40250 0.10800
H 	H 	0.70420 0.73220 0.33770 0.11200
C 	C 	0.68390 0.70560 0.43230 0.04500
H 	H 	0.66460 0.69820 0.40260 0.02000
H 	H 	0.69130 0.68700 0.46450 0.01700
C 	C 	0.67290 0.73540 0.48900 -0.26700
H 	H 	0.66220 0.75280 0.45820 0.10300
H 	H 	0.69250 0.74500 0.51400 0.11100
C 	C 	0.65260 0.72480 0.54240 0.15000
H 	H 	0.63190 0.71620 0.52060 -0.02500
H 	H 	0.66260 0.70840 0.57730 -0.01800
C 	C 	0.64820 0.76130 0.58380 -0.45200
H 	H 	0.66940 0.77230 0.58650 0.15200
H 	H 	0.63310 0.77460 0.55300 0.14600
H 	H 	0.63940 0.75860 0.63610 0.14800
C 	C 	0.63941 0.94359 0.86670 0.09500
H 	H 	0.62320 0.95840 0.84840 -0.00600
C 	C 	0.65655 0.92564 0.81340 -0.17600
H 	H 	0.65210 0.92790 0.75980 0.08200
C 	C 	0.68061 0.90407 0.83910 0.12900
C 	C 	0.68601 0.90251 0.91730 -0.19400
H 	H 	0.70240 0.88840 0.93740 0.09200
C 	C 	0.66773 0.92138 0.96640 0.10600
H 	H 	0.67210 0.92000 0.02030 -0.00300
C 	C 	0.70030 0.88300 0.78420 -0.15400
H 	H 	0.72310 0.88290 0.80300 0.07400
H 	H 	0.69200 0.86030 0.78920 0.06700
Mn	Mn	0.42354 0.45885 0.81816 1.31800
O 	O 	0.40502 0.48600 0.74330 -0.47800
O 	O 	0.50450 0.47440 0.67897 -0.41600
O 	O 	0.44942 0.43264 0.88848 -0.44700
N 	N 	0.46597 0.46335 0.77000 -0.29700
N 	N 	0.49180 0.44781 0.81060 -0.24100
C 	C 	0.41818 0.49912 0.68050 0.29600
C 	C 	0.39824 0.51978 0.63510 -0.27700
H 	H 	0.37660 0.52470 0.65150 0.12400
C 	C 	0.40987 0.53268 0.56770 0.15400
H 	H 	0.39580 0.54600 0.53740 -0.03100
C 	C 	0.44115 0.52716 0.54220 -0.21300
H 	H 	0.44860 0.53610 0.49470 0.10400
C 	C 	0.46161 0.50808 0.58780 0.13600
H 	H 	0.48340 0.50410 0.57090 -0.00200
C 	C 	0.45123 0.49456 0.65750 -0.24900
C 	C 	0.47518 0.47652 0.70400 0.27300
C 	C 	0.48052 0.43307 0.87170 0.26800
C 	C 	0.50341 0.41558 0.92500 -0.35500
H 	H 	0.52600 0.41780 0.90530 0.11700
H 	H 	0.50250 0.42590 0.97680 0.12900
C 	C 	0.49507 0.37976 0.93250 0.15900
H 	H 	0.50890 0.36980 0.97310 -0.02400
H 	H 	0.47200 0.37750 0.94850 -0.01400
C 	C 	0.50033 0.36152 0.85650 -0.36500
H 	H 	0.52290 0.36550 0.83810 0.13200
H 	H 	0.48510 0.37030 0.81720 0.12700
C 	C 	0.49500 0.32500 0.86420 0.29000
H 	H 	0.47230 0.32100 0.88150 -0.06800
H 	H 	0.50990 0.31640 0.90440 -0.07000
C 	C 	0.50080 0.30700 0.79060 -0.63900
H 	H 	0.52400 0.30120 0.78670 0.20300
H 	H 	0.48750 0.28710 0.78990 0.20000
H 	H 	0.49470 0.32100 0.74680 0.19900
Mn	Mn	0.53940 0.46193 0.75330 1.33100
O 	O 	0.54772 0.42055 0.71330 -0.47400
O 	O 	0.61474 0.43302 0.89974 -0.41700
O 	O 	0.53661 0.50367 0.80571 -0.44100
N 	N 	0.57373 0.45636 0.82940 -0.28900
N 	N 	0.57847 0.48389 0.87820 -0.24200
N 	N 	0.57350 0.48827 0.66880 -0.22600
C 	C 	0.57156 0.39977 0.73030 0.29500
C 	C 	0.57374 0.37140 0.68420 -0.26800
H 	H 	0.55820 0.36780 0.64420 0.12100
C 	C 	0.59845 0.34871 0.69690 0.14300
H 	H 	0.59980 0.32990 0.66490 -0.02800
C 	C 	0.62102 0.35306 0.75500 -0.21700
H 	H 	0.63800 0.33760 0.76300 0.10700
C 	C 	0.61842 0.37995 0.80100 0.14000
H 	H 	0.63380 0.38280 0.84150 0.00000
C 	C 	0.59398 0.40368 0.79110 -0.24800
C 	C 	0.59433 0.43228 0.84380 0.27300
C 	C 	0.55808 0.50712 0.85960 0.27400
C 	C 	0.56090 0.53985 0.89800 -0.33700
H 	H 	0.53890 0.54720 0.91470 0.12300
H 	H 	0.57480 0.53780 0.94470 0.11200
C 	C 	0.57574 0.56536 0.84370 0.11900
H 	H 	0.57350 0.58730 0.86740 -0.01300
H 	H 	0.56340 0.56540 0.79450 -0.00600
C 	C 	0.61165 0.55881 0.82660 -0.30300
H 	H 	0.62400 0.55850 0.87580 0.11600
H 	H 	0.61380 0.53700 0.80240 0.11700
C 	C 	0.62690 0.58455 0.77270 0.19200
H 	H 	0.62470 0.60650 0.79650 -0.03100
H 	H 	0.61490 0.58470 0.72290 -0.03500
C 	C 	0.66310 0.57720 0.75790 -0.54600
H 	H 	0.66580 0.55370 0.74790 0.17900
H 	H 	0.67060 0.58960 0.71300 0.17800
H 	H 	0.67590 0.58340 0.80340 0.18300
C 	C 	0.56485 0.51728 0.64390 0.09900
H 	H 	0.54320 0.52460 0.65400 -0.00900
C 	C 	0.58570 0.53760 0.60350 -0.17300
H 	H 	0.57840 0.55840 0.58610 0.07800
C 	C 	0.61758 0.52720 0.58850 0.12100
C 	C 	0.62539 0.49705 0.61340 -0.18000
H 	H 	0.64660 0.48870 0.60240 0.07900
C 	C 	0.60400 0.47781 0.65410 0.09000
H 	H 	0.61080 0.45690 0.67200 -0.01300
C 	C 	0.64021 0.54890 0.54230 -0.13400
H 	H 	0.66290 0.54100 0.54880 0.05900
H 	H 	0.63910 0.57140 0.56320 0.05700
Mn	Mn	0.38710 0.52987 0.02725 1.33300
O 	O 	0.35081 0.50831 0.06712 -0.47800
O 	O 	0.38241 0.45155 0.87454 -0.42700
O 	O 	0.42503 0.54674 0.97398 -0.43400
N 	N 	0.39378 0.49495 0.95170 -0.28600
N 	N 	0.42187 0.49935 0.90540 -0.23700
N 	N 	0.69141 0.60568 0.30690 -0.23000
C 	C 	0.33412 0.48405 0.03670 0.30600
C 	C 	0.30363 0.47708 0.07110 -0.27900
H 	H 	0.29650 0.48960 0.11410 0.13100
C 	C 	0.28402 0.45235 0.04310 0.15000
H 	H 	0.26340 0.44830 0.06640 -0.03400
C 	C 	0.29410 0.43334 0.98150 -0.22200
H 	H 	0.28070 0.41610 0.96310 0.10800
C 	C 	0.32346 0.43956 0.94740 0.14900
H 	H 	0.33030 0.42630 0.90530 0.00300
C 	C 	0.34383 0.46495 0.97280 -0.25400
C 	C 	0.37479 0.47038 0.93190 0.27600
C 	C 	0.43603 0.52686 0.92220 0.26300
C 	C 	0.46509 0.53779 0.87650 -0.29900
H 	H 	0.47410 0.51900 0.84750 0.10800
H 	H 	0.48220 0.54580 0.91230 0.11200
C 	C 	0.45560 0.56610 0.81770 0.04500
H 	H 	0.44820 0.58540 0.84740 0.02000
H 	H 	0.43700 0.55870 0.78550 0.01700
C 	C 	0.48540 0.57710 0.76100 -0.26700
H 	H 	0.50280 0.58780 0.79180 0.10300
H 	H 	0.49500 0.55750 0.73600 0.11100
C 	C 	0.47480 0.59740 0.70760 0.15000
H 	H 	0.46620 0.61810 0.72940 -0.02500
H 	H 	0.45840 0.58740 0.67270 -0.01800
C 	C 	0.51130 0.60180 0.66620 -0.45200
H 	H 	0.52230 0.58060 0.66350 0.15200
H 	H 	0.52460 0.61690 0.69700 0.14600
H 	H 	0.50860 0.61060 0.61390 0.14800
C 	C 	0.69359 0.61059 0.38330 0.09500
H 	H 	0.70840 0.62680 0.40160 -0.00600
C 	C 	0.67564 0.59345 0.43660 -0.17500
H 	H 	0.67790 0.59790 0.49020 0.08200
C 	C 	0.65407 0.56939 0.41090 0.12800
C 	C 	0.65251 0.56399 0.33270 -0.19300
H 	H 	0.63840 0.54760 0.31260 0.09200
C 	C 	0.67138 0.58227 0.28360 0.10500
H 	H 	0.67000 0.57790 0.22970 -0.00300
C 	C 	0.63300 0.54970 0.46580 -0.15400
H 	H 	0.63290 0.52690 0.44700 0.07400
H 	H 	0.61030 0.55800 0.46080 0.06700
Mn	Mn	0.92354 0.95885 0.31816 1.31800
O 	O 	0.90502 0.98600 0.24330 -0.47800
O 	O 	0.00450 0.97440 0.17897 -0.41600
O 	O 	0.94942 0.93264 0.38848 -0.44700
N 	N 	0.96597 0.96335 0.27000 -0.29700
N 	N 	0.99180 0.94781 0.31060 -0.24100
C 	C 	0.91818 0.99912 0.18050 0.29600
C 	C 	0.89824 0.01978 0.13510 -0.27700
H 	H 	0.87660 0.02470 0.15150 0.12400
C 	C 	0.90987 0.03268 0.06770 0.15400
H 	H 	0.89580 0.04600 0.03740 -0.03100
C 	C 	0.94115 0.02716 0.04220 -0.21300
H 	H 	0.94860 0.03610 0.99470 0.10400
C 	C 	0.96161 0.00808 0.08780 0.13600
H 	H 	0.98340 0.00410 0.07090 -0.00200
C 	C 	0.95123 0.99456 0.15750 -0.24900
C 	C 	0.97518 0.97652 0.20400 0.27300
C 	C 	0.98052 0.93307 0.37170 0.26800
C 	C 	0.00341 0.91558 0.42500 -0.35500
H 	H 	0.02600 0.91780 0.40530 0.11700
H 	H 	0.00250 0.92590 0.47680 0.12900
C 	C 	0.99507 0.87976 0.43250 0.15900
H 	H 	0.00890 0.86980 0.47310 -0.02400
H 	H 	0.97200 0.87750 0.44850 -0.01400
C 	C 	0.00033 0.86152 0.35650 -0.36500
H 	H 	0.02290 0.86550 0.33810 0.13200
H 	H 	0.98510 0.87030 0.31720 0.12700
C 	C 	0.99500 0.82500 0.36420 0.29000
H 	H 	0.97230 0.82100 0.38150 -0.06800
H 	H 	0.00990 0.81640 0.40440 -0.07000
C 	C 	0.00080 0.80700 0.29060 -0.63900
H 	H 	0.02400 0.80120 0.28670 0.20300
H 	H 	0.98750 0.78710 0.28990 0.20000
H 	H 	0.99470 0.82100 0.24680 0.19900
Mn	Mn	0.03940 0.96193 0.25330 1.33100
O 	O 	0.04772 0.92055 0.21330 -0.47400
O 	O 	0.11474 0.93302 0.39974 -0.41700
O 	O 	0.03661 0.00367 0.30571 -0.44100
N 	N 	0.07373 0.95636 0.32940 -0.28900
N 	N 	0.07847 0.98389 0.37820 -0.24200
N 	N 	0.07350 0.98827 0.16880 -0.22600
C 	C 	0.07156 0.89977 0.23030 0.29500
C 	C 	0.07374 0.87140 0.18420 -0.26800
H 	H 	0.05820 0.86780 0.14420 0.12100
C 	C 	0.09845 0.84871 0.19690 0.14300
H 	H 	0.09980 0.82990 0.16490 -0.02800
C 	C 	0.12102 0.85306 0.25500 -0.21700
H 	H 	0.13800 0.83760 0.26300 0.10700
C 	C 	0.11842 0.87995 0.30100 0.14000
H 	H 	0.13380 0.88280 0.34150 0.00000
C 	C 	0.09398 0.90368 0.29110 -0.24800
C 	C 	0.09433 0.93228 0.34380 0.27300
C 	C 	0.05808 0.00712 0.35960 0.27400
C 	C 	0.06090 0.03985 0.39800 -0.33700
H 	H 	0.03890 0.04720 0.41470 0.12300
H 	H 	0.07480 0.03780 0.44470 0.11200
C 	C 	0.07574 0.06536 0.34370 0.11900
H 	H 	0.07350 0.08730 0.36740 -0.01300
H 	H 	0.06340 0.06540 0.29450 -0.00600
C 	C 	0.11165 0.05881 0.32660 -0.30300
H 	H 	0.12400 0.05850 0.37580 0.11600
H 	H 	0.11380 0.03700 0.30240 0.11600
C 	C 	0.12690 0.08455 0.27270 0.19200
H 	H 	0.12470 0.10650 0.29650 -0.03100
H 	H 	0.11490 0.08470 0.22290 -0.03500
C 	C 	0.16310 0.07720 0.25790 -0.54600
H 	H 	0.16580 0.05370 0.24790 0.17900
H 	H 	0.17060 0.08960 0.21300 0.17800
H 	H 	0.17590 0.08340 0.30340 0.18300
C 	C 	0.06485 0.01728 0.14390 0.09900
H 	H 	0.04320 0.02460 0.15400 -0.00900
C 	C 	0.08570 0.03760 0.10350 -0.17300
H 	H 	0.07840 0.05840 0.08610 0.07800
C 	C 	0.11758 0.02720 0.08850 0.12100
C 	C 	0.12539 0.99705 0.11340 -0.18000
H 	H 	0.14660 0.98870 0.10240 0.07900
C 	C 	0.10400 0.97781 0.15410 0.09000
H 	H 	0.11080 0.95690 0.17200 -0.01300
C 	C 	0.14021 0.04890 0.04230 -0.13300
H 	H 	0.16290 0.04100 0.04880 0.05900
H 	H 	0.13910 0.07140 0.06320 0.05700
Mn	Mn	0.88710 0.02987 0.52725 1.33300
O 	O 	0.85081 0.00831 0.56712 -0.47800
O 	O 	0.88241 0.95155 0.37454 -0.42700
O 	O 	0.92503 0.04674 0.47398 -0.43500
N 	N 	0.89378 0.99495 0.45170 -0.28600
N 	N 	0.92187 0.99935 0.40540 -0.23700
N 	N 	0.19141 0.10568 0.80690 -0.23000
C 	C 	0.83412 0.98405 0.53670 0.30600
C 	C 	0.80363 0.97708 0.57110 -0.27900
H 	H 	0.79650 0.98960 0.61410 0.13100
C 	C 	0.78402 0.95235 0.54310 0.15000
H 	H 	0.76340 0.94830 0.56640 -0.03400
C 	C 	0.79410 0.93334 0.48150 -0.22200
H 	H 	0.78070 0.91610 0.46310 0.10800
C 	C 	0.82346 0.93956 0.44740 0.14900
H 	H 	0.83030 0.92630 0.40530 0.00300
C 	C 	0.84383 0.96495 0.47280 -0.25400
C 	C 	0.87479 0.97038 0.43190 0.27600
C 	C 	0.93603 0.02686 0.42220 0.26300
C 	C 	0.96509 0.03779 0.37650 -0.29900
H 	H 	0.97410 0.01900 0.34750 0.10800
H 	H 	0.98220 0.04580 0.41230 0.11200
C 	C 	0.95560 0.06610 0.31770 0.04500
H 	H 	0.94820 0.08540 0.34740 0.02000
H 	H 	0.93700 0.05870 0.28550 0.01700
C 	C 	0.98540 0.07710 0.26100 -0.26700
H 	H 	0.00280 0.08780 0.29180 0.10300
H 	H 	0.99500 0.05750 0.23600 0.11100
C 	C 	0.97480 0.09740 0.20760 0.15000
H 	H 	0.96620 0.11810 0.22940 -0.02500
H 	H 	0.95840 0.08740 0.17270 -0.01800
C 	C 	0.01130 0.10180 0.16620 -0.45200
H 	H 	0.02230 0.08060 0.16350 0.15200
H 	H 	0.02460 0.11690 0.19700 0.14600
H 	H 	0.00860 0.11060 0.11390 0.14800
C 	C 	0.19359 0.11059 0.88330 0.09500
H 	H 	0.20840 0.12680 0.90160 -0.00600
C 	C 	0.17564 0.09345 0.93660 -0.17600
H 	H 	0.17790 0.09790 0.99020 0.08200
C 	C 	0.15407 0.06939 0.91090 0.12900
C 	C 	0.15251 0.06399 0.83270 -0.19300
H 	H 	0.13840 0.04760 0.81260 0.09200
C 	C 	0.17138 0.08227 0.78360 0.10500
H 	H 	0.17000 0.07790 0.72970 -0.00300
C 	C 	0.13300 0.04970 0.96580 -0.15500
H 	H 	0.13290 0.02690 0.94700 0.07400
H 	H 	0.11030 0.05800 0.96080 0.06700
Mn	Mn	0.07646 0.54115 0.31816 1.31800
O 	O 	0.09498 0.51400 0.24330 -0.47800
O 	O 	0.99550 0.52560 0.17897 -0.41600
O 	O 	0.05058 0.56736 0.38848 -0.44700
N 	N 	0.03403 0.53665 0.27000 -0.29700
N 	N 	0.00820 0.55219 0.31060 -0.24100
C 	C 	0.08182 0.50088 0.18050 0.29600
C 	C 	0.10176 0.48022 0.13510 -0.27700
H 	H 	0.12340 0.47530 0.15150 0.12400
C 	C 	0.09013 0.46732 0.06770 0.15400
H 	H 	0.10420 0.45400 0.03740 -0.03100
C 	C 	0.05885 0.47284 0.04220 -0.21300
H 	H 	0.05140 0.46390 0.99470 0.10400
C 	C 	0.03839 0.49192 0.08780 0.13600
H 	H 	0.01660 0.49590 0.07090 -0.00200
C 	C 	0.04877 0.50544 0.15750 -0.24900
C 	C 	0.02482 0.52348 0.20400 0.27300
C 	C 	0.01948 0.56693 0.37170 0.26800
C 	C 	0.99659 0.58442 0.42500 -0.35500
H 	H 	0.97400 0.58220 0.40530 0.11700
H 	H 	0.99750 0.57410 0.47680 0.12900
C 	C 	0.00493 0.62024 0.43250 0.15900
H 	H 	0.99110 0.63020 0.47310 -0.02400
H 	H 	0.02800 0.62250 0.44850 -0.01400
C 	C 	0.99967 0.63848 0.35650 -0.36500
H 	H 	0.97710 0.63450 0.33810 0.13200
H 	H 	0.01490 0.62970 0.31720 0.12700
C 	C 	0.00500 0.67500 0.36420 0.29000
H 	H 	0.02770 0.67900 0.38150 -0.06800
H 	H 	0.99010 0.68360 0.40440 -0.07000
C 	C 	0.99920 0.69300 0.29060 -0.63900
H 	H 	0.97600 0.69880 0.28670 0.20300
H 	H 	0.01250 0.71290 0.28990 0.20000
H 	H 	0.00530 0.67900 0.24680 0.19900
Mn	Mn	0.96060 0.53807 0.25330 1.33100
O 	O 	0.95228 0.57945 0.21330 -0.47400
O 	O 	0.88526 0.56698 0.39974 -0.41700
O 	O 	0.96339 0.49633 0.30571 -0.44100
N 	N 	0.92627 0.54364 0.32940 -0.28900
N 	N 	0.92153 0.51611 0.37820 -0.24200
N 	N 	0.92650 0.51173 0.16880 -0.22600
C 	C 	0.92844 0.60023 0.23030 0.29500
C 	C 	0.92626 0.62860 0.18420 -0.26800
H 	H 	0.94180 0.63220 0.14420 0.12100
C 	C 	0.90155 0.65129 0.19690 0.14300
H 	H 	0.90020 0.67010 0.16490 -0.02800
C 	C 	0.87898 0.64694 0.25500 -0.21700
H 	H 	0.86200 0.66240 0.26300 0.10700
C 	C 	0.88158 0.62005 0.30100 0.14000
H 	H 	0.86620 0.61720 0.34150 0.00000
C 	C 	0.90602 0.59632 0.29110 -0.24800
C 	C 	0.90567 0.56772 0.34380 0.27300
C 	C 	0.94192 0.49288 0.35960 0.27400
C 	C 	0.93910 0.46015 0.39800 -0.33700
H 	H 	0.96110 0.45280 0.41470 0.12300
H 	H 	0.92520 0.46220 0.44470 0.11200
C 	C 	0.92426 0.43464 0.34370 0.11900
H 	H 	0.92650 0.41270 0.36740 -0.01300
H 	H 	0.93660 0.43460 0.29450 -0.00600
C 	C 	0.88835 0.44119 0.32660 -0.30300
H 	H 	0.87600 0.44150 0.37580 0.11600
H 	H 	0.88620 0.46300 0.30240 0.11700
C 	C 	0.87310 0.41545 0.27270 0.19200
H 	H 	0.87530 0.39350 0.29650 -0.03100
H 	H 	0.88510 0.41530 0.22290 -0.03500
C 	C 	0.83690 0.42280 0.25790 -0.54600
H 	H 	0.83420 0.44630 0.24790 0.17900
H 	H 	0.82940 0.41040 0.21300 0.17800
H 	H 	0.82410 0.41660 0.30340 0.18300
C 	C 	0.93515 0.48272 0.14390 0.09900
H 	H 	0.95680 0.47540 0.15400 -0.00900
C 	C 	0.91430 0.46240 0.10350 -0.17200
H 	H 	0.92160 0.44160 0.08610 0.07800
C 	C 	0.88242 0.47280 0.08850 0.12100
C 	C 	0.87461 0.50295 0.11340 -0.17900
H 	H 	0.85340 0.51130 0.10240 0.07900
C 	C 	0.89600 0.52219 0.15410 0.09000
H 	H 	0.88920 0.54310 0.17200 -0.01300
C 	C 	0.85979 0.45110 0.04230 -0.13300
H 	H 	0.83710 0.45900 0.04880 0.05900
H 	H 	0.86090 0.42860 0.06320 0.05700
Mn	Mn	0.11290 0.47013 0.52725 1.33300
O 	O 	0.14919 0.49169 0.56712 -0.47800
O 	O 	0.11759 0.54845 0.37454 -0.42700
O 	O 	0.07497 0.45326 0.47398 -0.43500
N 	N 	0.10622 0.50505 0.45170 -0.28600
N 	N 	0.07813 0.50065 0.40540 -0.23700
N 	N 	0.80859 0.39432 0.80690 -0.23000
C 	C 	0.16588 0.51595 0.53670 0.30700
C 	C 	0.19637 0.52292 0.57110 -0.27900
H 	H 	0.20350 0.51040 0.61410 0.13100
C 	C 	0.21598 0.54765 0.54310 0.15000
H 	H 	0.23660 0.55170 0.56640 -0.03400
C 	C 	0.20590 0.56666 0.48150 -0.22200
H 	H 	0.21930 0.58390 0.46310 0.10800
C 	C 	0.17654 0.56044 0.44740 0.14900
H 	H 	0.16970 0.57370 0.40530 0.00300
C 	C 	0.15617 0.53505 0.47280 -0.25400
C 	C 	0.12521 0.52962 0.43190 0.27600
C 	C 	0.06397 0.47314 0.42220 0.26300
C 	C 	0.03491 0.46221 0.37650 -0.29900
H 	H 	0.02590 0.48100 0.34750 0.10800
H 	H 	0.01780 0.45420 0.41230 0.11200
C 	C 	0.04440 0.43390 0.31770 0.04500
H 	H 	0.05180 0.41460 0.34740 0.02000
H 	H 	0.06300 0.44130 0.28550 0.01700
C 	C 	0.01460 0.42290 0.26100 -0.26700
H 	H 	0.99720 0.41220 0.29180 0.10300
H 	H 	0.00500 0.44250 0.23600 0.11100
C 	C 	0.02520 0.40260 0.20760 0.15000
H 	H 	0.03380 0.38190 0.22940 -0.02500
H 	H 	0.04160 0.41260 0.17270 -0.01800
C 	C 	0.98870 0.39820 0.16620 -0.45200
H 	H 	0.97770 0.41940 0.16350 0.15200
H 	H 	0.97540 0.38310 0.19700 0.14600
H 	H 	0.99140 0.38940 0.11390 0.14800
C 	C 	0.80641 0.38941 0.88330 0.09500
H 	H 	0.79160 0.37320 0.90160 -0.00600
C 	C 	0.82436 0.40655 0.93660 -0.17600
H 	H 	0.82210 0.40210 0.99020 0.08200
C 	C 	0.84593 0.43061 0.91090 0.12900
C 	C 	0.84749 0.43601 0.83270 -0.19300
H 	H 	0.86160 0.45240 0.81260 0.09200
C 	C 	0.82862 0.41773 0.78360 0.10500
H 	H 	0.83000 0.42210 0.72970 -0.00300
C 	C 	0.86700 0.45030 0.96580 -0.15500
H 	H 	0.86710 0.47310 0.94700 0.07400
H 	H 	0.88970 0.44200 0.96080 0.06700
Mn	Mn	0.57646 0.04115 0.81816 1.31800
O 	O 	0.59498 0.01400 0.74330 -0.47800
O 	O 	0.49550 0.02560 0.67897 -0.41600
O 	O 	0.55058 0.06736 0.88848 -0.44700
N 	N 	0.53403 0.03665 0.77000 -0.29700
N 	N 	0.50820 0.05219 0.81060 -0.24100
C 	C 	0.58182 0.00088 0.68050 0.29600
C 	C 	0.60176 0.98022 0.63510 -0.27700
H 	H 	0.62340 0.97530 0.65150 0.12400
C 	C 	0.59013 0.96732 0.56770 0.15400
H 	H 	0.60420 0.95400 0.53740 -0.03100
C 	C 	0.55885 0.97284 0.54220 -0.21300
H 	H 	0.55140 0.96390 0.49470 0.10400
C 	C 	0.53839 0.99192 0.58780 0.13600
H 	H 	0.51660 0.99590 0.57090 -0.00200
C 	C 	0.54877 0.00544 0.65750 -0.24900
C 	C 	0.52482 0.02348 0.70400 0.27300
C 	C 	0.51948 0.06693 0.87170 0.26800
C 	C 	0.49659 0.08442 0.92500 -0.35500
H 	H 	0.47400 0.08220 0.90530 0.11700
H 	H 	0.49750 0.07410 0.97680 0.12900
C 	C 	0.50493 0.12024 0.93250 0.15900
H 	H 	0.49110 0.13020 0.97310 -0.02400
H 	H 	0.52800 0.12250 0.94850 -0.01400
C 	C 	0.49967 0.13848 0.85650 -0.36500
H 	H 	0.47710 0.13450 0.83810 0.13200
H 	H 	0.51490 0.12970 0.81720 0.12700
C 	C 	0.50500 0.17500 0.86420 0.29000
H 	H 	0.52770 0.17900 0.88150 -0.06800
H 	H 	0.49010 0.18360 0.90440 -0.07000
C 	C 	0.49920 0.19300 0.79060 -0.63900
H 	H 	0.47600 0.19880 0.78670 0.20300
H 	H 	0.51250 0.21290 0.78990 0.20000
H 	H 	0.50530 0.17900 0.74680 0.19900
Mn	Mn	0.46060 0.03807 0.75330 1.33100
O 	O 	0.45228 0.07945 0.71330 -0.47400
O 	O 	0.38526 0.06698 0.89974 -0.41700
O 	O 	0.46339 0.99633 0.80571 -0.44100
N 	N 	0.42627 0.04364 0.82940 -0.28900
N 	N 	0.42153 0.01611 0.87820 -0.24200
N 	N 	0.42650 0.01173 0.66880 -0.22600
C 	C 	0.42844 0.10023 0.73030 0.29500
C 	C 	0.42626 0.12860 0.68420 -0.26800
H 	H 	0.44180 0.13220 0.64420 0.12100
C 	C 	0.40155 0.15129 0.69690 0.14300
H 	H 	0.40020 0.17010 0.66490 -0.02800
C 	C 	0.37898 0.14694 0.75500 -0.21700
H 	H 	0.36200 0.16240 0.76300 0.10700
C 	C 	0.38158 0.12005 0.80100 0.14000
H 	H 	0.36620 0.11720 0.84150 0.00000
C 	C 	0.40602 0.09632 0.79110 -0.24800
C 	C 	0.40567 0.06772 0.84380 0.27300
C 	C 	0.44192 0.99288 0.85960 0.27400
C 	C 	0.43910 0.96015 0.89800 -0.33700
H 	H 	0.46110 0.95280 0.91470 0.12300
H 	H 	0.42520 0.96220 0.94470 0.11200
C 	C 	0.42426 0.93464 0.84370 0.11900
H 	H 	0.42650 0.91270 0.86740 -0.01300
H 	H 	0.43660 0.93460 0.79450 -0.00600
C 	C 	0.38835 0.94119 0.82660 -0.30300
H 	H 	0.37600 0.94150 0.87580 0.11600
H 	H 	0.38620 0.96300 0.80240 0.11700
C 	C 	0.37310 0.91545 0.77270 0.19200
H 	H 	0.37530 0.89350 0.79650 -0.03100
H 	H 	0.38510 0.91530 0.72290 -0.03500
C 	C 	0.33690 0.92280 0.75790 -0.54600
H 	H 	0.33420 0.94630 0.74790 0.17900
H 	H 	0.32940 0.91040 0.71300 0.17800
H 	H 	0.32410 0.91660 0.80340 0.18300
C 	C 	0.43515 0.98272 0.64390 0.09900
H 	H 	0.45680 0.97540 0.65400 -0.00900
C 	C 	0.41430 0.96240 0.60350 -0.17300
H 	H 	0.42160 0.94160 0.58610 0.07800
C 	C 	0.38242 0.97280 0.58850 0.12100
C 	C 	0.37461 0.00295 0.61340 -0.18000
H 	H 	0.35340 0.01130 0.60240 0.07900
C 	C 	0.39600 0.02219 0.65410 0.09000
H 	H 	0.38920 0.04310 0.67200 -0.01300
C 	C 	0.35979 0.95110 0.54230 -0.13400
H 	H 	0.33710 0.95900 0.54880 0.05900
H 	H 	0.36090 0.92860 0.56320 0.05700
Mn	Mn	0.61290 0.97013 0.02725 1.33300
O 	O 	0.64919 0.99169 0.06712 -0.47800
O 	O 	0.61759 0.04845 0.87454 -0.42700
O 	O 	0.57497 0.95326 0.97398 -0.43400
N 	N 	0.60622 0.00505 0.95170 -0.28600
N 	N 	0.57813 0.00065 0.90540 -0.23700
N 	N 	0.30859 0.89432 0.30690 -0.23000
C 	C 	0.66588 0.01595 0.03670 0.30700
C 	C 	0.69637 0.02292 0.07110 -0.27900
H 	H 	0.70350 0.01040 0.11410 0.13100
C 	C 	0.71598 0.04765 0.04310 0.15000
H 	H 	0.73660 0.05170 0.06640 -0.03400
C 	C 	0.70590 0.06666 0.98150 -0.22200
H 	H 	0.71930 0.08390 0.96310 0.10800
C 	C 	0.67654 0.06044 0.94740 0.14900
H 	H 	0.66970 0.07370 0.90530 0.00300
C 	C 	0.65617 0.03505 0.97280 -0.25400
C 	C 	0.62521 0.02962 0.93190 0.27600
C 	C 	0.56397 0.97314 0.92220 0.26300
C 	C 	0.53491 0.96221 0.87650 -0.29900
H 	H 	0.52590 0.98100 0.84750 0.10800
H 	H 	0.51780 0.95420 0.91230 0.11200
C 	C 	0.54440 0.93390 0.81770 0.04500
H 	H 	0.55180 0.91460 0.84740 0.02000
H 	H 	0.56300 0.94130 0.78550 0.01700
C 	C 	0.51460 0.92290 0.76100 -0.26700
H 	H 	0.49720 0.91220 0.79180 0.10300
H 	H 	0.50500 0.94250 0.73600 0.11100
C 	C 	0.52520 0.90260 0.70760 0.15000
H 	H 	0.53380 0.88190 0.72940 -0.02500
H 	H 	0.54160 0.91260 0.67270 -0.01800
C 	C 	0.48870 0.89820 0.66620 -0.45200
H 	H 	0.47770 0.91940 0.66350 0.15200
H 	H 	0.47540 0.88310 0.69700 0.14600
H 	H 	0.49140 0.88940 0.61390 0.14800
C 	C 	0.30641 0.88941 0.38330 0.09500
H 	H 	0.29160 0.87320 0.40160 -0.00600
C 	C 	0.32436 0.90655 0.43660 -0.17500
H 	H 	0.32210 0.90210 0.49020 0.08200
C 	C 	0.34593 0.93061 0.41090 0.12800
C 	C 	0.34749 0.93601 0.33270 -0.19300
H 	H 	0.36160 0.95240 0.31260 0.09200
C 	C 	0.32862 0.91773 0.28360 0.10500
H 	H 	0.33000 0.92210 0.22970 -0.00300
C 	C 	0.36700 0.95030 0.46580 -0.15400
H 	H 	0.36710 0.97310 0.44700 0.07400
H 	H 	0.38970 0.94200 0.46080 0.06700
Mn	Mn	0.79115 0.17354 0.56816 1.31800
O 	O 	0.76400 0.15502 0.49330 -0.47800
O 	O 	0.77560 0.25450 0.42897 -0.41600
O 	O 	0.81736 0.19942 0.63848 -0.44700
N 	N 	0.78665 0.21597 0.52000 -0.29700
N 	N 	0.80219 0.24180 0.56060 -0.24100
C 	C 	0.75088 0.16818 0.43050 0.29600
C 	C 	0.73022 0.14824 0.38510 -0.27700
H 	H 	0.72530 0.12660 0.40150 0.12400
C 	C 	0.71732 0.15987 0.31770 0.15400
H 	H 	0.70400 0.14580 0.28740 -0.03100
C 	C 	0.72284 0.19115 0.29220 -0.21300
H 	H 	0.71390 0.19860 0.24470 0.10400
C 	C 	0.74192 0.21161 0.33780 0.13600
H 	H 	0.74590 0.23340 0.32090 -0.00200
C 	C 	0.75544 0.20123 0.40750 -0.24900
C 	C 	0.77348 0.22518 0.45400 0.27300
C 	C 	0.81693 0.23052 0.62170 0.26800
C 	C 	0.83442 0.25341 0.67500 -0.35500
H 	H 	0.83220 0.27600 0.65530 0.11700
H 	H 	0.82410 0.25250 0.72680 0.12900
C 	C 	0.87024 0.24507 0.68250 0.15900
H 	H 	0.88020 0.25890 0.72310 -0.02400
H 	H 	0.87250 0.22200 0.69850 -0.01400
C 	C 	0.88848 0.25033 0.60650 -0.36500
H 	H 	0.88450 0.27290 0.58810 0.13200
H 	H 	0.87970 0.23510 0.56720 0.12700
C 	C 	0.92500 0.24500 0.61420 0.29000
H 	H 	0.92900 0.22230 0.63150 -0.06800
H 	H 	0.93360 0.25990 0.65440 -0.07000
C 	C 	0.94300 0.25080 0.54060 -0.63900
H 	H 	0.94880 0.27400 0.53670 0.20300
H 	H 	0.96290 0.23750 0.53990 0.20000
H 	H 	0.92900 0.24470 0.49680 0.19900
Mn	Mn	0.78807 0.28940 0.50330 1.33100
O 	O 	0.82945 0.29772 0.46330 -0.47400
O 	O 	0.81698 0.36474 0.64974 -0.41700
O 	O 	0.74633 0.28661 0.55571 -0.44100
N 	N 	0.79364 0.32373 0.57940 -0.28900
N 	N 	0.76611 0.32847 0.62820 -0.24200
N 	N 	0.76173 0.32350 0.41880 -0.22600
C 	C 	0.85023 0.32156 0.48030 0.29500
C 	C 	0.87860 0.32374 0.43420 -0.26800
H 	H 	0.88220 0.30820 0.39420 0.12100
C 	C 	0.90129 0.34845 0.44690 0.14300
H 	H 	0.92010 0.34980 0.41490 -0.02800
C 	C 	0.89694 0.37102 0.50500 -0.21700
H 	H 	0.91240 0.38800 0.51300 0.10700
C 	C 	0.87005 0.36842 0.55100 0.14000
H 	H 	0.86720 0.38380 0.59150 0.00000
C 	C 	0.84632 0.34398 0.54110 -0.24800
C 	C 	0.81772 0.34433 0.59380 0.27300
C 	C 	0.74288 0.30808 0.60960 0.27400
C 	C 	0.71015 0.31090 0.64800 -0.33700
H 	H 	0.70280 0.28890 0.66470 0.12300
H 	H 	0.71220 0.32480 0.69470 0.11200
C 	C 	0.68464 0.32574 0.59370 0.11900
H 	H 	0.66270 0.32350 0.61740 -0.01300
H 	H 	0.68460 0.31340 0.54450 -0.00600
C 	C 	0.69119 0.36165 0.57660 -0.30300
H 	H 	0.69150 0.37400 0.62580 0.11600
H 	H 	0.71300 0.36380 0.55240 0.11700
C 	C 	0.66545 0.37690 0.52270 0.19200
H 	H 	0.64350 0.37470 0.54650 -0.03100
H 	H 	0.66530 0.36490 0.47290 -0.03500
C 	C 	0.67280 0.41310 0.50790 -0.54600
H 	H 	0.69630 0.41580 0.49790 0.17900
H 	H 	0.66040 0.42060 0.46300 0.17800
H 	H 	0.66660 0.42590 0.55340 0.18300
C 	C 	0.73272 0.31485 0.39390 0.09900
H 	H 	0.72540 0.29320 0.40400 -0.00900
C 	C 	0.71240 0.33570 0.35350 -0.17300
H 	H 	0.69160 0.32840 0.33610 0.07800
C 	C 	0.72280 0.36758 0.33850 0.12100
C 	C 	0.75295 0.37539 0.36340 -0.18000
H 	H 	0.76130 0.39660 0.35240 0.07900
C 	C 	0.77219 0.35400 0.40410 0.09000
H 	H 	0.79310 0.36080 0.42200 -0.01300
C 	C 	0.70110 0.39021 0.29230 -0.13400
H 	H 	0.70900 0.41290 0.29880 0.05900
H 	H 	0.67860 0.38910 0.31320 0.05700
Mn	Mn	0.72013 0.13710 0.77725 1.33300
O 	O 	0.74169 0.10081 0.81712 -0.47800
O 	O 	0.79845 0.13241 0.62454 -0.42700
O 	O 	0.70326 0.17503 0.72398 -0.43500
N 	N 	0.75505 0.14378 0.70170 -0.28600
N 	N 	0.75065 0.17187 0.65540 -0.23700
N 	N 	0.64432 0.44141 0.05690 -0.23000
C 	C 	0.76595 0.08412 0.78670 0.30700
C 	C 	0.77292 0.05363 0.82110 -0.27900
H 	H 	0.76040 0.04650 0.86410 0.13100
C 	C 	0.79765 0.03402 0.79310 0.15000
H 	H 	0.80170 0.01340 0.81640 -0.03400
C 	C 	0.81666 0.04410 0.73150 -0.22200
H 	H 	0.83390 0.03070 0.71310 0.10800
C 	C 	0.81044 0.07346 0.69740 0.14900
H 	H 	0.82370 0.08030 0.65530 0.00300
C 	C 	0.78505 0.09383 0.72280 -0.25400
C 	C 	0.77962 0.12479 0.68190 0.27600
C 	C 	0.72314 0.18603 0.67220 0.26300
C 	C 	0.71221 0.21509 0.62650 -0.29900
H 	H 	0.73100 0.22410 0.59750 0.10800
H 	H 	0.70420 0.23220 0.66230 0.11200
C 	C 	0.68390 0.20560 0.56770 0.04500
H 	H 	0.66460 0.19820 0.59740 0.02000
H 	H 	0.69130 0.18700 0.53550 0.01700
C 	C 	0.67290 0.23540 0.51100 -0.26700
H 	H 	0.66220 0.25280 0.54180 0.10300
H 	H 	0.69250 0.24500 0.48600 0.11100
C 	C 	0.65260 0.22480 0.45760 0.15000
H 	H 	0.63190 0.21620 0.47940 -0.02500
H 	H 	0.66260 0.20840 0.42270 -0.01800
C 	C 	0.64820 0.26130 0.41620 -0.45200
H 	H 	0.66940 0.27230 0.41350 0.15200
H 	H 	0.63310 0.27460 0.44700 0.14600
H 	H 	0.63940 0.25860 0.36390 0.14800
C 	C 	0.63941 0.44359 0.13330 0.09500
H 	H 	0.62320 0.45840 0.15160 -0.00600
C 	C 	0.65655 0.42564 0.18660 -0.17600
H 	H 	0.65210 0.42790 0.24020 0.08200
C 	C 	0.68061 0.40407 0.16090 0.12900
C 	C 	0.68601 0.40251 0.08270 -0.19400
H 	H 	0.70240 0.38840 0.06260 0.09200
C 	C 	0.66773 0.42138 0.03360 0.10600
H 	H 	0.67210 0.42000 0.97970 -0.00300
C 	C 	0.70030 0.38300 0.21580 -0.15400
H 	H 	0.72310 0.38290 0.19700 0.07400
H 	H 	0.69200 0.36030 0.21080 0.06700
Mn	Mn	0.29115 0.67354 0.06816 1.31800
O 	O 	0.26400 0.65502 0.99330 -0.47800
O 	O 	0.27560 0.75450 0.92897 -0.41600
O 	O 	0.31736 0.69942 0.13848 -0.44700
N 	N 	0.28665 0.71597 0.02000 -0.29700
N 	N 	0.30219 0.74180 0.06060 -0.24100
C 	C 	0.25088 0.66818 0.93050 0.29600
C 	C 	0.23022 0.64824 0.88510 -0.27700
H 	H 	0.22530 0.62660 0.90150 0.12400
C 	C 	0.21732 0.65987 0.81770 0.15400
H 	H 	0.20400 0.64580 0.78740 -0.03100
C 	C 	0.22284 0.69115 0.79220 -0.21300
H 	H 	0.21390 0.69860 0.74470 0.10400
C 	C 	0.24192 0.71161 0.83780 0.13700
H 	H 	0.24590 0.73340 0.82090 -0.00200
C 	C 	0.25544 0.70123 0.90750 -0.24900
C 	C 	0.27348 0.72518 0.95400 0.27300
C 	C 	0.31693 0.73052 0.12170 0.26800
C 	C 	0.33442 0.75341 0.17500 -0.35500
H 	H 	0.33220 0.77600 0.15530 0.11700
H 	H 	0.32410 0.75250 0.22680 0.12900
C 	C 	0.37024 0.74507 0.18250 0.15900
H 	H 	0.38020 0.75890 0.22310 -0.02400
H 	H 	0.37250 0.72200 0.19850 -0.01400
C 	C 	0.38848 0.75033 0.10650 -0.36600
H 	H 	0.38450 0.77290 0.08810 0.13200
H 	H 	0.37970 0.73510 0.06720 0.12700
C 	C 	0.42500 0.74500 0.11420 0.29200
H 	H 	0.42900 0.72230 0.13150 -0.06900
H 	H 	0.43360 0.75990 0.15440 -0.07100
C 	C 	0.44300 0.75080 0.04060 -0.64200
H 	H 	0.44880 0.77400 0.03670 0.20400
H 	H 	0.46290 0.73750 0.03990 0.20100
H 	H 	0.42900 0.74470 0.99680 0.20100
Mn	Mn	0.28807 0.78940 0.00330 1.33100
O 	O 	0.32945 0.79772 0.96330 -0.47400
O 	O 	0.31698 0.86474 0.14974 -0.41700
O 	O 	0.24633 0.78661 0.05571 -0.44100
N 	N 	0.29364 0.82373 0.07940 -0.28900
N 	N 	0.26611 0.82847 0.12820 -0.24200
N 	N 	0.26173 0.82350 0.91880 -0.22600
C 	C 	0.35023 0.82156 0.98030 0.29600
C 	C 	0.37860 0.82374 0.93420 -0.26900
H 	H 	0.38220 0.80820 0.89420 0.12100
C 	C 	0.40129 0.84845 0.94690 0.14400
H 	H 	0.42010 0.84980 0.91490 -0.02800
C 	C 	0.39694 0.87102 0.00500 -0.21900
H 	H 	0.41240 0.88800 0.01300 0.10800
C 	C 	0.37005 0.86842 0.05100 0.14100
H 	H 	0.36720 0.88380 0.09150 -0.00000
C 	C 	0.34632 0.84398 0.04110 -0.24900
C 	C 	0.31772 0.84433 0.09380 0.27300
C 	C 	0.24288 0.80808 0.10960 0.27400
C 	C 	0.21015 0.81090 0.14800 -0.33700
H 	H 	0.20280 0.78890 0.16470 0.12300
H 	H 	0.21220 0.82480 0.19470 0.11200
C 	C 	0.18464 0.82574 0.09370 0.11900
H 	H 	0.16270 0.82350 0.11740 -0.01300
H 	H 	0.18460 0.81340 0.04450 -0.00600
C 	C 	0.19119 0.86165 0.07660 -0.30300
H 	H 	0.19150 0.87400 0.12580 0.11600
H 	H 	0.21300 0.86380 0.05240 0.11600
C 	C 	0.16545 0.87690 0.02270 0.19100
H 	H 	0.14350 0.87470 0.04650 -0.03100
H 	H 	0.16530 0.86490 0.97290 -0.03400
C 	C 	0.17280 0.91310 0.00790 -0.54700
H 	H 	0.19630 0.91580 0.99790 0.17900
H 	H 	0.16040 0.92060 0.96300 0.17800
H 	H 	0.16660 0.92590 0.05340 0.18300
C 	C 	0.23272 0.81485 0.89390 0.09900
H 	H 	0.22540 0.79320 0.90400 -0.00900
C 	C 	0.21240 0.83570 0.85350 -0.17300
H 	H 	0.19160 0.82840 0.83610 0.07800
C 	C 	0.22280 0.86758 0.83850 0.12100
C 	C 	0.25295 0.87539 0.86340 -0.18000
H 	H 	0.26130 0.89660 0.85240 0.07900
C 	C 	0.27219 0.85400 0.90410 0.09000
H 	H 	0.29310 0.86080 0.92200 -0.01300
C 	C 	0.20110 0.89021 0.79230 -0.13400
H 	H 	0.20900 0.91290 0.79880 0.05900
H 	H 	0.17860 0.88910 0.81320 0.05700
Mn	Mn	0.22013 0.63710 0.27725 1.33300
O 	O 	0.24169 0.60081 0.31712 -0.47800
O 	O 	0.29845 0.63241 0.12454 -0.42700
O 	O 	0.20326 0.67503 0.22398 -0.43500
N 	N 	0.25505 0.64378 0.20170 -0.28600
N 	N 	0.25065 0.67187 0.15540 -0.23700
N 	N 	0.14432 0.94141 0.55690 -0.23000
C 	C 	0.26595 0.58412 0.28670 0.30700
C 	C 	0.27292 0.55363 0.32110 -0.27900
H 	H 	0.26040 0.54650 0.36410 0.13100
C 	C 	0.29765 0.53402 0.29310 0.15000
H 	H 	0.30170 0.51340 0.31640 -0.03400
C 	C 	0.31666 0.54410 0.23150 -0.22200
H 	H 	0.33390 0.53070 0.21310 0.10800
C 	C 	0.31044 0.57346 0.19740 0.14900
H 	H 	0.32370 0.58030 0.15530 0.00300
C 	C 	0.28505 0.59383 0.22280 -0.25400
C 	C 	0.27962 0.62479 0.18190 0.27600
C 	C 	0.22314 0.68603 0.17220 0.26400
C 	C 	0.21221 0.71509 0.12650 -0.29900
H 	H 	0.23100 0.72410 0.09750 0.10800
H 	H 	0.20420 0.73220 0.16230 0.11300
C 	C 	0.18390 0.70560 0.06770 0.04700
H 	H 	0.16460 0.69820 0.09740 0.01900
H 	H 	0.19130 0.68700 0.03550 0.01600
C 	C 	0.17290 0.73540 0.01100 -0.27100
H 	H 	0.16220 0.75280 0.04180 0.10400
H 	H 	0.19250 0.74500 0.98600 0.11300
C 	C 	0.15260 0.72480 0.95760 0.15400
H 	H 	0.13190 0.71620 0.97940 -0.02600
H 	H 	0.16260 0.70840 0.92270 -0.01900
C 	C 	0.14820 0.76130 0.91620 -0.45400
H 	H 	0.16940 0.77230 0.91350 0.15300
H 	H 	0.13310 0.77460 0.94700 0.14700
H 	H 	0.13940 0.75860 0.86390 0.14800
C 	C 	0.13941 0.94359 0.63330 0.09500
H 	H 	0.12320 0.95840 0.65160 -0.00600
C 	C 	0.15655 0.92564 0.68660 -0.17500
H 	H 	0.15210 0.92790 0.74020 0.08200
C 	C 	0.18061 0.90407 0.66090 0.12800
C 	C 	0.18601 0.90251 0.58270 -0.19300
H 	H 	0.20240 0.88840 0.56260 0.09200
C 	C 	0.16773 0.92138 0.53360 0.10500
H 	H 	0.17210 0.92000 0.47970 -0.00300
C 	C 	0.20030 0.88300 0.71580 -0.15400
H 	H 	0.22310 0.88290 0.69700 0.07400
H 	H 	0.19200 0.86030 0.71080 0.06700
Mn	Mn	0.70885 0.82646 0.06816 1.31800
O 	O 	0.73600 0.84498 0.99330 -0.47800
O 	O 	0.72440 0.74550 0.92897 -0.41600
O 	O 	0.68264 0.80058 0.13848 -0.44700
N 	N 	0.71335 0.78403 0.02000 -0.29700
N 	N 	0.69781 0.75820 0.06060 -0.24100
C 	C 	0.74912 0.83182 0.93050 0.29600
C 	C 	0.76978 0.85176 0.88510 -0.27700
H 	H 	0.77470 0.87340 0.90150 0.12400
C 	C 	0.78268 0.84013 0.81770 0.15400
H 	H 	0.79600 0.85420 0.78740 -0.03100
C 	C 	0.77716 0.80885 0.79220 -0.21300
H 	H 	0.78610 0.80140 0.74470 0.10400
C 	C 	0.75808 0.78839 0.83780 0.13700
H 	H 	0.75410 0.76660 0.82090 -0.00200
C 	C 	0.74456 0.79877 0.90750 -0.24900
C 	C 	0.72652 0.77482 0.95400 0.27300
C 	C 	0.68307 0.76948 0.12170 0.26800
C 	C 	0.66558 0.74659 0.17500 -0.35500
H 	H 	0.66780 0.72400 0.15530 0.11700
H 	H 	0.67590 0.74750 0.22680 0.12900
C 	C 	0.62976 0.75493 0.18250 0.15900
H 	H 	0.61980 0.74110 0.22310 -0.02400
H 	H 	0.62750 0.77800 0.19850 -0.01400
C 	C 	0.61152 0.74967 0.10650 -0.36600
H 	H 	0.61550 0.72710 0.08810 0.13200
H 	H 	0.62030 0.76490 0.06720 0.12700
C 	C 	0.57500 0.75500 0.11420 0.29200
H 	H 	0.57100 0.77770 0.13150 -0.06900
H 	H 	0.56640 0.74010 0.15440 -0.07100
C 	C 	0.55700 0.74920 0.04060 -0.64200
H 	H 	0.55120 0.72600 0.03670 0.20400
H 	H 	0.53710 0.76250 0.03990 0.20100
H 	H 	0.57100 0.75530 0.99680 0.20100
Mn	Mn	0.71193 0.71060 0.00330 1.33100
O 	O 	0.67055 0.70228 0.96330 -0.47400
O 	O 	0.68302 0.63526 0.14974 -0.41700
O 	O 	0.75367 0.71339 0.05571 -0.44100
N 	N 	0.70636 0.67627 0.07940 -0.28900
N 	N 	0.73389 0.67153 0.12820 -0.24200
N 	N 	0.73827 0.67650 0.91880 -0.22600
C 	C 	0.64977 0.67844 0.98030 0.29600
C 	C 	0.62140 0.67626 0.93420 -0.26900
H 	H 	0.61780 0.69180 0.89420 0.12100
C 	C 	0.59871 0.65155 0.94690 0.14400
H 	H 	0.57990 0.65020 0.91490 -0.02800
C 	C 	0.60306 0.62898 0.00500 -0.21900
H 	H 	0.58760 0.61200 0.01300 0.10800
C 	C 	0.62995 0.63158 0.05100 0.14100
H 	H 	0.63280 0.61620 0.09150 -0.00000
C 	C 	0.65368 0.65602 0.04110 -0.24900
C 	C 	0.68228 0.65567 0.09380 0.27300
C 	C 	0.75712 0.69192 0.10960 0.27400
C 	C 	0.78985 0.68910 0.14800 -0.33700
H 	H 	0.79720 0.71110 0.16470 0.12300
H 	H 	0.78780 0.67520 0.19470 0.11200
C 	C 	0.81536 0.67426 0.09370 0.11900
H 	H 	0.83730 0.67650 0.11740 -0.01300
H 	H 	0.81540 0.68660 0.04450 -0.00600
C 	C 	0.80881 0.63835 0.07660 -0.30300
H 	H 	0.80850 0.62600 0.12580 0.11600
H 	H 	0.78700 0.63620 0.05240 0.11600
C 	C 	0.83455 0.62310 0.02270 0.19100
H 	H 	0.85650 0.62530 0.04650 -0.03100
H 	H 	0.83470 0.63510 0.97290 -0.03400
C 	C 	0.82720 0.58690 0.00790 -0.54700
H 	H 	0.80370 0.58420 0.99790 0.17900
H 	H 	0.83960 0.57940 0.96300 0.17800
H 	H 	0.83340 0.57410 0.05340 0.18300
C 	C 	0.76728 0.68515 0.89390 0.09900
H 	H 	0.77460 0.70680 0.90400 -0.00900
C 	C 	0.78760 0.66430 0.85350 -0.17300
H 	H 	0.80840 0.67160 0.83610 0.07800
C 	C 	0.77720 0.63242 0.83850 0.12100
C 	C 	0.74705 0.62461 0.86340 -0.18000
H 	H 	0.73870 0.60340 0.85240 0.07900
C 	C 	0.72781 0.64600 0.90410 0.09000
H 	H 	0.70690 0.63920 0.92200 -0.01300
C 	C 	0.79890 0.60979 0.79230 -0.13400
H 	H 	0.79100 0.58710 0.79880 0.05900
H 	H 	0.82140 0.61090 0.81320 0.05700
Mn	Mn	0.77987 0.86290 0.27725 1.33300
O 	O 	0.75831 0.89919 0.31712 -0.47800
O 	O 	0.70155 0.86759 0.12454 -0.42700
O 	O 	0.79674 0.82497 0.22398 -0.43500
N 	N 	0.74495 0.85622 0.20170 -0.28600
N 	N 	0.74935 0.82813 0.15540 -0.23700
N 	N 	0.85568 0.55859 0.55690 -0.23000
C 	C 	0.73405 0.91588 0.28670 0.30700
C 	C 	0.72708 0.94637 0.32110 -0.27900
H 	H 	0.73960 0.95350 0.36410 0.13100
C 	C 	0.70235 0.96598 0.29310 0.15000
H 	H 	0.69830 0.98660 0.31640 -0.03400
C 	C 	0.68334 0.95590 0.23150 -0.22200
H 	H 	0.66610 0.96930 0.21310 0.10800
C 	C 	0.68956 0.92654 0.19740 0.14900
H 	H 	0.67630 0.91970 0.15530 0.00300
C 	C 	0.71495 0.90617 0.22280 -0.25400
C 	C 	0.72038 0.87521 0.18190 0.27600
C 	C 	0.77686 0.81397 0.17220 0.26400
C 	C 	0.78779 0.78491 0.12650 -0.29900
H 	H 	0.76900 0.77590 0.09750 0.10800
H 	H 	0.79580 0.76780 0.16230 0.11300
C 	C 	0.81610 0.79440 0.06770 0.04700
H 	H 	0.83540 0.80180 0.09740 0.01900
H 	H 	0.80870 0.81300 0.03550 0.01600
C 	C 	0.82710 0.76460 0.01100 -0.27100
H 	H 	0.83780 0.74720 0.04180 0.10400
H 	H 	0.80750 0.75500 0.98600 0.11300
C 	C 	0.84740 0.77520 0.95760 0.15400
H 	H 	0.86810 0.78380 0.97940 -0.02600
H 	H 	0.83740 0.79160 0.92270 -0.01900
C 	C 	0.85180 0.73870 0.91620 -0.45400
H 	H 	0.83060 0.72770 0.91350 0.15300
H 	H 	0.86690 0.72540 0.94700 0.14700
H 	H 	0.86060 0.74140 0.86390 0.14800
C 	C 	0.86059 0.55641 0.63330 0.09500
H 	H 	0.87680 0.54160 0.65160 -0.00600
C 	C 	0.84345 0.57436 0.68660 -0.17500
H 	H 	0.84790 0.57210 0.74020 0.08200
C 	C 	0.81939 0.59593 0.66090 0.12800
C 	C 	0.81399 0.59749 0.58270 -0.19300
H 	H 	0.79760 0.61160 0.56260 0.09200
C 	C 	0.83227 0.57862 0.53360 0.10500
H 	H 	0.82790 0.58000 0.47970 -0.00300
C 	C 	0.79970 0.61700 0.71580 -0.15400
H 	H 	0.77690 0.61710 0.69700 0.07400
H 	H 	0.80800 0.63970 0.71080 0.06700
Mn	Mn	0.20885 0.32646 0.56816 1.31800
O 	O 	0.23600 0.34498 0.49330 -0.47800
O 	O 	0.22440 0.24550 0.42897 -0.41600
O 	O 	0.18264 0.30058 0.63848 -0.44700
N 	N 	0.21335 0.28403 0.52000 -0.29700
N 	N 	0.19781 0.25820 0.56060 -0.24100
C 	C 	0.24912 0.33182 0.43050 0.29600
C 	C 	0.26978 0.35176 0.38510 -0.27700
H 	H 	0.27470 0.37340 0.40150 0.12400
C 	C 	0.28268 0.34013 0.31770 0.15400
H 	H 	0.29600 0.35420 0.28740 -0.03100
C 	C 	0.27716 0.30885 0.29220 -0.21300
H 	H 	0.28610 0.30140 0.24470 0.10400
C 	C 	0.25808 0.28839 0.33780 0.13600
H 	H 	0.25410 0.26660 0.32090 -0.00200
C 	C 	0.24456 0.29877 0.40750 -0.24900
C 	C 	0.22652 0.27482 0.45400 0.27300
C 	C 	0.18307 0.26948 0.62170 0.26800
C 	C 	0.16558 0.24659 0.67500 -0.35500
H 	H 	0.16780 0.22400 0.65530 0.11700
H 	H 	0.17590 0.24750 0.72680 0.12900
C 	C 	0.12976 0.25493 0.68250 0.15900
H 	H 	0.11980 0.24110 0.72310 -0.02400
H 	H 	0.12750 0.27800 0.69850 -0.01400
C 	C 	0.11152 0.24967 0.60650 -0.36500
H 	H 	0.11550 0.22710 0.58810 0.13200
H 	H 	0.12030 0.26490 0.56720 0.12700
C 	C 	0.07500 0.25500 0.61420 0.29000
H 	H 	0.07100 0.27770 0.63150 -0.06800
H 	H 	0.06640 0.24010 0.65440 -0.07000
C 	C 	0.05700 0.24920 0.54060 -0.63900
H 	H 	0.05120 0.22600 0.53670 0.20300
H 	H 	0.03710 0.26250 0.53990 0.20000
H 	H 	0.07100 0.25530 0.49680 0.19900
Mn	Mn	0.21193 0.21060 0.50330 1.33100
O 	O 	0.17055 0.20228 0.46330 -0.47400
O 	O 	0.18302 0.13526 0.64974 -0.41700
O 	O 	0.25367 0.21339 0.55571 -0.44100
N 	N 	0.20636 0.17627 0.57940 -0.28900
N 	N 	0.23389 0.17153 0.62820 -0.24200
N 	N 	0.23827 0.17650 0.41880 -0.22600
C 	C 	0.14977 0.17844 0.48030 0.29500
C 	C 	0.12140 0.17626 0.43420 -0.26800
H 	H 	0.11780 0.19180 0.39420 0.12100
C 	C 	0.09871 0.15155 0.44690 0.14300
H 	H 	0.07990 0.15020 0.41490 -0.02800
C 	C 	0.10306 0.12898 0.50500 -0.21700
H 	H 	0.08760 0.11200 0.51300 0.10700
C 	C 	0.12995 0.13158 0.55100 0.14000
H 	H 	0.13280 0.11620 0.59150 0.00000
C 	C 	0.15368 0.15602 0.54110 -0.24800
C 	C 	0.18228 0.15567 0.59380 0.27300
C 	C 	0.25712 0.19192 0.60960 0.27400
C 	C 	0.28985 0.18910 0.64800 -0.33700
H 	H 	0.29720 0.21110 0.66470 0.12300
H 	H 	0.28780 0.17520 0.69470 0.11200
C 	C 	0.31536 0.17426 0.59370 0.11900
H 	H 	0.33730 0.17650 0.61740 -0.01300
H 	H 	0.31540 0.18660 0.54450 -0.00600
C 	C 	0.30881 0.13835 0.57660 -0.30300
H 	H 	0.30850 0.12600 0.62580 0.11600
H 	H 	0.28700 0.13620 0.55240 0.11700
C 	C 	0.33455 0.12310 0.52270 0.19200
H 	H 	0.35650 0.12530 0.54650 -0.03100
H 	H 	0.33470 0.13510 0.47290 -0.03500
C 	C 	0.32720 0.08690 0.50790 -0.54600
H 	H 	0.30370 0.08420 0.49790 0.17900
H 	H 	0.33960 0.07940 0.46300 0.17800
H 	H 	0.33340 0.07410 0.55340 0.18300
C 	C 	0.26728 0.18515 0.39390 0.09900
H 	H 	0.27460 0.20680 0.40400 -0.00900
C 	C 	0.28760 0.16430 0.35350 -0.17300
H 	H 	0.30840 0.17160 0.33610 0.07800
C 	C 	0.27720 0.13242 0.33850 0.12100
C 	C 	0.24705 0.12461 0.36340 -0.18000
H 	H 	0.23870 0.10340 0.35240 0.07900
C 	C 	0.22781 0.14600 0.40410 0.09000
H 	H 	0.20690 0.13920 0.42200 -0.01300
C 	C 	0.29890 0.10979 0.29230 -0.13400
H 	H 	0.29100 0.08710 0.29880 0.05900
H 	H 	0.32140 0.11090 0.31320 0.05700
Mn	Mn	0.27987 0.36290 0.77725 1.33300
O 	O 	0.25831 0.39919 0.81712 -0.47800
O 	O 	0.20155 0.36759 0.62454 -0.42700
O 	O 	0.29674 0.32497 0.72398 -0.43500
N 	N 	0.24495 0.35622 0.70170 -0.28600
N 	N 	0.24935 0.32813 0.65540 -0.23700
N 	N 	0.35568 0.05859 0.05690 -0.23000
C 	C 	0.23405 0.41588 0.78670 0.30700
C 	C 	0.22708 0.44637 0.82110 -0.27900
H 	H 	0.23960 0.45350 0.86410 0.13100
C 	C 	0.20235 0.46598 0.79310 0.15000
H 	H 	0.19830 0.48660 0.81640 -0.03400
C 	C 	0.18334 0.45590 0.73150 -0.22200
H 	H 	0.16610 0.46930 0.71310 0.10800
C 	C 	0.18956 0.42654 0.69740 0.14900
H 	H 	0.17630 0.41970 0.65530 0.00300
C 	C 	0.21495 0.40617 0.72280 -0.25400
C 	C 	0.22038 0.37521 0.68190 0.27600
C 	C 	0.27686 0.31397 0.67220 0.26300
C 	C 	0.28779 0.28491 0.62650 -0.29900
H 	H 	0.26900 0.27590 0.59750 0.10800
H 	H 	0.29580 0.26780 0.66230 0.11200
C 	C 	0.31610 0.29440 0.56770 0.04500
H 	H 	0.33540 0.30180 0.59740 0.02000
H 	H 	0.30870 0.31300 0.53550 0.01700
C 	C 	0.32710 0.26460 0.51100 -0.26700
H 	H 	0.33780 0.24720 0.54180 0.10300
H 	H 	0.30750 0.25500 0.48600 0.11100
C 	C 	0.34740 0.27520 0.45760 0.15000
H 	H 	0.36810 0.28380 0.47940 -0.02500
H 	H 	0.33740 0.29160 0.42270 -0.01800
C 	C 	0.35180 0.23870 0.41620 -0.45200
H 	H 	0.33060 0.22770 0.41350 0.15200
H 	H 	0.36690 0.22540 0.44700 0.14600
H 	H 	0.36060 0.24140 0.36390 0.14800
C 	C 	0.36059 0.05641 0.13330 0.09500
H 	H 	0.37680 0.04160 0.15160 -0.00600
C 	C 	0.34345 0.07436 0.18660 -0.17600
H 	H 	0.34790 0.07210 0.24020 0.08200
C 	C 	0.31939 0.09593 0.16090 0.12900
C 	C 	0.31399 0.09749 0.08270 -0.19400
H 	H 	0.29760 0.11160 0.06260 0.09200
C 	C 	0.33227 0.07862 0.03360 0.10600
H 	H 	0.32790 0.08000 0.97970 -0.00300
C 	C 	0.29970 0.11700 0.21580 -0.15400
H 	H 	0.27690 0.11710 0.19700 0.07400
H 	H 	0.30800 0.13970 0.21080 0.06700
