data_crystal

_cell_length_a 17.41320
_cell_length_b 30.00580
_cell_length_c 30.00580
_cell_angle_alpha 85.17020
_cell_angle_beta  73.13220
_cell_angle_gamma 73.13220

_symmetry_space_group_name_	'P 1'
_symmetry_space_group_name_H-M	'P 1'

loop_
_symmetry_equiv_pos_as_xyz
  x,y,z

loop_
_atom_site_label
_atom_site_type_symbol
_atom_site_fract_x
_atom_site_fract_y
_atom_site_fract_z
_atom_site_charge
Mn	Mn	0.37312 0.87948 0.02894 1.31900
Mn	Mn	0.29325 0.00181 0.92077 1.33500
Mn	Mn	0.49675 0.91596 0.14278 1.33500
Mn	Mn	0.78154 0.62052 0.47106 1.31900
Mn	Mn	0.71583 0.49819 0.57923 1.33500
Mn	Mn	0.05549 0.58404 0.35722 1.33500
Mn	Mn	0.40206 0.97106 0.37948 1.31900
Mn	Mn	0.21402 0.07923 0.50181 1.33500
Mn	Mn	0.63953 0.85722 0.41596 1.33500
Mn	Mn	0.25260 0.52894 0.12052 1.31900
Mn	Mn	0.29506 0.42077 0.99819 1.33500
Mn	Mn	0.41271 0.64278 0.08404 1.33500
Mn	Mn	0.62688 0.12052 0.97106 1.31900
Mn	Mn	0.70675 0.99819 0.07923 1.33500
Mn	Mn	0.50325 0.08404 0.85722 1.33500
Mn	Mn	0.21846 0.37948 0.52894 1.31900
Mn	Mn	0.28417 0.50181 0.42077 1.33500
Mn	Mn	0.94451 0.41596 0.64278 1.33500
Mn	Mn	0.59794 0.02894 0.62052 1.31900
Mn	Mn	0.78598 0.92077 0.49819 1.33500
Mn	Mn	0.36047 0.14278 0.58404 1.33500
Mn	Mn	0.74740 0.47106 0.87948 1.31900
Mn	Mn	0.70494 0.57923 0.00181 1.33500
Mn	Mn	0.58729 0.35722 0.91596 1.33500
H 	H 	0.14630 0.89080 0.14300 0.14300
H 	H 	0.01320 0.93420 0.15100 -0.04000
H 	H 	0.97270 0.97860 0.09140 0.11300
H 	H 	0.07810 0.98320 0.02040 -0.00400
H 	H 	0.52300 0.95170 0.90710 0.07100
H 	H 	0.48710 0.92680 0.87600 0.05700
H 	H 	0.58260 0.85970 0.87630 0.09700
H 	H 	0.63320 0.89760 0.87020 0.09500
H 	H 	0.60530 0.87420 0.92000 0.10600
H 	H 	0.28120 0.92780 0.80600 0.13700
H 	H 	0.34430 0.92760 0.72740 -0.04100
H 	H 	0.44070 0.97110 0.69730 0.11300
H 	H 	0.47470 0.01070 0.74810 -0.01200
H 	H 	0.38090 0.12560 0.95840 0.05100
H 	H 	0.39490 0.08660 0.99720 0.06100
H 	H 	0.24400 0.10510 0.02550 0.11200
H 	H 	0.28510 0.14350 0.03470 0.09700
H 	H 	0.24220 0.15050 0.99310 0.10200
H 	H 	0.13340 0.06880 0.98040 -0.01700
H 	H 	0.02690 0.13790 0.97790 0.10200
H 	H 	0.11000 0.13310 0.84210 0.12800
H 	H 	0.21260 0.06710 0.84890 -0.04100
H 	H 	0.96650 0.17480 0.87040 0.08200
H 	H 	0.99990 0.20790 0.89450 0.07900
H 	H 	0.61650 0.78430 0.19690 0.14000
H 	H 	0.61260 0.70980 0.18840 -0.03400
H 	H 	0.54500 0.69390 0.13630 0.11500
H 	H 	0.48380 0.75420 0.09460 0.00400
H 	H 	0.34560 0.99160 0.03580 0.07300
H 	H 	0.37820 0.02710 0.05770 0.08500
H 	H 	0.24040 0.99300 0.11960 0.10400
H 	H 	0.21610 0.03630 0.08650 0.10300
H 	H 	0.25920 0.04090 0.12570 0.10300
H 	H 	0.65680 0.24800 0.91060 -0.00400
H 	H 	0.76590 0.18640 0.92080 0.09300
H 	H 	0.88430 0.28020 0.93060 0.08600
H 	H 	0.77240 0.33780 0.92240 -0.01300
H 	H 	0.89170 0.15840 0.94000 0.06100
H 	H 	0.92330 0.19320 0.96300 0.05300
H 	H 	0.68010 0.60920 0.35700 0.14200
H 	H 	0.59840 0.56580 0.34900 -0.04200
H 	H 	0.54270 0.52140 0.40860 0.11400
H 	H 	0.58170 0.51680 0.47960 -0.00500
H 	H 	0.88180 0.54830 0.59290 0.06900
H 	H 	0.78990 0.57320 0.62400 0.05600
H 	H 	0.81860 0.64030 0.62370 0.09700
H 	H 	0.90100 0.60240 0.62980 0.09500
H 	H 	0.89950 0.62580 0.58000 0.10600
H 	H 	0.51500 0.57220 0.69400 0.13600
H 	H 	0.49930 0.57240 0.77260 -0.04100
H 	H 	0.60910 0.52890 0.80270 0.11200
H 	H 	0.73350 0.48930 0.75190 -0.01100
H 	H 	0.96490 0.37440 0.54160 0.05000
H 	H 	0.97870 0.41340 0.50280 0.06000
H 	H 	0.87460 0.39490 0.47450 0.11500
H 	H 	0.96330 0.35650 0.46530 0.09900
H 	H 	0.88580 0.34950 0.50690 0.10500
H 	H 	0.68260 0.43120 0.51960 -0.01600
H 	H 	0.64270 0.36210 0.52210 0.10300
H 	H 	0.58520 0.36690 0.65790 0.12800
H 	H 	0.62860 0.43290 0.65110 -0.04100
H 	H 	0.51170 0.32520 0.62960 0.08200
H 	H 	0.60230 0.29210 0.60550 0.07900
H 	H 	0.09770 0.71570 0.30310 0.14000
H 	H 	0.01080 0.79020 0.31160 -0.03300
H 	H 	0.87520 0.80610 0.36370 0.11500
H 	H 	0.83260 0.74580 0.40540 0.00400
H 	H 	0.87300 0.50840 0.46420 0.07500
H 	H 	0.96300 0.47290 0.44230 0.08600
H 	H 	0.85300 0.50700 0.38040 0.10500
H 	H 	0.83890 0.46370 0.41350 0.10200
H 	H 	0.92580 0.45910 0.37430 0.10300
H 	H 	0.31540 0.25200 0.58940 -0.00400
H 	H 	0.37310 0.31360 0.57920 0.09300
H 	H 	0.59510 0.21980 0.56940 0.08500
H 	H 	0.53260 0.16220 0.57760 -0.01200
H 	H 	0.49010 0.34160 0.56000 0.06000
H 	H 	0.57950 0.30680 0.53700 0.05200
H 	H 	0.28930 0.85700 0.39080 0.14200
H 	H 	0.16420 0.84900 0.43420 -0.04200
H 	H 	0.06410 0.90860 0.47860 0.11400
H 	H 	0.09850 0.97960 0.48320 -0.00500
H 	H 	0.43010 0.09290 0.45170 0.06900
H 	H 	0.36310 0.12400 0.42680 0.05600
H 	H 	0.45890 0.12370 0.35970 0.09700
H 	H 	0.50340 0.12980 0.39760 0.09500
H 	H 	0.52530 0.08000 0.37420 0.10600
H 	H 	0.08720 0.19400 0.42780 0.13700
H 	H 	0.07170 0.27260 0.42760 -0.04100
H 	H 	0.13800 0.30270 0.47110 0.11200
H 	H 	0.22280 0.25190 0.51070 -0.01100
H 	H 	0.33930 0.04160 0.62560 0.05000
H 	H 	0.39210 0.00280 0.58660 0.06100
H 	H 	0.26950 0.97450 0.60510 0.11400
H 	H 	0.31980 0.96530 0.64350 0.09800
H 	H 	0.23530 0.00690 0.65050 0.10400
H 	H 	0.11380 0.01960 0.56880 -0.01600
H 	H 	0.00480 0.02210 0.63790 0.10300
H 	H 	0.95210 0.15790 0.63310 0.12800
H 	H 	0.06150 0.15110 0.56710 -0.04100
H 	H 	0.83690 0.12960 0.67480 0.08200
H 	H 	0.89440 0.10550 0.70790 0.07900
H 	H 	0.81340 0.80310 0.28430 0.14000
H 	H 	0.80100 0.81160 0.20980 -0.03400
H 	H 	0.68130 0.86370 0.19390 0.11500
H 	H 	0.57840 0.90540 0.25420 0.00400
H 	H 	0.38140 0.96420 0.49160 0.07500
H 	H 	0.43590 0.94230 0.52710 0.08600
H 	H 	0.36000 0.88040 0.49300 0.10500
H 	H 	0.30260 0.91350 0.53630 0.10300
H 	H 	0.38490 0.87430 0.54090 0.10300
H 	H 	0.56740 0.08940 0.74800 -0.00400
H 	H 	0.68670 0.07920 0.68640 0.09300
H 	H 	0.81490 0.06940 0.78020 0.08500
H 	H 	0.69480 0.07760 0.83780 -0.01200
H 	H 	0.83170 0.06000 0.65840 0.06000
H 	H 	0.88630 0.03700 0.69320 0.05200
H 	H 	0.03710 0.64300 0.10920 0.14200
H 	H 	0.94740 0.65100 0.06580 -0.04100
H 	H 	0.95130 0.59140 0.02140 0.11400
H 	H 	0.06130 0.52040 0.01680 -0.00500
H 	H 	0.47470 0.40710 0.04830 0.06900
H 	H 	0.41390 0.37600 0.07320 0.05600
H 	H 	0.44230 0.37630 0.14030 0.09700
H 	H 	0.53080 0.37020 0.10240 0.09500
H 	H 	0.47950 0.42000 0.12580 0.10600
H 	H 	0.20900 0.30600 0.07220 0.13700
H 	H 	0.27190 0.22740 0.07240 -0.04100
H 	H 	0.41180 0.19730 0.02890 0.11300
H 	H 	0.48540 0.24810 0.98930 -0.01200
H 	H 	0.50650 0.45840 0.87440 0.05000
H 	H 	0.48150 0.49720 0.91340 0.06000
H 	H 	0.34910 0.52550 0.89490 0.11500
H 	H 	0.42860 0.53470 0.85650 0.09900
H 	H 	0.39270 0.49310 0.84950 0.10500
H 	H 	0.20220 0.48040 0.93120 -0.01600
H 	H 	0.16480 0.47790 0.86210 0.10300
H 	H 	0.24310 0.34210 0.86690 0.12900
H 	H 	0.27970 0.34890 0.93290 -0.04100
H 	H 	0.14130 0.37040 0.82520 0.08200
H 	H 	0.20780 0.39450 0.79210 0.08000
H 	H 	0.40080 0.69690 0.21570 0.14000
H 	H 	0.32240 0.68840 0.29020 -0.03400
H 	H 	0.23890 0.63630 0.30610 0.11500
H 	H 	0.23800 0.59460 0.24580 0.00400
H 	H 	0.33720 0.53580 0.00840 0.07500
H 	H 	0.40530 0.55770 0.97290 0.08600
H 	H 	0.23340 0.61960 0.00700 0.10500
H 	H 	0.25240 0.58650 0.96370 0.10200
H 	H 	0.30010 0.62570 0.95910 0.10300
H 	H 	0.90480 0.41060 0.75200 -0.00400
H 	H 	0.95230 0.42080 0.81360 0.09300
H 	H 	0.16450 0.43060 0.71980 0.08500
H 	H 	0.11020 0.42240 0.66220 -0.01200
H 	H 	0.05010 0.44000 0.84160 0.06000
H 	H 	0.11650 0.46300 0.80680 0.05200
H 	H 	0.85370 0.10920 0.85700 0.14200
H 	H 	0.98680 0.06580 0.84900 -0.04100
H 	H 	0.02730 0.02140 0.90860 0.11200
H 	H 	0.92190 0.01680 0.97960 -0.00500
H 	H 	0.47700 0.04830 0.09290 0.07000
H 	H 	0.51290 0.07320 0.12400 0.05600
H 	H 	0.41740 0.14030 0.12370 0.09700
H 	H 	0.36680 0.10240 0.12980 0.09500
H 	H 	0.39470 0.12580 0.08000 0.10600
H 	H 	0.71880 0.07220 0.19400 0.13700
H 	H 	0.65570 0.07240 0.27260 -0.04100
H 	H 	0.55930 0.02890 0.30270 0.11300
H 	H 	0.52530 0.98930 0.25190 -0.01200
H 	H 	0.61910 0.87440 0.04160 0.05100
H 	H 	0.60510 0.91340 0.00280 0.06100
H 	H 	0.75600 0.89490 0.97450 0.11200
H 	H 	0.71490 0.85650 0.96530 0.09700
H 	H 	0.75780 0.84950 0.00690 0.10200
H 	H 	0.86660 0.93120 0.01960 -0.01700
H 	H 	0.97310 0.86210 0.02210 0.10200
H 	H 	0.89000 0.86690 0.15790 0.12800
H 	H 	0.78740 0.93290 0.15110 -0.04100
H 	H 	0.03350 0.82520 0.12960 0.08200
H 	H 	0.00010 0.79210 0.10550 0.07900
H 	H 	0.38350 0.21570 0.80310 0.14000
H 	H 	0.38740 0.29020 0.81160 -0.03400
H 	H 	0.45500 0.30610 0.86370 0.11500
H 	H 	0.51620 0.24580 0.90540 0.00400
H 	H 	0.65440 0.00840 0.96420 0.07300
H 	H 	0.62180 0.97290 0.94230 0.08500
H 	H 	0.75960 0.00700 0.88040 0.10400
H 	H 	0.78390 0.96370 0.91350 0.10300
H 	H 	0.74080 0.95910 0.87430 0.10300
H 	H 	0.34320 0.75200 0.08940 -0.00400
H 	H 	0.23410 0.81360 0.07920 0.09300
H 	H 	0.11570 0.71980 0.06940 0.08600
H 	H 	0.22760 0.66220 0.07760 -0.01300
H 	H 	0.10830 0.84160 0.06000 0.06100
H 	H 	0.07670 0.80680 0.03700 0.05300
H 	H 	0.31990 0.39080 0.64300 0.14200
H 	H 	0.40160 0.43420 0.65100 -0.04200
H 	H 	0.45730 0.47860 0.59140 0.11400
H 	H 	0.41830 0.48320 0.52040 -0.00500
H 	H 	0.11820 0.45170 0.40710 0.06900
H 	H 	0.21010 0.42680 0.37600 0.05600
H 	H 	0.18140 0.35970 0.37630 0.09700
H 	H 	0.09900 0.39760 0.37020 0.09500
H 	H 	0.10050 0.37420 0.42000 0.10600
H 	H 	0.48500 0.42780 0.30600 0.13600
H 	H 	0.50070 0.42760 0.22740 -0.04100
H 	H 	0.39090 0.47110 0.19730 0.11200
H 	H 	0.26650 0.51070 0.24810 -0.01100
H 	H 	0.03510 0.62560 0.45840 0.05000
H 	H 	0.02130 0.58660 0.49720 0.06000
H 	H 	0.12540 0.60510 0.52550 0.11500
H 	H 	0.03670 0.64350 0.53470 0.09900
H 	H 	0.11420 0.65050 0.49310 0.10500
H 	H 	0.31740 0.56880 0.48040 -0.01600
H 	H 	0.35730 0.63790 0.47790 0.10300
H 	H 	0.41480 0.63310 0.34210 0.12800
H 	H 	0.37140 0.56710 0.34890 -0.04100
H 	H 	0.48830 0.67480 0.37040 0.08200
H 	H 	0.39770 0.70790 0.39450 0.07900
H 	H 	0.90230 0.28430 0.69690 0.14000
H 	H 	0.98920 0.20980 0.68840 -0.03300
H 	H 	0.12480 0.19390 0.63630 0.11500
H 	H 	0.16740 0.25420 0.59460 0.00400
H 	H 	0.12700 0.49160 0.53580 0.07500
H 	H 	0.03700 0.52710 0.55770 0.08600
H 	H 	0.14700 0.49300 0.61960 0.10500
H 	H 	0.16110 0.53630 0.58650 0.10200
H 	H 	0.07420 0.54090 0.62570 0.10300
H 	H 	0.68460 0.74800 0.41060 -0.00400
H 	H 	0.62690 0.68640 0.42080 0.09300
H 	H 	0.40490 0.78020 0.43060 0.08500
H 	H 	0.46740 0.83780 0.42240 -0.01200
H 	H 	0.50990 0.65840 0.44000 0.06000
H 	H 	0.42050 0.69320 0.46300 0.05200
H 	H 	0.71070 0.14300 0.60920 0.14200
H 	H 	0.83580 0.15100 0.56580 -0.04200
H 	H 	0.93590 0.09140 0.52140 0.11400
H 	H 	0.90150 0.02040 0.51680 -0.00500
H 	H 	0.56990 0.90710 0.54830 0.06900
H 	H 	0.63690 0.87600 0.57320 0.05600
H 	H 	0.54110 0.87630 0.64030 0.09700
H 	H 	0.49660 0.87020 0.60240 0.09500
H 	H 	0.47470 0.92000 0.62580 0.10600
H 	H 	0.91280 0.80600 0.57220 0.13700
H 	H 	0.92830 0.72740 0.57240 -0.04100
H 	H 	0.86200 0.69730 0.52890 0.11200
H 	H 	0.77720 0.74810 0.48930 -0.01100
H 	H 	0.66070 0.95840 0.37440 0.05000
H 	H 	0.60790 0.99720 0.41340 0.06100
H 	H 	0.73050 0.02550 0.39490 0.11400
H 	H 	0.68020 0.03470 0.35650 0.09800
H 	H 	0.76470 0.99310 0.34950 0.10400
H 	H 	0.88620 0.98040 0.43120 -0.01600
H 	H 	0.99520 0.97790 0.36210 0.10300
H 	H 	0.04790 0.84210 0.36690 0.12800
H 	H 	0.93850 0.84890 0.43290 -0.04100
H 	H 	0.16310 0.87040 0.32520 0.08200
H 	H 	0.10560 0.89450 0.29210 0.07900
H 	H 	0.18660 0.19690 0.71570 0.14000
H 	H 	0.19900 0.18840 0.79020 -0.03400
H 	H 	0.31870 0.13630 0.80610 0.11500
H 	H 	0.42160 0.09460 0.74580 0.00400
H 	H 	0.61860 0.03580 0.50840 0.07500
H 	H 	0.56410 0.05770 0.47290 0.08600
H 	H 	0.64000 0.11960 0.50700 0.10500
H 	H 	0.69740 0.08650 0.46370 0.10300
H 	H 	0.61510 0.12570 0.45910 0.10300
H 	H 	0.43260 0.91060 0.25200 -0.00400
H 	H 	0.31330 0.92080 0.31360 0.09300
H 	H 	0.18510 0.93060 0.21980 0.08500
H 	H 	0.30520 0.92240 0.16220 -0.01200
H 	H 	0.16830 0.94000 0.34160 0.06000
H 	H 	0.11370 0.96300 0.30680 0.05200
H 	H 	0.96290 0.35700 0.89080 0.14200
H 	H 	0.05260 0.34900 0.93420 -0.04100
H 	H 	0.04870 0.40860 0.97860 0.11400
H 	H 	0.93870 0.47960 0.98320 -0.00500
H 	H 	0.52530 0.59290 0.95170 0.06900
H 	H 	0.58610 0.62400 0.92680 0.05600
H 	H 	0.55770 0.62370 0.85970 0.09700
H 	H 	0.46920 0.62980 0.89760 0.09500
H 	H 	0.52050 0.58000 0.87420 0.10600
H 	H 	0.79100 0.69400 0.92780 0.13700
H 	H 	0.72810 0.77260 0.92760 -0.04100
H 	H 	0.58820 0.80270 0.97110 0.11300
H 	H 	0.51460 0.75190 0.01070 -0.01200
H 	H 	0.49350 0.54160 0.12560 0.05000
H 	H 	0.51850 0.50280 0.08660 0.06000
H 	H 	0.65090 0.47450 0.10510 0.11500
H 	H 	0.57140 0.46530 0.14350 0.09900
H 	H 	0.60730 0.50690 0.15050 0.10500
H 	H 	0.79780 0.51960 0.06880 -0.01600
H 	H 	0.83520 0.52210 0.13790 0.10300
H 	H 	0.75690 0.65790 0.13310 0.12900
H 	H 	0.72030 0.65110 0.06710 -0.04100
H 	H 	0.85870 0.62960 0.17480 0.08200
H 	H 	0.79220 0.60550 0.20790 0.08000
H 	H 	0.59920 0.30310 0.78430 0.14000
H 	H 	0.67760 0.31160 0.70980 -0.03400
H 	H 	0.76110 0.36370 0.69390 0.11500
H 	H 	0.76200 0.40540 0.75420 0.00400
H 	H 	0.66280 0.46420 0.99160 0.07500
H 	H 	0.59470 0.44230 0.02710 0.08600
H 	H 	0.76660 0.38040 0.99300 0.10500
H 	H 	0.74760 0.41350 0.03630 0.10200
H 	H 	0.69990 0.37430 0.04090 0.10300
H 	H 	0.09520 0.58940 0.24800 -0.00400
H 	H 	0.04770 0.57920 0.18640 0.09300
H 	H 	0.83550 0.56940 0.28020 0.08500
H 	H 	0.88980 0.57760 0.33780 -0.01200
H 	H 	0.94990 0.56000 0.15840 0.06000
H 	H 	0.88350 0.53700 0.19320 0.05200
C 	C 	0.19749 0.91132 0.07750 0.32600
C 	C 	0.13340 0.91010 0.11790 -0.32100
C 	C 	0.05400 0.93530 0.12230 0.19700
C 	C 	0.02970 0.96220 0.08780 -0.23900
C 	C 	0.09290 0.96500 0.04580 0.15400
C 	C 	0.17547 0.94153 0.04193 -0.27300
C 	C 	0.23524 0.94935 0.99877 0.28800
C 	C 	0.44512 0.91434 0.94582 0.21500
C 	C 	0.51074 0.92243 0.90289 -0.14100
C 	C 	0.58950 0.88540 0.89140 -0.25600
C 	C 	0.33497 0.97112 0.82594 0.32100
C 	C 	0.31970 0.94572 0.79448 -0.29900
C 	C 	0.35731 0.94520 0.74758 0.17500
C 	C 	0.41474 0.97055 0.72977 -0.24300
C 	C 	0.43299 0.99482 0.76020 0.17300
C 	C 	0.39485 0.99734 0.80636 -0.25800
C 	C 	0.41384 0.02661 0.83611 0.26800
C 	C 	0.35150 0.06629 0.94711 0.20600
C 	C 	0.35649 0.10242 0.97840 -0.12400
C 	C 	0.27500 0.12750 0.01070 -0.26800
C 	C 	0.12810 0.08160 0.95100 0.13900
C 	C 	0.06270 0.12180 0.95040 -0.23300
C 	C 	0.05410 0.13660 0.90560 0.22300
C 	C 	0.10940 0.11960 0.87200 -0.31000
C 	C 	0.17230 0.08050 0.87670 0.18800
C 	C 	0.98010 0.17970 0.89910 -0.19500
C 	C 	0.55000 0.81572 0.15248 0.31700
C 	C 	0.58804 0.77877 0.17615 -0.29800
C 	C 	0.58644 0.73439 0.17093 0.16800
C 	C 	0.54657 0.72472 0.14014 -0.22900
C 	C 	0.51029 0.76067 0.11595 0.15800
C 	C 	0.50943 0.80689 0.12045 -0.25700
C 	C 	0.46746 0.84298 0.09370 0.28300
C 	C 	0.40315 0.96142 0.08608 0.22200
C 	C 	0.35120 0.00152 0.06508 -0.17700
C 	C 	0.25700 0.01980 0.10320 -0.26700
C 	C 	0.70361 0.25456 0.91582 0.10700
C 	C 	0.76880 0.21750 0.92150 -0.18700
C 	C 	0.83930 0.22640 0.92800 0.12300
C 	C 	0.83730 0.27230 0.92730 -0.18700
C 	C 	0.77083 0.30645 0.92229 0.10500
C 	C 	0.91000 0.18720 0.93460 -0.11500
C 	C 	0.68631 0.58868 0.42250 0.32600
C 	C 	0.66140 0.58990 0.38210 -0.32100
C 	C 	0.61160 0.56470 0.37770 0.19800
C 	C 	0.57970 0.53780 0.41220 -0.24100
C 	C 	0.60370 0.53500 0.45420 0.15500
C 	C 	0.65893 0.55847 0.45807 -0.27300
C 	C 	0.68336 0.55065 0.50123 0.28700
C 	C 	0.80528 0.58566 0.55418 0.21500
C 	C 	0.83606 0.57757 0.59711 -0.14100
C 	C 	0.86630 0.61460 0.60860 -0.25600
C 	C 	0.63203 0.52888 0.67406 0.32100
C 	C 	0.55990 0.55428 0.70552 -0.29900
C 	C 	0.55009 0.55480 0.75242 0.17400
C 	C 	0.61506 0.52945 0.77023 -0.24200
C 	C 	0.68801 0.50518 0.73980 0.17200
C 	C 	0.69855 0.50266 0.69364 -0.25900
C 	C 	0.77656 0.47339 0.66389 0.26900
C 	C 	0.86490 0.43371 0.55289 0.20400
C 	C 	0.93731 0.39758 0.52160 -0.11800
C 	C 	0.91320 0.37250 0.48930 -0.27800
C 	C 	0.66070 0.41840 0.54900 0.14000
C 	C 	0.63490 0.37820 0.54960 -0.23400
C 	C 	0.59630 0.36340 0.59440 0.22500
C 	C 	0.60100 0.38040 0.62800 -0.31100
C 	C 	0.62950 0.41950 0.62330 0.18900
C 	C 	0.55890 0.32030 0.60090 -0.19700
C 	C 	0.01820 0.68428 0.34752 0.31600
C 	C 	0.04296 0.72123 0.32385 -0.29700
C 	C 	0.99176 0.76561 0.32907 0.16600
C 	C 	0.91143 0.77528 0.35986 -0.22800
C 	C 	0.88691 0.73933 0.38405 0.15700
C 	C 	0.93677 0.69311 0.37955 -0.25600
C 	C 	0.90414 0.65702 0.40630 0.28300
C 	C 	0.95065 0.53858 0.41392 0.22400
C 	C 	0.91780 0.49848 0.43492 -0.18100
C 	C 	0.88000 0.48020 0.39680 -0.26700
C 	C 	0.37399 0.24544 0.58418 0.10700
C 	C 	0.40780 0.28250 0.57850 -0.18600
C 	C 	0.49370 0.27360 0.57200 0.12200
C 	C 	0.53690 0.22770 0.57270 -0.18600
C 	C 	0.49957 0.19355 0.57771 0.10500
C 	C 	0.53180 0.31280 0.56540 -0.11300
C 	C 	0.27499 0.92250 0.41132 0.32600
C 	C 	0.25130 0.88210 0.41010 -0.32100
C 	C 	0.17630 0.87770 0.43530 0.19800
C 	C 	0.11750 0.91220 0.46220 -0.24100
C 	C 	0.13870 0.95420 0.46500 0.15500
C 	C 	0.21740 0.95807 0.44153 -0.27300
C 	C 	0.23401 0.00123 0.44935 0.28800
C 	C 	0.39094 0.05418 0.41434 0.21400
C 	C 	0.41363 0.09711 0.42243 -0.14100
C 	C 	0.48090 0.10860 0.38540 -0.25600
C 	C 	0.16091 0.17406 0.47112 0.32100
C 	C 	0.11418 0.20552 0.44572 -0.29900
C 	C 	0.10489 0.25242 0.44520 0.17400
C 	C 	0.14451 0.27023 0.47055 -0.24200
C 	C 	0.19319 0.23980 0.49482 0.17200
C 	C 	0.20121 0.19364 0.49734 -0.25900
C 	C 	0.24995 0.16389 0.52661 0.26900
C 	C 	0.29861 0.05289 0.56629 0.20500
C 	C 	0.33489 0.02160 0.60242 -0.12000
C 	C 	0.28570 0.98930 0.62750 -0.27400
C 	C 	0.07910 0.04900 0.58160 0.14000
C 	C 	0.01310 0.04960 0.62180 -0.23500
C 	C 	0.95970 0.09440 0.63660 0.22600
C 	C 	0.98140 0.12800 0.61960 -0.31100
C 	C 	0.04900 0.12330 0.58050 0.18800
C 	C 	0.87920 0.10090 0.67970 -0.19700
C 	C 	0.70248 0.84752 0.31572 0.31700
C 	C 	0.76419 0.82385 0.27877 -0.29800
C 	C 	0.75737 0.82907 0.23439 0.16800
C 	C 	0.68671 0.85986 0.22472 -0.22900
C 	C 	0.62624 0.88405 0.26067 0.15800
C 	C 	0.62988 0.87955 0.30689 -0.25700
C 	C 	0.56116 0.90630 0.34298 0.28300
C 	C 	0.48923 0.91392 0.46142 0.22400
C 	C 	0.41628 0.93492 0.50152 -0.18100
C 	C 	0.36020 0.89680 0.51980 -0.26700
C 	C 	0.61943 0.08418 0.75456 0.10700
C 	C 	0.69030 0.07850 0.71750 -0.18600
C 	C 	0.76730 0.07200 0.72640 0.12200
C 	C 	0.76460 0.07270 0.77230 -0.18600
C 	C 	0.69312 0.07771 0.80645 0.10500
C 	C 	0.84460 0.06540 0.68720 -0.11300
C 	C 	0.10881 0.57750 0.08868 0.32600
C 	C 	0.04350 0.61790 0.08990 -0.32000
C 	C 	0.98930 0.62230 0.06470 0.19800
C 	C 	0.99190 0.58780 0.03780 -0.24100
C 	C 	0.05790 0.54580 0.03500 0.15500
C 	C 	0.11700 0.54193 0.05847 -0.27300
C 	C 	0.18459 0.49877 0.05065 0.28700
C 	C 	0.35946 0.44582 0.08566 0.21500
C 	C 	0.43317 0.40289 0.07757 -0.14100
C 	C 	0.47490 0.39140 0.11460 -0.25600
C 	C 	0.30609 0.32594 0.02888 0.32100
C 	C 	0.26542 0.29448 0.05428 -0.29900
C 	C 	0.30251 0.24758 0.05480 0.17500
C 	C 	0.38529 0.22977 0.02945 -0.24300
C 	C 	0.42781 0.26020 0.00518 0.17400
C 	C 	0.39219 0.30636 0.00266 -0.25900
C 	C 	0.44045 0.33611 0.97339 0.26800
C 	C 	0.41779 0.44711 0.93371 0.20400
C 	C 	0.45891 0.47840 0.89758 -0.11800
C 	C 	0.40250 0.51070 0.87250 -0.27800
C 	C 	0.20970 0.45100 0.91840 0.14000
C 	C 	0.18450 0.45040 0.87820 -0.23400
C 	C 	0.19070 0.40560 0.86340 0.22600
C 	C 	0.22900 0.37200 0.88040 -0.31100
C 	C 	0.25280 0.37670 0.91950 0.18900
C 	C 	0.15980 0.39910 0.82030 -0.19700
C 	C 	0.36572 0.65248 0.18428 0.31700
C 	C 	0.36681 0.67615 0.22123 -0.29800
C 	C 	0.32083 0.67093 0.26561 0.16800
C 	C 	0.27129 0.64014 0.27528 -0.22900
C 	C 	0.27096 0.61595 0.23933 0.15800
C 	C 	0.31632 0.62045 0.19311 -0.25700
C 	C 	0.31044 0.59370 0.15702 0.28300
C 	C 	0.36457 0.58608 0.03858 0.22400
C 	C 	0.35272 0.56508 0.99848 -0.18100
C 	C 	0.27680 0.60320 0.98020 -0.26700
C 	C 	0.95817 0.41582 0.74544 0.10700
C 	C 	0.98630 0.42150 0.78250 -0.18600
C 	C 	0.06570 0.42800 0.77360 0.12200
C 	C 	0.10960 0.42730 0.72770 -0.18600
C 	C 	0.07728 0.42229 0.69355 0.10500
C 	C 	0.09720 0.43460 0.81280 -0.11300
C 	C 	0.80251 0.08868 0.92250 0.32600
C 	C 	0.86660 0.08990 0.88210 -0.32100
C 	C 	0.94600 0.06470 0.87770 0.19700
C 	C 	0.97030 0.03780 0.91220 -0.23900
C 	C 	0.90710 0.03500 0.95420 0.15400
C 	C 	0.82453 0.05847 0.95807 -0.27300
C 	C 	0.76476 0.05065 0.00123 0.28800
C 	C 	0.55488 0.08566 0.05418 0.21500
C 	C 	0.48926 0.07757 0.09711 -0.14100
C 	C 	0.41050 0.11460 0.10860 -0.25600
C 	C 	0.66503 0.02888 0.17406 0.32100
C 	C 	0.68030 0.05428 0.20552 -0.29900
C 	C 	0.64269 0.05480 0.25242 0.17500
C 	C 	0.58526 0.02945 0.27023 -0.24300
C 	C 	0.56701 0.00518 0.23980 0.17300
C 	C 	0.60515 0.00266 0.19364 -0.25800
C 	C 	0.58616 0.97339 0.16389 0.26800
C 	C 	0.64850 0.93371 0.05289 0.20600
C 	C 	0.64351 0.89758 0.02160 -0.12400
C 	C 	0.72500 0.87250 0.98930 -0.26800
C 	C 	0.87190 0.91840 0.04900 0.13900
C 	C 	0.93730 0.87820 0.04960 -0.23300
C 	C 	0.94590 0.86340 0.09440 0.22300
C 	C 	0.89060 0.88040 0.12800 -0.31000
C 	C 	0.82770 0.91950 0.12330 0.18800
C 	C 	0.01990 0.82030 0.10090 -0.19500
C 	C 	0.45000 0.18428 0.84752 0.31700
C 	C 	0.41196 0.22123 0.82385 -0.29800
C 	C 	0.41356 0.26561 0.82907 0.16800
C 	C 	0.45343 0.27528 0.85986 -0.22900
C 	C 	0.48971 0.23933 0.88405 0.15800
C 	C 	0.49057 0.19311 0.87955 -0.25700
C 	C 	0.53254 0.15702 0.90630 0.28300
C 	C 	0.59685 0.03858 0.91392 0.22200
C 	C 	0.64880 0.99848 0.93492 -0.17700
C 	C 	0.74300 0.98020 0.89680 -0.26700
C 	C 	0.29639 0.74544 0.08418 0.10700
C 	C 	0.23120 0.78250 0.07850 -0.18700
C 	C 	0.16070 0.77360 0.07200 0.12300
C 	C 	0.16270 0.72770 0.07270 -0.18700
C 	C 	0.22917 0.69355 0.07771 0.10500
C 	C 	0.09000 0.81280 0.06540 -0.11500
C 	C 	0.31369 0.41132 0.57750 0.32600
C 	C 	0.33860 0.41010 0.61790 -0.32100
C 	C 	0.38840 0.43530 0.62230 0.19800
C 	C 	0.42030 0.46220 0.58780 -0.24100
C 	C 	0.39630 0.46500 0.54580 0.15500
C 	C 	0.34107 0.44153 0.54193 -0.27300
C 	C 	0.31664 0.44935 0.49877 0.28700
C 	C 	0.19472 0.41434 0.44582 0.21500
C 	C 	0.16394 0.42243 0.40289 -0.14100
C 	C 	0.13370 0.38540 0.39140 -0.25600
C 	C 	0.36797 0.47112 0.32594 0.32100
C 	C 	0.44010 0.44572 0.29448 -0.29900
C 	C 	0.44991 0.44520 0.24758 0.17400
C 	C 	0.38494 0.47055 0.22977 -0.24200
C 	C 	0.31199 0.49482 0.26020 0.17200
C 	C 	0.30145 0.49734 0.30636 -0.25900
C 	C 	0.22344 0.52661 0.33611 0.26900
C 	C 	0.13510 0.56629 0.44711 0.20400
C 	C 	0.06269 0.60242 0.47840 -0.11800
C 	C 	0.08680 0.62750 0.51070 -0.27800
C 	C 	0.33930 0.58160 0.45100 0.14000
C 	C 	0.36510 0.62180 0.45040 -0.23400
C 	C 	0.40370 0.63660 0.40560 0.22500
C 	C 	0.39900 0.61960 0.37200 -0.31100
C 	C 	0.37050 0.58050 0.37670 0.18900
C 	C 	0.44110 0.67970 0.39910 -0.19700
C 	C 	0.98180 0.31572 0.65248 0.31600
C 	C 	0.95704 0.27877 0.67615 -0.29700
C 	C 	0.00824 0.23439 0.67093 0.16600
C 	C 	0.08857 0.22472 0.64014 -0.22800
C 	C 	0.11309 0.26067 0.61595 0.15700
C 	C 	0.06323 0.30689 0.62045 -0.25600
C 	C 	0.09586 0.34298 0.59370 0.28300
C 	C 	0.04935 0.46142 0.58608 0.22400
C 	C 	0.08220 0.50152 0.56508 -0.18100
C 	C 	0.12000 0.51980 0.60320 -0.26700
C 	C 	0.62601 0.75456 0.41582 0.10700
C 	C 	0.59220 0.71750 0.42150 -0.18600
C 	C 	0.50630 0.72640 0.42800 0.12200
C 	C 	0.46310 0.77230 0.42730 -0.18600
C 	C 	0.50043 0.80645 0.42229 0.10500
C 	C 	0.46820 0.68720 0.43460 -0.11300
C 	C 	0.72501 0.07750 0.58868 0.32600
C 	C 	0.74870 0.11790 0.58990 -0.32100
C 	C 	0.82370 0.12230 0.56470 0.19800
C 	C 	0.88250 0.08780 0.53780 -0.24100
C 	C 	0.86130 0.04580 0.53500 0.15500
C 	C 	0.78260 0.04193 0.55847 -0.27300
C 	C 	0.76599 0.99877 0.55065 0.28800
C 	C 	0.60906 0.94582 0.58566 0.21400
C 	C 	0.58637 0.90289 0.57757 -0.14100
C 	C 	0.51910 0.89140 0.61460 -0.25600
C 	C 	0.83909 0.82594 0.52888 0.32100
C 	C 	0.88582 0.79448 0.55428 -0.29900
C 	C 	0.89511 0.74758 0.55480 0.17400
C 	C 	0.85549 0.72977 0.52945 -0.24200
C 	C 	0.80681 0.76020 0.50518 0.17200
C 	C 	0.79879 0.80636 0.50266 -0.25900
C 	C 	0.75005 0.83611 0.47339 0.26900
C 	C 	0.70139 0.94711 0.43371 0.20500
C 	C 	0.66511 0.97840 0.39758 -0.12000
C 	C 	0.71430 0.01070 0.37250 -0.27400
C 	C 	0.92090 0.95100 0.41840 0.14000
C 	C 	0.98690 0.95040 0.37820 -0.23500
C 	C 	0.04030 0.90560 0.36340 0.22600
C 	C 	0.01860 0.87200 0.38040 -0.31100
C 	C 	0.95100 0.87670 0.41950 0.18800
C 	C 	0.12080 0.89910 0.32030 -0.19700
C 	C 	0.29752 0.15248 0.68428 0.31700
C 	C 	0.23581 0.17615 0.72123 -0.29800
C 	C 	0.24263 0.17093 0.76561 0.16800
C 	C 	0.31329 0.14014 0.77528 -0.22900
C 	C 	0.37376 0.11595 0.73933 0.15800
C 	C 	0.37012 0.12045 0.69311 -0.25700
C 	C 	0.43884 0.09370 0.65702 0.28300
C 	C 	0.51077 0.08608 0.53858 0.22400
C 	C 	0.58372 0.06508 0.49848 -0.18100
C 	C 	0.63980 0.10320 0.48020 -0.26700
C 	C 	0.38057 0.91582 0.24544 0.10700
C 	C 	0.30970 0.92150 0.28250 -0.18600
C 	C 	0.23270 0.92800 0.27360 0.12200
C 	C 	0.23540 0.92730 0.22770 -0.18600
C 	C 	0.30688 0.92229 0.19355 0.10500
C 	C 	0.15540 0.93460 0.31280 -0.11300
C 	C 	0.89119 0.42250 0.91132 0.32600
C 	C 	0.95650 0.38210 0.91010 -0.32000
C 	C 	0.01070 0.37770 0.93530 0.19800
C 	C 	0.00810 0.41220 0.96220 -0.24100
C 	C 	0.94210 0.45420 0.96500 0.15500
C 	C 	0.88300 0.45807 0.94153 -0.27300
C 	C 	0.81541 0.50123 0.94935 0.28700
C 	C 	0.64054 0.55418 0.91434 0.21500
C 	C 	0.56683 0.59711 0.92243 -0.14100
C 	C 	0.52510 0.60860 0.88540 -0.25600
C 	C 	0.69391 0.67406 0.97112 0.32100
C 	C 	0.73458 0.70552 0.94572 -0.29900
C 	C 	0.69749 0.75242 0.94520 0.17500
C 	C 	0.61471 0.77023 0.97055 -0.24300
C 	C 	0.57219 0.73980 0.99482 0.17400
C 	C 	0.60781 0.69364 0.99734 -0.25900
C 	C 	0.55955 0.66389 0.02661 0.26800
C 	C 	0.58221 0.55289 0.06629 0.20400
C 	C 	0.54109 0.52160 0.10242 -0.11800
C 	C 	0.59750 0.48930 0.12750 -0.27800
C 	C 	0.79030 0.54900 0.08160 0.14000
C 	C 	0.81550 0.54960 0.12180 -0.23400
C 	C 	0.80930 0.59440 0.13660 0.22600
C 	C 	0.77100 0.62800 0.11960 -0.31100
C 	C 	0.74720 0.62330 0.08050 0.18900
C 	C 	0.84020 0.60090 0.17970 -0.19700
C 	C 	0.63428 0.34752 0.81572 0.31700
C 	C 	0.63319 0.32385 0.77877 -0.29800
C 	C 	0.67917 0.32907 0.73439 0.16800
C 	C 	0.72871 0.35986 0.72472 -0.22900
C 	C 	0.72904 0.38405 0.76067 0.15800
C 	C 	0.68368 0.37955 0.80689 -0.25700
C 	C 	0.68956 0.40630 0.84298 0.28300
C 	C 	0.63543 0.41392 0.96142 0.22400
C 	C 	0.64728 0.43492 0.00152 -0.18100
C 	C 	0.72320 0.39680 0.01980 -0.26700
C 	C 	0.04183 0.58418 0.25456 0.10700
C 	C 	0.01370 0.57850 0.21750 -0.18600
C 	C 	0.93430 0.57200 0.22640 0.12200
C 	C 	0.89040 0.57270 0.27230 -0.18600
C 	C 	0.92272 0.57771 0.30645 0.10500
C 	C 	0.90280 0.56540 0.18720 -0.11300
N 	N 	0.31571 0.92725 0.99333 -0.29600
N 	N 	0.36868 0.93880 0.95084 -0.23200
N 	N 	0.37224 0.03230 0.88122 -0.28500
N 	N 	0.39002 0.06538 0.90398 -0.22600
N 	N 	0.18099 0.06117 0.91425 -0.26200
N 	N 	0.46036 0.88727 0.10021 -0.28700
N 	N 	0.41544 0.91908 0.07364 -0.22700
N 	N 	0.70213 0.29816 0.91718 -0.23400
N 	N 	0.73629 0.57275 0.50667 -0.29700
N 	N 	0.75832 0.56120 0.54916 -0.23200
N 	N 	0.78576 0.46770 0.61878 -0.28500
N 	N 	0.85938 0.43462 0.59602 -0.22600
N 	N 	0.65641 0.43883 0.58575 -0.26200
N 	N 	0.94784 0.61273 0.39979 -0.28700
N 	N 	0.90816 0.58092 0.42636 -0.22700
N 	N 	0.41747 0.20184 0.58282 -0.23400
N 	N 	0.30904 0.00667 0.42725 -0.29700
N 	N 	0.31952 0.04916 0.43880 -0.23200
N 	N 	0.25346 0.11878 0.53230 -0.28500
N 	N 	0.29400 0.09602 0.56538 -0.22600
N 	N 	0.09524 0.08575 0.56117 -0.26200
N 	N 	0.56057 0.89979 0.38727 -0.28700
N 	N 	0.48908 0.92636 0.41908 -0.22700
N 	N 	0.61931 0.08282 0.79816 -0.23400
N 	N 	0.24296 0.49333 0.07275 -0.29700
N 	N 	0.30748 0.45084 0.06120 -0.23200
N 	N 	0.40454 0.38122 0.96770 -0.28500
N 	N 	0.45540 0.40398 0.93462 -0.22600
N 	N 	0.24216 0.41425 0.93883 -0.26200
N 	N 	0.34763 0.60021 0.11273 -0.28700
N 	N 	0.33452 0.57364 0.08092 -0.22700
N 	N 	0.00029 0.41718 0.70184 -0.23400
N 	N 	0.68429 0.07275 0.00667 -0.29600
N 	N 	0.63132 0.06120 0.04916 -0.23200
N 	N 	0.62776 0.96770 0.11878 -0.28500
N 	N 	0.60998 0.93462 0.09602 -0.22600
N 	N 	0.81901 0.93883 0.08575 -0.26200
N 	N 	0.53964 0.11273 0.89979 -0.28700
N 	N 	0.58456 0.08092 0.92636 -0.22700
N 	N 	0.29787 0.70184 0.08282 -0.23400
N 	N 	0.26371 0.42725 0.49333 -0.29700
N 	N 	0.24168 0.43880 0.45084 -0.23200
N 	N 	0.21424 0.53230 0.38122 -0.28500
N 	N 	0.14062 0.56538 0.40398 -0.22600
N 	N 	0.34359 0.56117 0.41425 -0.26200
N 	N 	0.05216 0.38727 0.60021 -0.28700
N 	N 	0.09184 0.41908 0.57364 -0.22700
N 	N 	0.58253 0.79816 0.41718 -0.23400
N 	N 	0.69096 0.99333 0.57275 -0.29700
N 	N 	0.68048 0.95084 0.56120 -0.23200
N 	N 	0.74654 0.88122 0.46770 -0.28500
N 	N 	0.70600 0.90398 0.43462 -0.22600
N 	N 	0.90476 0.91425 0.43883 -0.26200
N 	N 	0.43943 0.10021 0.61273 -0.28700
N 	N 	0.51092 0.07364 0.58092 -0.22700
N 	N 	0.38069 0.91718 0.20184 -0.23400
N 	N 	0.75704 0.50667 0.92725 -0.29700
N 	N 	0.69252 0.54916 0.93880 -0.23200
N 	N 	0.59546 0.61878 0.03230 -0.28500
N 	N 	0.54460 0.59602 0.06538 -0.22600
N 	N 	0.75784 0.58575 0.06117 -0.26200
N 	N 	0.65237 0.39979 0.88727 -0.28700
N 	N 	0.66548 0.42636 0.91908 -0.22700
N 	N 	0.99971 0.58282 0.29816 -0.23400
O 	O 	0.27303 0.88340 0.07474 -0.48800
O 	O 	0.21047 0.97773 0.96873 -0.42100
O 	O 	0.46685 0.88332 0.97558 -0.43500
O 	O 	0.29295 0.97090 0.86980 -0.48000
O 	O 	0.46927 0.04823 0.81683 -0.40800
O 	O 	0.30284 0.04000 0.96652 -0.41800
O 	O 	0.55416 0.85825 0.15983 -0.47500
O 	O 	0.43804 0.83123 0.06289 -0.42700
O 	O 	0.43175 0.97101 0.11869 -0.42300
O 	O 	0.73117 0.61660 0.42526 -0.48800
O 	O 	0.65693 0.52227 0.53127 -0.42100
O 	O 	0.82575 0.61668 0.52442 -0.43600
O 	O 	0.63365 0.52910 0.63020 -0.48100
O 	O 	0.83433 0.45177 0.68317 -0.40800
O 	O 	0.80936 0.46000 0.53348 -0.41700
O 	O 	0.07224 0.64175 0.34017 -0.47500
O 	O 	0.83216 0.66877 0.43711 -0.42700
O 	O 	0.02145 0.52899 0.38131 -0.42300
O 	O 	0.34777 0.92526 0.38340 -0.48800
O 	O 	0.17920 0.03127 0.47773 -0.42100
O 	O 	0.44243 0.02442 0.38332 -0.43500
O 	O 	0.16275 0.13020 0.47090 -0.48100
O 	O 	0.28610 0.18317 0.54823 -0.40900
O 	O 	0.26936 0.03348 0.54000 -0.41700
O 	O 	0.71399 0.84017 0.35825 -0.47500
O 	O 	0.50093 0.93711 0.33123 -0.42700
O 	O 	0.55044 0.88131 0.47101 -0.42300
O 	O 	0.15643 0.57474 0.11660 -0.48800
O 	O 	0.18820 0.46873 0.02227 -0.42100
O 	O 	0.35017 0.47558 0.11668 -0.43600
O 	O 	0.26385 0.36980 0.02910 -0.48100
O 	O 	0.51750 0.31683 0.95177 -0.40900
O 	O 	0.34284 0.46652 0.96000 -0.41700
O 	O 	0.41241 0.65983 0.14175 -0.47500
O 	O 	0.26927 0.56289 0.16877 -0.42700
O 	O 	0.40276 0.61869 0.02899 -0.42300
O 	O 	0.72697 0.11660 0.92526 -0.48800
O 	O 	0.78953 0.02227 0.03127 -0.42100
O 	O 	0.53315 0.11668 0.02442 -0.43500
O 	O 	0.70705 0.02910 0.13020 -0.48000
O 	O 	0.53073 0.95177 0.18317 -0.40800
O 	O 	0.69716 0.96000 0.03348 -0.41800
O 	O 	0.44584 0.14175 0.84017 -0.47500
O 	O 	0.56196 0.16877 0.93711 -0.42700
O 	O 	0.56825 0.02899 0.88131 -0.42300
O 	O 	0.26883 0.38340 0.57474 -0.48800
O 	O 	0.34307 0.47773 0.46873 -0.42100
O 	O 	0.17425 0.38332 0.47558 -0.43600
O 	O 	0.36635 0.47090 0.36980 -0.48100
O 	O 	0.16567 0.54823 0.31683 -0.40800
O 	O 	0.19064 0.54000 0.46652 -0.41700
O 	O 	0.92776 0.35825 0.65983 -0.47500
O 	O 	0.16784 0.33123 0.56289 -0.42700
O 	O 	0.97855 0.47101 0.61869 -0.42300
O 	O 	0.65223 0.07474 0.61660 -0.48800
O 	O 	0.82080 0.96873 0.52227 -0.42100
O 	O 	0.55757 0.97558 0.61668 -0.43500
O 	O 	0.83725 0.86980 0.52910 -0.48100
O 	O 	0.71390 0.81683 0.45177 -0.40900
O 	O 	0.73064 0.96652 0.46000 -0.41700
O 	O 	0.28601 0.15983 0.64175 -0.47500
O 	O 	0.49907 0.06289 0.66877 -0.42700
O 	O 	0.44956 0.11869 0.52899 -0.42300
O 	O 	0.84357 0.42526 0.88340 -0.48800
O 	O 	0.81180 0.53127 0.97773 -0.42100
O 	O 	0.64983 0.52442 0.88332 -0.43600
O 	O 	0.73615 0.63020 0.97090 -0.48100
O 	O 	0.48250 0.68317 0.04823 -0.40900
O 	O 	0.65716 0.53348 0.04000 -0.41700
O 	O 	0.58759 0.34017 0.85825 -0.47500
O 	O 	0.73073 0.43711 0.83123 -0.42700
O 	O 	0.59724 0.38131 0.97101 -0.42300
