data_crystal

_cell_length_a 40.90640
_cell_length_b 40.90640
_cell_length_c 17.45740
_cell_angle_alpha 90.00000
_cell_angle_beta  90.00000
_cell_angle_gamma 90.00000

_symmetry_space_group_name_	'P 1'
_symmetry_space_group_name_H-M	'P 1'

loop_
_symmetry_equiv_pos_as_xyz
  x,y,z

loop_
_atom_site_label
_atom_site_type_symbol
_atom_site_fract_x
_atom_site_fract_y
_atom_site_fract_z
_atom_site_charge
Mn	Mn	0.07662 0.04019 0.18411 1.31500
O 	O 	0.09454 0.01303 0.25969 -0.47800
O 	O 	0.99453 0.02522 0.31964 -0.41400
O 	O 	0.05125 0.06634 0.11309 -0.44300
N 	N 	0.03399 0.03611 0.23084 -0.29500
N 	N 	0.00835 0.05137 0.18890 -0.23800
C 	C 	0.08075 0.00016 0.32213 0.29100
C 	C 	0.10029 0.98021 0.36810 -0.27700
H 	H 	0.12210 0.97560 0.35290 0.12100
C 	C 	0.08840 0.96708 0.43550 0.13600
H 	H 	0.10210 0.95340 0.46560 -0.02800
C 	C 	0.05689 0.97343 0.46010 -0.20300
H 	H 	0.04910 0.96510 0.50750 0.10000
C 	C 	0.03685 0.99234 0.41340 0.12200
H 	H 	0.01500 0.99640 0.42890 0.00100
C 	C 	0.04811 0.00557 0.34406 -0.25000
C 	C 	0.02440 0.02321 0.29661 0.26400
C 	C 	0.01991 0.06594 0.12827 0.25400
C 	C 	0.99763 0.08313 0.07333 -0.31900
H 	H 	0.97480 0.08060 0.09100 0.10600
H 	H 	0.99950 0.07270 0.02240 0.12000
C 	C 	0.00533 0.11932 0.06550 0.09000
H 	H 	0.99140 0.12880 0.02480 -0.00400
H 	H 	0.02840 0.12190 0.04980 0.00600
C 	C 	0.99962 0.13814 0.14040 -0.26500
H 	H 	0.01430 0.12930 0.18040 0.09900
H 	H 	0.97680 0.13460 0.15740 0.10100
C 	C 	0.00571 0.17504 0.13240 0.14100
H 	H 	0.99120 0.18400 0.09210 -0.02400
H 	H 	0.02860 0.17880 0.11640 -0.02200
C 	C 	0.99921 0.19319 0.20870 -0.48600
H 	H 	0.97760 0.18710 0.22830 0.16000
H 	H 	-0.00000 0.21680 0.20000 0.15200
H 	H 	0.01600 0.18710 0.24630 0.15600
Mn	Mn	0.96017 0.03785 0.24507 1.33100
N 	N 	0.92616 0.04355 0.16866 -0.28800
N 	N 	0.92170 0.01632 0.11937 -0.24000
N 	N 	0.92618 0.01159 0.32875 -0.22700
O 	O 	0.95153 0.07909 0.28429 -0.47600
O 	O 	0.88506 0.06698 0.09968 -0.41400
O 	O 	0.96312 0.99617 0.19315 -0.43300
C 	C 	0.92774 0.10008 0.26819 0.29900
C 	C 	0.92513 0.12811 0.31450 -0.27600
H 	H 	0.94030 0.13150 0.35490 0.12600
C 	C 	0.90074 0.15082 0.30200 0.14800
H 	H 	0.89940 0.16960 0.33390 -0.02800
C 	C 	0.87843 0.14669 0.24420 -0.21700
H 	H 	0.86140 0.16220 0.23670 0.10600
C 	C 	0.88095 0.11986 0.19721 0.13700
H 	H 	0.86580 0.11730 0.15650 -0.00100
C 	C 	0.90533 0.09616 0.20783 -0.24700
C 	C 	0.90548 0.06771 0.15578 0.26800
C 	C 	0.94181 0.99297 0.13822 0.26400
C 	C 	0.93984 0.96032 0.09880 -0.32800
H 	H 	0.96200 0.95340 0.08290 0.12600
H 	H 	0.92610 0.96230 0.05230 0.11000
C 	C 	0.92504 0.93451 0.15280 0.10700
H 	H 	0.92760 0.91270 0.12910 -0.00500
H 	H 	0.93750 0.93450 0.20140 0.01000
C 	C 	0.88929 0.94011 0.17030 -0.30000
H 	H 	0.87700 0.94050 0.12150 0.11500
H 	H 	0.88680 0.96190 0.19450 0.11600
C 	C 	0.87416 0.91455 0.22260 0.18900
H 	H 	0.88660 0.91380 0.27120 -0.03100
H 	H 	0.87600 0.89280 0.19800 -0.02800
C 	C 	0.83800 0.92152 0.24030 -0.54000
H 	H 	0.83570 0.94400 0.25900 0.17700
H 	H 	0.83030 0.90620 0.27950 0.17500
H 	H 	0.82500 0.91880 0.19360 0.18000
C 	C 	0.89615 0.02134 0.34550 0.09500
H 	H 	0.88940 0.04250 0.32940 -0.01300
C 	C 	0.87425 0.00193 0.38540 -0.18200
H 	H 	0.85300 0.01000 0.39670 0.08000
C 	C 	0.88310 0.97109 0.40870 0.12800
C 	C 	0.91400 0.96137 0.39240 -0.17800
H 	H 	0.92130 0.94040 0.40850 0.08600
C 	C 	0.93483 0.98161 0.35270 0.09700
H 	H 	0.95630 0.97400 0.34170 -0.00200
C 	C 	0.86023 0.94918 0.45400 -0.14300
H 	H 	0.83730 0.95530 0.44280 0.06100
H 	H 	0.86350 0.92620 0.43810 0.06000
Mn	Mn	0.11288 0.97001 0.97416 1.33200
O 	O 	0.14867 0.99195 0.93405 -0.47200
O 	O 	0.11813 0.04746 0.12779 -0.42200
O 	O 	0.07537 0.95244 0.02720 -0.41500
N 	N 	0.10629 0.00439 0.05004 -0.28600
N 	N 	0.07849 0.99969 0.09708 -0.22200
N 	N 	0.80875 0.89500 0.69200 -0.22800
C 	C 	0.16570 0.01652 0.96427 0.29300
C 	C 	0.19556 0.02420 0.92879 -0.26900
H 	H 	0.20240 0.01200 0.88530 0.12700
C 	C 	0.21499 0.04911 0.95610 0.13800
H 	H 	0.23510 0.05380 0.93120 -0.03000
C 	C 	0.20575 0.06739 0.01943 -0.20700
H 	H 	0.21930 0.08450 0.03820 0.10300
C 	C 	0.17651 0.06012 0.05434 0.13500
H 	H 	0.17000 0.07260 0.09760 0.00800
C 	C 	0.15592 0.03507 0.02880 -0.24300
C 	C 	0.12541 0.02880 0.07019 0.27100
C 	C 	0.06475 0.97192 0.08098 0.19100
C 	C 	0.03628 0.96002 0.12780 -0.07800
H 	H 	0.02790 0.97820 0.15970 0.04000
H 	H 	0.01850 0.95290 0.09310 0.05100
C 	C 	0.04635 0.93102 0.18040 -0.40100
H 	H 	0.06280 0.93880 0.21770 0.13400
H 	H 	0.05680 0.91390 0.14860 0.14800
C 	C 	0.01803 0.91610 0.22350 0.58000
H 	H 	0.02010 0.89210 0.21760 -0.13300
H 	H 	0.99790 0.92260 0.19570 -0.12300
C 	C 	0.01300 0.92100 0.28830 -0.72300
H 	H 	0.03390 0.91770 0.31590 0.22200
H 	H 	0.00740 0.94440 0.29360 0.23800
C 	C 	0.98652 0.90120 0.33120 0.18300
H 	H 	0.98130 0.88140 0.30220 -0.02400
H 	H 	0.99460 0.89520 0.38210 -0.03300
H 	H 	0.96680 0.91460 0.33660 -0.02900
C 	C 	0.80683 0.89009 0.61681 0.09400
H 	H 	0.79240 0.87360 0.59870 -0.00800
C 	C 	0.82471 0.90764 0.56360 -0.17700
H 	H 	0.82260 0.90310 0.51040 0.08100
C 	C 	0.84563 0.93179 0.58890 0.12900
C 	C 	0.84718 0.93741 0.66670 -0.19000
H 	H 	0.86090 0.95420 0.68650 0.09100
C 	C 	0.82864 0.91850 0.71560 0.10000
H 	H 	0.83020 0.92250 0.76910 -0.00200
C 	C 	0.86620 0.95219 0.53450 -0.15600
H 	H 	0.86320 0.97550 0.54860 0.07400
H 	H 	0.88940 0.94670 0.54380 0.07100
Mn	Mn	0.57662 0.54019 0.68411 1.31600
O 	O 	0.59454 0.51303 0.75969 -0.47700
O 	O 	0.49453 0.52522 0.81964 -0.41300
O 	O 	0.55125 0.56634 0.61309 -0.44200
N 	N 	0.53399 0.53611 0.73084 -0.29400
N 	N 	0.50835 0.55137 0.68890 -0.23700
C 	C 	0.58075 0.50016 0.82213 0.29200
C 	C 	0.60029 0.48021 0.86810 -0.27600
H 	H 	0.62210 0.47560 0.85290 0.12200
C 	C 	0.58840 0.46708 0.93550 0.13700
H 	H 	0.60210 0.45340 0.96560 -0.02700
C 	C 	0.55689 0.47343 0.96010 -0.20100
H 	H 	0.54910 0.46510 0.00750 0.10100
C 	C 	0.53685 0.49234 0.91340 0.12300
H 	H 	0.51500 0.49640 0.92890 0.00200
C 	C 	0.54811 0.50557 0.84406 -0.24900
C 	C 	0.52440 0.52321 0.79661 0.26500
C 	C 	0.51991 0.56594 0.62827 0.25700
C 	C 	0.49763 0.58313 0.57333 -0.32300
H 	H 	0.47480 0.58060 0.59100 0.10900
H 	H 	0.49950 0.57270 0.52240 0.12200
C 	C 	0.50533 0.61932 0.56550 0.09900
H 	H 	0.49140 0.62880 0.52480 -0.00500
H 	H 	0.52840 0.62190 0.54980 0.00500
C 	C 	0.49962 0.63814 0.64040 -0.27300
H 	H 	0.51430 0.62930 0.68040 0.10300
H 	H 	0.47680 0.63460 0.65740 0.10500
C 	C 	0.50571 0.67504 0.63240 0.15200
H 	H 	0.49120 0.68400 0.59210 -0.02600
H 	H 	0.52860 0.67880 0.61640 -0.02400
C 	C 	0.49921 0.69319 0.70870 -0.49700
H 	H 	0.47760 0.68710 0.72830 0.16500
H 	H 	0.50000 0.71680 0.70000 0.15700
H 	H 	0.51600 0.68710 0.74630 0.16100
Mn	Mn	0.46017 0.53785 0.74507 1.33100
N 	N 	0.42616 0.54355 0.66866 -0.28700
N 	N 	0.42170 0.51632 0.61937 -0.23900
N 	N 	0.42618 0.51159 0.82875 -0.22600
O 	O 	0.45153 0.57909 0.78429 -0.47600
O 	O 	0.38506 0.56698 0.59968 -0.41200
O 	O 	0.46312 0.49617 0.69315 -0.43200
C 	C 	0.42774 0.60008 0.76819 0.30000
C 	C 	0.42513 0.62811 0.81450 -0.27500
H 	H 	0.44030 0.63150 0.85490 0.12600
C 	C 	0.40074 0.65082 0.80200 0.14900
H 	H 	0.39940 0.66960 0.83390 -0.02700
C 	C 	0.37843 0.64669 0.74420 -0.21600
H 	H 	0.36140 0.66220 0.73670 0.10700
C 	C 	0.38095 0.61986 0.69721 0.13800
H 	H 	0.36580 0.61730 0.65650 0.00000
C 	C 	0.40533 0.59616 0.70783 -0.24600
C 	C 	0.40548 0.56771 0.65578 0.26900
C 	C 	0.44181 0.49297 0.63822 0.26500
C 	C 	0.43984 0.46032 0.59880 -0.32700
H 	H 	0.46200 0.45340 0.58290 0.12700
H 	H 	0.42610 0.46230 0.55230 0.11000
C 	C 	0.42504 0.43451 0.65280 0.10800
H 	H 	0.42760 0.41270 0.62910 -0.00400
H 	H 	0.43750 0.43450 0.70140 0.01000
C 	C 	0.38929 0.44011 0.67030 -0.30000
H 	H 	0.37700 0.44050 0.62150 0.11500
H 	H 	0.38680 0.46190 0.69450 0.11600
C 	C 	0.37416 0.41455 0.72260 0.18900
H 	H 	0.38660 0.41380 0.77120 -0.03100
H 	H 	0.37600 0.39280 0.69800 -0.02800
C 	C 	0.33800 0.42152 0.74030 -0.54000
H 	H 	0.33570 0.44400 0.75900 0.17700
H 	H 	0.33030 0.40620 0.77950 0.17500
H 	H 	0.32500 0.41880 0.69360 0.18000
C 	C 	0.39615 0.52134 0.84550 0.09500
H 	H 	0.38940 0.54250 0.82940 -0.01300
C 	C 	0.37425 0.50193 0.88540 -0.18100
H 	H 	0.35300 0.51000 0.89670 0.08000
C 	C 	0.38310 0.47109 0.90870 0.12700
C 	C 	0.41400 0.46137 0.89240 -0.17800
H 	H 	0.42130 0.44040 0.90850 0.08600
C 	C 	0.43483 0.48161 0.85270 0.09600
H 	H 	0.45630 0.47400 0.84170 -0.00200
C 	C 	0.36023 0.44918 0.95400 -0.14200
H 	H 	0.33730 0.45530 0.94280 0.06100
H 	H 	0.36350 0.42620 0.93810 0.06000
Mn	Mn	0.61288 0.47001 0.47416 1.33200
O 	O 	0.64867 0.49195 0.43405 -0.47200
O 	O 	0.61813 0.54746 0.62779 -0.42200
O 	O 	0.57537 0.45244 0.52720 -0.41500
N 	N 	0.60629 0.50439 0.55004 -0.28600
N 	N 	0.57849 0.49969 0.59708 -0.22200
N 	N 	0.30875 0.39500 0.19200 -0.22800
C 	C 	0.66570 0.51652 0.46427 0.29200
C 	C 	0.69556 0.52420 0.42879 -0.26800
H 	H 	0.70240 0.51200 0.38530 0.12600
C 	C 	0.71499 0.54911 0.45610 0.13700
H 	H 	0.73510 0.55380 0.43120 -0.02900
C 	C 	0.70575 0.56739 0.51943 -0.20600
H 	H 	0.71930 0.58450 0.53820 0.10300
C 	C 	0.67651 0.56012 0.55434 0.13400
H 	H 	0.67000 0.57260 0.59760 0.00800
C 	C 	0.65592 0.53507 0.52880 -0.24200
C 	C 	0.62541 0.52880 0.57019 0.27000
C 	C 	0.56475 0.47192 0.58098 0.19100
C 	C 	0.53628 0.46002 0.62780 -0.07800
H 	H 	0.52790 0.47820 0.65970 0.04000
H 	H 	0.51850 0.45290 0.59310 0.05100
C 	C 	0.54635 0.43102 0.68040 -0.40000
H 	H 	0.56280 0.43880 0.71770 0.13400
H 	H 	0.55680 0.41390 0.64860 0.14800
C 	C 	0.51803 0.41610 0.72350 0.58000
H 	H 	0.52010 0.39210 0.71760 -0.13300
H 	H 	0.49790 0.42260 0.69570 -0.12300
C 	C 	0.51300 0.42100 0.78830 -0.72200
H 	H 	0.53390 0.41770 0.81590 0.22200
H 	H 	0.50740 0.44440 0.79360 0.23700
C 	C 	0.48652 0.40120 0.83120 0.18200
H 	H 	0.48130 0.38140 0.80220 -0.02400
H 	H 	0.49460 0.39520 0.88210 -0.03300
H 	H 	0.46680 0.41460 0.83660 -0.02900
C 	C 	0.30683 0.39009 0.11681 0.09400
H 	H 	0.29240 0.37360 0.09870 -0.00800
C 	C 	0.32471 0.40764 0.06360 -0.17700
H 	H 	0.32260 0.40310 0.01040 0.08100
C 	C 	0.34563 0.43179 0.08890 0.13000
C 	C 	0.34718 0.43741 0.16670 -0.19000
H 	H 	0.36090 0.45420 0.18650 0.09100
C 	C 	0.32864 0.41850 0.21560 0.10000
H 	H 	0.33020 0.42250 0.26910 -0.00200
C 	C 	0.36620 0.45219 0.03450 -0.15700
H 	H 	0.36320 0.47550 0.04860 0.07400
H 	H 	0.38940 0.44670 0.04380 0.07100
Mn	Mn	0.42338 0.95981 0.68411 1.31600
O 	O 	0.40546 0.98697 0.75969 -0.47700
O 	O 	0.50547 0.97478 0.81964 -0.41300
O 	O 	0.44875 0.93366 0.61309 -0.44200
N 	N 	0.46601 0.96389 0.73084 -0.29400
N 	N 	0.49165 0.94863 0.68890 -0.23700
C 	C 	0.41925 0.99984 0.82213 0.29200
C 	C 	0.39971 0.01979 0.86810 -0.27500
H 	H 	0.37790 0.02440 0.85290 0.12200
C 	C 	0.41160 0.03292 0.93550 0.13600
H 	H 	0.39790 0.04660 0.96560 -0.02700
C 	C 	0.44311 0.02657 0.96010 -0.20100
H 	H 	0.45090 0.03490 0.00750 0.10000
C 	C 	0.46315 0.00766 0.91340 0.12300
H 	H 	0.48500 0.00360 0.92890 0.00200
C 	C 	0.45189 0.99443 0.84406 -0.24900
C 	C 	0.47560 0.97679 0.79661 0.26500
C 	C 	0.48009 0.93406 0.62827 0.25700
C 	C 	0.50237 0.91687 0.57333 -0.32300
H 	H 	0.52520 0.91940 0.59100 0.10900
H 	H 	0.50050 0.92730 0.52240 0.12200
C 	C 	0.49467 0.88068 0.56550 0.09900
H 	H 	0.50860 0.87120 0.52480 -0.00500
H 	H 	0.47160 0.87810 0.54980 0.00500
C 	C 	0.50038 0.86186 0.64040 -0.27300
H 	H 	0.48570 0.87070 0.68040 0.10300
H 	H 	0.52320 0.86540 0.65740 0.10500
C 	C 	0.49429 0.82496 0.63240 0.15200
H 	H 	0.50880 0.81600 0.59210 -0.02600
H 	H 	0.47140 0.82120 0.61640 -0.02400
C 	C 	0.50079 0.80681 0.70870 -0.49700
H 	H 	0.52240 0.81290 0.72830 0.16500
H 	H 	0.50000 0.78320 0.70000 0.15700
H 	H 	0.48400 0.81290 0.74630 0.16100
Mn	Mn	0.53983 0.96215 0.74507 1.33100
N 	N 	0.57384 0.95645 0.66866 -0.28700
N 	N 	0.57830 0.98368 0.61937 -0.23900
N 	N 	0.57382 0.98841 0.82875 -0.22600
O 	O 	0.54847 0.92091 0.78429 -0.47600
O 	O 	0.61494 0.93302 0.59968 -0.41200
O 	O 	0.53688 0.00383 0.69315 -0.43200
C 	C 	0.57226 0.89992 0.76819 0.30000
C 	C 	0.57487 0.87189 0.81450 -0.27500
H 	H 	0.55970 0.86850 0.85490 0.12600
C 	C 	0.59926 0.84918 0.80200 0.14900
H 	H 	0.60060 0.83040 0.83390 -0.02700
C 	C 	0.62157 0.85331 0.74420 -0.21600
H 	H 	0.63860 0.83780 0.73670 0.10700
C 	C 	0.61905 0.88014 0.69721 0.13800
H 	H 	0.63420 0.88270 0.65650 0.00000
C 	C 	0.59467 0.90384 0.70783 -0.24600
C 	C 	0.59452 0.93229 0.65578 0.26900
C 	C 	0.55819 0.00703 0.63822 0.26500
C 	C 	0.56016 0.03968 0.59880 -0.32700
H 	H 	0.53800 0.04660 0.58290 0.12700
H 	H 	0.57390 0.03770 0.55230 0.11000
C 	C 	0.57496 0.06549 0.65280 0.10800
H 	H 	0.57240 0.08730 0.62910 -0.00400
H 	H 	0.56250 0.06550 0.70140 0.01000
C 	C 	0.61071 0.05989 0.67030 -0.30000
H 	H 	0.62300 0.05950 0.62150 0.11500
H 	H 	0.61320 0.03810 0.69450 0.11600
C 	C 	0.62584 0.08545 0.72260 0.18900
H 	H 	0.61340 0.08620 0.77120 -0.03100
H 	H 	0.62400 0.10720 0.69800 -0.02800
C 	C 	0.66200 0.07848 0.74030 -0.54000
H 	H 	0.66430 0.05600 0.75900 0.17700
H 	H 	0.66970 0.09380 0.77950 0.17500
H 	H 	0.67500 0.08120 0.69360 0.18000
C 	C 	0.60385 0.97866 0.84550 0.09500
H 	H 	0.61060 0.95750 0.82940 -0.01400
C 	C 	0.62575 0.99807 0.88540 -0.18200
H 	H 	0.64700 0.99000 0.89670 0.08000
C 	C 	0.61690 0.02891 0.90870 0.12800
C 	C 	0.58600 0.03863 0.89240 -0.17800
H 	H 	0.57870 0.05960 0.90850 0.08600
C 	C 	0.56517 0.01839 0.85270 0.09700
H 	H 	0.54370 0.02600 0.84170 -0.00200
C 	C 	0.63977 0.05082 0.95400 -0.14200
H 	H 	0.66270 0.04470 0.94280 0.06100
H 	H 	0.63650 0.07380 0.93810 0.06000
Mn	Mn	0.38712 0.02999 0.47416 1.33200
O 	O 	0.35133 0.00805 0.43405 -0.47200
O 	O 	0.38187 0.95254 0.62779 -0.42200
O 	O 	0.42463 0.04756 0.52720 -0.41500
N 	N 	0.39371 0.99561 0.55004 -0.28600
N 	N 	0.42151 0.00031 0.59708 -0.22200
N 	N 	0.69125 0.10500 0.19200 -0.22800
C 	C 	0.33430 0.98348 0.46427 0.29200
C 	C 	0.30444 0.97580 0.42879 -0.26800
H 	H 	0.29760 0.98800 0.38530 0.12600
C 	C 	0.28501 0.95089 0.45610 0.13700
H 	H 	0.26490 0.94620 0.43120 -0.02900
C 	C 	0.29425 0.93261 0.51943 -0.20600
H 	H 	0.28070 0.91550 0.53820 0.10300
C 	C 	0.32349 0.93988 0.55434 0.13400
H 	H 	0.33000 0.92740 0.59760 0.00800
C 	C 	0.34408 0.96493 0.52880 -0.24200
C 	C 	0.37459 0.97120 0.57019 0.27000
C 	C 	0.43525 0.02808 0.58098 0.19100
C 	C 	0.46372 0.03998 0.62780 -0.07800
H 	H 	0.47210 0.02180 0.65970 0.04000
H 	H 	0.48150 0.04710 0.59310 0.05100
C 	C 	0.45365 0.06898 0.68040 -0.40000
H 	H 	0.43720 0.06120 0.71770 0.13400
H 	H 	0.44320 0.08610 0.64860 0.14800
C 	C 	0.48197 0.08390 0.72350 0.58000
H 	H 	0.47990 0.10790 0.71760 -0.13300
H 	H 	0.50210 0.07740 0.69570 -0.12300
C 	C 	0.48700 0.07900 0.78830 -0.72200
H 	H 	0.46610 0.08230 0.81590 0.22200
H 	H 	0.49260 0.05560 0.79360 0.23700
C 	C 	0.51348 0.09880 0.83120 0.18200
H 	H 	0.51870 0.11860 0.80220 -0.02400
H 	H 	0.50540 0.10480 0.88210 -0.03300
H 	H 	0.53320 0.08540 0.83660 -0.02900
C 	C 	0.69317 0.10991 0.11681 0.09400
H 	H 	0.70760 0.12640 0.09870 -0.00800
C 	C 	0.67529 0.09236 0.06360 -0.17700
H 	H 	0.67740 0.09690 0.01040 0.08100
C 	C 	0.65437 0.06821 0.08890 0.13000
C 	C 	0.65282 0.06259 0.16670 -0.19000
H 	H 	0.63910 0.04580 0.18650 0.09100
C 	C 	0.67136 0.08150 0.21560 0.10000
H 	H 	0.66980 0.07750 0.26910 -0.00200
C 	C 	0.63380 0.04781 0.03450 -0.15700
H 	H 	0.63680 0.02450 0.04860 0.07400
H 	H 	0.61060 0.05330 0.04380 0.07100
Mn	Mn	0.92338 0.45981 0.18411 1.31600
O 	O 	0.90546 0.48697 0.25969 -0.47700
O 	O 	0.00547 0.47478 0.31964 -0.41400
O 	O 	0.94875 0.43366 0.11309 -0.44200
N 	N 	0.96601 0.46389 0.23084 -0.29400
N 	N 	0.99165 0.44863 0.18890 -0.23700
C 	C 	0.91925 0.49984 0.32213 0.29200
C 	C 	0.89971 0.51979 0.36810 -0.27600
H 	H 	0.87790 0.52440 0.35290 0.12200
C 	C 	0.91160 0.53292 0.43550 0.13700
H 	H 	0.89790 0.54660 0.46560 -0.02700
C 	C 	0.94311 0.52657 0.46010 -0.20200
H 	H 	0.95090 0.53490 0.50750 0.10100
C 	C 	0.96315 0.50766 0.41340 0.12300
H 	H 	0.98500 0.50360 0.42890 0.00200
C 	C 	0.95189 0.49443 0.34406 -0.24900
C 	C 	0.97560 0.47679 0.29661 0.26600
C 	C 	0.98009 0.43406 0.12827 0.25900
C 	C 	0.00237 0.41687 0.07333 -0.32800
H 	H 	0.02520 0.41940 0.09100 0.11000
H 	H 	0.00050 0.42730 0.02240 0.12400
C 	C 	0.99467 0.38068 0.06550 0.10600
H 	H 	0.00860 0.37120 0.02480 -0.00800
H 	H 	0.97160 0.37810 0.04980 0.00200
C 	C 	0.00038 0.36186 0.14040 -0.28200
H 	H 	0.98570 0.37070 0.18040 0.10600
H 	H 	0.02320 0.36540 0.15740 0.10700
C 	C 	0.99429 0.32496 0.13240 0.16100
H 	H 	0.00880 0.31600 0.09210 -0.02900
H 	H 	0.97140 0.32120 0.11640 -0.02700
C 	C 	0.00079 0.30681 0.20870 -0.50700
H 	H 	0.02240 0.31290 0.22830 0.16700
H 	H 	0.00000 0.28320 0.20000 0.15900
H 	H 	0.98400 0.31290 0.24630 0.16400
Mn	Mn	0.03983 0.46215 0.24507 1.33100
N 	N 	0.07384 0.45645 0.16866 -0.28700
N 	N 	0.07830 0.48368 0.11937 -0.23900
N 	N 	0.07382 0.48841 0.32875 -0.22600
O 	O 	0.04847 0.42091 0.28429 -0.47600
O 	O 	0.11494 0.43302 0.09968 -0.41300
O 	O 	0.03688 0.50383 0.19315 -0.43300
C 	C 	0.07226 0.39992 0.26819 0.30000
C 	C 	0.07487 0.37189 0.31450 -0.27500
H 	H 	0.05970 0.36850 0.35490 0.12600
C 	C 	0.09926 0.34918 0.30200 0.14900
H 	H 	0.10060 0.33040 0.33390 -0.02700
C 	C 	0.12157 0.35331 0.24420 -0.21600
H 	H 	0.13860 0.33780 0.23670 0.10700
C 	C 	0.11905 0.38014 0.19721 0.13800
H 	H 	0.13420 0.38270 0.15650 0.00000
C 	C 	0.09467 0.40384 0.20783 -0.24700
C 	C 	0.09452 0.43229 0.15578 0.26900
C 	C 	0.05819 0.50703 0.13822 0.26500
C 	C 	0.06016 0.53968 0.09880 -0.32700
H 	H 	0.03800 0.54660 0.08290 0.12700
H 	H 	0.07390 0.53770 0.05230 0.11000
C 	C 	0.07496 0.56549 0.15280 0.10800
H 	H 	0.07240 0.58730 0.12910 -0.00400
H 	H 	0.06250 0.56550 0.20140 0.01000
C 	C 	0.11071 0.55989 0.17030 -0.30000
H 	H 	0.12300 0.55950 0.12150 0.11500
H 	H 	0.11320 0.53810 0.19450 0.11600
C 	C 	0.12584 0.58545 0.22260 0.18900
H 	H 	0.11340 0.58620 0.27120 -0.03100
H 	H 	0.12400 0.60720 0.19800 -0.02800
C 	C 	0.16200 0.57848 0.24030 -0.54000
H 	H 	0.16430 0.55600 0.25900 0.17700
H 	H 	0.16970 0.59380 0.27950 0.17500
H 	H 	0.17500 0.58120 0.19360 0.18000
C 	C 	0.10385 0.47866 0.34550 0.09500
H 	H 	0.11060 0.45750 0.32940 -0.01300
C 	C 	0.12575 0.49807 0.38540 -0.18200
H 	H 	0.14700 0.49000 0.39670 0.08000
C 	C 	0.11690 0.52891 0.40870 0.12800
C 	C 	0.08600 0.53863 0.39240 -0.17800
H 	H 	0.07870 0.55960 0.40850 0.08600
C 	C 	0.06517 0.51839 0.35270 0.09700
H 	H 	0.04370 0.52600 0.34170 -0.00200
C 	C 	0.13977 0.55082 0.45400 -0.14300
H 	H 	0.16270 0.54470 0.44280 0.06100
H 	H 	0.13650 0.57380 0.43810 0.06000
Mn	Mn	0.88712 0.52999 0.97416 1.33200
O 	O 	0.85133 0.50805 0.93405 -0.47200
O 	O 	0.88187 0.45254 0.12779 -0.42200
O 	O 	0.92463 0.54756 0.02720 -0.41500
N 	N 	0.89371 0.49561 0.05004 -0.28600
N 	N 	0.92151 0.50031 0.09708 -0.22200
N 	N 	0.19125 0.60500 0.69200 -0.22800
C 	C 	0.83430 0.48348 0.96427 0.29200
C 	C 	0.80444 0.47580 0.92879 -0.26900
H 	H 	0.79760 0.48800 0.88530 0.12700
C 	C 	0.78501 0.45089 0.95610 0.13800
H 	H 	0.76490 0.44620 0.93120 -0.02900
C 	C 	0.79425 0.43261 0.01943 -0.20600
H 	H 	0.78070 0.41550 0.03820 0.10300
C 	C 	0.82349 0.43988 0.05434 0.13500
H 	H 	0.83000 0.42740 0.09760 0.00800
C 	C 	0.84408 0.46493 0.02880 -0.24300
C 	C 	0.87459 0.47120 0.07019 0.27000
C 	C 	0.93525 0.52808 0.08098 0.19100
C 	C 	0.96372 0.53998 0.12780 -0.07800
H 	H 	0.97210 0.52180 0.15970 0.04000
H 	H 	0.98150 0.54710 0.09310 0.05200
C 	C 	0.95365 0.56898 0.18040 -0.40000
H 	H 	0.93720 0.56120 0.21770 0.13400
H 	H 	0.94320 0.58610 0.14860 0.14800
C 	C 	0.98197 0.58390 0.22350 0.57900
H 	H 	0.97990 0.60790 0.21760 -0.13300
H 	H 	0.00210 0.57740 0.19570 -0.12300
C 	C 	0.98700 0.57900 0.28830 -0.72000
H 	H 	0.96610 0.58230 0.31590 0.22200
H 	H 	0.99260 0.55560 0.29360 0.23700
C 	C 	0.01348 0.59880 0.33120 0.18000
H 	H 	0.01870 0.61860 0.30220 -0.02400
H 	H 	0.00540 0.60480 0.38210 -0.03300
H 	H 	0.03320 0.58540 0.33660 -0.02900
C 	C 	0.19317 0.60991 0.61681 0.09400
H 	H 	0.20760 0.62640 0.59870 -0.00800
C 	C 	0.17529 0.59236 0.56360 -0.17700
H 	H 	0.17740 0.59690 0.51040 0.08100
C 	C 	0.15437 0.56821 0.58890 0.12900
C 	C 	0.15282 0.56259 0.66670 -0.19000
H 	H 	0.13910 0.54580 0.68650 0.09100
C 	C 	0.17136 0.58150 0.71560 0.10000
H 	H 	0.16980 0.57750 0.76910 -0.00200
C 	C 	0.13380 0.54781 0.53450 -0.15600
H 	H 	0.13680 0.52450 0.54860 0.07400
H 	H 	0.11060 0.55330 0.54380 0.07100
Mn	Mn	0.70981 0.32662 0.43411 1.31600
O 	O 	0.73697 0.34454 0.50969 -0.47700
O 	O 	0.72478 0.24453 0.56964 -0.41300
O 	O 	0.68366 0.30125 0.36309 -0.44200
N 	N 	0.71389 0.28399 0.48084 -0.29400
N 	N 	0.69863 0.25835 0.43890 -0.23700
C 	C 	0.74984 0.33075 0.57213 0.29200
C 	C 	0.76979 0.35029 0.61810 -0.27600
H 	H 	0.77440 0.37210 0.60290 0.12200
C 	C 	0.78292 0.33840 0.68550 0.13700
H 	H 	0.79660 0.35210 0.71560 -0.02700
C 	C 	0.77657 0.30689 0.71010 -0.20200
H 	H 	0.78490 0.29910 0.75750 0.10100
C 	C 	0.75766 0.28685 0.66340 0.12300
H 	H 	0.75360 0.26500 0.67890 0.00200
C 	C 	0.74443 0.29811 0.59406 -0.24900
C 	C 	0.72679 0.27440 0.54661 0.26500
C 	C 	0.68406 0.26991 0.37827 0.25700
C 	C 	0.66687 0.24763 0.32333 -0.32300
H 	H 	0.66940 0.22480 0.34100 0.10900
H 	H 	0.67730 0.24950 0.27240 0.12200
C 	C 	0.63068 0.25533 0.31550 0.09900
H 	H 	0.62120 0.24140 0.27480 -0.00500
H 	H 	0.62810 0.27840 0.29980 0.00500
C 	C 	0.61186 0.24962 0.39040 -0.27300
H 	H 	0.62070 0.26430 0.43040 0.10300
H 	H 	0.61540 0.22680 0.40740 0.10500
C 	C 	0.57496 0.25571 0.38240 0.15200
H 	H 	0.56600 0.24120 0.34210 -0.02600
H 	H 	0.57120 0.27860 0.36640 -0.02400
C 	C 	0.55681 0.24921 0.45870 -0.49800
H 	H 	0.56290 0.22760 0.47830 0.16500
H 	H 	0.53320 0.25000 0.45000 0.15700
H 	H 	0.56290 0.26600 0.49630 0.16100
Mn	Mn	0.71215 0.21017 0.49507 1.33200
N 	N 	0.70645 0.17616 0.41866 -0.28700
N 	N 	0.73368 0.17170 0.36937 -0.23900
N 	N 	0.73841 0.17618 0.57875 -0.22600
O 	O 	0.67091 0.20153 0.53429 -0.47600
O 	O 	0.68302 0.13506 0.34968 -0.41200
O 	O 	0.75383 0.21312 0.44315 -0.43200
C 	C 	0.64992 0.17774 0.51819 0.30000
C 	C 	0.62189 0.17513 0.56450 -0.27500
H 	H 	0.61850 0.19030 0.60490 0.12600
C 	C 	0.59918 0.15074 0.55200 0.14900
H 	H 	0.58040 0.14940 0.58390 -0.02700
C 	C 	0.60331 0.12843 0.49420 -0.21600
H 	H 	0.58780 0.11140 0.48670 0.10700
C 	C 	0.63014 0.13095 0.44721 0.13800
H 	H 	0.63270 0.11580 0.40650 0.00000
C 	C 	0.65384 0.15533 0.45783 -0.24600
C 	C 	0.68229 0.15548 0.40578 0.26900
C 	C 	0.75703 0.19181 0.38822 0.26500
C 	C 	0.78968 0.18984 0.34880 -0.32700
H 	H 	0.79660 0.21200 0.33290 0.12700
H 	H 	0.78770 0.17610 0.30230 0.11000
C 	C 	0.81549 0.17504 0.40280 0.10800
H 	H 	0.83730 0.17760 0.37910 -0.00400
H 	H 	0.81550 0.18750 0.45140 0.01000
C 	C 	0.80989 0.13929 0.42030 -0.30000
H 	H 	0.80950 0.12700 0.37150 0.11500
H 	H 	0.78810 0.13680 0.44450 0.11600
C 	C 	0.83545 0.12416 0.47260 0.18900
H 	H 	0.83620 0.13660 0.52120 -0.03100
H 	H 	0.85720 0.12600 0.44800 -0.02800
C 	C 	0.82848 0.08800 0.49030 -0.54000
H 	H 	0.80600 0.08570 0.50900 0.17700
H 	H 	0.84380 0.08030 0.52950 0.17500
H 	H 	0.83120 0.07500 0.44360 0.18000
C 	C 	0.72866 0.14615 0.59550 0.09500
H 	H 	0.70750 0.13940 0.57940 -0.01300
C 	C 	0.74807 0.12425 0.63540 -0.18100
H 	H 	0.74000 0.10300 0.64670 0.08000
C 	C 	0.77891 0.13310 0.65870 0.12800
C 	C 	0.78863 0.16400 0.64240 -0.17800
H 	H 	0.80960 0.17130 0.65850 0.08600
C 	C 	0.76839 0.18483 0.60270 0.09700
H 	H 	0.77600 0.20630 0.59170 -0.00200
C 	C 	0.80082 0.11023 0.70400 -0.14300
H 	H 	0.79470 0.08730 0.69280 0.06100
H 	H 	0.82380 0.11350 0.68810 0.06000
Mn	Mn	0.77999 0.36288 0.22416 1.33200
O 	O 	0.75805 0.39867 0.18405 -0.47200
O 	O 	0.70254 0.36813 0.37779 -0.42200
O 	O 	0.79756 0.32537 0.27720 -0.41500
N 	N 	0.74561 0.35629 0.30004 -0.28600
N 	N 	0.75031 0.32849 0.34708 -0.22200
N 	N 	0.85500 0.05875 0.94200 -0.22800
C 	C 	0.73348 0.41570 0.21427 0.29200
C 	C 	0.72580 0.44556 0.17879 -0.26800
H 	H 	0.73800 0.45240 0.13530 0.12600
C 	C 	0.70089 0.46499 0.20610 0.13700
H 	H 	0.69620 0.48510 0.18120 -0.02900
C 	C 	0.68261 0.45575 0.26943 -0.20600
H 	H 	0.66550 0.46930 0.28820 0.10300
C 	C 	0.68988 0.42651 0.30434 0.13400
H 	H 	0.67740 0.42000 0.34760 0.00800
C 	C 	0.71493 0.40592 0.27880 -0.24200
C 	C 	0.72120 0.37541 0.32019 0.27000
C 	C 	0.77808 0.31475 0.33098 0.19100
C 	C 	0.78998 0.28628 0.37780 -0.07800
H 	H 	0.77180 0.27790 0.40970 0.04000
H 	H 	0.79710 0.26850 0.34310 0.05100
C 	C 	0.81898 0.29635 0.43040 -0.40000
H 	H 	0.81120 0.31280 0.46770 0.13400
H 	H 	0.83610 0.30680 0.39860 0.14800
C 	C 	0.83390 0.26803 0.47350 0.58000
H 	H 	0.85790 0.27010 0.46760 -0.13300
H 	H 	0.82740 0.24790 0.44570 -0.12300
C 	C 	0.82900 0.26300 0.53830 -0.72200
H 	H 	0.83230 0.28390 0.56590 0.22200
H 	H 	0.80560 0.25740 0.54360 0.23700
C 	C 	0.84880 0.23652 0.58120 0.18200
H 	H 	0.86860 0.23130 0.55220 -0.02400
H 	H 	0.85480 0.24460 0.63210 -0.03300
H 	H 	0.83540 0.21680 0.58660 -0.02900
C 	C 	0.85991 0.05683 0.86681 0.09400
H 	H 	0.87640 0.04240 0.84870 -0.00800
C 	C 	0.84236 0.07471 0.81360 -0.17700
H 	H 	0.84690 0.07260 0.76040 0.08100
C 	C 	0.81821 0.09563 0.83890 0.13000
C 	C 	0.81259 0.09718 0.91670 -0.19100
H 	H 	0.79580 0.11090 0.93650 0.09100
C 	C 	0.83150 0.07864 0.96560 0.10200
H 	H 	0.82750 0.08020 0.01910 -0.00300
C 	C 	0.79781 0.11620 0.78450 -0.15700
H 	H 	0.77450 0.11320 0.79860 0.07400
H 	H 	0.80330 0.13940 0.79380 0.07100
Mn	Mn	0.20981 0.82662 0.93411 1.31600
O 	O 	0.23697 0.84454 0.00969 -0.47600
O 	O 	0.22478 0.74453 0.06964 -0.41300
O 	O 	0.18366 0.80125 0.86309 -0.44200
N 	N 	0.21389 0.78399 0.98084 -0.29500
N 	N 	0.19863 0.75835 0.93890 -0.23700
C 	C 	0.24984 0.83075 0.07213 0.29200
C 	C 	0.26979 0.85029 0.11810 -0.27600
H 	H 	0.27440 0.87210 0.10290 0.12200
C 	C 	0.28292 0.83840 0.18550 0.13700
H 	H 	0.29660 0.85210 0.21560 -0.02700
C 	C 	0.27657 0.80689 0.21010 -0.20200
H 	H 	0.28490 0.79910 0.25750 0.10100
C 	C 	0.25766 0.78685 0.16340 0.12300
H 	H 	0.25360 0.76500 0.17890 0.00200
C 	C 	0.24443 0.79811 0.09406 -0.24900
C 	C 	0.22679 0.77440 0.04661 0.26700
C 	C 	0.18406 0.76991 0.87827 0.25700
C 	C 	0.16687 0.74763 0.82333 -0.32300
H 	H 	0.16940 0.72480 0.84100 0.10800
H 	H 	0.17730 0.74950 0.77240 0.12200
C 	C 	0.13068 0.75533 0.81550 0.09800
H 	H 	0.12120 0.74140 0.77480 -0.00500
H 	H 	0.12810 0.77840 0.79980 0.00500
C 	C 	0.11186 0.74962 0.89040 -0.27300
H 	H 	0.12070 0.76430 0.93040 0.10300
H 	H 	0.11540 0.72680 0.90740 0.10500
C 	C 	0.07496 0.75571 0.88240 0.15100
H 	H 	0.06600 0.74120 0.84210 -0.02600
H 	H 	0.07120 0.77860 0.86640 -0.02400
C 	C 	0.05681 0.74921 0.95870 -0.49600
H 	H 	0.06290 0.72760 0.97830 0.16400
H 	H 	0.03320 0.75000 0.95000 0.15600
H 	H 	0.06290 0.76600 0.99630 0.16000
Mn	Mn	0.21215 0.71017 0.99507 1.33100
N 	N 	0.20645 0.67616 0.91866 -0.28800
N 	N 	0.23368 0.67170 0.86937 -0.23900
N 	N 	0.23841 0.67618 0.07875 -0.22600
O 	O 	0.17091 0.70153 0.03429 -0.47500
O 	O 	0.18302 0.63506 0.84968 -0.41300
O 	O 	0.25383 0.71312 0.94315 -0.43300
C 	C 	0.14992 0.67774 0.01819 0.30300
C 	C 	0.12189 0.67513 0.06450 -0.27700
H 	H 	0.11850 0.69030 0.10490 0.12700
C 	C 	0.09918 0.65074 0.05200 0.15200
H 	H 	0.08040 0.64940 0.08390 -0.02800
C 	C 	0.10331 0.62843 0.99420 -0.22000
H 	H 	0.08780 0.61140 0.98670 0.10800
C 	C 	0.13014 0.63095 0.94721 0.14100
H 	H 	0.13270 0.61580 0.90650 -0.00000
C 	C 	0.15384 0.65533 0.95783 -0.24900
C 	C 	0.18229 0.65548 0.90578 0.27000
C 	C 	0.25703 0.69181 0.88822 0.26500
C 	C 	0.28968 0.68984 0.84880 -0.32700
H 	H 	0.29660 0.71200 0.83290 0.12700
H 	H 	0.28770 0.67610 0.80230 0.11000
C 	C 	0.31549 0.67504 0.90280 0.10800
H 	H 	0.33730 0.67760 0.87910 -0.00400
H 	H 	0.31550 0.68750 0.95140 0.00900
C 	C 	0.30989 0.63929 0.92030 -0.30000
H 	H 	0.30950 0.62700 0.87150 0.11500
H 	H 	0.28810 0.63680 0.94450 0.11600
C 	C 	0.33545 0.62416 0.97260 0.18800
H 	H 	0.33620 0.63660 0.02120 -0.03000
H 	H 	0.35720 0.62600 0.94800 -0.02800
C 	C 	0.32848 0.58800 0.99030 -0.54300
H 	H 	0.30600 0.58570 0.00900 0.17900
H 	H 	0.34380 0.58030 0.02950 0.17600
H 	H 	0.33120 0.57500 0.94360 0.18100
C 	C 	0.22866 0.64615 0.09550 0.09500
H 	H 	0.20750 0.63940 0.07940 -0.01300
C 	C 	0.24807 0.62425 0.13540 -0.18100
H 	H 	0.24000 0.60300 0.14670 0.08000
C 	C 	0.27891 0.63310 0.15870 0.12800
C 	C 	0.28863 0.66400 0.14240 -0.17800
H 	H 	0.30960 0.67130 0.15850 0.08600
C 	C 	0.26839 0.68483 0.10270 0.09700
H 	H 	0.27600 0.70630 0.09170 -0.00200
C 	C 	0.30082 0.61023 0.20400 -0.14300
H 	H 	0.29470 0.58730 0.19280 0.06100
H 	H 	0.32380 0.61350 0.18810 0.06000
Mn	Mn	0.27999 0.86288 0.72416 1.33200
O 	O 	0.25805 0.89867 0.68405 -0.47200
O 	O 	0.20254 0.86813 0.87779 -0.42300
O 	O 	0.29756 0.82537 0.77720 -0.41500
N 	N 	0.24561 0.85629 0.80004 -0.28600
N 	N 	0.25031 0.82849 0.84708 -0.22200
N 	N 	0.35500 0.55875 0.44200 -0.22800
C 	C 	0.23348 0.91570 0.71427 0.29200
C 	C 	0.22580 0.94556 0.67879 -0.26800
H 	H 	0.23800 0.95240 0.63530 0.12600
C 	C 	0.20089 0.96499 0.70610 0.13700
H 	H 	0.19620 0.98510 0.68120 -0.02900
C 	C 	0.18261 0.95575 0.76943 -0.20600
H 	H 	0.16550 0.96930 0.78820 0.10300
C 	C 	0.18988 0.92651 0.80434 0.13400
H 	H 	0.17740 0.92000 0.84760 0.00800
C 	C 	0.21493 0.90592 0.77880 -0.24200
C 	C 	0.22120 0.87541 0.82019 0.27000
C 	C 	0.27808 0.81475 0.83098 0.19000
C 	C 	0.28998 0.78628 0.87780 -0.07400
H 	H 	0.27180 0.77790 0.90970 0.03900
H 	H 	0.29710 0.76850 0.84310 0.05000
C 	C 	0.31898 0.79635 0.93040 -0.40800
H 	H 	0.31120 0.81280 0.96770 0.13500
H 	H 	0.33610 0.80680 0.89860 0.15000
C 	C 	0.33390 0.76803 0.97350 0.59300
H 	H 	0.35790 0.77010 0.96760 -0.13700
H 	H 	0.32740 0.74790 0.94570 -0.12700
C 	C 	0.32900 0.76300 0.03830 -0.73600
H 	H 	0.33230 0.78390 0.06590 0.22600
H 	H 	0.30560 0.75740 0.04360 0.24200
C 	C 	0.34880 0.73652 0.08120 0.19300
H 	H 	0.36860 0.73130 0.05220 -0.02700
H 	H 	0.35480 0.74460 0.13210 -0.03600
H 	H 	0.33540 0.71680 0.08660 -0.03200
C 	C 	0.35991 0.55683 0.36681 0.09400
H 	H 	0.37640 0.54240 0.34870 -0.00800
C 	C 	0.34236 0.57471 0.31360 -0.17700
H 	H 	0.34690 0.57260 0.26040 0.08100
C 	C 	0.31821 0.59563 0.33890 0.12900
C 	C 	0.31259 0.59718 0.41670 -0.19000
H 	H 	0.29580 0.61090 0.43650 0.09100
C 	C 	0.33150 0.57864 0.46560 0.10000
H 	H 	0.32750 0.58020 0.51910 -0.00200
C 	C 	0.29781 0.61620 0.28450 -0.15600
H 	H 	0.27450 0.61320 0.29860 0.07400
H 	H 	0.30330 0.63940 0.29380 0.07100
Mn	Mn	0.79019 0.67338 0.93411 1.31600
O 	O 	0.76303 0.65546 0.00969 -0.47600
O 	O 	0.77522 0.75547 0.06964 -0.41300
O 	O 	0.81634 0.69875 0.86309 -0.44200
N 	N 	0.78611 0.71601 0.98084 -0.29500
N 	N 	0.80137 0.74165 0.93890 -0.23700
C 	C 	0.75016 0.66925 0.07213 0.29200
C 	C 	0.73021 0.64971 0.11810 -0.27600
H 	H 	0.72560 0.62790 0.10290 0.12200
C 	C 	0.71708 0.66160 0.18550 0.13700
H 	H 	0.70340 0.64790 0.21560 -0.02700
C 	C 	0.72343 0.69311 0.21010 -0.20200
H 	H 	0.71510 0.70090 0.25750 0.10100
C 	C 	0.74234 0.71315 0.16340 0.12300
H 	H 	0.74640 0.73500 0.17890 0.00200
C 	C 	0.75557 0.70189 0.09406 -0.24900
C 	C 	0.77321 0.72560 0.04661 0.26700
C 	C 	0.81594 0.73009 0.87827 0.25700
C 	C 	0.83313 0.75237 0.82333 -0.32300
H 	H 	0.83060 0.77520 0.84100 0.10800
H 	H 	0.82270 0.75050 0.77240 0.12200
C 	C 	0.86932 0.74467 0.81550 0.09800
H 	H 	0.87880 0.75860 0.77480 -0.00500
H 	H 	0.87190 0.72160 0.79980 0.00500
C 	C 	0.88814 0.75038 0.89040 -0.27300
H 	H 	0.87930 0.73570 0.93040 0.10300
H 	H 	0.88460 0.77320 0.90740 0.10500
C 	C 	0.92504 0.74429 0.88240 0.15200
H 	H 	0.93400 0.75880 0.84210 -0.02600
H 	H 	0.92880 0.72140 0.86640 -0.02400
C 	C 	0.94319 0.75079 0.95870 -0.49700
H 	H 	0.93710 0.77240 0.97830 0.16400
H 	H 	0.96680 0.75000 0.95000 0.15600
H 	H 	0.93710 0.73400 0.99630 0.16000
Mn	Mn	0.78785 0.78983 0.99507 1.33100
N 	N 	0.79355 0.82384 0.91866 -0.28800
N 	N 	0.76632 0.82830 0.86937 -0.23900
N 	N 	0.76159 0.82382 0.07875 -0.22600
O 	O 	0.82909 0.79847 0.03429 -0.47600
O 	O 	0.81698 0.86494 0.84968 -0.41300
O 	O 	0.74617 0.78688 0.94315 -0.43300
C 	C 	0.85008 0.82226 0.01819 0.30300
C 	C 	0.87811 0.82487 0.06450 -0.27800
H 	H 	0.88150 0.80970 0.10490 0.12800
C 	C 	0.90082 0.84926 0.05200 0.15300
H 	H 	0.91960 0.85060 0.08390 -0.02800
C 	C 	0.89669 0.87157 0.99420 -0.22000
H 	H 	0.91220 0.88860 0.98670 0.10800
C 	C 	0.86986 0.86905 0.94721 0.14100
H 	H 	0.86730 0.88420 0.90650 -0.00000
C 	C 	0.84616 0.84467 0.95783 -0.24900
C 	C 	0.81771 0.84452 0.90578 0.27000
C 	C 	0.74297 0.80819 0.88822 0.26500
C 	C 	0.71032 0.81016 0.84880 -0.32700
H 	H 	0.70340 0.78800 0.83290 0.12700
H 	H 	0.71230 0.82390 0.80230 0.11000
C 	C 	0.68451 0.82496 0.90280 0.10800
H 	H 	0.66270 0.82240 0.87910 -0.00400
H 	H 	0.68450 0.81250 0.95140 0.00900
C 	C 	0.69011 0.86071 0.92030 -0.30000
H 	H 	0.69050 0.87300 0.87150 0.11500
H 	H 	0.71190 0.86320 0.94450 0.11600
C 	C 	0.66455 0.87584 0.97260 0.18900
H 	H 	0.66380 0.86340 0.02120 -0.03000
H 	H 	0.64280 0.87400 0.94800 -0.02900
C 	C 	0.67152 0.91200 0.99030 -0.54400
H 	H 	0.69400 0.91430 0.00900 0.17900
H 	H 	0.65620 0.91970 0.02950 0.17700
H 	H 	0.66880 0.92500 0.94360 0.18100
C 	C 	0.77134 0.85385 0.09550 0.09500
H 	H 	0.79250 0.86060 0.07940 -0.01300
C 	C 	0.75193 0.87575 0.13540 -0.18100
H 	H 	0.76000 0.89700 0.14670 0.08000
C 	C 	0.72109 0.86690 0.15870 0.12800
C 	C 	0.71137 0.83600 0.14240 -0.17800
H 	H 	0.69040 0.82870 0.15850 0.08600
C 	C 	0.73161 0.81517 0.10270 0.09700
H 	H 	0.72400 0.79370 0.09170 -0.00200
C 	C 	0.69918 0.88977 0.20400 -0.14300
H 	H 	0.70530 0.91270 0.19280 0.06100
H 	H 	0.67620 0.88650 0.18810 0.06000
Mn	Mn	0.72001 0.63712 0.72416 1.33200
O 	O 	0.74195 0.60133 0.68405 -0.47200
O 	O 	0.79746 0.63187 0.87779 -0.42200
O 	O 	0.70244 0.67463 0.77720 -0.41500
N 	N 	0.75439 0.64371 0.80004 -0.28600
N 	N 	0.74969 0.67151 0.84708 -0.22200
N 	N 	0.64500 0.94125 0.44200 -0.22800
C 	C 	0.76652 0.58430 0.71427 0.29200
C 	C 	0.77420 0.55444 0.67879 -0.26800
H 	H 	0.76200 0.54760 0.63530 0.12600
C 	C 	0.79911 0.53501 0.70610 0.13700
H 	H 	0.80380 0.51490 0.68120 -0.02900
C 	C 	0.81739 0.54425 0.76943 -0.20600
H 	H 	0.83450 0.53070 0.78820 0.10300
C 	C 	0.81012 0.57349 0.80434 0.13400
H 	H 	0.82260 0.58000 0.84760 0.00800
C 	C 	0.78507 0.59408 0.77880 -0.24200
C 	C 	0.77880 0.62459 0.82019 0.27000
C 	C 	0.72192 0.68525 0.83098 0.19000
C 	C 	0.71002 0.71372 0.87780 -0.07400
H 	H 	0.72820 0.72210 0.90970 0.03900
H 	H 	0.70290 0.73150 0.84310 0.05000
C 	C 	0.68102 0.70365 0.93040 -0.40800
H 	H 	0.68880 0.68720 0.96770 0.13500
H 	H 	0.66390 0.69320 0.89860 0.15000
C 	C 	0.66610 0.73197 0.97350 0.59300
H 	H 	0.64210 0.72990 0.96760 -0.13700
H 	H 	0.67260 0.75210 0.94570 -0.12700
C 	C 	0.67100 0.73700 0.03830 -0.73500
H 	H 	0.66770 0.71610 0.06590 0.22600
H 	H 	0.69440 0.74260 0.04360 0.24200
C 	C 	0.65120 0.76348 0.08120 0.19300
H 	H 	0.63140 0.76870 0.05220 -0.02700
H 	H 	0.64520 0.75540 0.13210 -0.03600
H 	H 	0.66460 0.78320 0.08660 -0.03200
C 	C 	0.64009 0.94317 0.36681 0.09400
H 	H 	0.62360 0.95760 0.34870 -0.00800
C 	C 	0.65764 0.92529 0.31360 -0.17700
H 	H 	0.65310 0.92740 0.26040 0.08100
C 	C 	0.68179 0.90437 0.33890 0.12900
C 	C 	0.68741 0.90282 0.41670 -0.19000
H 	H 	0.70420 0.88910 0.43650 0.09100
C 	C 	0.66850 0.92136 0.46560 0.10000
H 	H 	0.67250 0.91980 0.51910 -0.00200
C 	C 	0.70219 0.88380 0.28450 -0.15600
H 	H 	0.72550 0.88680 0.29860 0.07400
H 	H 	0.69670 0.86060 0.29380 0.07100
Mn	Mn	0.29019 0.17338 0.43411 1.31600
O 	O 	0.26303 0.15546 0.50969 -0.47700
O 	O 	0.27522 0.25547 0.56964 -0.41300
O 	O 	0.31634 0.19875 0.36309 -0.44200
N 	N 	0.28611 0.21601 0.48084 -0.29400
N 	N 	0.30137 0.24165 0.43890 -0.23700
C 	C 	0.25016 0.16925 0.57213 0.29200
C 	C 	0.23021 0.14971 0.61810 -0.27600
H 	H 	0.22560 0.12790 0.60290 0.12200
C 	C 	0.21708 0.16160 0.68550 0.13700
H 	H 	0.20340 0.14790 0.71560 -0.02700
C 	C 	0.22343 0.19311 0.71010 -0.20200
H 	H 	0.21510 0.20090 0.75750 0.10100
C 	C 	0.24234 0.21315 0.66340 0.12300
H 	H 	0.24640 0.23500 0.67890 0.00200
C 	C 	0.25557 0.20189 0.59406 -0.24900
C 	C 	0.27321 0.22560 0.54661 0.26500
C 	C 	0.31594 0.23009 0.37827 0.25700
C 	C 	0.33313 0.25237 0.32333 -0.32300
H 	H 	0.33060 0.27520 0.34100 0.10900
H 	H 	0.32270 0.25050 0.27240 0.12200
C 	C 	0.36932 0.24467 0.31550 0.09900
H 	H 	0.37880 0.25860 0.27480 -0.00500
H 	H 	0.37190 0.22160 0.29980 0.00500
C 	C 	0.38814 0.25038 0.39040 -0.27300
H 	H 	0.37930 0.23570 0.43040 0.10300
H 	H 	0.38460 0.27320 0.40740 0.10500
C 	C 	0.42504 0.24429 0.38240 0.15200
H 	H 	0.43400 0.25880 0.34210 -0.02600
H 	H 	0.42880 0.22140 0.36640 -0.02400
C 	C 	0.44319 0.25079 0.45870 -0.49800
H 	H 	0.43710 0.27240 0.47830 0.16500
H 	H 	0.46680 0.25000 0.45000 0.15700
H 	H 	0.43710 0.23400 0.49630 0.16100
Mn	Mn	0.28785 0.28983 0.49507 1.33200
N 	N 	0.29355 0.32384 0.41866 -0.28700
N 	N 	0.26632 0.32830 0.36937 -0.23900
N 	N 	0.26159 0.32382 0.57875 -0.22600
O 	O 	0.32909 0.29847 0.53429 -0.47600
O 	O 	0.31698 0.36494 0.34968 -0.41200
O 	O 	0.24617 0.28688 0.44315 -0.43200
C 	C 	0.35008 0.32226 0.51819 0.30000
C 	C 	0.37811 0.32487 0.56450 -0.27500
H 	H 	0.38150 0.30970 0.60490 0.12600
C 	C 	0.40082 0.34926 0.55200 0.14900
H 	H 	0.41960 0.35060 0.58390 -0.02700
C 	C 	0.39669 0.37157 0.49420 -0.21600
H 	H 	0.41220 0.38860 0.48670 0.10700
C 	C 	0.36986 0.36905 0.44721 0.13800
H 	H 	0.36730 0.38420 0.40650 0.00000
C 	C 	0.34616 0.34467 0.45783 -0.24600
C 	C 	0.31771 0.34452 0.40578 0.26900
C 	C 	0.24297 0.30819 0.38822 0.26500
C 	C 	0.21032 0.31016 0.34880 -0.32700
H 	H 	0.20340 0.28800 0.33290 0.12700
H 	H 	0.21230 0.32390 0.30230 0.11000
C 	C 	0.18451 0.32496 0.40280 0.10800
H 	H 	0.16270 0.32240 0.37910 -0.00400
H 	H 	0.18450 0.31250 0.45140 0.01000
C 	C 	0.19011 0.36071 0.42030 -0.30000
H 	H 	0.19050 0.37300 0.37150 0.11500
H 	H 	0.21190 0.36320 0.44450 0.11600
C 	C 	0.16455 0.37584 0.47260 0.18900
H 	H 	0.16380 0.36340 0.52120 -0.03100
H 	H 	0.14280 0.37400 0.44800 -0.02800
C 	C 	0.17152 0.41200 0.49030 -0.54000
H 	H 	0.19400 0.41430 0.50900 0.17700
H 	H 	0.15620 0.41970 0.52950 0.17500
H 	H 	0.16880 0.42500 0.44360 0.18000
C 	C 	0.27134 0.35385 0.59550 0.09500
H 	H 	0.29250 0.36060 0.57940 -0.01300
C 	C 	0.25193 0.37575 0.63540 -0.18100
H 	H 	0.26000 0.39700 0.64670 0.08000
C 	C 	0.22109 0.36690 0.65870 0.12800
C 	C 	0.21137 0.33600 0.64240 -0.17800
H 	H 	0.19040 0.32870 0.65850 0.08600
C 	C 	0.23161 0.31517 0.60270 0.09700
H 	H 	0.22400 0.29370 0.59170 -0.00200
C 	C 	0.19918 0.38977 0.70400 -0.14300
H 	H 	0.20530 0.41270 0.69280 0.06100
H 	H 	0.17620 0.38650 0.68810 0.06000
Mn	Mn	0.22001 0.13712 0.22416 1.33200
O 	O 	0.24195 0.10133 0.18405 -0.47200
O 	O 	0.29746 0.13187 0.37779 -0.42200
O 	O 	0.20244 0.17463 0.27720 -0.41500
N 	N 	0.25439 0.14371 0.30004 -0.28600
N 	N 	0.24969 0.17151 0.34708 -0.22200
N 	N 	0.14500 0.44125 0.94200 -0.22800
C 	C 	0.26652 0.08430 0.21427 0.29200
C 	C 	0.27420 0.05444 0.17879 -0.26800
H 	H 	0.26200 0.04760 0.13530 0.12600
C 	C 	0.29911 0.03501 0.20610 0.13700
H 	H 	0.30380 0.01490 0.18120 -0.02900
C 	C 	0.31739 0.04425 0.26943 -0.20600
H 	H 	0.33450 0.03070 0.28820 0.10300
C 	C 	0.31012 0.07349 0.30434 0.13400
H 	H 	0.32260 0.08000 0.34760 0.00800
C 	C 	0.28507 0.09408 0.27880 -0.24200
C 	C 	0.27880 0.12459 0.32019 0.27000
C 	C 	0.22192 0.18525 0.33098 0.19100
C 	C 	0.21002 0.21372 0.37780 -0.07800
H 	H 	0.22820 0.22210 0.40970 0.04000
H 	H 	0.20290 0.23150 0.34310 0.05100
C 	C 	0.18102 0.20365 0.43040 -0.40000
H 	H 	0.18880 0.18720 0.46770 0.13400
H 	H 	0.16390 0.19320 0.39860 0.14800
C 	C 	0.16610 0.23197 0.47350 0.57900
H 	H 	0.14210 0.22990 0.46760 -0.13300
H 	H 	0.17260 0.25210 0.44570 -0.12300
C 	C 	0.17100 0.23700 0.53830 -0.72100
H 	H 	0.16770 0.21610 0.56590 0.22200
H 	H 	0.19440 0.24260 0.54360 0.23700
C 	C 	0.15120 0.26348 0.58120 0.18200
H 	H 	0.13140 0.26870 0.55220 -0.02400
H 	H 	0.14520 0.25540 0.63210 -0.03300
H 	H 	0.16460 0.28320 0.58660 -0.02900
C 	C 	0.14009 0.44317 0.86681 0.09400
H 	H 	0.12360 0.45760 0.84870 -0.00800
C 	C 	0.15764 0.42529 0.81360 -0.17700
H 	H 	0.15310 0.42740 0.76040 0.08100
C 	C 	0.18179 0.40437 0.83890 0.13000
C 	C 	0.18741 0.40282 0.91670 -0.19100
H 	H 	0.20420 0.38910 0.93650 0.09100
C 	C 	0.16850 0.42136 0.96560 0.10200
H 	H 	0.17250 0.41980 0.01910 -0.00300
C 	C 	0.20219 0.38380 0.78450 -0.15700
H 	H 	0.22550 0.38680 0.79860 0.07400
H 	H 	0.19670 0.36060 0.79380 0.07100
Mn	Mn	0.92338 0.95981 0.81589 1.31600
O 	O 	0.90546 0.98697 0.74031 -0.47700
O 	O 	0.00547 0.97478 0.68036 -0.41400
O 	O 	0.94875 0.93366 0.88691 -0.44200
N 	N 	0.96601 0.96389 0.76916 -0.29400
N 	N 	0.99165 0.94863 0.81110 -0.23700
C 	C 	0.91925 0.99984 0.67787 0.29200
C 	C 	0.89971 0.01979 0.63190 -0.27600
H 	H 	0.87790 0.02440 0.64710 0.12200
C 	C 	0.91160 0.03292 0.56450 0.13700
H 	H 	0.89790 0.04660 0.53440 -0.02700
C 	C 	0.94311 0.02657 0.53990 -0.20200
H 	H 	0.95090 0.03490 0.49250 0.10100
C 	C 	0.96315 0.00766 0.58660 0.12300
H 	H 	0.98500 0.00360 0.57110 0.00200
C 	C 	0.95189 0.99443 0.65594 -0.24900
C 	C 	0.97560 0.97679 0.70339 0.26600
C 	C 	0.98009 0.93406 0.87173 0.25900
C 	C 	0.00237 0.91687 0.92667 -0.32800
H 	H 	0.02520 0.91940 0.90900 0.11000
H 	H 	0.00050 0.92730 0.97760 0.12400
C 	C 	0.99467 0.88068 0.93450 0.10600
H 	H 	0.00860 0.87120 0.97520 -0.00800
H 	H 	0.97160 0.87810 0.95020 0.00200
C 	C 	0.00038 0.86186 0.85960 -0.28200
H 	H 	0.98570 0.87070 0.81960 0.10600
H 	H 	0.02320 0.86540 0.84260 0.10700
C 	C 	0.99429 0.82496 0.86760 0.16100
H 	H 	0.00880 0.81600 0.90790 -0.02900
H 	H 	0.97140 0.82120 0.88360 -0.02700
C 	C 	0.00079 0.80681 0.79130 -0.50700
H 	H 	0.02240 0.81290 0.77170 0.16700
H 	H 	-0.00000 0.78320 0.80000 0.15900
H 	H 	0.98400 0.81290 0.75370 0.16400
Mn	Mn	0.03983 0.96215 0.75493 1.33100
N 	N 	0.07384 0.95645 0.83134 -0.28700
N 	N 	0.07830 0.98368 0.88063 -0.24000
N 	N 	0.07382 0.98841 0.67125 -0.22600
O 	O 	0.04847 0.92091 0.71571 -0.47600
O 	O 	0.11494 0.93302 0.90032 -0.41300
O 	O 	0.03688 0.00383 0.80685 -0.43300
C 	C 	0.07226 0.89992 0.73181 0.30000
C 	C 	0.07487 0.87189 0.68550 -0.27500
H 	H 	0.05970 0.86850 0.64510 0.12600
C 	C 	0.09926 0.84918 0.69800 0.14900
H 	H 	0.10060 0.83040 0.66610 -0.02700
C 	C 	0.12157 0.85331 0.75580 -0.21600
H 	H 	0.13860 0.83780 0.76330 0.10700
C 	C 	0.11905 0.88014 0.80279 0.13800
H 	H 	0.13420 0.88270 0.84350 0.00000
C 	C 	0.09467 0.90384 0.79217 -0.24700
C 	C 	0.09452 0.93229 0.84422 0.26900
C 	C 	0.05819 0.00703 0.86178 0.26500
C 	C 	0.06016 0.03968 0.90120 -0.32700
H 	H 	0.03800 0.04660 0.91710 0.12700
H 	H 	0.07390 0.03770 0.94770 0.11000
C 	C 	0.07496 0.06549 0.84720 0.10800
H 	H 	0.07240 0.08730 0.87090 -0.00400
H 	H 	0.06250 0.06550 0.79860 0.01000
C 	C 	0.11071 0.05989 0.82970 -0.30000
H 	H 	0.12300 0.05950 0.87850 0.11600
H 	H 	0.11320 0.03810 0.80550 0.11600
C 	C 	0.12584 0.08545 0.77740 0.18900
H 	H 	0.11340 0.08620 0.72880 -0.03100
H 	H 	0.12400 0.10720 0.80200 -0.02800
C 	C 	0.16200 0.07848 0.75970 -0.54000
H 	H 	0.16430 0.05600 0.74100 0.17700
H 	H 	0.16970 0.09380 0.72050 0.17500
H 	H 	0.17500 0.08120 0.80640 0.18000
C 	C 	0.10385 0.97866 0.65450 0.09500
H 	H 	0.11060 0.95750 0.67060 -0.01300
C 	C 	0.12575 0.99807 0.61460 -0.18200
H 	H 	0.14700 0.99000 0.60330 0.08000
C 	C 	0.11690 0.02891 0.59130 0.12800
C 	C 	0.08600 0.03863 0.60760 -0.17800
H 	H 	0.07870 0.05960 0.59150 0.08600
C 	C 	0.06517 0.01839 0.64730 0.09700
H 	H 	0.04370 0.02600 0.65830 -0.00200
C 	C 	0.13977 0.05082 0.54600 -0.14300
H 	H 	0.16270 0.04470 0.55720 0.06100
H 	H 	0.13650 0.07380 0.56190 0.06000
Mn	Mn	0.88712 0.02999 0.02584 1.33200
O 	O 	0.85133 0.00805 0.06595 -0.47200
O 	O 	0.88187 0.95254 0.87221 -0.42200
O 	O 	0.92463 0.04756 0.97280 -0.41500
N 	N 	0.89371 0.99561 0.94996 -0.28600
N 	N 	0.92151 0.00031 0.90292 -0.22200
N 	N 	0.19125 0.10500 0.30800 -0.22800
C 	C 	0.83430 0.98348 0.03573 0.29300
C 	C 	0.80444 0.97580 0.07121 -0.26900
H 	H 	0.79760 0.98800 0.11470 0.12700
C 	C 	0.78501 0.95089 0.04390 0.13800
H 	H 	0.76490 0.94620 0.06880 -0.03000
C 	C 	0.79425 0.93261 0.98057 -0.20700
H 	H 	0.78070 0.91550 0.96180 0.10300
C 	C 	0.82349 0.93988 0.94566 0.13500
H 	H 	0.83000 0.92740 0.90240 0.00800
C 	C 	0.84408 0.96493 0.97120 -0.24300
C 	C 	0.87459 0.97120 0.92981 0.27100
C 	C 	0.93525 0.02808 0.91902 0.19100
C 	C 	0.96372 0.03998 0.87220 -0.07800
H 	H 	0.97210 0.02180 0.84030 0.04000
H 	H 	0.98150 0.04710 0.90690 0.05200
C 	C 	0.95365 0.06898 0.81960 -0.40000
H 	H 	0.93720 0.06120 0.78230 0.13400
H 	H 	0.94320 0.08610 0.85140 0.14800
C 	C 	0.98197 0.08390 0.77650 0.57900
H 	H 	0.97990 0.10790 0.78240 -0.13300
H 	H 	0.00210 0.07740 0.80430 -0.12300
C 	C 	0.98700 0.07900 0.71170 -0.72000
H 	H 	0.96610 0.08230 0.68410 0.22200
H 	H 	0.99260 0.05560 0.70640 0.23700
C 	C 	0.01348 0.09880 0.66880 0.18000
H 	H 	0.01870 0.11860 0.69780 -0.02400
H 	H 	0.00540 0.10480 0.61790 -0.03300
H 	H 	0.03320 0.08540 0.66340 -0.02900
C 	C 	0.19317 0.10991 0.38319 0.09400
H 	H 	0.20760 0.12640 0.40130 -0.00800
C 	C 	0.17529 0.09236 0.43640 -0.17700
H 	H 	0.17740 0.09690 0.48960 0.08100
C 	C 	0.15437 0.06821 0.41110 0.12900
C 	C 	0.15282 0.06259 0.33330 -0.19000
H 	H 	0.13910 0.04580 0.31350 0.09100
C 	C 	0.17136 0.08150 0.28440 0.10000
H 	H 	0.16980 0.07750 0.23090 -0.00200
C 	C 	0.13380 0.04781 0.46550 -0.15600
H 	H 	0.13680 0.02450 0.45140 0.07400
H 	H 	0.11060 0.05330 0.45620 0.07100
Mn	Mn	0.42338 0.45981 0.31589 1.31600
O 	O 	0.40546 0.48697 0.24031 -0.47700
O 	O 	0.50547 0.47478 0.18036 -0.41300
O 	O 	0.44875 0.43366 0.38691 -0.44200
N 	N 	0.46601 0.46389 0.26916 -0.29400
N 	N 	0.49165 0.44863 0.31110 -0.23700
C 	C 	0.41925 0.49984 0.17787 0.29200
C 	C 	0.39971 0.51979 0.13190 -0.27600
H 	H 	0.37790 0.52440 0.14710 0.12200
C 	C 	0.41160 0.53292 0.06450 0.13700
H 	H 	0.39790 0.54660 0.03440 -0.02700
C 	C 	0.44311 0.52657 0.03990 -0.20100
H 	H 	0.45090 0.53490 0.99250 0.10100
C 	C 	0.46315 0.50766 0.08660 0.12300
H 	H 	0.48500 0.50360 0.07110 0.00200
C 	C 	0.45189 0.49443 0.15594 -0.24900
C 	C 	0.47560 0.47679 0.20339 0.26500
C 	C 	0.48009 0.43406 0.37173 0.25700
C 	C 	0.50237 0.41687 0.42667 -0.32300
H 	H 	0.52520 0.41940 0.40900 0.10900
H 	H 	0.50050 0.42730 0.47760 0.12200
C 	C 	0.49467 0.38068 0.43450 0.09900
H 	H 	0.50860 0.37120 0.47520 -0.00500
H 	H 	0.47160 0.37810 0.45020 0.00500
C 	C 	0.50038 0.36186 0.35960 -0.27300
H 	H 	0.48570 0.37070 0.31960 0.10300
H 	H 	0.52320 0.36540 0.34260 0.10500
C 	C 	0.49429 0.32496 0.36760 0.15200
H 	H 	0.50880 0.31600 0.40790 -0.02600
H 	H 	0.47140 0.32120 0.38360 -0.02400
C 	C 	0.50079 0.30681 0.29130 -0.49700
H 	H 	0.52240 0.31290 0.27170 0.16500
H 	H 	0.50000 0.28320 0.30000 0.15700
H 	H 	0.48400 0.31290 0.25370 0.16100
Mn	Mn	0.53983 0.46215 0.25493 1.33100
N 	N 	0.57384 0.45645 0.33134 -0.28700
N 	N 	0.57830 0.48368 0.38063 -0.23900
N 	N 	0.57382 0.48841 0.17125 -0.22600
O 	O 	0.54847 0.42091 0.21571 -0.47600
O 	O 	0.61494 0.43302 0.40032 -0.41200
O 	O 	0.53688 0.50383 0.30685 -0.43200
C 	C 	0.57226 0.39992 0.23181 0.30000
C 	C 	0.57487 0.37189 0.18550 -0.27500
H 	H 	0.55970 0.36850 0.14510 0.12600
C 	C 	0.59926 0.34918 0.19800 0.14900
H 	H 	0.60060 0.33040 0.16610 -0.02700
C 	C 	0.62157 0.35331 0.25580 -0.21600
H 	H 	0.63860 0.33780 0.26330 0.10700
C 	C 	0.61905 0.38014 0.30279 0.13800
H 	H 	0.63420 0.38270 0.34350 0.00000
C 	C 	0.59467 0.40384 0.29217 -0.24600
C 	C 	0.59452 0.43229 0.34422 0.26900
C 	C 	0.55819 0.50703 0.36178 0.26500
C 	C 	0.56016 0.53968 0.40120 -0.32700
H 	H 	0.53800 0.54660 0.41710 0.12700
H 	H 	0.57390 0.53770 0.44770 0.11000
C 	C 	0.57496 0.56549 0.34720 0.10800
H 	H 	0.57240 0.58730 0.37090 -0.00400
H 	H 	0.56250 0.56550 0.29860 0.01000
C 	C 	0.61071 0.55989 0.32970 -0.30000
H 	H 	0.62300 0.55950 0.37850 0.11500
H 	H 	0.61320 0.53810 0.30550 0.11600
C 	C 	0.62584 0.58545 0.27740 0.18900
H 	H 	0.61340 0.58620 0.22880 -0.03100
H 	H 	0.62400 0.60720 0.30200 -0.02800
C 	C 	0.66200 0.57848 0.25970 -0.54000
H 	H 	0.66430 0.55600 0.24100 0.17700
H 	H 	0.66970 0.59380 0.22050 0.17500
H 	H 	0.67500 0.58120 0.30640 0.18000
C 	C 	0.60385 0.47866 0.15450 0.09500
H 	H 	0.61060 0.45750 0.17060 -0.01300
C 	C 	0.62575 0.49807 0.11460 -0.18100
H 	H 	0.64700 0.49000 0.10330 0.08000
C 	C 	0.61690 0.52891 0.09130 0.12700
C 	C 	0.58600 0.53863 0.10760 -0.17800
H 	H 	0.57870 0.55960 0.09150 0.08600
C 	C 	0.56517 0.51839 0.14730 0.09600
H 	H 	0.54370 0.52600 0.15830 -0.00200
C 	C 	0.63977 0.55082 0.04600 -0.14200
H 	H 	0.66270 0.54470 0.05720 0.06100
H 	H 	0.63650 0.57380 0.06190 0.06000
Mn	Mn	0.38712 0.52999 0.52584 1.33200
O 	O 	0.35133 0.50805 0.56595 -0.47200
O 	O 	0.38187 0.45254 0.37221 -0.42200
O 	O 	0.42463 0.54756 0.47280 -0.41500
N 	N 	0.39371 0.49561 0.44996 -0.28600
N 	N 	0.42151 0.50031 0.40292 -0.22200
N 	N 	0.69125 0.60500 0.80800 -0.22800
C 	C 	0.33430 0.48348 0.53573 0.29200
C 	C 	0.30444 0.47580 0.57121 -0.26800
H 	H 	0.29760 0.48800 0.61470 0.12600
C 	C 	0.28501 0.45089 0.54390 0.13700
H 	H 	0.26490 0.44620 0.56880 -0.02900
C 	C 	0.29425 0.43261 0.48057 -0.20600
H 	H 	0.28070 0.41550 0.46180 0.10300
C 	C 	0.32349 0.43988 0.44566 0.13400
H 	H 	0.33000 0.42740 0.40240 0.00800
C 	C 	0.34408 0.46493 0.47120 -0.24200
C 	C 	0.37459 0.47120 0.42981 0.27000
C 	C 	0.43525 0.52808 0.41902 0.19100
C 	C 	0.46372 0.53998 0.37220 -0.07800
H 	H 	0.47210 0.52180 0.34030 0.04000
H 	H 	0.48150 0.54710 0.40690 0.05100
C 	C 	0.45365 0.56898 0.31960 -0.40000
H 	H 	0.43720 0.56120 0.28230 0.13400
H 	H 	0.44320 0.58610 0.35140 0.14800
C 	C 	0.48197 0.58390 0.27650 0.58000
H 	H 	0.47990 0.60790 0.28240 -0.13300
H 	H 	0.50210 0.57740 0.30430 -0.12300
C 	C 	0.48700 0.57900 0.21170 -0.72200
H 	H 	0.46610 0.58230 0.18410 0.22200
H 	H 	0.49260 0.55560 0.20640 0.23700
C 	C 	0.51348 0.59880 0.16880 0.18200
H 	H 	0.51870 0.61860 0.19780 -0.02400
H 	H 	0.50540 0.60480 0.11790 -0.03300
H 	H 	0.53320 0.58540 0.16340 -0.02900
C 	C 	0.69317 0.60991 0.88319 0.09400
H 	H 	0.70760 0.62640 0.90130 -0.00800
C 	C 	0.67529 0.59236 0.93640 -0.17700
H 	H 	0.67740 0.59690 0.98960 0.08100
C 	C 	0.65437 0.56821 0.91110 0.13000
C 	C 	0.65282 0.56259 0.83330 -0.19000
H 	H 	0.63910 0.54580 0.81350 0.09100
C 	C 	0.67136 0.58150 0.78440 0.10000
H 	H 	0.66980 0.57750 0.73090 -0.00200
C 	C 	0.63380 0.54781 0.96550 -0.15700
H 	H 	0.63680 0.52450 0.95140 0.07400
H 	H 	0.61060 0.55330 0.95620 0.07100
Mn	Mn	0.57662 0.04019 0.31589 1.31600
O 	O 	0.59454 0.01303 0.24031 -0.47700
O 	O 	0.49453 0.02522 0.18036 -0.41300
O 	O 	0.55125 0.06634 0.38691 -0.44200
N 	N 	0.53399 0.03611 0.26916 -0.29400
N 	N 	0.50835 0.05137 0.31110 -0.23700
C 	C 	0.58075 0.00016 0.17787 0.29200
C 	C 	0.60029 0.98021 0.13190 -0.27500
H 	H 	0.62210 0.97560 0.14710 0.12200
C 	C 	0.58840 0.96708 0.06450 0.13600
H 	H 	0.60210 0.95340 0.03440 -0.02700
C 	C 	0.55689 0.97343 0.03990 -0.20100
H 	H 	0.54910 0.96510 0.99250 0.10000
C 	C 	0.53685 0.99234 0.08660 0.12300
H 	H 	0.51500 0.99640 0.07110 0.00200
C 	C 	0.54811 0.00557 0.15594 -0.24900
C 	C 	0.52440 0.02321 0.20339 0.26500
C 	C 	0.51991 0.06594 0.37173 0.25700
C 	C 	0.49763 0.08313 0.42667 -0.32300
H 	H 	0.47480 0.08060 0.40900 0.10900
H 	H 	0.49950 0.07270 0.47760 0.12200
C 	C 	0.50533 0.11932 0.43450 0.09900
H 	H 	0.49140 0.12880 0.47520 -0.00500
H 	H 	0.52840 0.12190 0.45020 0.00500
C 	C 	0.49962 0.13814 0.35960 -0.27300
H 	H 	0.51430 0.12930 0.31960 0.10300
H 	H 	0.47680 0.13460 0.34260 0.10500
C 	C 	0.50571 0.17504 0.36760 0.15200
H 	H 	0.49120 0.18400 0.40790 -0.02600
H 	H 	0.52860 0.17880 0.38360 -0.02400
C 	C 	0.49921 0.19319 0.29130 -0.49700
H 	H 	0.47760 0.18710 0.27170 0.16500
H 	H 	0.50000 0.21680 0.30000 0.15700
H 	H 	0.51600 0.18710 0.25370 0.16100
Mn	Mn	0.46017 0.03785 0.25493 1.33100
N 	N 	0.42616 0.04355 0.33134 -0.28700
N 	N 	0.42170 0.01632 0.38063 -0.23900
N 	N 	0.42618 0.01159 0.17125 -0.22600
O 	O 	0.45153 0.07909 0.21571 -0.47600
O 	O 	0.38506 0.06698 0.40032 -0.41200
O 	O 	0.46312 0.99617 0.30685 -0.43200
C 	C 	0.42774 0.10008 0.23181 0.30000
C 	C 	0.42513 0.12811 0.18550 -0.27500
H 	H 	0.44030 0.13150 0.14510 0.12600
C 	C 	0.40074 0.15082 0.19800 0.14900
H 	H 	0.39940 0.16960 0.16610 -0.02700
C 	C 	0.37843 0.14669 0.25580 -0.21600
H 	H 	0.36140 0.16220 0.26330 0.10700
C 	C 	0.38095 0.11986 0.30279 0.13800
H 	H 	0.36580 0.11730 0.34350 0.00000
C 	C 	0.40533 0.09616 0.29217 -0.24600
C 	C 	0.40548 0.06771 0.34422 0.26900
C 	C 	0.44181 0.99297 0.36178 0.26500
C 	C 	0.43984 0.96032 0.40120 -0.32700
H 	H 	0.46200 0.95340 0.41710 0.12700
H 	H 	0.42610 0.96230 0.44770 0.11000
C 	C 	0.42504 0.93451 0.34720 0.10800
H 	H 	0.42760 0.91270 0.37090 -0.00400
H 	H 	0.43750 0.93450 0.29860 0.01000
C 	C 	0.38929 0.94011 0.32970 -0.30000
H 	H 	0.37700 0.94050 0.37850 0.11500
H 	H 	0.38680 0.96190 0.30550 0.11600
C 	C 	0.37416 0.91455 0.27740 0.18900
H 	H 	0.38660 0.91380 0.22880 -0.03100
H 	H 	0.37600 0.89280 0.30200 -0.02800
C 	C 	0.33800 0.92152 0.25970 -0.54000
H 	H 	0.33570 0.94400 0.24100 0.17700
H 	H 	0.33030 0.90620 0.22050 0.17500
H 	H 	0.32500 0.91880 0.30640 0.18000
C 	C 	0.39615 0.02134 0.15450 0.09500
H 	H 	0.38940 0.04250 0.17060 -0.01400
C 	C 	0.37425 0.00193 0.11460 -0.18200
H 	H 	0.35300 0.01000 0.10330 0.08000
C 	C 	0.38310 0.97109 0.09130 0.12800
C 	C 	0.41400 0.96137 0.10760 -0.17800
H 	H 	0.42130 0.94040 0.09150 0.08600
C 	C 	0.43483 0.98161 0.14730 0.09700
H 	H 	0.45630 0.97400 0.15830 -0.00200
C 	C 	0.36023 0.94918 0.04600 -0.14200
H 	H 	0.33730 0.95530 0.05720 0.06100
H 	H 	0.36350 0.92620 0.06190 0.06000
Mn	Mn	0.61288 0.97001 0.52584 1.33200
O 	O 	0.64867 0.99195 0.56595 -0.47200
O 	O 	0.61813 0.04746 0.37221 -0.42200
O 	O 	0.57537 0.95244 0.47280 -0.41500
N 	N 	0.60629 0.00439 0.44996 -0.28600
N 	N 	0.57849 0.99969 0.40292 -0.22200
N 	N 	0.30875 0.89500 0.80800 -0.22800
C 	C 	0.66570 0.01652 0.53573 0.29200
C 	C 	0.69556 0.02420 0.57121 -0.26800
H 	H 	0.70240 0.01200 0.61470 0.12600
C 	C 	0.71499 0.04911 0.54390 0.13700
H 	H 	0.73510 0.05380 0.56880 -0.02900
C 	C 	0.70575 0.06739 0.48057 -0.20600
H 	H 	0.71930 0.08450 0.46180 0.10300
C 	C 	0.67651 0.06012 0.44566 0.13400
H 	H 	0.67000 0.07260 0.40240 0.00800
C 	C 	0.65592 0.03507 0.47120 -0.24200
C 	C 	0.62541 0.02880 0.42981 0.27000
C 	C 	0.56475 0.97192 0.41902 0.19100
C 	C 	0.53628 0.96002 0.37220 -0.07800
H 	H 	0.52790 0.97820 0.34030 0.04000
H 	H 	0.51850 0.95290 0.40690 0.05100
C 	C 	0.54635 0.93102 0.31960 -0.40000
H 	H 	0.56280 0.93880 0.28230 0.13400
H 	H 	0.55680 0.91390 0.35140 0.14800
C 	C 	0.51803 0.91610 0.27650 0.58000
H 	H 	0.52010 0.89210 0.28240 -0.13300
H 	H 	0.49790 0.92260 0.30430 -0.12300
C 	C 	0.51300 0.92100 0.21170 -0.72200
H 	H 	0.53390 0.91770 0.18410 0.22200
H 	H 	0.50740 0.94440 0.20640 0.23700
C 	C 	0.48652 0.90120 0.16880 0.18200
H 	H 	0.48130 0.88140 0.19780 -0.02400
H 	H 	0.49460 0.89520 0.11790 -0.03300
H 	H 	0.46680 0.91460 0.16340 -0.02900
C 	C 	0.30683 0.89009 0.88319 0.09400
H 	H 	0.29240 0.87360 0.90130 -0.00800
C 	C 	0.32471 0.90764 0.93640 -0.17700
H 	H 	0.32260 0.90310 0.98960 0.08100
C 	C 	0.34563 0.93179 0.91110 0.13000
C 	C 	0.34718 0.93741 0.83330 -0.19000
H 	H 	0.36090 0.95420 0.81350 0.09100
C 	C 	0.32864 0.91850 0.78440 0.10000
H 	H 	0.33020 0.92250 0.73090 -0.00200
C 	C 	0.36620 0.95219 0.96550 -0.15700
H 	H 	0.36320 0.97550 0.95140 0.07400
H 	H 	0.38940 0.94670 0.95620 0.07100
Mn	Mn	0.07662 0.54019 0.81589 1.31600
O 	O 	0.09454 0.51303 0.74031 -0.47700
O 	O 	0.99453 0.52522 0.68036 -0.41300
O 	O 	0.05125 0.56634 0.88691 -0.44200
N 	N 	0.03399 0.53611 0.76916 -0.29400
N 	N 	0.00835 0.55137 0.81110 -0.23700
C 	C 	0.08075 0.50016 0.67787 0.29200
C 	C 	0.10029 0.48021 0.63190 -0.27600
H 	H 	0.12210 0.47560 0.64710 0.12200
C 	C 	0.08840 0.46708 0.56450 0.13700
H 	H 	0.10210 0.45340 0.53440 -0.02700
C 	C 	0.05689 0.47343 0.53990 -0.20200
H 	H 	0.04910 0.46510 0.49250 0.10100
C 	C 	0.03685 0.49234 0.58660 0.12300
H 	H 	0.01500 0.49640 0.57110 0.00200
C 	C 	0.04811 0.50557 0.65594 -0.24900
C 	C 	0.02440 0.52321 0.70339 0.26500
C 	C 	0.01991 0.56594 0.87173 0.25500
C 	C 	0.99763 0.58313 0.92667 -0.31800
H 	H 	0.97480 0.58060 0.90900 0.10700
H 	H 	0.99950 0.57270 0.97760 0.12100
C 	C 	0.00533 0.61932 0.93450 0.09100
H 	H 	0.99140 0.62880 0.97520 -0.00300
H 	H 	0.02840 0.62190 0.95020 0.00700
C 	C 	0.99962 0.63814 0.85960 -0.26400
H 	H 	0.01430 0.62930 0.81960 0.10000
H 	H 	0.97680 0.63460 0.84260 0.10300
C 	C 	0.00571 0.67504 0.86760 0.14200
H 	H 	0.99120 0.68400 0.90790 -0.02300
H 	H 	0.02860 0.67880 0.88360 -0.02100
C 	C 	0.99921 0.69319 0.79130 -0.48500
H 	H 	0.97760 0.68710 0.77170 0.16100
H 	H 	0.00000 0.71680 0.80000 0.15300
H 	H 	0.01600 0.68710 0.75370 0.15700
Mn	Mn	0.96017 0.53785 0.75493 1.33200
N 	N 	0.92616 0.54355 0.83134 -0.28700
N 	N 	0.92170 0.51632 0.88063 -0.23900
N 	N 	0.92618 0.51159 0.67125 -0.22600
O 	O 	0.95153 0.57909 0.71571 -0.47500
O 	O 	0.88506 0.56698 0.90032 -0.41300
O 	O 	0.96312 0.49617 0.80685 -0.43200
C 	C 	0.92774 0.60008 0.73181 0.30000
C 	C 	0.92513 0.62811 0.68550 -0.27500
H 	H 	0.94030 0.63150 0.64510 0.12700
C 	C 	0.90074 0.65082 0.69800 0.14900
H 	H 	0.89940 0.66960 0.66610 -0.02700
C 	C 	0.87843 0.64669 0.75580 -0.21600
H 	H 	0.86140 0.66220 0.76330 0.10700
C 	C 	0.88095 0.61986 0.80279 0.13800
H 	H 	0.86580 0.61730 0.84350 0.00000
C 	C 	0.90533 0.59616 0.79217 -0.24600
C 	C 	0.90548 0.56771 0.84422 0.26900
C 	C 	0.94181 0.49297 0.86178 0.26500
C 	C 	0.93984 0.46032 0.90120 -0.32700
H 	H 	0.96200 0.45340 0.91710 0.12700
H 	H 	0.92610 0.46230 0.94770 0.11000
C 	C 	0.92504 0.43451 0.84720 0.10800
H 	H 	0.92760 0.41270 0.87090 -0.00400
H 	H 	0.93750 0.43450 0.79860 0.01000
C 	C 	0.88929 0.44011 0.82970 -0.30000
H 	H 	0.87700 0.44050 0.87850 0.11500
H 	H 	0.88680 0.46190 0.80550 0.11600
C 	C 	0.87416 0.41455 0.77740 0.18900
H 	H 	0.88660 0.41380 0.72880 -0.03100
H 	H 	0.87600 0.39280 0.80200 -0.02800
C 	C 	0.83800 0.42152 0.75970 -0.54000
H 	H 	0.83570 0.44400 0.74100 0.17700
H 	H 	0.83030 0.40620 0.72050 0.17500
H 	H 	0.82500 0.41880 0.80640 0.18000
C 	C 	0.89615 0.52134 0.65450 0.09500
H 	H 	0.88940 0.54250 0.67060 -0.01300
C 	C 	0.87425 0.50193 0.61460 -0.18200
H 	H 	0.85300 0.51000 0.60330 0.08000
C 	C 	0.88310 0.47109 0.59130 0.12800
C 	C 	0.91400 0.46137 0.60760 -0.17800
H 	H 	0.92130 0.44040 0.59150 0.08600
C 	C 	0.93483 0.48161 0.64730 0.09700
H 	H 	0.95630 0.47400 0.65830 -0.00200
C 	C 	0.86023 0.44918 0.54600 -0.14300
H 	H 	0.83730 0.45530 0.55720 0.06100
H 	H 	0.86350 0.42620 0.56190 0.06000
Mn	Mn	0.11288 0.47001 0.02584 1.33200
O 	O 	0.14867 0.49195 0.06595 -0.47200
O 	O 	0.11813 0.54746 0.87221 -0.42200
O 	O 	0.07537 0.45244 0.97280 -0.41500
N 	N 	0.10629 0.50439 0.94996 -0.28600
N 	N 	0.07849 0.49969 0.90292 -0.22200
N 	N 	0.80875 0.39500 0.30800 -0.22800
C 	C 	0.16570 0.51652 0.03573 0.29200
C 	C 	0.19556 0.52420 0.07121 -0.26900
H 	H 	0.20240 0.51200 0.11470 0.12700
C 	C 	0.21499 0.54911 0.04390 0.13800
H 	H 	0.23510 0.55380 0.06880 -0.02900
C 	C 	0.20575 0.56739 0.98057 -0.20600
H 	H 	0.21930 0.58450 0.96180 0.10300
C 	C 	0.17651 0.56012 0.94566 0.13500
H 	H 	0.17000 0.57260 0.90240 0.00800
C 	C 	0.15592 0.53507 0.97120 -0.24300
C 	C 	0.12541 0.52880 0.92981 0.27000
C 	C 	0.06475 0.47192 0.91902 0.19100
C 	C 	0.03628 0.46002 0.87220 -0.07800
H 	H 	0.02790 0.47820 0.84030 0.04000
H 	H 	0.01850 0.45290 0.90690 0.05100
C 	C 	0.04635 0.43102 0.81960 -0.40100
H 	H 	0.06280 0.43880 0.78230 0.13400
H 	H 	0.05680 0.41390 0.85140 0.14800
C 	C 	0.01803 0.41610 0.77650 0.58000
H 	H 	0.02010 0.39210 0.78240 -0.13300
H 	H 	0.99790 0.42260 0.80430 -0.12300
C 	C 	0.01300 0.42100 0.71170 -0.72300
H 	H 	0.03390 0.41770 0.68410 0.22200
H 	H 	0.00740 0.44440 0.70640 0.23800
C 	C 	0.98652 0.40120 0.66880 0.18300
H 	H 	0.98130 0.38140 0.69780 -0.02400
H 	H 	0.99460 0.39520 0.61790 -0.03300
H 	H 	0.96680 0.41460 0.66340 -0.02900
C 	C 	0.80683 0.39009 0.38319 0.09400
H 	H 	0.79240 0.37360 0.40130 -0.00800
C 	C 	0.82471 0.40764 0.43640 -0.17700
H 	H 	0.82260 0.40310 0.48960 0.08100
C 	C 	0.84563 0.43179 0.41110 0.12900
C 	C 	0.84718 0.43741 0.33330 -0.19000
H 	H 	0.86090 0.45420 0.31350 0.09100
C 	C 	0.82864 0.41850 0.28440 0.10000
H 	H 	0.83020 0.42250 0.23090 -0.00200
C 	C 	0.86620 0.45219 0.46550 -0.15600
H 	H 	0.86320 0.47550 0.45140 0.07400
H 	H 	0.88940 0.44670 0.45620 0.07100
Mn	Mn	0.29019 0.67338 0.56589 1.31600
O 	O 	0.26303 0.65546 0.49031 -0.47700
O 	O 	0.27522 0.75547 0.43036 -0.41300
O 	O 	0.31634 0.69875 0.63691 -0.44200
N 	N 	0.28611 0.71601 0.51916 -0.29400
N 	N 	0.30137 0.74165 0.56110 -0.23700
C 	C 	0.25016 0.66925 0.42787 0.29200
C 	C 	0.23021 0.64971 0.38190 -0.27600
H 	H 	0.22560 0.62790 0.39710 0.12200
C 	C 	0.21708 0.66160 0.31450 0.13700
H 	H 	0.20340 0.64790 0.28440 -0.02700
C 	C 	0.22343 0.69311 0.28990 -0.20200
H 	H 	0.21510 0.70090 0.24250 0.10100
C 	C 	0.24234 0.71315 0.33660 0.12300
H 	H 	0.24640 0.73500 0.32110 0.00200
C 	C 	0.25557 0.70189 0.40594 -0.24900
C 	C 	0.27321 0.72560 0.45339 0.26500
C 	C 	0.31594 0.73009 0.62173 0.25700
C 	C 	0.33313 0.75237 0.67667 -0.32300
H 	H 	0.33060 0.77520 0.65900 0.10900
H 	H 	0.32270 0.75050 0.72760 0.12200
C 	C 	0.36932 0.74467 0.68450 0.09900
H 	H 	0.37880 0.75860 0.72520 -0.00500
H 	H 	0.37190 0.72160 0.70020 0.00500
C 	C 	0.38814 0.75038 0.60960 -0.27300
H 	H 	0.37930 0.73570 0.56960 0.10300
H 	H 	0.38460 0.77320 0.59260 0.10500
C 	C 	0.42504 0.74429 0.61760 0.15200
H 	H 	0.43400 0.75880 0.65790 -0.02600
H 	H 	0.42880 0.72140 0.63360 -0.02400
C 	C 	0.44319 0.75079 0.54130 -0.49800
H 	H 	0.43710 0.77240 0.52170 0.16500
H 	H 	0.46680 0.75000 0.55000 0.15700
H 	H 	0.43710 0.73400 0.50370 0.16100
Mn	Mn	0.28785 0.78983 0.50493 1.33200
N 	N 	0.29355 0.82384 0.58134 -0.28700
N 	N 	0.26632 0.82830 0.63063 -0.23900
N 	N 	0.26159 0.82382 0.42125 -0.22600
O 	O 	0.32909 0.79847 0.46571 -0.47600
O 	O 	0.31698 0.86494 0.65032 -0.41200
O 	O 	0.24617 0.78688 0.55685 -0.43200
C 	C 	0.35008 0.82226 0.48181 0.30000
C 	C 	0.37811 0.82487 0.43550 -0.27500
H 	H 	0.38150 0.80970 0.39510 0.12600
C 	C 	0.40082 0.84926 0.44800 0.14900
H 	H 	0.41960 0.85060 0.41610 -0.02700
C 	C 	0.39669 0.87157 0.50580 -0.21600
H 	H 	0.41220 0.88860 0.51330 0.10700
C 	C 	0.36986 0.86905 0.55279 0.13800
H 	H 	0.36730 0.88420 0.59350 0.00000
C 	C 	0.34616 0.84467 0.54217 -0.24600
C 	C 	0.31771 0.84452 0.59422 0.26900
C 	C 	0.24297 0.80819 0.61178 0.26500
C 	C 	0.21032 0.81016 0.65120 -0.32700
H 	H 	0.20340 0.78800 0.66710 0.12700
H 	H 	0.21230 0.82390 0.69770 0.11000
C 	C 	0.18451 0.82496 0.59720 0.10800
H 	H 	0.16270 0.82240 0.62090 -0.00400
H 	H 	0.18450 0.81250 0.54860 0.01000
C 	C 	0.19011 0.86071 0.57970 -0.30000
H 	H 	0.19050 0.87300 0.62850 0.11500
H 	H 	0.21190 0.86320 0.55550 0.11600
C 	C 	0.16455 0.87584 0.52740 0.18900
H 	H 	0.16380 0.86340 0.47880 -0.03100
H 	H 	0.14280 0.87400 0.55200 -0.02800
C 	C 	0.17152 0.91200 0.50970 -0.54000
H 	H 	0.19400 0.91430 0.49100 0.17700
H 	H 	0.15620 0.91970 0.47050 0.17500
H 	H 	0.16880 0.92500 0.55640 0.18000
C 	C 	0.27134 0.85385 0.40450 0.09500
H 	H 	0.29250 0.86060 0.42060 -0.01300
C 	C 	0.25193 0.87575 0.36460 -0.18100
H 	H 	0.26000 0.89700 0.35330 0.08000
C 	C 	0.22109 0.86690 0.34130 0.12800
C 	C 	0.21137 0.83600 0.35760 -0.17800
H 	H 	0.19040 0.82870 0.34150 0.08600
C 	C 	0.23161 0.81517 0.39730 0.09700
H 	H 	0.22400 0.79370 0.40830 -0.00200
C 	C 	0.19918 0.88977 0.29600 -0.14300
H 	H 	0.20530 0.91270 0.30720 0.06100
H 	H 	0.17620 0.88650 0.31190 0.06000
Mn	Mn	0.22001 0.63712 0.77584 1.33200
O 	O 	0.24195 0.60133 0.81595 -0.47200
O 	O 	0.29746 0.63187 0.62221 -0.42200
O 	O 	0.20244 0.67463 0.72280 -0.41500
N 	N 	0.25439 0.64371 0.69996 -0.28600
N 	N 	0.24969 0.67151 0.65292 -0.22200
N 	N 	0.14500 0.94125 0.05800 -0.22800
C 	C 	0.26652 0.58430 0.78573 0.29200
C 	C 	0.27420 0.55444 0.82121 -0.26800
H 	H 	0.26200 0.54760 0.86470 0.12600
C 	C 	0.29911 0.53501 0.79390 0.13700
H 	H 	0.30380 0.51490 0.81880 -0.02900
C 	C 	0.31739 0.54425 0.73057 -0.20600
H 	H 	0.33450 0.53070 0.71180 0.10300
C 	C 	0.31012 0.57349 0.69566 0.13400
H 	H 	0.32260 0.58000 0.65240 0.00800
C 	C 	0.28507 0.59408 0.72120 -0.24200
C 	C 	0.27880 0.62459 0.67981 0.27000
C 	C 	0.22192 0.68525 0.66902 0.19100
C 	C 	0.21002 0.71372 0.62220 -0.07800
H 	H 	0.22820 0.72210 0.59030 0.04000
H 	H 	0.20290 0.73150 0.65690 0.05100
C 	C 	0.18102 0.70365 0.56960 -0.40000
H 	H 	0.18880 0.68720 0.53230 0.13400
H 	H 	0.16390 0.69320 0.60140 0.14800
C 	C 	0.16610 0.73197 0.52650 0.57900
H 	H 	0.14210 0.72990 0.53240 -0.13300
H 	H 	0.17260 0.75210 0.55430 -0.12300
C 	C 	0.17100 0.73700 0.46170 -0.72100
H 	H 	0.16770 0.71610 0.43410 0.22200
H 	H 	0.19440 0.74260 0.45640 0.23700
C 	C 	0.15120 0.76348 0.41880 0.18200
H 	H 	0.13140 0.76870 0.44780 -0.02400
H 	H 	0.14520 0.75540 0.36790 -0.03300
H 	H 	0.16460 0.78320 0.41340 -0.02900
C 	C 	0.14009 0.94317 0.13319 0.09400
H 	H 	0.12360 0.95760 0.15130 -0.00800
C 	C 	0.15764 0.92529 0.18640 -0.17700
H 	H 	0.15310 0.92740 0.23960 0.08100
C 	C 	0.18179 0.90437 0.16110 0.13000
C 	C 	0.18741 0.90282 0.08330 -0.19100
H 	H 	0.20420 0.88910 0.06350 0.09100
C 	C 	0.16850 0.92136 0.03440 0.10200
H 	H 	0.17250 0.91980 0.98090 -0.00300
C 	C 	0.20219 0.88380 0.21550 -0.15700
H 	H 	0.22550 0.88680 0.20140 0.07400
H 	H 	0.19670 0.86060 0.20620 0.07100
Mn	Mn	0.79019 0.17338 0.06589 1.31600
O 	O 	0.76303 0.15546 0.99031 -0.47600
O 	O 	0.77522 0.25547 0.93036 -0.41300
O 	O 	0.81634 0.19875 0.13691 -0.44200
N 	N 	0.78611 0.21601 0.01916 -0.29500
N 	N 	0.80137 0.24165 0.06110 -0.23700
C 	C 	0.75016 0.16925 0.92787 0.29200
C 	C 	0.73021 0.14971 0.88190 -0.27600
H 	H 	0.72560 0.12790 0.89710 0.12200
C 	C 	0.71708 0.16160 0.81450 0.13700
H 	H 	0.70340 0.14790 0.78440 -0.02700
C 	C 	0.72343 0.19311 0.78990 -0.20200
H 	H 	0.71510 0.20090 0.74250 0.10100
C 	C 	0.74234 0.21315 0.83660 0.12300
H 	H 	0.74640 0.23500 0.82110 0.00200
C 	C 	0.75557 0.20189 0.90594 -0.24900
C 	C 	0.77321 0.22560 0.95339 0.26700
C 	C 	0.81594 0.23009 0.12173 0.25700
C 	C 	0.83313 0.25237 0.17667 -0.32300
H 	H 	0.83060 0.27520 0.15900 0.10800
H 	H 	0.82270 0.25050 0.22760 0.12200
C 	C 	0.86932 0.24467 0.18450 0.09800
H 	H 	0.87880 0.25860 0.22520 -0.00500
H 	H 	0.87190 0.22160 0.20020 0.00500
C 	C 	0.88814 0.25038 0.10960 -0.27300
H 	H 	0.87930 0.23570 0.06960 0.10300
H 	H 	0.88460 0.27320 0.09260 0.10500
C 	C 	0.92504 0.24429 0.11760 0.15200
H 	H 	0.93400 0.25880 0.15790 -0.02600
H 	H 	0.92880 0.22140 0.13360 -0.02400
C 	C 	0.94319 0.25079 0.04130 -0.49700
H 	H 	0.93710 0.27240 0.02170 0.16400
H 	H 	0.96680 0.25000 0.05000 0.15600
H 	H 	0.93710 0.23400 0.00370 0.16000
Mn	Mn	0.78785 0.28983 0.00493 1.33100
N 	N 	0.79355 0.32384 0.08134 -0.28800
N 	N 	0.76632 0.32830 0.13063 -0.23900
N 	N 	0.76159 0.32382 0.92125 -0.22600
O 	O 	0.82909 0.29847 0.96571 -0.47500
O 	O 	0.81698 0.36494 0.15032 -0.41300
O 	O 	0.74617 0.28688 0.05685 -0.43300
C 	C 	0.85008 0.32226 0.98181 0.30300
C 	C 	0.87811 0.32487 0.93550 -0.27700
H 	H 	0.88150 0.30970 0.89510 0.12700
C 	C 	0.90082 0.34926 0.94800 0.15300
H 	H 	0.91960 0.35060 0.91610 -0.02800
C 	C 	0.89669 0.37157 0.00580 -0.22000
H 	H 	0.91220 0.38860 0.01330 0.10800
C 	C 	0.86986 0.36905 0.05279 0.14100
H 	H 	0.86730 0.38420 0.09350 -0.00000
C 	C 	0.84616 0.34467 0.04217 -0.24900
C 	C 	0.81771 0.34452 0.09422 0.27000
C 	C 	0.74297 0.30819 0.11178 0.26500
C 	C 	0.71032 0.31016 0.15120 -0.32700
H 	H 	0.70340 0.28800 0.16710 0.12700
H 	H 	0.71230 0.32390 0.19770 0.11000
C 	C 	0.68451 0.32496 0.09720 0.10800
H 	H 	0.66270 0.32240 0.12090 -0.00400
H 	H 	0.68450 0.31250 0.04860 0.00900
C 	C 	0.69011 0.36071 0.07970 -0.30000
H 	H 	0.69050 0.37300 0.12850 0.11500
H 	H 	0.71190 0.36320 0.05550 0.11600
C 	C 	0.66455 0.37584 0.02740 0.18800
H 	H 	0.66380 0.36340 0.97880 -0.03000
H 	H 	0.64280 0.37400 0.05200 -0.02800
C 	C 	0.67152 0.41200 0.00970 -0.54300
H 	H 	0.69400 0.41430 0.99100 0.17900
H 	H 	0.65620 0.41970 0.97050 0.17600
H 	H 	0.66880 0.42500 0.05640 0.18100
C 	C 	0.77134 0.35385 0.90450 0.09500
H 	H 	0.79250 0.36060 0.92060 -0.01300
C 	C 	0.75193 0.37575 0.86460 -0.18100
H 	H 	0.76000 0.39700 0.85330 0.08000
C 	C 	0.72109 0.36690 0.84130 0.12800
C 	C 	0.71137 0.33600 0.85760 -0.17800
H 	H 	0.69040 0.32870 0.84150 0.08600
C 	C 	0.73161 0.31517 0.89730 0.09700
H 	H 	0.72400 0.29370 0.90830 -0.00200
C 	C 	0.69918 0.38977 0.79600 -0.14300
H 	H 	0.70530 0.41270 0.80720 0.06100
H 	H 	0.67620 0.38650 0.81190 0.06000
Mn	Mn	0.72001 0.13712 0.27584 1.33200
O 	O 	0.74195 0.10133 0.31595 -0.47200
O 	O 	0.79746 0.13187 0.12221 -0.42300
O 	O 	0.70244 0.17463 0.22280 -0.41500
N 	N 	0.75439 0.14371 0.19996 -0.28600
N 	N 	0.74969 0.17151 0.15292 -0.22200
N 	N 	0.64500 0.44125 0.55800 -0.22800
C 	C 	0.76652 0.08430 0.28573 0.29200
C 	C 	0.77420 0.05444 0.32121 -0.26800
H 	H 	0.76200 0.04760 0.36470 0.12600
C 	C 	0.79911 0.03501 0.29390 0.13700
H 	H 	0.80380 0.01490 0.31880 -0.02900
C 	C 	0.81739 0.04425 0.23057 -0.20600
H 	H 	0.83450 0.03070 0.21180 0.10300
C 	C 	0.81012 0.07349 0.19566 0.13400
H 	H 	0.82260 0.08000 0.15240 0.00800
C 	C 	0.78507 0.09408 0.22120 -0.24200
C 	C 	0.77880 0.12459 0.17981 0.27000
C 	C 	0.72192 0.18525 0.16902 0.19000
C 	C 	0.71002 0.21372 0.12220 -0.07400
H 	H 	0.72820 0.22210 0.09030 0.03900
H 	H 	0.70290 0.23150 0.15690 0.05000
C 	C 	0.68102 0.20365 0.06960 -0.40800
H 	H 	0.68880 0.18720 0.03230 0.13500
H 	H 	0.66390 0.19320 0.10140 0.15000
C 	C 	0.66610 0.23197 0.02650 0.59300
H 	H 	0.64210 0.22990 0.03240 -0.13700
H 	H 	0.67260 0.25210 0.05430 -0.12700
C 	C 	0.67100 0.23700 0.96170 -0.73600
H 	H 	0.66770 0.21610 0.93410 0.22600
H 	H 	0.69440 0.24260 0.95640 0.24200
C 	C 	0.65120 0.26348 0.91880 0.19300
H 	H 	0.63140 0.26870 0.94780 -0.02700
H 	H 	0.64520 0.25540 0.86790 -0.03600
H 	H 	0.66460 0.28320 0.91340 -0.03200
C 	C 	0.64009 0.44317 0.63319 0.09400
H 	H 	0.62360 0.45760 0.65130 -0.00800
C 	C 	0.65764 0.42529 0.68640 -0.17700
H 	H 	0.65310 0.42740 0.73960 0.08100
C 	C 	0.68179 0.40437 0.66110 0.12900
C 	C 	0.68741 0.40282 0.58330 -0.19000
H 	H 	0.70420 0.38910 0.56350 0.09100
C 	C 	0.66850 0.42136 0.53440 0.10000
H 	H 	0.67250 0.41980 0.48090 -0.00200
C 	C 	0.70219 0.38380 0.71550 -0.15600
H 	H 	0.72550 0.38680 0.70140 0.07400
H 	H 	0.69670 0.36060 0.70620 0.07100
Mn	Mn	0.20981 0.32662 0.06589 1.31600
O 	O 	0.23697 0.34454 0.99031 -0.47600
O 	O 	0.22478 0.24453 0.93036 -0.41300
O 	O 	0.18366 0.30125 0.13691 -0.44200
N 	N 	0.21389 0.28399 0.01916 -0.29500
N 	N 	0.19863 0.25835 0.06110 -0.23700
C 	C 	0.24984 0.33075 0.92787 0.29200
C 	C 	0.26979 0.35029 0.88190 -0.27600
H 	H 	0.27440 0.37210 0.89710 0.12200
C 	C 	0.28292 0.33840 0.81450 0.13700
H 	H 	0.29660 0.35210 0.78440 -0.02700
C 	C 	0.27657 0.30689 0.78990 -0.20200
H 	H 	0.28490 0.29910 0.74250 0.10100
C 	C 	0.25766 0.28685 0.83660 0.12300
H 	H 	0.25360 0.26500 0.82110 0.00200
C 	C 	0.24443 0.29811 0.90594 -0.24900
C 	C 	0.22679 0.27440 0.95339 0.26700
C 	C 	0.18406 0.26991 0.12173 0.25700
C 	C 	0.16687 0.24763 0.17667 -0.32300
H 	H 	0.16940 0.22480 0.15900 0.10800
H 	H 	0.17730 0.24950 0.22760 0.12200
C 	C 	0.13068 0.25533 0.18450 0.09800
H 	H 	0.12120 0.24140 0.22520 -0.00500
H 	H 	0.12810 0.27840 0.20020 0.00500
C 	C 	0.11186 0.24962 0.10960 -0.27300
H 	H 	0.12070 0.26430 0.06960 0.10300
H 	H 	0.11540 0.22680 0.09260 0.10500
C 	C 	0.07496 0.25571 0.11760 0.15100
H 	H 	0.06600 0.24120 0.15790 -0.02600
H 	H 	0.07120 0.27860 0.13360 -0.02400
C 	C 	0.05681 0.24921 0.04130 -0.49600
H 	H 	0.06290 0.22760 0.02170 0.16400
H 	H 	0.03320 0.25000 0.05000 0.15600
H 	H 	0.06290 0.26600 0.00370 0.16000
Mn	Mn	0.21215 0.21017 0.00493 1.33100
N 	N 	0.20645 0.17616 0.08134 -0.28800
N 	N 	0.23368 0.17170 0.13063 -0.23900
N 	N 	0.23841 0.17618 0.92125 -0.22600
O 	O 	0.17091 0.20153 0.96571 -0.47600
O 	O 	0.18302 0.13506 0.15032 -0.41300
O 	O 	0.25383 0.21312 0.05685 -0.43300
C 	C 	0.14992 0.17774 0.98181 0.30300
C 	C 	0.12189 0.17513 0.93550 -0.27800
H 	H 	0.11850 0.19030 0.89510 0.12700
C 	C 	0.09918 0.15074 0.94800 0.15300
H 	H 	0.08040 0.14940 0.91610 -0.02800
C 	C 	0.10331 0.12843 0.00580 -0.22000
H 	H 	0.08780 0.11140 0.01330 0.10800
C 	C 	0.13014 0.13095 0.05279 0.14100
H 	H 	0.13270 0.11580 0.09350 -0.00100
C 	C 	0.15384 0.15533 0.04217 -0.24900
C 	C 	0.18229 0.15548 0.09422 0.27000
C 	C 	0.25703 0.19181 0.11178 0.26500
C 	C 	0.28968 0.18984 0.15120 -0.32700
H 	H 	0.29660 0.21200 0.16710 0.12700
H 	H 	0.28770 0.17610 0.19770 0.11000
C 	C 	0.31549 0.17504 0.09720 0.10800
H 	H 	0.33730 0.17760 0.12090 -0.00400
H 	H 	0.31550 0.18750 0.04860 0.00900
C 	C 	0.30989 0.13929 0.07970 -0.30000
H 	H 	0.30950 0.12700 0.12850 0.11500
H 	H 	0.28810 0.13680 0.05550 0.11600
C 	C 	0.33545 0.12416 0.02740 0.18900
H 	H 	0.33620 0.13660 0.97880 -0.03000
H 	H 	0.35720 0.12600 0.05200 -0.02900
C 	C 	0.32848 0.08800 0.00970 -0.54400
H 	H 	0.30600 0.08570 0.99100 0.17900
H 	H 	0.34380 0.08030 0.97050 0.17700
H 	H 	0.33120 0.07500 0.05640 0.18100
C 	C 	0.22866 0.14615 0.90450 0.09500
H 	H 	0.20750 0.13940 0.92060 -0.01300
C 	C 	0.24807 0.12425 0.86460 -0.18100
H 	H 	0.24000 0.10300 0.85330 0.08000
C 	C 	0.27891 0.13310 0.84130 0.12800
C 	C 	0.28863 0.16400 0.85760 -0.17800
H 	H 	0.30960 0.17130 0.84150 0.08600
C 	C 	0.26839 0.18483 0.89730 0.09700
H 	H 	0.27600 0.20630 0.90830 -0.00200
C 	C 	0.30082 0.11023 0.79600 -0.14300
H 	H 	0.29470 0.08730 0.80720 0.06100
H 	H 	0.32380 0.11350 0.81190 0.06000
Mn	Mn	0.27999 0.36288 0.27584 1.33200
O 	O 	0.25805 0.39867 0.31595 -0.47200
O 	O 	0.20254 0.36813 0.12221 -0.42200
O 	O 	0.29756 0.32537 0.22280 -0.41500
N 	N 	0.24561 0.35629 0.19996 -0.28600
N 	N 	0.25031 0.32849 0.15292 -0.22200
N 	N 	0.35500 0.05875 0.55800 -0.22800
C 	C 	0.23348 0.41570 0.28573 0.29200
C 	C 	0.22580 0.44556 0.32121 -0.26800
H 	H 	0.23800 0.45240 0.36470 0.12600
C 	C 	0.20089 0.46499 0.29390 0.13700
H 	H 	0.19620 0.48510 0.31880 -0.02900
C 	C 	0.18261 0.45575 0.23057 -0.20600
H 	H 	0.16550 0.46930 0.21180 0.10300
C 	C 	0.18988 0.42651 0.19566 0.13400
H 	H 	0.17740 0.42000 0.15240 0.00800
C 	C 	0.21493 0.40592 0.22120 -0.24200
C 	C 	0.22120 0.37541 0.17981 0.27000
C 	C 	0.27808 0.31475 0.16902 0.19000
C 	C 	0.28998 0.28628 0.12220 -0.07400
H 	H 	0.27180 0.27790 0.09030 0.03900
H 	H 	0.29710 0.26850 0.15690 0.05000
C 	C 	0.31898 0.29635 0.06960 -0.40800
H 	H 	0.31120 0.31280 0.03230 0.13500
H 	H 	0.33610 0.30680 0.10140 0.15000
C 	C 	0.33390 0.26803 0.02650 0.59300
H 	H 	0.35790 0.27010 0.03240 -0.13700
H 	H 	0.32740 0.24790 0.05430 -0.12700
C 	C 	0.32900 0.26300 0.96170 -0.73500
H 	H 	0.33230 0.28390 0.93410 0.22600
H 	H 	0.30560 0.25740 0.95640 0.24200
C 	C 	0.34880 0.23652 0.91880 0.19300
H 	H 	0.36860 0.23130 0.94780 -0.02600
H 	H 	0.35480 0.24460 0.86790 -0.03600
H 	H 	0.33540 0.21680 0.91340 -0.03200
C 	C 	0.35991 0.05683 0.63319 0.09400
H 	H 	0.37640 0.04240 0.65130 -0.00800
C 	C 	0.34236 0.07471 0.68640 -0.17700
H 	H 	0.34690 0.07260 0.73960 0.08100
C 	C 	0.31821 0.09563 0.66110 0.12900
C 	C 	0.31259 0.09718 0.58330 -0.19000
H 	H 	0.29580 0.11090 0.56350 0.09100
C 	C 	0.33150 0.07864 0.53440 0.10000
H 	H 	0.32750 0.08020 0.48090 -0.00200
C 	C 	0.29781 0.11620 0.71550 -0.15600
H 	H 	0.27450 0.11320 0.70140 0.07400
H 	H 	0.30330 0.13940 0.70620 0.07100
Mn	Mn	0.70981 0.82662 0.56589 1.31600
O 	O 	0.73697 0.84454 0.49031 -0.47700
O 	O 	0.72478 0.74453 0.43036 -0.41300
O 	O 	0.68366 0.80125 0.63691 -0.44200
N 	N 	0.71389 0.78399 0.51916 -0.29400
N 	N 	0.69863 0.75835 0.56110 -0.23700
C 	C 	0.74984 0.83075 0.42787 0.29200
C 	C 	0.76979 0.85029 0.38190 -0.27600
H 	H 	0.77440 0.87210 0.39710 0.12200
C 	C 	0.78292 0.83840 0.31450 0.13700
H 	H 	0.79660 0.85210 0.28440 -0.02700
C 	C 	0.77657 0.80689 0.28990 -0.20200
H 	H 	0.78490 0.79910 0.24250 0.10100
C 	C 	0.75766 0.78685 0.33660 0.12300
H 	H 	0.75360 0.76500 0.32110 0.00200
C 	C 	0.74443 0.79811 0.40594 -0.24900
C 	C 	0.72679 0.77440 0.45339 0.26500
C 	C 	0.68406 0.76991 0.62173 0.25700
C 	C 	0.66687 0.74763 0.67667 -0.32300
H 	H 	0.66940 0.72480 0.65900 0.10900
H 	H 	0.67730 0.74950 0.72760 0.12200
C 	C 	0.63068 0.75533 0.68450 0.09900
H 	H 	0.62120 0.74140 0.72520 -0.00500
H 	H 	0.62810 0.77840 0.70020 0.00500
C 	C 	0.61186 0.74962 0.60960 -0.27300
H 	H 	0.62070 0.76430 0.56960 0.10300
H 	H 	0.61540 0.72680 0.59260 0.10500
C 	C 	0.57496 0.75571 0.61760 0.15200
H 	H 	0.56600 0.74120 0.65790 -0.02600
H 	H 	0.57120 0.77860 0.63360 -0.02400
C 	C 	0.55681 0.74921 0.54130 -0.49800
H 	H 	0.56290 0.72760 0.52170 0.16500
H 	H 	0.53320 0.75000 0.55000 0.15700
H 	H 	0.56290 0.76600 0.50370 0.16100
Mn	Mn	0.71215 0.71017 0.50493 1.33200
N 	N 	0.70645 0.67616 0.58134 -0.28700
N 	N 	0.73368 0.67170 0.63063 -0.23900
N 	N 	0.73841 0.67618 0.42125 -0.22600
O 	O 	0.67091 0.70153 0.46571 -0.47600
O 	O 	0.68302 0.63506 0.65032 -0.41200
O 	O 	0.75383 0.71312 0.55685 -0.43200
C 	C 	0.64992 0.67774 0.48181 0.30000
C 	C 	0.62189 0.67513 0.43550 -0.27500
H 	H 	0.61850 0.69030 0.39510 0.12600
C 	C 	0.59918 0.65074 0.44800 0.14900
H 	H 	0.58040 0.64940 0.41610 -0.02700
C 	C 	0.60331 0.62843 0.50580 -0.21600
H 	H 	0.58780 0.61140 0.51330 0.10700
C 	C 	0.63014 0.63095 0.55279 0.13800
H 	H 	0.63270 0.61580 0.59350 0.00000
C 	C 	0.65384 0.65533 0.54217 -0.24600
C 	C 	0.68229 0.65548 0.59422 0.26900
C 	C 	0.75703 0.69181 0.61178 0.26500
C 	C 	0.78968 0.68984 0.65120 -0.32700
H 	H 	0.79660 0.71200 0.66710 0.12700
H 	H 	0.78770 0.67610 0.69770 0.11000
C 	C 	0.81549 0.67504 0.59720 0.10800
H 	H 	0.83730 0.67760 0.62090 -0.00400
H 	H 	0.81550 0.68750 0.54860 0.01000
C 	C 	0.80989 0.63929 0.57970 -0.30000
H 	H 	0.80950 0.62700 0.62850 0.11500
H 	H 	0.78810 0.63680 0.55550 0.11600
C 	C 	0.83545 0.62416 0.52740 0.18900
H 	H 	0.83620 0.63660 0.47880 -0.03100
H 	H 	0.85720 0.62600 0.55200 -0.02800
C 	C 	0.82848 0.58800 0.50970 -0.54000
H 	H 	0.80600 0.58570 0.49100 0.17700
H 	H 	0.84380 0.58030 0.47050 0.17500
H 	H 	0.83120 0.57500 0.55640 0.18000
C 	C 	0.72866 0.64615 0.40450 0.09500
H 	H 	0.70750 0.63940 0.42060 -0.01300
C 	C 	0.74807 0.62425 0.36460 -0.18100
H 	H 	0.74000 0.60300 0.35330 0.08000
C 	C 	0.77891 0.63310 0.34130 0.12800
C 	C 	0.78863 0.66400 0.35760 -0.17800
H 	H 	0.80960 0.67130 0.34150 0.08600
C 	C 	0.76839 0.68483 0.39730 0.09700
H 	H 	0.77600 0.70630 0.40830 -0.00200
C 	C 	0.80082 0.61023 0.29600 -0.14300
H 	H 	0.79470 0.58730 0.30720 0.06100
H 	H 	0.82380 0.61350 0.31190 0.06000
Mn	Mn	0.77999 0.86288 0.77584 1.33200
O 	O 	0.75805 0.89867 0.81595 -0.47200
O 	O 	0.70254 0.86813 0.62221 -0.42200
O 	O 	0.79756 0.82537 0.72280 -0.41500
N 	N 	0.74561 0.85629 0.69996 -0.28600
N 	N 	0.75031 0.82849 0.65292 -0.22200
N 	N 	0.85500 0.55875 0.05800 -0.22800
C 	C 	0.73348 0.91570 0.78573 0.29200
C 	C 	0.72580 0.94556 0.82121 -0.26800
H 	H 	0.73800 0.95240 0.86470 0.12600
C 	C 	0.70089 0.96499 0.79390 0.13700
H 	H 	0.69620 0.98510 0.81880 -0.02900
C 	C 	0.68261 0.95575 0.73057 -0.20600
H 	H 	0.66550 0.96930 0.71180 0.10300
C 	C 	0.68988 0.92651 0.69566 0.13400
H 	H 	0.67740 0.92000 0.65240 0.00800
C 	C 	0.71493 0.90592 0.72120 -0.24200
C 	C 	0.72120 0.87541 0.67981 0.27000
C 	C 	0.77808 0.81475 0.66902 0.19100
C 	C 	0.78998 0.78628 0.62220 -0.07800
H 	H 	0.77180 0.77790 0.59030 0.04000
H 	H 	0.79710 0.76850 0.65690 0.05100
C 	C 	0.81898 0.79635 0.56960 -0.40000
H 	H 	0.81120 0.81280 0.53230 0.13400
H 	H 	0.83610 0.80680 0.60140 0.14800
C 	C 	0.83390 0.76803 0.52650 0.58000
H 	H 	0.85790 0.77010 0.53240 -0.13300
H 	H 	0.82740 0.74790 0.55430 -0.12300
C 	C 	0.82900 0.76300 0.46170 -0.72200
H 	H 	0.83230 0.78390 0.43410 0.22200
H 	H 	0.80560 0.75740 0.45640 0.23700
C 	C 	0.84880 0.73652 0.41880 0.18200
H 	H 	0.86860 0.73130 0.44780 -0.02400
H 	H 	0.85480 0.74460 0.36790 -0.03300
H 	H 	0.83540 0.71680 0.41340 -0.02900
C 	C 	0.85991 0.55683 0.13319 0.09400
H 	H 	0.87640 0.54240 0.15130 -0.00800
C 	C 	0.84236 0.57471 0.18640 -0.17700
H 	H 	0.84690 0.57260 0.23960 0.08100
C 	C 	0.81821 0.59563 0.16110 0.13000
C 	C 	0.81259 0.59718 0.08330 -0.19100
H 	H 	0.79580 0.61090 0.06350 0.09100
C 	C 	0.83150 0.57864 0.03440 0.10200
H 	H 	0.82750 0.58020 0.98090 -0.00300
C 	C 	0.79781 0.61620 0.21550 -0.15700
H 	H 	0.77450 0.61320 0.20140 0.07400
H 	H 	0.80330 0.63940 0.20620 0.07100
