data_crystal

_cell_length_a 17.43930
_cell_length_b 30.17410
_cell_length_c 30.17410
_cell_angle_alpha 85.20980
_cell_angle_beta  73.20320
_cell_angle_gamma 73.20330

_symmetry_space_group_name_	'P 1'
_symmetry_space_group_name_H-M	'P 1'

loop_
_symmetry_equiv_pos_as_xyz
  x,y,z

loop_
_atom_site_label
_atom_site_type_symbol
_atom_site_fract_x
_atom_site_fract_y
_atom_site_fract_z
_atom_site_charge
Mn	Mn	0.58880 0.91647 0.35666 1.33500
Mn	Mn	0.76073 0.88226 0.46406 1.31900
Mn	Mn	0.29646 0.99811 0.42201 1.33100
Mn	Mn	0.36194 0.58353 0.14334 1.33500
Mn	Mn	0.60705 0.61774 0.03594 1.31900
Mn	Mn	0.21658 0.50189 0.07799 1.33100
Mn	Mn	0.94547 0.64334 0.41646 1.33500
Mn	Mn	0.22479 0.53594 0.38226 1.31900
Mn	Mn	0.71847 0.57799 0.49811 1.33100
Mn	Mn	0.50527 0.85666 0.08354 1.33500
Mn	Mn	0.64299 0.96406 0.11774 1.31900
Mn	Mn	0.29457 0.92201 0.00189 1.33100
Mn	Mn	0.41120 0.08353 0.64334 1.33500
Mn	Mn	0.23927 0.11774 0.53594 1.31900
Mn	Mn	0.70354 0.00189 0.57799 1.33100
Mn	Mn	0.63806 0.41647 0.85666 1.33500
Mn	Mn	0.39295 0.38226 0.96406 1.31900
Mn	Mn	0.78342 0.49811 0.92201 1.33100
Mn	Mn	0.05453 0.35666 0.58354 1.33500
Mn	Mn	0.77521 0.46406 0.61774 1.31900
Mn	Mn	0.28153 0.42201 0.50189 1.33100
Mn	Mn	0.49473 0.14334 0.91646 1.33500
Mn	Mn	0.35701 0.03594 0.88226 1.31900
Mn	Mn	0.70543 0.07799 0.99811 1.33100
H 	H 	0.58920 0.78490 0.30990 0.14700
H 	H 	0.66800 0.71110 0.31750 -0.05800
H 	H 	0.75950 0.69660 0.36320 0.12300
H 	H 	0.76800 0.75690 0.40110 -0.01100
H 	H 	0.61350 0.02790 0.43350 0.07400
H 	H 	0.68270 0.99310 0.45270 0.07100
H 	H 	0.71800 0.02460 0.35900 0.10500
H 	H 	0.78540 0.99610 0.38330 0.09600
H 	H 	0.71020 0.06820 0.43640 -0.04000
H 	H 	0.71110 0.08950 0.38730 -0.05700
H 	H 	0.82970 0.04420 0.41820 0.15000
H 	H 	0.83470 0.05990 0.36730 0.13700
H 	H 	0.76800 0.14190 0.40730 0.07500
H 	H 	0.81900 0.11670 0.44170 0.07500
H 	H 	0.86510 0.12180 0.38940 0.06600
H 	H 	0.77840 0.91460 0.33420 -0.01100
H 	H 	0.89500 0.91520 0.27560 0.08600
H 	H 	0.77320 0.90370 0.18510 0.09800
H 	H 	0.65690 0.90690 0.24610 -0.00200
H 	H 	0.90800 0.93760 0.16340 0.07400
H 	H 	0.93280 0.88360 0.16160 0.07300
H 	H 	0.97340 0.90190 0.35390 0.13500
H 	H 	0.06660 0.94210 0.35270 -0.04700
H 	H 	0.05460 0.98590 0.41630 0.11600
H 	H 	0.94170 0.98910 0.48050 -0.00800
H 	H 	0.52260 0.92580 0.57500 0.17100
H 	H 	0.56550 0.94310 0.60650 0.15800
H 	H 	0.51980 0.87790 0.63830 -0.07800
H 	H 	0.58100 0.84870 0.59510 -0.06700
H 	H 	0.69560 0.85530 0.61630 0.20200
H 	H 	0.63680 0.88780 0.65760 0.20600
H 	H 	0.64560 0.79280 0.65300 -0.15400
H 	H 	0.58580 0.82530 0.69410 -0.15700
H 	H 	0.76160 0.80190 0.67290 0.32300
H 	H 	0.70080 0.83310 0.71490 0.33000
H 	H 	0.70550 0.78050 0.71430 0.32100
H 	H 	0.20900 0.07200 0.30860 0.14000
H 	H 	0.26950 0.06920 0.22980 -0.03700
H 	H 	0.40530 0.02380 0.19920 0.12600
H 	H 	0.47850 0.98250 0.24870 -0.01000
H 	H 	0.45600 0.91660 0.50840 0.19200
H 	H 	0.52210 0.88980 0.46500 0.17800
H 	H 	0.44600 0.84200 0.51560 -0.10200
H 	H 	0.36510 0.87230 0.50350 -0.08900
H 	H 	0.50480 0.81850 0.43790 0.24900
H 	H 	0.42360 0.84850 0.42610 0.24900
H 	H 	0.42890 0.76970 0.48410 -0.21100
H 	H 	0.34860 0.79930 0.47110 -0.21400
H 	H 	0.42640 0.77680 0.39160 0.41500
H 	H 	0.39380 0.73870 0.42370 0.41600
H 	H 	0.48730 0.73860 0.41320 0.41900
H 	H 	0.13730 0.98060 0.07120 -0.00500
H 	H 	0.03380 0.97890 0.13750 0.09300
H 	H 	0.11240 0.84200 0.13360 0.08300
H 	H 	0.21400 0.84640 0.06720 -0.02400
H 	H 	0.01560 0.87950 0.20650 0.06300
H 	H 	0.98980 0.93380 0.20940 0.06500
H 	H 	0.18400 0.71510 0.19010 0.14600
H 	H 	0.19660 0.78890 0.18250 -0.05900
H 	H 	0.31930 0.80340 0.13680 0.12300
H 	H 	0.42600 0.74310 0.09890 -0.01100
H 	H 	0.57490 0.47210 0.06650 0.07400
H 	H 	0.62850 0.50690 0.04730 0.07100
H 	H 	0.60160 0.47540 0.14100 0.10500
H 	H 	0.66480 0.50390 0.11670 0.09600
H 	H 	0.71480 0.43180 0.06360 -0.04000
H 	H 	0.68790 0.41050 0.11270 -0.05700
H 	H 	0.79210 0.45580 0.08180 0.15000
H 	H 	0.76190 0.44010 0.13270 0.13700
H 	H 	0.81720 0.35810 0.09270 0.07500
H 	H 	0.87740 0.38330 0.05830 0.07500
H 	H 	0.87630 0.37820 0.11060 0.06600
H 	H 	0.52720 0.58540 0.16580 -0.01100
H 	H 	0.58580 0.58480 0.22440 0.08600
H 	H 	0.36200 0.59630 0.31490 0.09800
H 	H 	0.30990 0.59310 0.25390 -0.00200
H 	H 	0.50900 0.56240 0.33660 0.07300
H 	H 	0.47800 0.61640 0.33840 0.07300
H 	H 	0.72920 0.59810 0.14610 0.13500
H 	H 	0.86140 0.55790 0.14730 -0.04700
H 	H 	0.95680 0.51410 0.08370 0.11600
H 	H 	0.91130 0.51090 0.01950 -0.00800
H 	H 	0.52340 0.57420 0.92500 0.17100
H 	H 	0.61510 0.55690 0.89350 0.15800
H 	H 	0.53600 0.62210 0.86170 -0.07800
H 	H 	0.52480 0.65130 0.90490 -0.06700
H 	H 	0.66720 0.64470 0.88370 0.20200
H 	H 	0.68220 0.61220 0.84240 0.20600
H 	H 	0.59140 0.70720 0.84700 -0.15400
H 	H 	0.60520 0.67470 0.80590 -0.15700
H 	H 	0.73640 0.69810 0.82710 0.32300
H 	H 	0.74880 0.66690 0.78510 0.33000
H 	H 	0.70030 0.71950 0.78570 0.32100
H 	H 	0.08960 0.42800 0.19140 0.14000
H 	H 	0.06850 0.43080 0.27020 -0.03700
H 	H 	0.12830 0.47620 0.30080 0.12500
H 	H 	0.20970 0.51750 0.25130 -0.00900
H 	H 	0.38100 0.58340 0.99160 0.19200
H 	H 	0.37690 0.61020 0.03500 0.17700
H 	H 	0.30360 0.65800 0.98440 -0.10100
H 	H 	0.24090 0.62770 0.99650 -0.08700
H 	H 	0.26120 0.68150 0.06210 0.24900
H 	H 	0.19820 0.65150 0.07390 0.24800
H 	H 	0.18270 0.73030 0.01590 -0.21100
H 	H 	0.11900 0.70070 0.02890 -0.21400
H 	H 	0.09480 0.72320 0.10840 0.41500
H 	H 	0.05620 0.76130 0.07630 0.41500
H 	H 	0.13910 0.76140 0.08680 0.41900
H 	H 	0.68910 0.51940 0.42880 -0.00500
H 	H 	0.65020 0.52110 0.36250 0.09300
H 	H 	0.58800 0.65800 0.36640 0.08400
H 	H 	0.62760 0.65360 0.43280 -0.02400
H 	H 	0.60160 0.62050 0.29350 0.06400
H 	H 	0.63300 0.56620 0.29060 0.06600
H 	H 	0.89910 0.69010 0.28490 0.14600
H 	H 	0.98550 0.68250 0.21110 -0.05900
H 	H 	0.12270 0.63680 0.19660 0.12300
H 	H 	0.16910 0.59890 0.25690 -0.01000
H 	H 	0.04700 0.56650 0.52790 0.07400
H 	H 	0.13540 0.54730 0.49310 0.07100
H 	H 	0.07700 0.64100 0.52460 0.10500
H 	H 	0.16870 0.61670 0.49610 0.09600
H 	H 	0.14660 0.56360 0.56820 -0.04000
H 	H 	0.09840 0.61270 0.58950 -0.05700
H 	H 	0.24790 0.58180 0.54420 0.15000
H 	H 	0.20200 0.63270 0.55990 0.13700
H 	H 	0.17530 0.59270 0.64190 0.07500
H 	H 	0.26070 0.55830 0.61670 0.07500
H 	H 	0.25450 0.61060 0.62180 0.06600
H 	H 	0.11260 0.66580 0.41460 -0.01100
H 	H 	0.17060 0.72440 0.41520 0.08500
H 	H 	0.95830 0.81490 0.40370 0.09800
H 	H 	0.90300 0.75390 0.40690 -0.00200
H 	H 	0.07140 0.83660 0.43760 0.07300
H 	H 	0.09440 0.83840 0.38360 0.07300
H 	H 	0.32730 0.64610 0.40190 0.13500
H 	H 	0.41930 0.64730 0.44210 -0.04700
H 	H 	0.47090 0.58370 0.48590 0.11600
H 	H 	0.42220 0.51950 0.48910 -0.00800
H 	H 	0.09760 0.42500 0.42580 0.17100
H 	H 	0.17200 0.39350 0.44310 0.15800
H 	H 	0.15810 0.36170 0.37790 -0.07800
H 	H 	0.17610 0.40490 0.34870 -0.06700
H 	H 	0.31190 0.38370 0.35530 0.20200
H 	H 	0.29440 0.34240 0.38780 0.20600
H 	H 	0.29860 0.34700 0.29280 -0.15400
H 	H 	0.27990 0.30590 0.32530 -0.15700
H 	H 	0.43450 0.32710 0.30190 0.32300
H 	H 	0.41570 0.28510 0.33310 0.33000
H 	H 	0.41980 0.28570 0.28050 0.32100
H 	H 	0.51760 0.69140 0.57200 0.14000
H 	H 	0.49930 0.77020 0.56920 -0.03700
H 	H 	0.60450 0.80080 0.52380 0.12500
H 	H 	0.72720 0.75130 0.48250 -0.00900
H 	H 	0.96440 0.49160 0.41660 0.19200
H 	H 	0.98710 0.53500 0.38980 0.17800
H 	H 	0.96160 0.48440 0.34200 -0.10200
H 	H 	0.86860 0.49650 0.37230 -0.08900
H 	H 	0.94270 0.56210 0.31850 0.24900
H 	H 	0.84970 0.57390 0.34850 0.24900
H 	H 	0.91300 0.51590 0.26970 -0.21100
H 	H 	0.81970 0.52890 0.29930 -0.21400
H 	H 	0.81800 0.60840 0.27680 0.41500
H 	H 	0.81750 0.57630 0.23870 0.41600
H 	H 	0.90050 0.58680 0.23860 0.41900
H 	H 	0.20850 0.92880 0.48060 -0.00500
H 	H 	0.17130 0.86250 0.47890 0.09400
H 	H 	0.24600 0.86640 0.34200 0.08400
H 	H 	0.28120 0.93280 0.34640 -0.02400
H 	H 	0.22210 0.79350 0.37950 0.06400
H 	H 	0.19920 0.79060 0.43380 0.06600
H 	H 	0.37410 0.80990 0.21510 0.14600
H 	H 	0.37910 0.81750 0.28890 -0.05900
H 	H 	0.45610 0.86320 0.30340 0.12300
H 	H 	0.52490 0.90110 0.24310 -0.01100
H 	H 	0.64140 0.93350 0.97210 0.07300
H 	H 	0.67580 0.95270 0.00690 0.06900
H 	H 	0.74260 0.85900 0.97540 0.10500
H 	H 	0.78150 0.88330 0.00390 0.09500
H 	H 	0.77840 0.93640 0.93180 -0.04000
H 	H 	0.80060 0.88730 0.91050 -0.05700
H 	H 	0.87390 0.91820 0.95580 0.15000
H 	H 	0.89460 0.86730 0.94010 0.13700
H 	H 	0.90990 0.90730 0.85810 0.07600
H 	H 	0.93570 0.94170 0.88330 0.07500
H 	H 	0.98690 0.88940 0.87820 0.06600
H 	H 	0.69300 0.83420 0.08540 -0.01100
H 	H 	0.81020 0.77560 0.08480 0.08600
H 	H 	0.67690 0.68510 0.09630 0.09800
H 	H 	0.56380 0.74610 0.09310 -0.00200
H 	H 	0.84560 0.66340 0.06240 0.07300
H 	H 	0.81640 0.66160 0.11640 0.07300
H 	H 	0.87530 0.85390 0.09810 0.13500
H 	H 	0.00870 0.85270 0.05790 -0.04800
H 	H 	0.04050 0.91630 0.01410 0.11500
H 	H 	0.93080 0.98050 0.01090 -0.00800
H 	H 	0.44840 0.07500 0.07420 0.17100
H 	H 	0.50860 0.10650 0.05690 0.15800
H 	H 	0.39770 0.13830 0.12210 -0.07800
H 	H 	0.42970 0.09510 0.15130 -0.06700
H 	H 	0.55090 0.11630 0.14470 0.20300
H 	H 	0.52460 0.15760 0.11220 0.20600
H 	H 	0.43840 0.15300 0.20720 -0.15400
H 	H 	0.41110 0.19410 0.17470 -0.15700
H 	H 	0.56350 0.17290 0.19810 0.32300
H 	H 	0.53390 0.21490 0.16690 0.33000
H 	H 	0.48600 0.21430 0.21950 0.32100
H 	H 	0.28100 0.80860 0.92800 0.14000
H 	H 	0.33870 0.72980 0.93080 -0.03700
H 	H 	0.42910 0.69920 0.97620 0.12600
H 	H 	0.46100 0.74870 0.01750 -0.01000
H 	H 	0.37260 0.00840 0.08340 0.19300
H 	H 	0.41190 0.96500 0.11020 0.17700
H 	H 	0.28800 0.01560 0.15800 -0.09900
H 	H 	0.23740 0.00350 0.12770 -0.08500
H 	H 	0.32330 0.93790 0.18150 0.24800
H 	H 	0.27210 0.92610 0.15150 0.24700
H 	H 	0.19860 0.98410 0.23030 -0.21000
H 	H 	0.14790 0.97110 0.20070 -0.21300
H 	H 	0.20320 0.89160 0.22320 0.41400
H 	H 	0.13250 0.92370 0.26130 0.41500
H 	H 	0.22590 0.91320 0.26140 0.41800
H 	H 	0.11790 0.57120 0.01940 -0.00500
H 	H 	0.01270 0.63750 0.02110 0.09300
H 	H 	0.95440 0.63360 0.15800 0.08400
H 	H 	0.06040 0.56720 0.15360 -0.02400
H 	H 	0.89510 0.70650 0.12050 0.06400
H 	H 	0.92360 0.70940 0.06620 0.06600
H 	H 	0.41080 0.21510 0.69010 0.14600
H 	H 	0.33200 0.28890 0.68250 -0.05900
H 	H 	0.24050 0.30340 0.63680 0.12300
H 	H 	0.23200 0.24310 0.59890 -0.01100
H 	H 	0.38650 0.97210 0.56650 0.07400
H 	H 	0.31730 0.00690 0.54730 0.07100
H 	H 	0.28200 0.97540 0.64100 0.10500
H 	H 	0.21460 0.00390 0.61670 0.09600
H 	H 	0.28980 0.93180 0.56360 -0.04000
H 	H 	0.28890 0.91050 0.61270 -0.05700
H 	H 	0.17030 0.95580 0.58180 0.15000
H 	H 	0.16530 0.94010 0.63270 0.13700
H 	H 	0.23200 0.85810 0.59270 0.07500
H 	H 	0.18100 0.88330 0.55830 0.07500
H 	H 	0.13490 0.87820 0.61060 0.06600
H 	H 	0.22160 0.08540 0.66580 -0.01100
H 	H 	0.10500 0.08480 0.72440 0.08600
H 	H 	0.22680 0.09630 0.81490 0.09800
H 	H 	0.34310 0.09310 0.75390 -0.00200
H 	H 	0.09200 0.06240 0.83660 0.07400
H 	H 	0.06720 0.11640 0.83840 0.07300
H 	H 	0.02660 0.09810 0.64610 0.13500
H 	H 	0.93340 0.05790 0.64730 -0.04700
H 	H 	0.94540 0.01410 0.58370 0.11600
H 	H 	0.05830 0.01090 0.51950 -0.00800
H 	H 	0.47740 0.07420 0.42500 0.17100
H 	H 	0.43450 0.05690 0.39350 0.15800
H 	H 	0.48020 0.12210 0.36170 -0.07800
H 	H 	0.41900 0.15130 0.40490 -0.06700
H 	H 	0.30440 0.14470 0.38370 0.20200
H 	H 	0.36320 0.11220 0.34240 0.20600
H 	H 	0.35440 0.20720 0.34700 -0.15400
H 	H 	0.41420 0.17470 0.30590 -0.15700
H 	H 	0.23840 0.19810 0.32710 0.32300
H 	H 	0.29920 0.16690 0.28510 0.33000
H 	H 	0.29450 0.21950 0.28570 0.32100
H 	H 	0.79100 0.92800 0.69140 0.14000
H 	H 	0.73050 0.93080 0.77020 -0.03700
H 	H 	0.59470 0.97620 0.80080 0.12600
H 	H 	0.52150 0.01750 0.75130 -0.01000
H 	H 	0.54400 0.08340 0.49160 0.19200
H 	H 	0.47790 0.11020 0.53500 0.17800
H 	H 	0.55400 0.15800 0.48440 -0.10200
H 	H 	0.63490 0.12770 0.49650 -0.08900
H 	H 	0.49520 0.18150 0.56210 0.24900
H 	H 	0.57640 0.15150 0.57390 0.24900
H 	H 	0.57110 0.23030 0.51590 -0.21100
H 	H 	0.65140 0.20070 0.52890 -0.21400
H 	H 	0.57360 0.22320 0.60840 0.41500
H 	H 	0.60620 0.26130 0.57630 0.41600
H 	H 	0.51270 0.26140 0.58680 0.41900
H 	H 	0.86270 0.01940 0.92880 -0.00500
H 	H 	0.96620 0.02110 0.86250 0.09300
H 	H 	0.88760 0.15800 0.86640 0.08300
H 	H 	0.78600 0.15360 0.93280 -0.02400
H 	H 	0.98440 0.12050 0.79350 0.06300
H 	H 	0.01020 0.06620 0.79060 0.06500
H 	H 	0.81600 0.28490 0.80990 0.14600
H 	H 	0.80340 0.21110 0.81750 -0.05900
H 	H 	0.68070 0.19660 0.86320 0.12300
H 	H 	0.57400 0.25690 0.90110 -0.01100
H 	H 	0.42510 0.52790 0.93350 0.07400
H 	H 	0.37150 0.49310 0.95270 0.07100
H 	H 	0.39840 0.52460 0.85900 0.10500
H 	H 	0.33520 0.49610 0.88330 0.09600
H 	H 	0.28520 0.56820 0.93640 -0.04000
H 	H 	0.31210 0.58950 0.88730 -0.05700
H 	H 	0.20790 0.54420 0.91820 0.15000
H 	H 	0.23810 0.55990 0.86730 0.13700
H 	H 	0.18280 0.64190 0.90730 0.07500
H 	H 	0.12260 0.61670 0.94170 0.07500
H 	H 	0.12370 0.62180 0.88940 0.06600
H 	H 	0.47280 0.41460 0.83420 -0.01100
H 	H 	0.41420 0.41520 0.77560 0.08600
H 	H 	0.63800 0.40370 0.68510 0.09800
H 	H 	0.69010 0.40690 0.74610 -0.00200
H 	H 	0.49100 0.43760 0.66340 0.07300
H 	H 	0.52200 0.38360 0.66160 0.07300
H 	H 	0.27080 0.40190 0.85390 0.13500
H 	H 	0.13860 0.44210 0.85270 -0.04700
H 	H 	0.04320 0.48590 0.91630 0.11600
H 	H 	0.08870 0.48910 0.98050 -0.00800
H 	H 	0.47660 0.42580 0.07500 0.17100
H 	H 	0.38490 0.44310 0.10650 0.15800
H 	H 	0.46400 0.37790 0.13830 -0.07800
H 	H 	0.47520 0.34870 0.09510 -0.06700
H 	H 	0.33280 0.35530 0.11630 0.20200
H 	H 	0.31780 0.38780 0.15760 0.20600
H 	H 	0.40860 0.29280 0.15300 -0.15400
H 	H 	0.39480 0.32530 0.19410 -0.15700
H 	H 	0.26360 0.30190 0.17290 0.32300
H 	H 	0.25120 0.33310 0.21490 0.33000
H 	H 	0.29970 0.28050 0.21430 0.32100
H 	H 	0.91040 0.57200 0.80860 0.14000
H 	H 	0.93150 0.56920 0.72980 -0.03700
H 	H 	0.87170 0.52380 0.69920 0.12500
H 	H 	0.79030 0.48250 0.74870 -0.00900
H 	H 	0.61900 0.41660 0.00840 0.19200
H 	H 	0.62310 0.38980 0.96500 0.17700
H 	H 	0.69640 0.34200 0.01560 -0.10100
H 	H 	0.75910 0.37230 0.00350 -0.08700
H 	H 	0.73880 0.31850 0.93790 0.24900
H 	H 	0.80180 0.34850 0.92610 0.24800
H 	H 	0.81730 0.26970 0.98410 -0.21100
H 	H 	0.88100 0.29930 0.97110 -0.21400
H 	H 	0.90520 0.27680 0.89160 0.41500
H 	H 	0.94380 0.23870 0.92370 0.41500
H 	H 	0.86090 0.23860 0.91320 0.41900
H 	H 	0.31090 0.48060 0.57120 -0.00500
H 	H 	0.34980 0.47890 0.63750 0.09300
H 	H 	0.41200 0.34200 0.63360 0.08400
H 	H 	0.37240 0.34640 0.56720 -0.02400
H 	H 	0.39840 0.37950 0.70650 0.06400
H 	H 	0.36700 0.43380 0.70940 0.06600
H 	H 	0.10090 0.30990 0.71510 0.14600
H 	H 	0.01450 0.31750 0.78890 -0.05900
H 	H 	0.87730 0.36320 0.80340 0.12300
H 	H 	0.83090 0.40110 0.74310 -0.01000
H 	H 	0.95300 0.43350 0.47210 0.07400
H 	H 	0.86460 0.45270 0.50690 0.07100
H 	H 	0.92300 0.35900 0.47540 0.10500
H 	H 	0.83130 0.38330 0.50390 0.09600
H 	H 	0.85340 0.43640 0.43180 -0.04000
H 	H 	0.90160 0.38730 0.41050 -0.05700
H 	H 	0.75210 0.41820 0.45580 0.15000
H 	H 	0.79800 0.36730 0.44010 0.13700
H 	H 	0.82470 0.40730 0.35810 0.07500
H 	H 	0.73930 0.44170 0.38330 0.07500
H 	H 	0.74550 0.38940 0.37820 0.06600
H 	H 	0.88740 0.33420 0.58540 -0.01100
H 	H 	0.82940 0.27560 0.58480 0.08500
H 	H 	0.04170 0.18510 0.59630 0.09800
H 	H 	0.09700 0.24610 0.59310 -0.00200
H 	H 	0.92860 0.16340 0.56240 0.07300
H 	H 	0.90560 0.16160 0.61640 0.07300
H 	H 	0.67270 0.35390 0.59810 0.13500
H 	H 	0.58070 0.35270 0.55790 -0.04700
H 	H 	0.52910 0.41630 0.51410 0.11600
H 	H 	0.57780 0.48050 0.51090 -0.00800
H 	H 	0.90240 0.57500 0.57420 0.17100
H 	H 	0.82800 0.60650 0.55690 0.15800
H 	H 	0.84190 0.63830 0.62210 -0.07800
H 	H 	0.82390 0.59510 0.65130 -0.06700
H 	H 	0.68810 0.61630 0.64470 0.20200
H 	H 	0.70560 0.65760 0.61220 0.20600
H 	H 	0.70140 0.65300 0.70720 -0.15400
H 	H 	0.72010 0.69410 0.67470 -0.15700
H 	H 	0.56550 0.67290 0.69810 0.32300
H 	H 	0.58430 0.71490 0.66690 0.33000
H 	H 	0.58020 0.71430 0.71950 0.32100
H 	H 	0.48240 0.30860 0.42800 0.14000
H 	H 	0.50070 0.22980 0.43080 -0.03700
H 	H 	0.39550 0.19920 0.47620 0.12500
H 	H 	0.27280 0.24870 0.51750 -0.00900
H 	H 	0.03560 0.50840 0.58340 0.19200
H 	H 	0.01290 0.46500 0.61020 0.17800
H 	H 	0.03840 0.51560 0.65800 -0.10200
H 	H 	0.13140 0.50350 0.62770 -0.08900
H 	H 	0.05730 0.43790 0.68150 0.24900
H 	H 	0.15030 0.42610 0.65150 0.24900
H 	H 	0.08700 0.48410 0.73030 -0.21100
H 	H 	0.18030 0.47110 0.70070 -0.21400
H 	H 	0.18200 0.39160 0.72320 0.41500
H 	H 	0.18250 0.42370 0.76130 0.41600
H 	H 	0.09950 0.41320 0.76140 0.41900
H 	H 	0.79150 0.07120 0.51940 -0.00500
H 	H 	0.82870 0.13750 0.52110 0.09400
H 	H 	0.75400 0.13360 0.65800 0.08400
H 	H 	0.71880 0.06720 0.65360 -0.02400
H 	H 	0.77790 0.20650 0.62050 0.06400
H 	H 	0.80080 0.20940 0.56620 0.06600
H 	H 	0.62590 0.19010 0.78490 0.14600
H 	H 	0.62090 0.18250 0.71110 -0.05900
H 	H 	0.54390 0.13680 0.69660 0.12300
H 	H 	0.47510 0.09890 0.75690 -0.01100
H 	H 	0.35860 0.06650 0.02790 0.07300
H 	H 	0.32420 0.04730 0.99310 0.06900
H 	H 	0.25740 0.14100 0.02460 0.10500
H 	H 	0.21850 0.11670 0.99610 0.09500
H 	H 	0.22160 0.06360 0.06820 -0.04000
H 	H 	0.19940 0.11270 0.08950 -0.05700
H 	H 	0.12610 0.08180 0.04420 0.15000
H 	H 	0.10540 0.13270 0.05990 0.13700
H 	H 	0.09010 0.09270 0.14190 0.07600
H 	H 	0.06430 0.05830 0.11670 0.07500
H 	H 	0.01310 0.11060 0.12180 0.06600
H 	H 	0.30700 0.16580 0.91460 -0.01100
H 	H 	0.18980 0.22440 0.91520 0.08600
H 	H 	0.32310 0.31490 0.90370 0.09800
H 	H 	0.43620 0.25390 0.90690 -0.00200
H 	H 	0.15440 0.33660 0.93760 0.07300
H 	H 	0.18360 0.33840 0.88360 0.07300
H 	H 	0.12470 0.14610 0.90190 0.13500
H 	H 	0.99130 0.14730 0.94210 -0.04800
H 	H 	0.95950 0.08370 0.98590 0.11500
H 	H 	0.06920 0.01950 0.98910 -0.00800
H 	H 	0.55160 0.92500 0.92580 0.17100
H 	H 	0.49140 0.89350 0.94310 0.15800
H 	H 	0.60230 0.86170 0.87790 -0.07800
H 	H 	0.57030 0.90490 0.84870 -0.06700
H 	H 	0.44910 0.88370 0.85530 0.20300
H 	H 	0.47540 0.84240 0.88780 0.20600
H 	H 	0.56160 0.84700 0.79280 -0.15400
H 	H 	0.58890 0.80590 0.82530 -0.15700
H 	H 	0.43650 0.82710 0.80190 0.32300
H 	H 	0.46610 0.78510 0.83310 0.33000
H 	H 	0.51400 0.78570 0.78050 0.32100
H 	H 	0.71900 0.19140 0.07200 0.14000
H 	H 	0.66130 0.27020 0.06920 -0.03700
H 	H 	0.57090 0.30080 0.02380 0.12600
H 	H 	0.53900 0.25130 0.98250 -0.01000
H 	H 	0.62740 0.99160 0.91660 0.19300
H 	H 	0.58810 0.03500 0.88980 0.17700
H 	H 	0.71200 0.98440 0.84200 -0.09900
H 	H 	0.76260 0.99650 0.87230 -0.08500
H 	H 	0.67670 0.06210 0.81850 0.24800
H 	H 	0.72790 0.07390 0.84850 0.24700
H 	H 	0.80140 0.01590 0.76970 -0.21000
H 	H 	0.85210 0.02890 0.79930 -0.21300
H 	H 	0.79680 0.10840 0.77680 0.41400
H 	H 	0.86750 0.07630 0.73870 0.41500
H 	H 	0.77410 0.08680 0.73860 0.41800
H 	H 	0.88210 0.42880 0.98060 -0.00500
H 	H 	0.98730 0.36250 0.97890 0.09300
H 	H 	0.04560 0.36640 0.84200 0.08400
H 	H 	0.93960 0.43280 0.84640 -0.02400
H 	H 	0.10490 0.29350 0.87950 0.06400
H 	H 	0.07640 0.29060 0.93380 0.06600
C 	C 	0.63111 0.81677 0.35041 0.31600
C 	C 	0.62570 0.77955 0.32825 -0.33200
C 	C 	0.67265 0.73532 0.33278 0.19500
C 	C 	0.72708 0.72653 0.36011 -0.27200
C 	C 	0.73224 0.76278 0.38234 0.18200
C 	C 	0.68653 0.80793 0.37801 -0.27300
C 	C 	0.69767 0.84461 0.40345 0.27500
C 	C 	0.64610 0.96285 0.40755 0.21400
C 	C 	0.66414 0.00263 0.42509 -0.16900
C 	C 	0.73236 0.01955 0.38813 -0.24800
C 	C 	0.73990 0.06410 0.40370 0.29300
C 	C 	0.80340 0.06760 0.39920 -0.40600
C 	C 	0.81500 0.11720 0.41060 -0.16000
C 	C 	0.77686 0.91331 0.30377 0.10400
C 	C 	0.84730 0.91310 0.26890 -0.18800
C 	C 	0.84714 0.90960 0.22272 0.13300
C 	C 	0.77525 0.90672 0.21518 -0.20100
C 	C 	0.70565 0.90830 0.25200 0.09900
C 	C 	0.92280 0.90980 0.18120 -0.16000
C 	C 	0.90167 0.91826 0.41960 0.31100
C 	C 	0.96727 0.91848 0.37998 -0.31300
C 	C 	0.02284 0.94311 0.37921 0.17200
C 	C 	0.01596 0.96986 0.41702 -0.23800
C 	C 	0.94884 0.97102 0.45530 0.15100
C 	C 	0.89082 0.94625 0.45791 -0.26200
C 	C 	0.81992 0.95213 0.49903 0.27300
C 	C 	0.64885 0.91287 0.54663 0.29400
C 	C 	0.57104 0.91794 0.58678 -0.48200
C 	C 	0.57316 0.87405 0.61523 0.33600
C 	C 	0.64201 0.86155 0.63943 -0.60300
C 	C 	0.63948 0.81926 0.67118 0.56700
C 	C 	0.70820 0.80762 0.69558 -1.03600
C 	C 	0.30714 0.02788 0.32724 0.31400
C 	C 	0.26317 0.05367 0.29679 -0.30900
C 	C 	0.29964 0.05212 0.24940 0.18100
C 	C 	0.38081 0.02519 0.23099 -0.25100
C 	C 	0.42409 0.00054 0.26088 0.16400
C 	C 	0.38924 0.00154 0.30918 -0.26900
C 	C 	0.44101 0.97310 0.33768 0.27900
C 	C 	0.42188 0.93521 0.44863 0.32500
C 	C 	0.46291 0.90119 0.47999 -0.54300
C 	C 	0.42508 0.86053 0.49151 0.42800
C 	C 	0.44471 0.82976 0.45002 -0.75000
C 	C 	0.40880 0.78818 0.45982 0.78900
C 	C 	0.43110 0.75790 0.41830 -1.32500
C 	C 	0.13219 0.95214 0.08388 0.11000
C 	C 	0.07065 0.95134 0.12416 -0.19400
C 	C 	0.06337 0.90949 0.14497 0.14100
C 	C 	0.11683 0.87086 0.12188 -0.20900
C 	C 	0.17722 0.87364 0.08152 0.10600
C 	C 	0.99750 0.90790 0.19010 -0.15800
C 	C 	0.29829 0.68323 0.14959 0.31600
C 	C 	0.23350 0.72045 0.17175 -0.33200
C 	C 	0.24075 0.76468 0.16722 0.19500
C 	C 	0.31372 0.77347 0.13989 -0.27200
C 	C 	0.37736 0.73722 0.11766 0.18200
C 	C 	0.37247 0.69207 0.12199 -0.27300
C 	C 	0.44573 0.65539 0.09655 0.27500
C 	C 	0.51650 0.53715 0.09245 0.21400
C 	C 	0.59186 0.49737 0.07491 -0.16900
C 	C 	0.64004 0.48045 0.11187 -0.24800
C 	C 	0.70770 0.43590 0.09630 0.29300
C 	C 	0.77020 0.43240 0.10080 -0.40600
C 	C 	0.84280 0.38280 0.08940 -0.16000
C 	C 	0.49394 0.58669 0.19623 0.10400
C 	C 	0.52930 0.58690 0.23110 -0.18800
C 	C 	0.47946 0.59040 0.27728 0.13200
C 	C 	0.39715 0.59328 0.28482 -0.20100
C 	C 	0.36595 0.59170 0.24800 0.09800
C 	C 	0.51380 0.59020 0.31880 -0.15800
C 	C 	0.73953 0.58174 0.08040 0.31100
C 	C 	0.76573 0.58152 0.12002 -0.31300
C 	C 	0.84516 0.55689 0.12079 0.17200
C 	C 	0.90284 0.53014 0.08298 -0.23800
C 	C 	0.87516 0.52898 0.04470 0.15000
C 	C 	0.79498 0.55375 0.04209 -0.26200
C 	C 	0.77108 0.54787 0.00097 0.27300
C 	C 	0.60835 0.58713 0.95337 0.29400
C 	C 	0.57576 0.58206 0.91322 -0.48200
C 	C 	0.56244 0.62595 0.88477 0.33600
C 	C 	0.64299 0.63845 0.86057 -0.60300
C 	C 	0.62992 0.68074 0.82882 0.56700
C 	C 	0.71140 0.69238 0.80442 -1.03700
C 	C 	0.16226 0.47212 0.17276 0.31400
C 	C 	0.11363 0.44633 0.20321 -0.30900
C 	C 	0.10116 0.44788 0.25060 0.18000
C 	C 	0.13699 0.47481 0.26901 -0.25000
C 	C 	0.18551 0.49946 0.23912 0.16200
C 	C 	0.19996 0.49846 0.19082 -0.26800
C 	C 	0.25179 0.52690 0.16232 0.27900
C 	C 	0.30572 0.56479 0.05137 0.32500
C 	C 	0.34409 0.59881 0.02001 -0.54200
C 	C 	0.27712 0.63947 0.00849 0.42500
C 	C 	0.22449 0.67024 0.04998 -0.74800
C 	C 	0.15680 0.71182 0.04018 0.78700
C 	C 	0.10730 0.74210 0.08170 -1.32300
C 	C 	0.66821 0.54786 0.41612 0.11100
C 	C 	0.64615 0.54866 0.37584 -0.19500
C 	C 	0.61783 0.59051 0.35503 0.14200
C 	C 	0.60957 0.62914 0.37812 -0.21000
C 	C 	0.63238 0.62636 0.41848 0.10600
C 	C 	0.59550 0.59210 0.30990 -0.16100
C 	C 	0.98152 0.64959 0.31677 0.31600
C 	C 	0.95395 0.67175 0.27955 -0.33200
C 	C 	0.00543 0.66722 0.23532 0.19400
C 	C 	0.08719 0.63989 0.22653 -0.27100
C 	C 	0.11458 0.61766 0.26278 0.18200
C 	C 	0.06454 0.62199 0.30793 -0.27300
C 	C 	0.10112 0.59655 0.34461 0.27500
C 	C 	0.05365 0.59245 0.46285 0.21400
C 	C 	0.08923 0.57491 0.50263 -0.16900
C 	C 	0.12049 0.61187 0.51955 -0.24800
C 	C 	0.14360 0.59630 0.56410 0.29300
C 	C 	0.20260 0.60080 0.56760 -0.40600
C 	C 	0.22560 0.58940 0.61720 -0.16000
C 	C 	0.08063 0.69623 0.41331 0.10300
C 	C 	0.11620 0.73110 0.41310 -0.18800
C 	C 	0.06986 0.77728 0.40960 0.13200
C 	C 	0.99043 0.78482 0.40672 -0.20000
C 	C 	0.95765 0.74800 0.40830 0.09800
C 	C 	0.10400 0.81880 0.40980 -0.15700
C 	C 	0.32127 0.58040 0.41826 0.31100
C 	C 	0.34725 0.62002 0.41848 -0.31300
C 	C 	0.40205 0.62079 0.44311 0.17200
C 	C 	0.43298 0.58298 0.46986 -0.23800
C 	C 	0.40414 0.54470 0.47102 0.15000
C 	C 	0.34873 0.54209 0.44625 -0.26200
C 	C 	0.31895 0.50097 0.45213 0.27300
C 	C 	0.19548 0.45337 0.41287 0.29400
C 	C 	0.15782 0.41322 0.41794 -0.48200
C 	C 	0.18839 0.38477 0.37405 0.33600
C 	C 	0.28144 0.36057 0.36155 -0.60300
C 	C 	0.31066 0.32882 0.31926 0.56700
C 	C 	0.40378 0.30442 0.30762 -1.03600
C 	C 	0.63438 0.67276 0.52788 0.31400
C 	C 	0.55996 0.70321 0.55367 -0.30900
C 	C 	0.54904 0.75060 0.55212 0.18000
C 	C 	0.61180 0.76901 0.52519 -0.25000
C 	C 	0.68497 0.73912 0.50054 0.16200
C 	C 	0.69842 0.69082 0.50154 -0.26800
C 	C 	0.77869 0.66232 0.47310 0.27900
C 	C 	0.87051 0.55137 0.43521 0.32500
C 	C 	0.94290 0.52001 0.40119 -0.54300
C 	C 	0.91659 0.50849 0.36053 0.42800
C 	C 	0.89473 0.54998 0.32976 -0.75000
C 	C 	0.86862 0.54018 0.28818 0.78900
C 	C 	0.84940 0.58170 0.25790 -1.32500
C 	C 	0.21607 0.91612 0.45214 0.11100
C 	C 	0.19481 0.87584 0.45134 -0.19500
C 	C 	0.20834 0.85503 0.40949 0.14200
C 	C 	0.23871 0.87812 0.37086 -0.21000
C 	C 	0.25874 0.91848 0.37364 0.10700
C 	C 	0.18760 0.80990 0.40790 -0.16200
C 	C 	0.44788 0.85041 0.18323 0.31600
C 	C 	0.40525 0.82825 0.22045 -0.33200
C 	C 	0.40797 0.83278 0.26468 0.19500
C 	C 	0.45361 0.86011 0.27347 -0.27200
C 	C 	0.49502 0.88234 0.23722 0.18200
C 	C 	0.49446 0.87801 0.19207 -0.27300
C 	C 	0.54228 0.90345 0.15539 0.27500
C 	C 	0.60895 0.90755 0.03715 0.21200
C 	C 	0.66677 0.92509 0.99737 -0.16500
C 	C 	0.75191 0.88813 0.98045 -0.24700
C 	C 	0.80400 0.90370 0.93590 0.29300
C 	C 	0.87100 0.89920 0.93240 -0.40600
C 	C 	0.93220 0.91060 0.88280 -0.16100
C 	C 	0.69017 0.80377 0.08669 0.10300
C 	C 	0.76040 0.76890 0.08690 -0.18800
C 	C 	0.75674 0.72272 0.09040 0.13200
C 	C 	0.68197 0.71518 0.09328 -0.20100
C 	C 	0.61395 0.75200 0.09170 0.09800
C 	C 	0.83260 0.68120 0.09020 -0.15800
C 	C 	0.81993 0.91960 0.08174 0.31100
C 	C 	0.88575 0.87998 0.08152 -0.31300
C 	C 	0.96595 0.87921 0.05689 0.17200
C 	C 	0.98582 0.91702 0.03014 -0.23700
C 	C 	0.91986 0.95530 0.02898 0.14900
C 	C 	0.83707 0.95791 0.05375 -0.26200
C 	C 	0.77205 0.99903 0.04787 0.27000
C 	C 	0.56172 0.04663 0.08713 0.29400
C 	C 	0.48898 0.08678 0.08206 -0.48200
C 	C 	0.44721 0.11523 0.12595 0.33600
C 	C 	0.50356 0.13943 0.13845 -0.60400
C 	C 	0.45874 0.17118 0.18074 0.56800
C 	C 	0.51582 0.19558 0.19238 -1.03700
C 	C 	0.33502 0.82724 0.97212 0.31400
C 	C 	0.31684 0.79679 0.94633 -0.30900
C 	C 	0.35176 0.74940 0.94788 0.18000
C 	C 	0.40600 0.73099 0.97481 -0.25000
C 	C 	0.42463 0.76088 0.99946 0.16300
C 	C 	0.39078 0.80918 0.99846 -0.26800
C 	C 	0.41411 0.83768 0.02690 0.27800
C 	C 	0.35709 0.94863 0.06479 0.32500
C 	C 	0.36410 0.97999 0.09881 -0.54200
C 	C 	0.28561 0.99151 0.13947 0.42000
C 	C 	0.27447 0.95002 0.17024 -0.74500
C 	C 	0.19698 0.95982 0.21182 0.78400
C 	C 	0.18900 0.91830 0.24210 -1.32000
C 	C 	0.08433 0.58388 0.04786 0.11100
C 	C 	0.02199 0.62416 0.04866 -0.19500
C 	C 	0.97286 0.64497 0.09051 0.14200
C 	C 	0.98769 0.62188 0.12914 -0.20900
C 	C 	0.05086 0.58152 0.12636 0.10600
C 	C 	0.90540 0.69010 0.09210 -0.16100
C 	C 	0.36889 0.18323 0.64959 0.31600
C 	C 	0.37430 0.22045 0.67175 -0.33200
C 	C 	0.32735 0.26468 0.66722 0.19500
C 	C 	0.27292 0.27347 0.63989 -0.27200
C 	C 	0.26776 0.23722 0.61766 0.18200
C 	C 	0.31347 0.19207 0.62199 -0.27300
C 	C 	0.30233 0.15539 0.59655 0.27500
C 	C 	0.35390 0.03715 0.59245 0.21400
C 	C 	0.33586 0.99737 0.57491 -0.16900
C 	C 	0.26764 0.98045 0.61187 -0.24800
C 	C 	0.26010 0.93590 0.59630 0.29300
C 	C 	0.19660 0.93240 0.60080 -0.40600
C 	C 	0.18500 0.88280 0.58940 -0.16000
C 	C 	0.22314 0.08669 0.69623 0.10400
C 	C 	0.15270 0.08690 0.73110 -0.18800
C 	C 	0.15286 0.09040 0.77728 0.13300
C 	C 	0.22475 0.09328 0.78482 -0.20100
C 	C 	0.29435 0.09170 0.74800 0.09900
C 	C 	0.07720 0.09020 0.81880 -0.16000
C 	C 	0.09833 0.08174 0.58040 0.31100
C 	C 	0.03273 0.08152 0.62002 -0.31300
C 	C 	0.97716 0.05689 0.62079 0.17200
C 	C 	0.98404 0.03014 0.58298 -0.23800
C 	C 	0.05116 0.02898 0.54470 0.15100
C 	C 	0.10918 0.05375 0.54209 -0.26200
C 	C 	0.18008 0.04787 0.50097 0.27300
C 	C 	0.35115 0.08713 0.45337 0.29400
C 	C 	0.42896 0.08206 0.41322 -0.48200
C 	C 	0.42684 0.12595 0.38477 0.33600
C 	C 	0.35799 0.13845 0.36057 -0.60300
C 	C 	0.36052 0.18074 0.32882 0.56700
C 	C 	0.29180 0.19238 0.30442 -1.03600
C 	C 	0.69286 0.97212 0.67276 0.31400
C 	C 	0.73683 0.94633 0.70321 -0.30900
C 	C 	0.70036 0.94788 0.75060 0.18100
C 	C 	0.61919 0.97481 0.76901 -0.25100
C 	C 	0.57591 0.99946 0.73912 0.16400
C 	C 	0.61076 0.99846 0.69082 -0.26900
C 	C 	0.55899 0.02690 0.66232 0.27900
C 	C 	0.57812 0.06479 0.55137 0.32500
C 	C 	0.53709 0.09881 0.52001 -0.54300
C 	C 	0.57492 0.13947 0.50849 0.42800
C 	C 	0.55529 0.17024 0.54998 -0.75000
C 	C 	0.59120 0.21182 0.54018 0.78900
C 	C 	0.56890 0.24210 0.58170 -1.32500
C 	C 	0.86781 0.04786 0.91612 0.11000
C 	C 	0.92935 0.04866 0.87584 -0.19400
C 	C 	0.93663 0.09051 0.85503 0.14100
C 	C 	0.88317 0.12914 0.87812 -0.20900
C 	C 	0.82278 0.12636 0.91848 0.10600
C 	C 	0.00250 0.09210 0.80990 -0.15800
C 	C 	0.70171 0.31677 0.85041 0.31600
C 	C 	0.76650 0.27955 0.82825 -0.33200
C 	C 	0.75925 0.23532 0.83278 0.19500
C 	C 	0.68628 0.22653 0.86011 -0.27200
C 	C 	0.62264 0.26278 0.88234 0.18200
C 	C 	0.62753 0.30793 0.87801 -0.27300
C 	C 	0.55427 0.34461 0.90345 0.27500
C 	C 	0.48350 0.46285 0.90755 0.21400
C 	C 	0.40814 0.50263 0.92509 -0.16900
C 	C 	0.35996 0.51955 0.88813 -0.24800
C 	C 	0.29230 0.56410 0.90370 0.29300
C 	C 	0.22980 0.56760 0.89920 -0.40600
C 	C 	0.15720 0.61720 0.91060 -0.16000
C 	C 	0.50606 0.41331 0.80377 0.10400
C 	C 	0.47070 0.41310 0.76890 -0.18800
C 	C 	0.52054 0.40960 0.72272 0.13200
C 	C 	0.60285 0.40672 0.71518 -0.20100
C 	C 	0.63405 0.40830 0.75200 0.09800
C 	C 	0.48620 0.40980 0.68120 -0.15800
C 	C 	0.26047 0.41826 0.91960 0.31100
C 	C 	0.23427 0.41848 0.87998 -0.31300
C 	C 	0.15484 0.44311 0.87921 0.17200
C 	C 	0.09716 0.46986 0.91702 -0.23800
C 	C 	0.12484 0.47102 0.95530 0.15000
C 	C 	0.20502 0.44625 0.95791 -0.26200
C 	C 	0.22892 0.45213 0.99903 0.27300
C 	C 	0.39165 0.41287 0.04663 0.29400
C 	C 	0.42424 0.41794 0.08678 -0.48200
C 	C 	0.43756 0.37405 0.11523 0.33600
C 	C 	0.35701 0.36155 0.13943 -0.60300
C 	C 	0.37008 0.31926 0.17118 0.56700
C 	C 	0.28860 0.30762 0.19558 -1.03700
C 	C 	0.83774 0.52788 0.82724 0.31400
C 	C 	0.88637 0.55367 0.79679 -0.30900
C 	C 	0.89884 0.55212 0.74940 0.18000
C 	C 	0.86301 0.52519 0.73099 -0.25000
C 	C 	0.81449 0.50054 0.76088 0.16200
C 	C 	0.80004 0.50154 0.80918 -0.26800
C 	C 	0.74821 0.47310 0.83768 0.27900
C 	C 	0.69428 0.43521 0.94863 0.32500
C 	C 	0.65591 0.40119 0.97999 -0.54200
C 	C 	0.72288 0.36053 0.99151 0.42500
C 	C 	0.77551 0.32976 0.95002 -0.74800
C 	C 	0.84320 0.28818 0.95982 0.78700
C 	C 	0.89270 0.25790 0.91830 -1.32300
C 	C 	0.33179 0.45214 0.58388 0.11100
C 	C 	0.35385 0.45134 0.62416 -0.19500
C 	C 	0.38217 0.40949 0.64497 0.14200
C 	C 	0.39043 0.37086 0.62188 -0.21000
C 	C 	0.36762 0.37364 0.58152 0.10600
C 	C 	0.40450 0.40790 0.69010 -0.16100
C 	C 	0.01848 0.35041 0.68323 0.31600
C 	C 	0.04605 0.32825 0.72045 -0.33200
C 	C 	0.99457 0.33278 0.76468 0.19400
C 	C 	0.91281 0.36011 0.77347 -0.27100
C 	C 	0.88542 0.38234 0.73722 0.18200
C 	C 	0.93546 0.37801 0.69207 -0.27300
C 	C 	0.89888 0.40345 0.65539 0.27500
C 	C 	0.94635 0.40755 0.53715 0.21400
C 	C 	0.91077 0.42509 0.49737 -0.16900
C 	C 	0.87951 0.38813 0.48045 -0.24800
C 	C 	0.85640 0.40370 0.43590 0.29300
C 	C 	0.79740 0.39920 0.43240 -0.40600
C 	C 	0.77440 0.41060 0.38280 -0.16000
C 	C 	0.91937 0.30377 0.58669 0.10300
C 	C 	0.88380 0.26890 0.58690 -0.18800
C 	C 	0.93014 0.22272 0.59040 0.13200
C 	C 	0.00957 0.21518 0.59328 -0.20000
C 	C 	0.04235 0.25200 0.59170 0.09800
C 	C 	0.89600 0.18120 0.59020 -0.15700
C 	C 	0.67873 0.41960 0.58174 0.31100
C 	C 	0.65275 0.37998 0.58152 -0.31300
C 	C 	0.59795 0.37921 0.55689 0.17200
C 	C 	0.56702 0.41702 0.53014 -0.23800
C 	C 	0.59586 0.45530 0.52898 0.15000
C 	C 	0.65127 0.45791 0.55375 -0.26200
C 	C 	0.68105 0.49903 0.54787 0.27300
C 	C 	0.80452 0.54663 0.58713 0.29400
C 	C 	0.84218 0.58678 0.58206 -0.48200
C 	C 	0.81161 0.61523 0.62595 0.33600
C 	C 	0.71856 0.63943 0.63845 -0.60300
C 	C 	0.68934 0.67118 0.68074 0.56700
C 	C 	0.59622 0.69558 0.69238 -1.03600
C 	C 	0.36562 0.32724 0.47212 0.31400
C 	C 	0.44004 0.29679 0.44633 -0.30900
C 	C 	0.45096 0.24940 0.44788 0.18000
C 	C 	0.38820 0.23099 0.47481 -0.25000
C 	C 	0.31503 0.26088 0.49946 0.16200
C 	C 	0.30158 0.30918 0.49846 -0.26800
C 	C 	0.22131 0.33768 0.52690 0.27900
C 	C 	0.12949 0.44863 0.56479 0.32500
C 	C 	0.05710 0.47999 0.59881 -0.54300
C 	C 	0.08341 0.49151 0.63947 0.42800
C 	C 	0.10527 0.45002 0.67024 -0.75000
C 	C 	0.13138 0.45982 0.71182 0.78900
C 	C 	0.15060 0.41830 0.74210 -1.32500
C 	C 	0.78393 0.08388 0.54786 0.11100
C 	C 	0.80519 0.12416 0.54866 -0.19500
C 	C 	0.79166 0.14497 0.59051 0.14200
C 	C 	0.76129 0.12188 0.62914 -0.21000
C 	C 	0.74126 0.08152 0.62636 0.10700
C 	C 	0.81240 0.19010 0.59210 -0.16200
C 	C 	0.55212 0.14959 0.81677 0.31600
C 	C 	0.59475 0.17175 0.77955 -0.33200
C 	C 	0.59203 0.16722 0.73532 0.19500
C 	C 	0.54639 0.13989 0.72653 -0.27200
C 	C 	0.50498 0.11766 0.76278 0.18200
C 	C 	0.50554 0.12199 0.80793 -0.27300
C 	C 	0.45772 0.09655 0.84461 0.27500
C 	C 	0.39105 0.09245 0.96285 0.21200
C 	C 	0.33323 0.07491 0.00263 -0.16500
C 	C 	0.24809 0.11187 0.01955 -0.24700
C 	C 	0.19600 0.09630 0.06410 0.29300
C 	C 	0.12900 0.10080 0.06760 -0.40600
C 	C 	0.06780 0.08940 0.11720 -0.16100
C 	C 	0.30983 0.19623 0.91331 0.10300
C 	C 	0.23960 0.23110 0.91310 -0.18800
C 	C 	0.24326 0.27728 0.90960 0.13200
C 	C 	0.31803 0.28482 0.90672 -0.20100
C 	C 	0.38605 0.24800 0.90830 0.09800
C 	C 	0.16740 0.31880 0.90980 -0.15800
C 	C 	0.18007 0.08040 0.91826 0.31100
C 	C 	0.11425 0.12002 0.91848 -0.31300
C 	C 	0.03405 0.12079 0.94311 0.17200
C 	C 	0.01418 0.08298 0.96986 -0.23700
C 	C 	0.08014 0.04470 0.97102 0.14900
C 	C 	0.16293 0.04209 0.94625 -0.26200
C 	C 	0.22795 0.00097 0.95213 0.27000
C 	C 	0.43828 0.95337 0.91287 0.29400
C 	C 	0.51102 0.91322 0.91794 -0.48200
C 	C 	0.55279 0.88477 0.87405 0.33600
C 	C 	0.49644 0.86057 0.86155 -0.60400
C 	C 	0.54126 0.82882 0.81926 0.56800
C 	C 	0.48418 0.80442 0.80762 -1.03700
C 	C 	0.66498 0.17276 0.02788 0.31400
C 	C 	0.68316 0.20321 0.05367 -0.30900
C 	C 	0.64824 0.25060 0.05212 0.18000
C 	C 	0.59400 0.26901 0.02519 -0.25000
C 	C 	0.57537 0.23912 0.00054 0.16300
C 	C 	0.60922 0.19082 0.00154 -0.26800
C 	C 	0.58589 0.16232 0.97310 0.27800
C 	C 	0.64291 0.05137 0.93521 0.32500
C 	C 	0.63590 0.02001 0.90119 -0.54200
C 	C 	0.71439 0.00849 0.86053 0.42000
C 	C 	0.72553 0.04998 0.82976 -0.74500
C 	C 	0.80302 0.04018 0.78818 0.78400
C 	C 	0.81100 0.08170 0.75790 -1.32000
C 	C 	0.91567 0.41612 0.95214 0.11100
C 	C 	0.97801 0.37584 0.95134 -0.19500
C 	C 	0.02714 0.35503 0.90949 0.14200
C 	C 	0.01231 0.37812 0.87086 -0.20900
C 	C 	0.94914 0.41848 0.87364 0.10600
C 	C 	0.09460 0.30990 0.90790 -0.16100
N 	N 	0.65668 0.88848 0.39794 -0.28900
N 	N 	0.67574 0.92094 0.42198 -0.22800
N 	N 	0.70592 0.91177 0.29639 -0.22800
N 	N 	0.76377 0.92960 0.50266 -0.29500
N 	N 	0.69678 0.93940 0.54384 -0.24700
N 	N 	0.40725 0.96982 0.38230 -0.29200
N 	N 	0.46040 0.93830 0.40550 -0.25600
N 	N 	0.18466 0.91407 0.06241 -0.23200
N 	N 	0.44310 0.61152 0.10206 -0.28900
N 	N 	0.51866 0.57906 0.07802 -0.22800
N 	N 	0.41408 0.58823 0.20361 -0.22800
N 	N 	0.69603 0.57040 0.99734 -0.29500
N 	N 	0.68002 0.56060 0.95616 -0.24700
N 	N 	0.25937 0.53018 0.11770 -0.29200
N 	N 	0.30420 0.56170 0.09450 -0.25500
N 	N 	0.66114 0.58593 0.43759 -0.23200
N 	N 	0.05462 0.60206 0.38848 -0.28900
N 	N 	0.09772 0.57802 0.42094 -0.22800
N 	N 	0.00231 0.70361 0.41177 -0.22800
N 	N 	0.26643 0.49734 0.42960 -0.29500
N 	N 	0.24062 0.45616 0.43940 -0.24700
N 	N 	0.78955 0.61770 0.46982 -0.29200
N 	N 	0.86590 0.59450 0.43830 -0.25600
N 	N 	0.24707 0.93759 0.41407 -0.23300
N 	N 	0.54516 0.89794 0.11152 -0.28900
N 	N 	0.59668 0.92198 0.07906 -0.22800
N 	N 	0.61769 0.79639 0.08823 -0.22800
N 	N 	0.69337 0.00266 0.07040 -0.29400
N 	N 	0.63618 0.04384 0.06060 -0.24600
N 	N 	0.37707 0.88230 0.03018 -0.29200
N 	N 	0.39870 0.90550 0.06170 -0.25500
N 	N 	0.09873 0.56241 0.08593 -0.23200
N 	N 	0.34332 0.11152 0.60206 -0.28900
N 	N 	0.32426 0.07906 0.57802 -0.22800
N 	N 	0.29408 0.08823 0.70361 -0.22800
N 	N 	0.23623 0.07040 0.49734 -0.29500
N 	N 	0.30322 0.06060 0.45616 -0.24700
N 	N 	0.59275 0.03018 0.61770 -0.29200
N 	N 	0.53960 0.06170 0.59450 -0.25600
N 	N 	0.81534 0.08593 0.93759 -0.23200
N 	N 	0.55690 0.38848 0.89794 -0.28900
N 	N 	0.48134 0.42094 0.92198 -0.22800
N 	N 	0.58592 0.41177 0.79639 -0.22800
N 	N 	0.30397 0.42960 0.00266 -0.29500
N 	N 	0.31998 0.43940 0.04384 -0.24700
N 	N 	0.74063 0.46982 0.88230 -0.29200
N 	N 	0.69580 0.43830 0.90550 -0.25500
N 	N 	0.33886 0.41407 0.56241 -0.23200
N 	N 	0.94538 0.39794 0.61152 -0.28900
N 	N 	0.90228 0.42198 0.57906 -0.22800
N 	N 	0.99769 0.29639 0.58823 -0.22800
N 	N 	0.73357 0.50266 0.57040 -0.29500
N 	N 	0.75938 0.54384 0.56060 -0.24700
N 	N 	0.21045 0.38230 0.53018 -0.29200
N 	N 	0.13410 0.40550 0.56170 -0.25600
N 	N 	0.75293 0.06241 0.58593 -0.23300
N 	N 	0.45484 0.10206 0.88848 -0.28900
N 	N 	0.40332 0.07802 0.92094 -0.22800
N 	N 	0.38231 0.20361 0.91177 -0.22800
N 	N 	0.30663 0.99734 0.92960 -0.29400
N 	N 	0.36382 0.95616 0.93940 -0.24600
N 	N 	0.62293 0.11770 0.96982 -0.29200
N 	N 	0.60130 0.09450 0.93830 -0.25500
N 	N 	0.90127 0.43759 0.91407 -0.23200
O 	O 	0.58358 0.85907 0.34311 -0.48400
O 	O 	0.74666 0.83359 0.42989 -0.42800
O 	O 	0.60568 0.97133 0.37605 -0.42300
O 	O 	0.85333 0.89173 0.41897 -0.48600
O 	O 	0.81290 0.98010 0.53098 -0.41200
O 	O 	0.66500 0.88091 0.51567 -0.45500
O 	O 	0.26581 0.03123 0.37197 -0.48000
O 	O 	0.51714 0.95172 0.31794 -0.41800
O 	O 	0.34578 0.95964 0.46684 -0.44700
O 	O 	0.28576 0.64093 0.15689 -0.48400
O 	O 	0.51014 0.66641 0.07011 -0.42800
O 	O 	0.45306 0.52867 0.12395 -0.42300
O 	O 	0.66403 0.60827 0.08103 -0.48600
O 	O 	0.82398 0.51990 0.96902 -0.41200
O 	O 	0.56158 0.61909 0.98433 -0.45500
O 	O 	0.16901 0.46877 0.12803 -0.48000
O 	O 	0.28680 0.54828 0.18206 -0.41800
O 	O 	0.27226 0.54036 0.03316 -0.44700
O 	O 	0.92669 0.65689 0.35907 -0.48400
O 	O 	0.17655 0.57011 0.33359 -0.42800
O 	O 	0.98173 0.62395 0.47133 -0.42300
O 	O 	0.27230 0.58103 0.39173 -0.48600
O 	O 	0.34388 0.46902 0.48010 -0.41200
O 	O 	0.18067 0.48433 0.38091 -0.45500
O 	O 	0.63778 0.62803 0.53123 -0.48000
O 	O 	0.83508 0.68206 0.45172 -0.41800
O 	O 	0.81262 0.53316 0.45964 -0.44700
O 	O 	0.44265 0.84311 0.14093 -0.48400
O 	O 	0.58025 0.92989 0.16641 -0.42800
O 	O 	0.57701 0.87605 0.02867 -0.42300
O 	O 	0.74506 0.91897 0.10827 -0.48600
O 	O 	0.79300 0.03098 0.01990 -0.41000
O 	O 	0.54591 0.01567 0.11909 -0.45500
O 	O 	0.29704 0.87197 0.96877 -0.48000
O 	O 	0.46886 0.81794 0.04828 -0.41800
O 	O 	0.30542 0.96684 0.04036 -0.44800
O 	O 	0.41642 0.14093 0.65689 -0.48400
O 	O 	0.25334 0.16641 0.57011 -0.42800
O 	O 	0.39432 0.02867 0.62395 -0.42300
O 	O 	0.14667 0.10827 0.58103 -0.48600
O 	O 	0.18710 0.01990 0.46902 -0.41200
O 	O 	0.33500 0.11909 0.48433 -0.45500
O 	O 	0.73419 0.96877 0.62803 -0.48000
O 	O 	0.48286 0.04828 0.68206 -0.41800
O 	O 	0.65422 0.04036 0.53316 -0.44700
O 	O 	0.71424 0.35907 0.84311 -0.48400
O 	O 	0.48986 0.33359 0.92989 -0.42800
O 	O 	0.54694 0.47133 0.87605 -0.42300
O 	O 	0.33597 0.39173 0.91897 -0.48600
O 	O 	0.17602 0.48010 0.03098 -0.41200
O 	O 	0.43842 0.38091 0.01567 -0.45500
O 	O 	0.83099 0.53123 0.87197 -0.48000
O 	O 	0.71320 0.45172 0.81794 -0.41800
O 	O 	0.72774 0.45964 0.96684 -0.44700
O 	O 	0.07331 0.34311 0.64093 -0.48400
O 	O 	0.82345 0.42989 0.66641 -0.42800
O 	O 	0.01827 0.37605 0.52867 -0.42300
O 	O 	0.72770 0.41897 0.60827 -0.48600
O 	O 	0.65612 0.53098 0.51990 -0.41200
O 	O 	0.81933 0.51567 0.61909 -0.45500
O 	O 	0.36222 0.37197 0.46877 -0.48000
O 	O 	0.16492 0.31794 0.54828 -0.41800
O 	O 	0.18738 0.46684 0.54036 -0.44700
O 	O 	0.55735 0.15689 0.85907 -0.48400
O 	O 	0.41975 0.07011 0.83359 -0.42800
O 	O 	0.42299 0.12395 0.97133 -0.42300
O 	O 	0.25494 0.08103 0.89173 -0.48600
O 	O 	0.20700 0.96902 0.98010 -0.41000
O 	O 	0.45409 0.98433 0.88091 -0.45500
O 	O 	0.70296 0.12803 0.03123 -0.48000
O 	O 	0.53114 0.18206 0.95172 -0.41800
O 	O 	0.69458 0.03316 0.95964 -0.44800
