data_crystal

_cell_length_a 17.21510
_cell_length_b 30.20780
_cell_length_c 30.20780
_cell_angle_alpha 85.34280
_cell_angle_beta  73.44450
_cell_angle_gamma 73.44450

_symmetry_space_group_name_	'P 1'
_symmetry_space_group_name_H-M	'P 1'

loop_
_symmetry_equiv_pos_as_xyz
  x,y,z

loop_
_atom_site_label
_atom_site_type_symbol
_atom_site_fract_x
_atom_site_fract_y
_atom_site_fract_z
_atom_site_charge
Mn	Mn	0.87033 0.87979 0.02875 1.32100
Mn	Mn	0.79182 0.00089 0.92057 1.33600
Mn	Mn	0.99709 0.91651 0.14135 1.33500
Mn	Mn	0.27887 0.62021 0.47125 1.32100
Mn	Mn	0.21328 0.49911 0.57943 1.33500
Mn	Mn	0.55495 0.58349 0.35865 1.33500
Mn	Mn	0.89908 0.97125 0.37979 1.32000
Mn	Mn	0.71239 0.07943 0.50089 1.33500
Mn	Mn	0.13844 0.85865 0.41651 1.33500
Mn	Mn	0.75012 0.52875 0.12021 1.32000
Mn	Mn	0.79271 0.42057 0.99911 1.33600
Mn	Mn	0.91360 0.64135 0.08349 1.33500
Mn	Mn	0.12967 0.12021 0.97125 1.32000
Mn	Mn	0.20818 0.99911 0.07943 1.33500
Mn	Mn	0.00291 0.08349 0.85865 1.33400
Mn	Mn	0.72113 0.37979 0.52875 1.32000
Mn	Mn	0.78672 0.50089 0.42057 1.33500
Mn	Mn	0.44505 0.41651 0.64135 1.33500
Mn	Mn	0.10092 0.02875 0.62021 1.32000
Mn	Mn	0.28761 0.92057 0.49911 1.33500
Mn	Mn	0.86156 0.14135 0.58349 1.33500
Mn	Mn	0.24988 0.47125 0.87979 1.32000
Mn	Mn	0.20729 0.57943 0.00089 1.33600
Mn	Mn	0.08640 0.35865 0.91651 1.33500
H 	H 	0.64450 0.89200 0.14220 0.12700
H 	H 	0.50870 0.93660 0.15180 -0.02100
H 	H 	0.46840 0.98290 0.09110 0.09900
H 	H 	0.57200 0.98600 0.02120 0.00300
H 	H 	0.02520 0.94920 0.90920 0.06700
H 	H 	0.98770 0.92600 0.87760 0.05500
H 	H 	0.07940 0.85780 0.88020 0.09800
H 	H 	0.13180 0.89540 0.86900 0.09400
H 	H 	0.10880 0.87470 0.92010 0.10400
H 	H 	0.77630 0.92920 0.80580 0.13600
H 	H 	0.84090 0.92870 0.72850 -0.03800
H 	H 	0.93980 0.97170 0.69830 0.10900
H 	H 	0.97160 0.01240 0.74940 -0.00600
H 	H 	0.89230 0.11860 0.95920 0.04700
H 	H 	0.88560 0.08320 0.00140 0.06000
H 	H 	0.73160 0.11730 0.00410 0.11300
H 	H 	0.77920 0.13520 0.03440 0.09800
H 	H 	0.76890 0.16050 0.98690 0.10200
H 	H 	0.63100 0.06640 0.98120 -0.00300
H 	H 	0.51930 0.13280 0.98040 0.08600
H 	H 	0.61020 0.13540 0.84440 0.09800
H 	H 	0.71480 0.06960 0.84780 -0.02000
H 	H 	0.46550 0.17880 0.87600 0.07500
H 	H 	0.49850 0.20910 0.90350 0.07100
H 	H 	0.12220 0.78590 0.19290 0.14200
H 	H 	0.11900 0.71270 0.18430 -0.03900
H 	H 	0.04880 0.69580 0.13480 0.11800
H 	H 	0.98150 0.75610 0.09430 -0.00100
H 	H 	0.84100 0.99060 0.03660 0.07200
H 	H 	0.87560 0.02590 0.05750 0.08300
H 	H 	0.72660 0.99480 0.11120 0.10400
H 	H 	0.71790 0.04510 0.08850 0.10400
H 	H 	0.75990 0.03170 0.13030 0.10700
H 	H 	0.15550 0.24980 0.90720 -0.00300
H 	H 	0.26360 0.18790 0.91750 0.09600
H 	H 	0.38200 0.27970 0.93690 0.08300
H 	H 	0.27080 0.33800 0.92340 -0.01200
H 	H 	0.39070 0.15810 0.94430 0.06300
H 	H 	0.41750 0.19470 0.96810 0.05500
H 	H 	0.17870 0.60800 0.35780 0.12700
H 	H 	0.09710 0.56340 0.34820 -0.02100
H 	H 	0.04240 0.51710 0.40890 0.09900
H 	H 	0.07920 0.51400 0.47880 0.00300
H 	H 	0.38360 0.55080 0.59080 0.06700
H 	H 	0.29130 0.57400 0.62240 0.05500
H 	H 	0.31740 0.64220 0.61980 0.09700
H 	H 	0.39620 0.60460 0.63100 0.09300
H 	H 	0.40360 0.62530 0.57990 0.10400
H 	H 	0.01130 0.57080 0.69420 0.13600
H 	H 	0.99810 0.57130 0.77150 -0.03800
H 	H 	0.10980 0.52830 0.80170 0.10900
H 	H 	0.23340 0.48760 0.75060 -0.00600
H 	H 	0.47010 0.38140 0.54080 0.04500
H 	H 	0.47020 0.41680 0.49860 0.05800
H 	H 	0.35300 0.38270 0.49590 0.11500
H 	H 	0.44880 0.36480 0.46560 0.10000
H 	H 	0.41630 0.33950 0.51310 0.10500
H 	H 	0.17860 0.43360 0.51880 -0.00300
H 	H 	0.13250 0.36720 0.51960 0.08600
H 	H 	0.09000 0.36460 0.65560 0.09700
H 	H 	0.13220 0.43040 0.65220 -0.02000
H 	H 	0.02030 0.32120 0.62400 0.07400
H 	H 	0.11110 0.29090 0.59650 0.07000
H 	H 	0.60100 0.71410 0.30710 0.14200
H 	H 	0.51600 0.78730 0.31570 -0.03800
H 	H 	0.37940 0.80420 0.36520 0.11800
H 	H 	0.33190 0.74390 0.40570 0.00100
H 	H 	0.36820 0.50940 0.46340 0.07500
H 	H 	0.45900 0.47410 0.44250 0.08400
H 	H 	0.33260 0.50520 0.38880 0.10500
H 	H 	0.35150 0.45490 0.41150 0.10300
H 	H 	0.42190 0.46830 0.36970 0.10700
H 	H 	0.81250 0.25020 0.59280 -0.00300
H 	H 	0.86900 0.31210 0.58250 0.09700
H 	H 	0.09860 0.22030 0.56310 0.08400
H 	H 	0.03220 0.16200 0.57660 -0.01400
H 	H 	0.99310 0.34190 0.55570 0.06400
H 	H 	0.08030 0.30530 0.53190 0.05600
H 	H 	0.78670 0.85780 0.39200 0.12700
H 	H 	0.66050 0.84820 0.43660 -0.02100
H 	H 	0.55950 0.90890 0.48290 0.09900
H 	H 	0.59320 0.97880 0.48600 0.00300
H 	H 	0.93440 0.09080 0.44920 0.06800
H 	H 	0.86530 0.12240 0.42600 0.05600
H 	H 	0.95960 0.11980 0.35780 0.09600
H 	H 	0.00080 0.13100 0.39540 0.09100
H 	H 	0.02890 0.07990 0.37470 0.10200
H 	H 	0.58210 0.19420 0.42920 0.13600
H 	H 	0.56940 0.27150 0.42870 -0.03800
H 	H 	0.63810 0.30170 0.47170 0.11000
H 	H 	0.72100 0.25060 0.51240 -0.00600
H 	H 	0.85150 0.04080 0.61860 0.04400
H 	H 	0.88700 0.99860 0.58320 0.05700
H 	H 	0.73570 0.99590 0.61730 0.11500
H 	H 	0.81360 0.96560 0.63520 0.10100
H 	H 	0.75580 0.01310 0.66050 0.10600
H 	H 	0.61220 0.01880 0.56640 -0.00300
H 	H 	0.49970 0.01960 0.63280 0.08600
H 	H 	0.45460 0.15560 0.63540 0.09800
H 	H 	0.56260 0.15220 0.56960 -0.02000
H 	H 	0.34150 0.12400 0.67880 0.07500
H 	H 	0.40200 0.09650 0.70910 0.07100
H 	H 	0.31510 0.80710 0.28590 0.14200
H 	H 	0.30330 0.81570 0.21270 -0.03800
H 	H 	0.18360 0.86520 0.19580 0.11800
H 	H 	0.07580 0.90570 0.25610 0.00100
H 	H 	0.87760 0.96340 0.49060 0.07500
H 	H 	0.93310 0.94250 0.52590 0.08400
H 	H 	0.83780 0.88880 0.49480 0.10500
H 	H 	0.80640 0.91150 0.54510 0.10300
H 	H 	0.89020 0.86970 0.53170 0.10700
H 	H 	0.06270 0.09280 0.74980 -0.00300
H 	H 	0.18110 0.08250 0.68790 0.09600
H 	H 	0.31890 0.06310 0.77970 0.08300
H 	H 	0.19420 0.07660 0.83800 -0.01200
H 	H 	0.33500 0.05570 0.65810 0.06300
H 	H 	0.38560 0.03190 0.69470 0.05500
H 	H 	0.53650 0.64220 0.10800 0.12700
H 	H 	0.44530 0.65180 0.06340 -0.02100
H 	H 	0.45130 0.59110 0.01710 0.09900
H 	H 	0.55800 0.52120 0.01400 0.00300
H 	H 	0.97440 0.40920 0.05080 0.06700
H 	H 	0.91370 0.37760 0.07400 0.05500
H 	H 	0.93720 0.38020 0.14220 0.09800
H 	H 	0.02720 0.36900 0.10460 0.09400
H 	H 	0.98350 0.42010 0.12530 0.10400
H 	H 	0.70550 0.30580 0.07080 0.13600
H 	H 	0.76960 0.22850 0.07130 -0.03800
H 	H 	0.91150 0.19830 0.02830 0.11000
H 	H 	0.98400 0.24940 0.98760 -0.00600
H 	H 	0.01090 0.45920 0.88140 0.04400
H 	H 	0.96880 0.50140 0.91680 0.05800
H 	H 	0.84890 0.50410 0.88270 0.11500
H 	H 	0.91440 0.53440 0.86480 0.10000
H 	H 	0.92940 0.48690 0.83950 0.10600
H 	H 	0.69740 0.48120 0.93360 -0.00300
H 	H 	0.65210 0.48040 0.86720 0.08600
H 	H 	0.74560 0.34440 0.86460 0.09800
H 	H 	0.78440 0.34780 0.93040 -0.02000
H 	H 	0.64430 0.37600 0.82120 0.07500
H 	H 	0.70760 0.40350 0.79090 0.07100
H 	H 	0.90810 0.69290 0.21410 0.14100
H 	H 	0.83170 0.68430 0.28730 -0.03800
H 	H 	0.74460 0.63480 0.30420 0.11800
H 	H 	0.73760 0.59430 0.24390 0.00100
H 	H 	0.83160 0.53660 0.00940 0.07400
H 	H 	0.90150 0.55750 0.97410 0.08400
H 	H 	0.72140 0.61120 0.00520 0.10400
H 	H 	0.76300 0.58850 0.95490 0.10300
H 	H 	0.79160 0.63030 0.96830 0.10700
H 	H 	0.40530 0.40720 0.75020 -0.00300
H 	H 	0.45150 0.41750 0.81210 0.09600
H 	H 	0.66170 0.43690 0.72030 0.08300
H 	H 	0.60880 0.42340 0.66200 -0.01200
H 	H 	0.54880 0.44430 0.84190 0.06300
H 	H 	0.61220 0.46810 0.80530 0.05500
H 	H 	0.35550 0.10800 0.85780 0.12700
H 	H 	0.49130 0.06340 0.84820 -0.02100
H 	H 	0.53160 0.01710 0.90890 0.09900
H 	H 	0.42800 0.01400 0.97880 0.00300
H 	H 	0.97480 0.05080 0.09080 0.06700
H 	H 	0.01230 0.07400 0.12240 0.05500
H 	H 	0.92060 0.14220 0.11980 0.09800
H 	H 	0.86820 0.10460 0.13100 0.09400
H 	H 	0.89120 0.12530 0.07990 0.10400
H 	H 	0.22370 0.07080 0.19420 0.13600
H 	H 	0.15910 0.07130 0.27150 -0.03800
H 	H 	0.06020 0.02830 0.30170 0.10900
H 	H 	0.02840 0.98760 0.25060 -0.00600
H 	H 	0.10770 0.88140 0.04080 0.04700
H 	H 	0.11440 0.91680 0.99860 0.06000
H 	H 	0.26840 0.88270 0.99590 0.11300
H 	H 	0.22080 0.86480 0.96560 0.09800
H 	H 	0.23110 0.83950 0.01310 0.10200
H 	H 	0.36900 0.93360 0.01880 -0.00300
H 	H 	0.48070 0.86720 0.01960 0.08600
H 	H 	0.38980 0.86460 0.15560 0.09800
H 	H 	0.28520 0.93040 0.15220 -0.02000
H 	H 	0.53450 0.82120 0.12400 0.07500
H 	H 	0.50150 0.79090 0.09650 0.07100
H 	H 	0.87780 0.21410 0.80710 0.14200
H 	H 	0.88100 0.28730 0.81570 -0.03900
H 	H 	0.95120 0.30420 0.86520 0.11800
H 	H 	0.01850 0.24390 0.90570 -0.00100
H 	H 	0.15900 0.00940 0.96340 0.07200
H 	H 	0.12440 0.97410 0.94250 0.08300
H 	H 	0.27340 0.00520 0.88880 0.10400
H 	H 	0.28210 0.95490 0.91150 0.10400
H 	H 	0.24010 0.96830 0.86970 0.10700
H 	H 	0.84450 0.75020 0.09280 -0.00300
H 	H 	0.73640 0.81210 0.08250 0.09600
H 	H 	0.61800 0.72030 0.06310 0.08300
H 	H 	0.72920 0.66200 0.07660 -0.01200
H 	H 	0.60930 0.84190 0.05570 0.06300
H 	H 	0.58250 0.80530 0.03190 0.05500
H 	H 	0.82130 0.39200 0.64220 0.12700
H 	H 	0.90290 0.43660 0.65180 -0.02100
H 	H 	0.95760 0.48290 0.59110 0.09900
H 	H 	0.92080 0.48600 0.52120 0.00300
H 	H 	0.61640 0.44920 0.40920 0.06700
H 	H 	0.70870 0.42600 0.37760 0.05500
H 	H 	0.68260 0.35780 0.38020 0.09700
H 	H 	0.60380 0.39540 0.36900 0.09300
H 	H 	0.59640 0.37470 0.42010 0.10400
H 	H 	0.98870 0.42920 0.30580 0.13600
H 	H 	0.00190 0.42870 0.22850 -0.03800
H 	H 	0.89020 0.47170 0.19830 0.10900
H 	H 	0.76660 0.51240 0.24940 -0.00600
H 	H 	0.52990 0.61860 0.45920 0.04500
H 	H 	0.52980 0.58320 0.50140 0.05800
H 	H 	0.64700 0.61730 0.50410 0.11500
H 	H 	0.55120 0.63520 0.53440 0.10000
H 	H 	0.58370 0.66050 0.48690 0.10500
H 	H 	0.82140 0.56640 0.48120 -0.00300
H 	H 	0.86750 0.63280 0.48040 0.08600
H 	H 	0.91000 0.63540 0.34440 0.09700
H 	H 	0.86780 0.56960 0.34780 -0.02000
H 	H 	0.97970 0.67880 0.37600 0.07400
H 	H 	0.88890 0.70910 0.40350 0.07000
H 	H 	0.39900 0.28590 0.69290 0.14200
H 	H 	0.48400 0.21270 0.68430 -0.03800
H 	H 	0.62060 0.19580 0.63480 0.11800
H 	H 	0.66810 0.25610 0.59430 0.00100
H 	H 	0.63180 0.49060 0.53660 0.07500
H 	H 	0.54100 0.52590 0.55750 0.08400
H 	H 	0.66740 0.49480 0.61120 0.10500
H 	H 	0.64850 0.54510 0.58850 0.10300
H 	H 	0.57810 0.53170 0.63030 0.10700
H 	H 	0.18750 0.74980 0.40720 -0.00300
H 	H 	0.13100 0.68790 0.41750 0.09700
H 	H 	0.90140 0.77970 0.43690 0.08400
H 	H 	0.96780 0.83800 0.42340 -0.01400
H 	H 	0.00690 0.65810 0.44430 0.06400
H 	H 	0.91970 0.69470 0.46810 0.05600
H 	H 	0.21330 0.14220 0.60800 0.12700
H 	H 	0.33950 0.15180 0.56340 -0.02100
H 	H 	0.44050 0.09110 0.51710 0.09900
H 	H 	0.40680 0.02120 0.51400 0.00300
H 	H 	0.06560 0.90920 0.55080 0.06800
H 	H 	0.13470 0.87760 0.57400 0.05600
H 	H 	0.04040 0.88020 0.64220 0.09600
H 	H 	0.99920 0.86900 0.60460 0.09100
H 	H 	0.97110 0.92010 0.62530 0.10200
H 	H 	0.41790 0.80580 0.57080 0.13600
H 	H 	0.43060 0.72850 0.57130 -0.03800
H 	H 	0.36190 0.69830 0.52830 0.11000
H 	H 	0.27900 0.74940 0.48760 -0.00600
H 	H 	0.14850 0.95920 0.38140 0.04400
H 	H 	0.11300 0.00140 0.41680 0.05700
H 	H 	0.26430 0.00410 0.38270 0.11500
H 	H 	0.18640 0.03440 0.36480 0.10100
H 	H 	0.24420 0.98690 0.33950 0.10600
H 	H 	0.38780 0.98120 0.43360 -0.00300
H 	H 	0.50030 0.98040 0.36720 0.08600
H 	H 	0.54540 0.84440 0.36460 0.09800
H 	H 	0.43740 0.84780 0.43040 -0.02000
H 	H 	0.65850 0.87600 0.32120 0.07500
H 	H 	0.59800 0.90350 0.29090 0.07100
H 	H 	0.68490 0.19290 0.71410 0.14200
H 	H 	0.69670 0.18430 0.78730 -0.03800
H 	H 	0.81640 0.13480 0.80420 0.11800
H 	H 	0.92420 0.09430 0.74390 0.00100
H 	H 	0.12240 0.03660 0.50940 0.07500
H 	H 	0.06690 0.05750 0.47410 0.08400
H 	H 	0.16220 0.11120 0.50520 0.10500
H 	H 	0.19360 0.08850 0.45490 0.10300
H 	H 	0.10980 0.13030 0.46830 0.10700
H 	H 	0.93730 0.90720 0.25020 -0.00300
H 	H 	0.81890 0.91750 0.31210 0.09600
H 	H 	0.68110 0.93690 0.22030 0.08300
H 	H 	0.80580 0.92340 0.16200 -0.01200
H 	H 	0.66500 0.94430 0.34190 0.06300
H 	H 	0.61440 0.96810 0.30530 0.05500
H 	H 	0.46350 0.35780 0.89200 0.12700
H 	H 	0.55470 0.34820 0.93660 -0.02100
H 	H 	0.54870 0.40890 0.98290 0.09900
H 	H 	0.44200 0.47880 0.98600 0.00300
H 	H 	0.02560 0.59080 0.94920 0.06700
H 	H 	0.08630 0.62240 0.92600 0.05500
H 	H 	0.06280 0.61980 0.85780 0.09800
H 	H 	0.97280 0.63100 0.89540 0.09400
H 	H 	0.01650 0.57990 0.87470 0.10400
H 	H 	0.29450 0.69420 0.92920 0.13600
H 	H 	0.23040 0.77150 0.92870 -0.03800
H 	H 	0.08850 0.80170 0.97170 0.11000
H 	H 	0.01600 0.75060 0.01240 -0.00600
H 	H 	0.98910 0.54080 0.11860 0.04400
H 	H 	0.03120 0.49860 0.08320 0.05800
H 	H 	0.15110 0.49590 0.11730 0.11500
H 	H 	0.08560 0.46560 0.13520 0.10000
H 	H 	0.07060 0.51310 0.16050 0.10600
H 	H 	0.30260 0.51880 0.06640 -0.00300
H 	H 	0.34790 0.51960 0.13280 0.08600
H 	H 	0.25440 0.65560 0.13540 0.09800
H 	H 	0.21560 0.65220 0.06960 -0.02000
H 	H 	0.35570 0.62400 0.17880 0.07500
H 	H 	0.29240 0.59650 0.20910 0.07100
H 	H 	0.09190 0.30710 0.78590 0.14100
H 	H 	0.16830 0.31570 0.71270 -0.03800
H 	H 	0.25540 0.36520 0.69580 0.11800
H 	H 	0.26240 0.40570 0.75610 0.00100
H 	H 	0.16840 0.46340 0.99060 0.07400
H 	H 	0.09850 0.44250 0.02590 0.08400
H 	H 	0.27860 0.38880 0.99480 0.10400
H 	H 	0.23700 0.41150 0.04510 0.10300
H 	H 	0.20840 0.36970 0.03170 0.10700
H 	H 	0.59470 0.59280 0.24980 -0.00300
H 	H 	0.54850 0.58250 0.18790 0.09600
H 	H 	0.33830 0.56310 0.27970 0.08300
H 	H 	0.39120 0.57660 0.33800 -0.01200
H 	H 	0.45120 0.55570 0.15810 0.06300
H 	H 	0.38780 0.53190 0.19470 0.05500
C 	C 	0.69296 0.91277 0.07611 0.29500
C 	C 	0.63015 0.91138 0.11772 -0.27200
C 	C 	0.54962 0.93743 0.12313 0.13900
C 	C 	0.52537 0.96553 0.08733 -0.19500
C 	C 	0.58725 0.96743 0.04587 0.12800
C 	C 	0.67106 0.94221 0.04067 -0.25000
C 	C 	0.73308 0.94848 0.99836 0.27400
C 	C 	0.94353 0.91375 0.94619 0.20800
C 	C 	0.01132 0.92070 0.90446 -0.13400
C 	C 	0.08906 0.88419 0.89249 -0.25400
C 	C 	0.83244 0.97153 0.82599 0.32100
C 	C 	0.81600 0.94665 0.79455 -0.29700
C 	C 	0.85421 0.94620 0.74858 0.16900
C 	C 	0.91316 0.97142 0.73046 -0.23300
C 	C 	0.93085 0.99560 0.76110 0.15900
C 	C 	0.89284 0.99690 0.80782 -0.25800
C 	C 	0.91386 0.02584 0.83704 0.27400
C 	C 	0.85075 0.06484 0.94786 0.20600
C 	C 	0.85657 0.09986 0.97840 -0.11600
C 	C 	0.77784 0.13066 0.00286 -0.27400
C 	C 	0.62535 0.07989 0.95241 0.09800
C 	C 	0.55814 0.11958 0.95234 -0.18400
C 	C 	0.55044 0.13876 0.90996 0.15400
C 	C 	0.61041 0.12091 0.87347 -0.21600
C 	C 	0.67407 0.08175 0.87571 0.12500
C 	C 	0.47837 0.18120 0.90546 -0.16500
C 	C 	0.05192 0.81723 0.14933 0.31100
C 	C 	0.09258 0.78025 0.17279 -0.30100
C 	C 	0.09106 0.73696 0.16752 0.18400
C 	C 	0.04978 0.72659 0.13825 -0.23900
C 	C 	0.01032 0.76247 0.11449 0.16400
C 	C 	0.01101 0.80751 0.11887 -0.25500
C 	C 	0.96669 0.84464 0.09218 0.27600
C 	C 	0.89938 0.96149 0.08635 0.22100
C 	C 	0.84744 0.00079 0.06533 -0.17300
C 	C 	0.75333 0.02006 0.10268 -0.26900
C 	C 	0.20248 0.25571 0.91373 0.10700
C 	C 	0.26649 0.21862 0.91960 -0.19200
C 	C 	0.33455 0.22663 0.92847 0.12000
C 	C 	0.33590 0.27259 0.93061 -0.17900
C 	C 	0.26872 0.30694 0.92342 0.10500
C 	C 	0.40755 0.18726 0.93924 -0.12100
C 	C 	0.18184 0.58723 0.42389 0.29500
C 	C 	0.15925 0.58862 0.38228 -0.27100
C 	C 	0.11018 0.56257 0.37687 0.13900
C 	C 	0.07823 0.53447 0.41267 -0.19400
C 	C 	0.10055 0.53257 0.45413 0.12700
C 	C 	0.15394 0.55779 0.45933 -0.24800
C 	C 	0.17992 0.55152 0.50164 0.27200
C 	C 	0.30347 0.58625 0.55381 0.20800
C 	C 	0.33648 0.57930 0.59554 -0.13500
C 	C 	0.36574 0.61581 0.60751 -0.25300
C 	C 	0.12996 0.52847 0.67401 0.32100
C 	C 	0.05720 0.55335 0.70545 -0.29700
C 	C 	0.04899 0.55380 0.75142 0.16800
C 	C 	0.11504 0.52858 0.76954 -0.23300
C 	C 	0.18755 0.50440 0.73890 0.16000
C 	C 	0.19756 0.50310 0.69218 -0.25900
C 	C 	0.27674 0.47416 0.66296 0.27500
C 	C 	0.36345 0.43516 0.55214 0.20400
C 	C 	0.43483 0.40014 0.52160 -0.11000
C 	C 	0.41136 0.36934 0.49714 -0.28100
C 	C 	0.15765 0.42011 0.54759 0.09800
C 	C 	0.13006 0.38042 0.54766 -0.18300
C 	C 	0.09916 0.36124 0.59004 0.15200
C 	C 	0.10479 0.37909 0.62653 -0.21500
C 	C 	0.13153 0.41825 0.62429 0.12500
C 	C 	0.06503 0.31880 0.59454 -0.16200
C 	C 	0.51848 0.68277 0.35067 0.31100
C 	C 	0.54562 0.71975 0.32721 -0.30100
C 	C 	0.49554 0.76304 0.33248 0.18300
C 	C 	0.41462 0.77341 0.36175 -0.23700
C 	C 	0.38728 0.73753 0.38551 0.16200
C 	C 	0.43739 0.69249 0.38113 -0.25500
C 	C 	0.40351 0.65536 0.40782 0.27700
C 	C 	0.44722 0.53851 0.41365 0.22400
C 	C 	0.41356 0.49921 0.43467 -0.17900
C 	C 	0.37607 0.47994 0.39732 -0.27000
C 	C 	0.87192 0.24429 0.58627 0.10800
C 	C 	0.90471 0.28138 0.58040 -0.19400
C 	C 	0.98965 0.27337 0.57153 0.12300
C 	C 	0.03910 0.22741 0.56939 -0.18200
C 	C 	0.99908 0.19306 0.57658 0.10800
C 	C 	0.03405 0.31274 0.56076 -0.12500
C 	C 	0.76907 0.92389 0.41277 0.29500
C 	C 	0.74787 0.88228 0.41138 -0.27100
C 	C 	0.67275 0.87687 0.43743 0.13900
C 	C 	0.61270 0.91267 0.46553 -0.19500
C 	C 	0.63312 0.95413 0.46743 0.12700
C 	C 	0.71173 0.95933 0.44221 -0.24900
C 	C 	0.73144 0.00164 0.44848 0.27300
C 	C 	0.88972 0.05381 0.41375 0.20900
C 	C 	0.91578 0.09554 0.42070 -0.13800
C 	C 	0.98155 0.10751 0.38419 -0.24700
C 	C 	0.65843 0.17401 0.47153 0.32100
C 	C 	0.61055 0.20545 0.44665 -0.29700
C 	C 	0.60279 0.25142 0.44620 0.16900
C 	C 	0.64362 0.26954 0.47142 -0.23300
C 	C 	0.69195 0.23890 0.49560 0.16000
C 	C 	0.70066 0.19218 0.49690 -0.25900
C 	C 	0.75090 0.16296 0.52584 0.27500
C 	C 	0.79861 0.05214 0.56484 0.20300
C 	C 	0.83497 0.02160 0.59986 -0.10700
C 	C 	0.78070 0.99714 0.63066 -0.28400
C 	C 	0.57776 0.04759 0.57989 0.09800
C 	C 	0.51048 0.04766 0.61958 -0.18400
C 	C 	0.46040 0.09004 0.63876 0.15400
C 	C 	0.48388 0.12653 0.62091 -0.21600
C 	C 	0.54978 0.12429 0.58175 0.12500
C 	C 	0.38383 0.09454 0.68120 -0.16500
C 	C 	0.20125 0.85067 0.31723 0.31100
C 	C 	0.26537 0.82721 0.28025 -0.30100
C 	C 	0.25858 0.83248 0.23696 0.18300
C 	C 	0.18803 0.86175 0.22659 -0.23800
C 	C 	0.12481 0.88551 0.26247 0.16300
C 	C 	0.12988 0.88113 0.30751 -0.25500
C 	C 	0.05887 0.90782 0.34464 0.27800
C 	C 	0.98573 0.91365 0.46149 0.22300
C 	C 	0.91277 0.93467 0.50079 -0.17800
C 	C 	0.85601 0.89732 0.52006 -0.27000
C 	C 	0.11621 0.08627 0.75571 0.10700
C 	C 	0.18609 0.08040 0.71862 -0.19200
C 	C 	0.26302 0.07153 0.72663 0.12000
C 	C 	0.26651 0.06939 0.77259 -0.17900
C 	C 	0.19214 0.07658 0.80694 0.10500
C 	C 	0.34679 0.06076 0.68726 -0.12100
C 	C 	0.60573 0.57611 0.08723 0.29500
C 	C 	0.54153 0.61772 0.08862 -0.27100
C 	C 	0.48705 0.62313 0.06257 0.13900
C 	C 	0.49090 0.58733 0.03447 -0.19400
C 	C 	0.55468 0.54587 0.03257 0.12700
C 	C 	0.61327 0.54067 0.05779 -0.24800
C 	C 	0.68156 0.49836 0.05152 0.27200
C 	C 	0.85728 0.44619 0.08625 0.20800
C 	C 	0.93202 0.40446 0.07930 -0.13400
C 	C 	0.97325 0.39249 0.11581 -0.25500
C 	C 	0.80397 0.32599 0.02847 0.32100
C 	C 	0.76265 0.29455 0.05335 -0.29800
C 	C 	0.80041 0.24858 0.05380 0.16900
C 	C 	0.88458 0.23046 0.02858 -0.23300
C 	C 	0.92645 0.26110 0.00440 0.16000
C 	C 	0.88974 0.30782 0.00310 -0.25900
C 	C 	0.93970 0.33704 0.97416 0.27600
C 	C 	0.91559 0.44786 0.93516 0.20400
C 	C 	0.95643 0.47840 0.90014 -0.10800
C 	C 	0.90850 0.50286 0.86934 -0.28300
C 	C 	0.70524 0.45241 0.92011 0.09800
C 	C 	0.67772 0.45234 0.88042 -0.18400
C 	C 	0.68920 0.40996 0.86124 0.15400
C 	C 	0.73132 0.37347 0.87909 -0.21600
C 	C 	0.75582 0.37571 0.91825 0.12500
C 	C 	0.65957 0.40546 0.81880 -0.16500
C 	C 	0.86915 0.64933 0.18277 0.31100
C 	C 	0.87283 0.67279 0.21975 -0.30100
C 	C 	0.82802 0.66752 0.26304 0.18300
C 	C 	0.77637 0.63825 0.27341 -0.23700
C 	C 	0.77279 0.61449 0.23753 0.16200
C 	C 	0.81852 0.61887 0.19249 -0.25500
C 	C 	0.81133 0.59218 0.15536 0.27700
C 	C 	0.86087 0.58635 0.03851 0.22300
C 	C 	0.84823 0.56533 0.99921 -0.17700
C 	C 	0.77339 0.60268 0.97994 -0.26900
C 	C 	0.45819 0.41373 0.74429 0.10700
C 	C 	0.48511 0.41960 0.78138 -0.19200
C 	C 	0.56118 0.42847 0.77337 0.12000
C 	C 	0.60849 0.43061 0.72741 -0.17900
C 	C 	0.57566 0.42342 0.69306 0.10500
C 	C 	0.59481 0.43924 0.81274 -0.12100
C 	C 	0.30704 0.08723 0.92389 0.29500
C 	C 	0.36985 0.08862 0.88228 -0.27200
C 	C 	0.45038 0.06257 0.87687 0.13900
C 	C 	0.47463 0.03447 0.91267 -0.19500
C 	C 	0.41275 0.03257 0.95413 0.12800
C 	C 	0.32894 0.05779 0.95933 -0.25000
C 	C 	0.26692 0.05152 0.00164 0.27400
C 	C 	0.05647 0.08625 0.05381 0.20800
C 	C 	0.98868 0.07930 0.09554 -0.13400
C 	C 	0.91094 0.11581 0.10751 -0.25400
C 	C 	0.16756 0.02847 0.17401 0.32100
C 	C 	0.18400 0.05335 0.20545 -0.29700
C 	C 	0.14579 0.05380 0.25142 0.16900
C 	C 	0.08684 0.02858 0.26954 -0.23300
C 	C 	0.06915 0.00440 0.23890 0.15900
C 	C 	0.10716 0.00310 0.19218 -0.25800
C 	C 	0.08614 0.97416 0.16296 0.27400
C 	C 	0.14925 0.93516 0.05214 0.20600
C 	C 	0.14343 0.90014 0.02160 -0.11600
C 	C 	0.22216 0.86934 0.99714 -0.27400
C 	C 	0.37465 0.92011 0.04759 0.09800
C 	C 	0.44186 0.88042 0.04766 -0.18400
C 	C 	0.44956 0.86124 0.09004 0.15400
C 	C 	0.38959 0.87909 0.12653 -0.21600
C 	C 	0.32593 0.91825 0.12429 0.12500
C 	C 	0.52163 0.81880 0.09454 -0.16500
C 	C 	0.94808 0.18277 0.85067 0.31100
C 	C 	0.90742 0.21975 0.82721 -0.30100
C 	C 	0.90894 0.26304 0.83248 0.18400
C 	C 	0.95022 0.27341 0.86175 -0.23900
C 	C 	0.98968 0.23753 0.88551 0.16400
C 	C 	0.98899 0.19249 0.88113 -0.25500
C 	C 	0.03331 0.15536 0.90782 0.27600
C 	C 	0.10062 0.03851 0.91365 0.22100
C 	C 	0.15256 0.99921 0.93467 -0.17300
C 	C 	0.24667 0.97994 0.89732 -0.26900
C 	C 	0.79752 0.74429 0.08627 0.10700
C 	C 	0.73351 0.78138 0.08040 -0.19200
C 	C 	0.66545 0.77337 0.07153 0.12000
C 	C 	0.66410 0.72741 0.06939 -0.17900
C 	C 	0.73128 0.69306 0.07658 0.10500
C 	C 	0.59245 0.81274 0.06076 -0.12100
C 	C 	0.81816 0.41277 0.57611 0.29500
C 	C 	0.84075 0.41138 0.61772 -0.27100
C 	C 	0.88982 0.43743 0.62313 0.13900
C 	C 	0.92177 0.46553 0.58733 -0.19400
C 	C 	0.89945 0.46743 0.54587 0.12700
C 	C 	0.84606 0.44221 0.54067 -0.24800
C 	C 	0.82008 0.44848 0.49836 0.27200
C 	C 	0.69653 0.41375 0.44619 0.20800
C 	C 	0.66352 0.42070 0.40446 -0.13500
C 	C 	0.63426 0.38419 0.39249 -0.25300
C 	C 	0.87004 0.47153 0.32599 0.32100
C 	C 	0.94280 0.44665 0.29455 -0.29700
C 	C 	0.95101 0.44620 0.24858 0.16800
C 	C 	0.88496 0.47142 0.23046 -0.23300
C 	C 	0.81245 0.49560 0.26110 0.16000
C 	C 	0.80244 0.49690 0.30782 -0.25900
C 	C 	0.72326 0.52584 0.33704 0.27500
C 	C 	0.63655 0.56484 0.44786 0.20400
C 	C 	0.56517 0.59986 0.47840 -0.11000
C 	C 	0.58864 0.63066 0.50286 -0.28100
C 	C 	0.84235 0.57989 0.45241 0.09800
C 	C 	0.86994 0.61958 0.45234 -0.18300
C 	C 	0.90084 0.63876 0.40996 0.15200
C 	C 	0.89521 0.62091 0.37347 -0.21500
C 	C 	0.86847 0.58175 0.37571 0.12500
C 	C 	0.93497 0.68120 0.40546 -0.16200
C 	C 	0.48152 0.31723 0.64933 0.31100
C 	C 	0.45438 0.28025 0.67279 -0.30100
C 	C 	0.50446 0.23696 0.66752 0.18300
C 	C 	0.58538 0.22659 0.63825 -0.23700
C 	C 	0.61272 0.26247 0.61449 0.16200
C 	C 	0.56261 0.30751 0.61887 -0.25500
C 	C 	0.59649 0.34464 0.59218 0.27700
C 	C 	0.55278 0.46149 0.58635 0.22400
C 	C 	0.58644 0.50079 0.56533 -0.17900
C 	C 	0.62393 0.52006 0.60268 -0.27000
C 	C 	0.12808 0.75571 0.41373 0.10800
C 	C 	0.09529 0.71862 0.41960 -0.19400
C 	C 	0.01035 0.72663 0.42847 0.12300
C 	C 	0.96090 0.77259 0.43061 -0.18200
C 	C 	0.00092 0.80694 0.42342 0.10800
C 	C 	0.96595 0.68726 0.43924 -0.12500
C 	C 	0.23093 0.07611 0.58723 0.29500
C 	C 	0.25213 0.11772 0.58862 -0.27100
C 	C 	0.32725 0.12313 0.56257 0.13900
C 	C 	0.38730 0.08733 0.53447 -0.19500
C 	C 	0.36688 0.04587 0.53257 0.12700
C 	C 	0.28827 0.04067 0.55779 -0.24900
C 	C 	0.26856 0.99836 0.55152 0.27300
C 	C 	0.11028 0.94619 0.58625 0.20900
C 	C 	0.08422 0.90446 0.57930 -0.13800
C 	C 	0.01845 0.89249 0.61581 -0.24700
C 	C 	0.34157 0.82599 0.52847 0.32100
C 	C 	0.38945 0.79455 0.55335 -0.29700
C 	C 	0.39721 0.74858 0.55380 0.16900
C 	C 	0.35638 0.73046 0.52858 -0.23300
C 	C 	0.30805 0.76110 0.50440 0.16000
C 	C 	0.29934 0.80782 0.50310 -0.25900
C 	C 	0.24910 0.83704 0.47416 0.27500
C 	C 	0.20139 0.94786 0.43516 0.20300
C 	C 	0.16503 0.97840 0.40014 -0.10700
C 	C 	0.21930 0.00286 0.36934 -0.28400
C 	C 	0.42224 0.95241 0.42011 0.09800
C 	C 	0.48952 0.95234 0.38042 -0.18400
C 	C 	0.53960 0.90996 0.36124 0.15400
C 	C 	0.51612 0.87347 0.37909 -0.21600
C 	C 	0.45022 0.87571 0.41825 0.12500
C 	C 	0.61617 0.90546 0.31880 -0.16500
C 	C 	0.79875 0.14933 0.68277 0.31100
C 	C 	0.73463 0.17279 0.71975 -0.30100
C 	C 	0.74142 0.16752 0.76304 0.18300
C 	C 	0.81197 0.13825 0.77341 -0.23800
C 	C 	0.87519 0.11449 0.73753 0.16300
C 	C 	0.87012 0.11887 0.69249 -0.25500
C 	C 	0.94113 0.09218 0.65536 0.27800
C 	C 	0.01427 0.08635 0.53851 0.22300
C 	C 	0.08723 0.06533 0.49921 -0.17800
C 	C 	0.14399 0.10268 0.47994 -0.27000
C 	C 	0.88379 0.91373 0.24429 0.10700
C 	C 	0.81391 0.91960 0.28138 -0.19200
C 	C 	0.73698 0.92847 0.27337 0.12000
C 	C 	0.73349 0.93061 0.22741 -0.17900
C 	C 	0.80786 0.92342 0.19306 0.10500
C 	C 	0.65321 0.93924 0.31274 -0.12100
C 	C 	0.39427 0.42389 0.91277 0.29500
C 	C 	0.45847 0.38228 0.91138 -0.27100
C 	C 	0.51295 0.37687 0.93743 0.13900
C 	C 	0.50910 0.41267 0.96553 -0.19400
C 	C 	0.44532 0.45413 0.96743 0.12700
C 	C 	0.38673 0.45933 0.94221 -0.24800
C 	C 	0.31844 0.50164 0.94848 0.27200
C 	C 	0.14272 0.55381 0.91375 0.20800
C 	C 	0.06798 0.59554 0.92070 -0.13400
C 	C 	0.02675 0.60751 0.88419 -0.25500
C 	C 	0.19603 0.67401 0.97153 0.32100
C 	C 	0.23735 0.70545 0.94665 -0.29800
C 	C 	0.19959 0.75142 0.94620 0.16900
C 	C 	0.11542 0.76954 0.97142 -0.23300
C 	C 	0.07355 0.73890 0.99560 0.16000
C 	C 	0.11026 0.69218 0.99690 -0.25900
C 	C 	0.06030 0.66296 0.02584 0.27600
C 	C 	0.08441 0.55214 0.06484 0.20400
C 	C 	0.04357 0.52160 0.09986 -0.10800
C 	C 	0.09150 0.49714 0.13066 -0.28300
C 	C 	0.29476 0.54759 0.07989 0.09800
C 	C 	0.32228 0.54766 0.11958 -0.18400
C 	C 	0.31080 0.59004 0.13876 0.15400
C 	C 	0.26868 0.62653 0.12091 -0.21600
C 	C 	0.24418 0.62429 0.08175 0.12500
C 	C 	0.34043 0.59454 0.18120 -0.16500
C 	C 	0.13085 0.35067 0.81723 0.31100
C 	C 	0.12717 0.32721 0.78025 -0.30100
C 	C 	0.17198 0.33248 0.73696 0.18300
C 	C 	0.22363 0.36175 0.72659 -0.23700
C 	C 	0.22721 0.38551 0.76247 0.16200
C 	C 	0.18148 0.38113 0.80751 -0.25500
C 	C 	0.18867 0.40782 0.84464 0.27700
C 	C 	0.13913 0.41365 0.96149 0.22300
C 	C 	0.15177 0.43467 0.00079 -0.17700
C 	C 	0.22661 0.39732 0.02006 -0.26900
C 	C 	0.54181 0.58627 0.25571 0.10700
C 	C 	0.51489 0.58040 0.21862 -0.19200
C 	C 	0.43882 0.57153 0.22663 0.12000
C 	C 	0.39151 0.56939 0.27259 -0.17900
C 	C 	0.42434 0.57658 0.30694 0.10500
C 	C 	0.40519 0.56076 0.18726 -0.12100
N 	N 	0.81327 0.92639 0.99237 -0.29500
N 	N 	0.86658 0.93778 0.95020 -0.22900
N 	N 	0.87256 0.03058 0.88168 -0.28500
N 	N 	0.89135 0.06311 0.90471 -0.22500
N 	N 	0.68103 0.06056 0.91418 -0.23500
N 	N 	0.95895 0.88810 0.09928 -0.28800
N 	N 	0.91291 0.91941 0.07277 -0.22700
N 	N 	0.20206 0.29923 0.91665 -0.23400
N 	N 	0.23203 0.57361 0.50763 -0.29500
N 	N 	0.25456 0.56222 0.54980 -0.22900
N 	N 	0.28482 0.46942 0.61832 -0.28500
N 	N 	0.35917 0.43689 0.59529 -0.22400
N 	N 	0.15577 0.43944 0.58582 -0.23500
N 	N 	0.44633 0.61190 0.40072 -0.28800
N 	N 	0.40509 0.58059 0.42723 -0.22700
N 	N 	0.91794 0.20077 0.58335 -0.23500
N 	N 	0.80564 0.00763 0.42639 -0.29500
N 	N 	0.81678 0.04980 0.43778 -0.22900
N 	N 	0.75424 0.11832 0.53058 -0.28500
N 	N 	0.79606 0.09529 0.56311 -0.22400
N 	N 	0.59521 0.08582 0.56056 -0.23500
N 	N 	0.05823 0.90072 0.38810 -0.28800
N 	N 	0.98568 0.92723 0.41941 -0.22700
N 	N 	0.11871 0.08335 0.79923 -0.23400
N 	N 	0.73966 0.49237 0.07361 -0.29500
N 	N 	0.80436 0.45020 0.06222 -0.22900
N 	N 	0.90314 0.38168 0.96942 -0.28600
N 	N 	0.95446 0.40471 0.93689 -0.22400
N 	N 	0.74159 0.41418 0.93944 -0.23500
N 	N 	0.84705 0.59928 0.11190 -0.28800
N 	N 	0.83232 0.57277 0.08059 -0.22700
N 	N 	0.50129 0.41665 0.70077 -0.23400
N 	N 	0.18673 0.07361 0.00763 -0.29500
N 	N 	0.13342 0.06222 0.04980 -0.22900
N 	N 	0.12744 0.96942 0.11832 -0.28500
N 	N 	0.10865 0.93689 0.09529 -0.22500
N 	N 	0.31897 0.93944 0.08582 -0.23500
N 	N 	0.04105 0.11190 0.90072 -0.28800
N 	N 	0.08709 0.08059 0.92723 -0.22700
N 	N 	0.79794 0.70077 0.08335 -0.23400
N 	N 	0.76797 0.42639 0.49237 -0.29500
N 	N 	0.74544 0.43778 0.45020 -0.22900
N 	N 	0.71518 0.53058 0.38168 -0.28500
N 	N 	0.64083 0.56311 0.40471 -0.22400
N 	N 	0.84423 0.56056 0.41418 -0.23500
N 	N 	0.55367 0.38810 0.59928 -0.28800
N 	N 	0.59491 0.41941 0.57277 -0.22700
N 	N 	0.08206 0.79923 0.41665 -0.23500
N 	N 	0.19436 0.99237 0.57361 -0.29500
N 	N 	0.18322 0.95020 0.56222 -0.22900
N 	N 	0.24576 0.88168 0.46942 -0.28500
N 	N 	0.20394 0.90471 0.43689 -0.22400
N 	N 	0.40479 0.91418 0.43944 -0.23500
N 	N 	0.94177 0.09928 0.61190 -0.28800
N 	N 	0.01432 0.07277 0.58059 -0.22700
N 	N 	0.88129 0.91665 0.20077 -0.23400
N 	N 	0.26034 0.50763 0.92639 -0.29500
N 	N 	0.19564 0.54980 0.93778 -0.22900
N 	N 	0.09686 0.61832 0.03058 -0.28600
N 	N 	0.04554 0.59529 0.06311 -0.22400
N 	N 	0.25841 0.58582 0.06056 -0.23500
N 	N 	0.15295 0.40072 0.88810 -0.28800
N 	N 	0.16768 0.42723 0.91941 -0.22700
N 	N 	0.49871 0.58335 0.29923 -0.23400
O 	O 	0.76920 0.88426 0.07332 -0.48100
O 	O 	0.70759 0.97682 0.96778 -0.41000
O 	O 	0.96500 0.88294 0.97630 -0.43200
O 	O 	0.79083 0.97068 0.86980 -0.47900
O 	O 	0.96895 0.04791 0.81867 -0.41300
O 	O 	0.80264 0.03789 0.96573 -0.42300
O 	O 	0.05713 0.85954 0.15710 -0.47200
O 	O 	0.93513 0.83235 0.06255 -0.42800
O 	O 	0.92925 0.97096 0.11842 -0.42200
O 	O 	0.22678 0.61574 0.42668 -0.48100
O 	O 	0.15219 0.52318 0.53222 -0.41100
O 	O 	0.32424 0.61706 0.52370 -0.43300
O 	O 	0.13131 0.52932 0.63020 -0.48000
O 	O 	0.33553 0.45209 0.68133 -0.41300
O 	O 	0.30626 0.46211 0.53427 -0.42200
O 	O 	0.57377 0.64046 0.34290 -0.47300
O 	O 	0.33003 0.66765 0.43745 -0.42800
O 	O 	0.51863 0.52904 0.38158 -0.42200
O 	O 	0.84252 0.92668 0.38426 -0.48100
O 	O 	0.67537 0.03222 0.47682 -0.41100
O 	O 	0.94130 0.02370 0.38294 -0.43200
O 	O 	0.66063 0.13020 0.47068 -0.48000
O 	O 	0.78762 0.18133 0.54791 -0.41300
O 	O 	0.76837 0.03427 0.53789 -0.42200
O 	O 	0.21423 0.84290 0.35954 -0.47300
O 	O 	0.99768 0.93745 0.33235 -0.42900
O 	O 	0.04767 0.88158 0.47096 -0.42200
O 	O 	0.65346 0.57332 0.11574 -0.48100
O 	O 	0.68441 0.46778 0.02318 -0.41100
O 	O 	0.84794 0.47630 0.11706 -0.43200
O 	O 	0.76151 0.36980 0.02932 -0.48000
O 	O 	0.01686 0.31867 0.95209 -0.41400
O 	O 	0.84053 0.46573 0.96211 -0.42200
O 	O 	0.91667 0.65710 0.14046 -0.47300
O 	O 	0.76748 0.56255 0.16765 -0.42800
O 	O 	0.90021 0.61842 0.02904 -0.42200
O 	O 	0.23080 0.11574 0.92668 -0.48100
O 	O 	0.29241 0.02318 0.03222 -0.41000
O 	O 	0.03500 0.11706 0.02370 -0.43200
O 	O 	0.20917 0.02932 0.13020 -0.47900
O 	O 	0.03105 0.95209 0.18133 -0.41300
O 	O 	0.19736 0.96211 0.03427 -0.42300
O 	O 	0.94287 0.14046 0.84290 -0.47200
O 	O 	0.06487 0.16765 0.93745 -0.42800
O 	O 	0.07075 0.02904 0.88158 -0.42200
O 	O 	0.77322 0.38426 0.57332 -0.48100
O 	O 	0.84781 0.47682 0.46778 -0.41100
O 	O 	0.67576 0.38294 0.47630 -0.43300
O 	O 	0.86869 0.47068 0.36980 -0.48000
O 	O 	0.66447 0.54791 0.31867 -0.41300
O 	O 	0.69374 0.53789 0.46573 -0.42200
O 	O 	0.42623 0.35954 0.65710 -0.47300
O 	O 	0.66997 0.33235 0.56255 -0.42800
O 	O 	0.48137 0.47096 0.61842 -0.42200
O 	O 	0.15748 0.07332 0.61574 -0.48100
O 	O 	0.32463 0.96778 0.52318 -0.41100
O 	O 	0.05870 0.97630 0.61706 -0.43200
O 	O 	0.33937 0.86980 0.52932 -0.48000
O 	O 	0.21238 0.81867 0.45209 -0.41300
O 	O 	0.23163 0.96573 0.46211 -0.42200
O 	O 	0.78577 0.15710 0.64046 -0.47300
O 	O 	0.00232 0.06255 0.66765 -0.42900
O 	O 	0.95233 0.11842 0.52904 -0.42200
O 	O 	0.34654 0.42668 0.88426 -0.48100
O 	O 	0.31559 0.53222 0.97682 -0.41100
O 	O 	0.15206 0.52370 0.88294 -0.43200
O 	O 	0.23849 0.63020 0.97068 -0.48000
O 	O 	0.98314 0.68133 0.04791 -0.41400
O 	O 	0.15947 0.53427 0.03789 -0.42200
O 	O 	0.08333 0.34290 0.85954 -0.47300
O 	O 	0.23252 0.43745 0.83235 -0.42800
O 	O 	0.09979 0.38158 0.97096 -0.42200
