data_crystal

_cell_length_a 17.35100
_cell_length_b 30.03740
_cell_length_c 30.03740
_cell_angle_alpha 85.21490
_cell_angle_beta  73.21250
_cell_angle_gamma 73.21250

_symmetry_space_group_name_	'P 1'
_symmetry_space_group_name_H-M	'P 1'

loop_
_symmetry_equiv_pos_as_xyz
  x,y,z

loop_
_atom_site_label
_atom_site_type_symbol
_atom_site_fract_x
_atom_site_fract_y
_atom_site_fract_z
_atom_site_charge
Mn	Mn	0.79487 0.00101 0.92207 1.33200
Mn	Mn	0.00446 0.08409 0.85634 1.33400
Mn	Mn	0.85791 0.88102 0.03608 1.31900
Mn	Mn	0.21795 0.49899 0.57793 1.33200
Mn	Mn	0.44490 0.41591 0.64366 1.33500
Mn	Mn	0.27501 0.61898 0.46392 1.32000
Mn	Mn	0.71694 0.07793 0.50101 1.33200
Mn	Mn	0.86081 0.14366 0.58408 1.33500
Mn	Mn	0.89399 0.96392 0.38102 1.31800
Mn	Mn	0.79588 0.42207 0.99899 1.33200
Mn	Mn	0.08855 0.35634 0.91592 1.33400
Mn	Mn	0.73893 0.53608 0.11898 1.31900
Mn	Mn	0.20513 0.99899 0.07793 1.33100
Mn	Mn	0.99554 0.91591 0.14366 1.33300
Mn	Mn	0.14209 0.11898 0.96392 1.31800
Mn	Mn	0.78205 0.50101 0.42207 1.33100
Mn	Mn	0.55510 0.58409 0.35634 1.33400
Mn	Mn	0.72499 0.38102 0.53608 1.31900
Mn	Mn	0.28306 0.92207 0.49899 1.33100
Mn	Mn	0.13919 0.85634 0.41592 1.33400
Mn	Mn	0.10601 0.03608 0.61898 1.31800
Mn	Mn	0.20412 0.57793 0.00101 1.33200
Mn	Mn	0.91145 0.64366 0.08408 1.33400
Mn	Mn	0.26107 0.46392 0.88102 1.31900
H 	H 	0.78110 0.92640 0.80840 0.13200
H 	H 	0.84030 0.92860 0.72940 -0.04300
H 	H 	0.92980 0.97460 0.69820 0.11500
H 	H 	0.96260 0.01730 0.74750 -0.00300
H 	H 	0.87050 0.08310 0.00970 0.12500
H 	H 	0.91270 0.11010 0.96550 0.12400
H 	H 	0.78570 0.15900 0.01560 -0.03700
H 	H 	0.73440 0.12800 0.00260 -0.03600
H 	H 	0.82440 0.18190 0.93790 0.13600
H 	H 	0.77330 0.15090 0.92490 0.13500
H 	H 	0.69760 0.23160 0.98340 -0.05500
H 	H 	0.64580 0.20000 0.97180 -0.06000
H 	H 	0.70340 0.22080 0.88980 0.20200
H 	H 	0.62700 0.25880 0.92200 0.20000
H 	H 	0.72070 0.26240 0.91180 0.20400
H 	H 	0.71440 0.06630 0.84650 -0.01700
H 	H 	0.61160 0.13260 0.84120 0.08000
H 	H 	0.53180 0.13750 0.98010 0.07200
H 	H 	0.63490 0.07000 0.98200 -0.02000
H 	H 	0.51480 0.20920 0.88260 0.05400
H 	H 	0.48120 0.20760 0.93820 0.05600
H 	H 	0.87290 0.21550 0.80770 0.13000
H 	H 	0.87870 0.29030 0.81530 -0.03400
H 	H 	0.95360 0.30570 0.86270 0.10800
H 	H 	0.02350 0.24540 0.90120 0.00200
H 	H 	0.17410 0.00760 0.95380 0.19200
H 	H 	0.13870 0.97260 0.93320 0.19900
H 	H 	0.28070 0.00590 0.88210 -0.16000
H 	H 	0.24300 0.97420 0.85880 -0.15800
H 	H 	0.28240 0.91170 0.90450 0.40100
H 	H 	0.30160 0.94270 0.93810 0.41400
H 	H 	0.15830 0.24550 0.90510 -0.00700
H 	H 	0.38830 0.91730 0.85190 -0.31900
H 	H 	0.40680 0.95070 0.88390 -0.30900
H 	H 	0.27550 0.18460 0.89920 0.09900
H 	H 	0.41360 0.85270 0.90590 0.34800
H 	H 	0.49400 0.87230 0.89090 0.35500
H 	H 	0.42690 0.88580 0.94040 0.35000
H 	H 	0.39890 0.27570 0.91070 0.08700
H 	H 	0.27910 0.33480 0.91360 -0.00600
H 	H 	0.44060 0.16430 0.87670 0.07100
H 	H 	0.40870 0.16090 0.93190 0.07100
H 	H 	0.62490 0.90140 0.14800 0.12500
H 	H 	0.49080 0.94450 0.15110 -0.03100
H 	H 	0.45910 0.98680 0.08620 0.10200
H 	H 	0.56840 0.98930 0.01990 -0.00500
H 	H 	0.05200 0.92540 0.92500 0.12000
H 	H 	0.99010 0.94230 0.89270 0.11400
H 	H 	0.07250 0.84680 0.90500 -0.01400
H 	H 	0.10550 0.87690 0.86090 -0.02300
H 	H 	0.94960 0.85420 0.88320 0.12600
H 	H 	0.97870 0.88650 0.84030 0.12900
H 	H 	0.09090 0.82350 0.80490 -0.06400
H 	H 	0.06470 0.79110 0.84830 -0.06100
H 	H 	0.01280 0.77400 0.79220 0.18900
H 	H 	0.97300 0.82780 0.78280 0.19400
H 	H 	0.93330 0.80380 0.83020 0.19200
H 	H 	0.01590 0.57360 0.69160 0.13100
H 	H 	0.99830 0.57140 0.77060 -0.04200
H 	H 	0.10260 0.52540 0.80180 0.11400
H 	H 	0.22740 0.48270 0.75250 -0.00300
H 	H 	0.46330 0.41690 0.49030 0.12400
H 	H 	0.48830 0.38990 0.53450 0.12400
H 	H 	0.46030 0.34100 0.48440 -0.03700
H 	H 	0.36500 0.37200 0.49740 -0.03600
H 	H 	0.44420 0.31810 0.56210 0.13600
H 	H 	0.34910 0.34910 0.57510 0.13600
H 	H 	0.41260 0.26840 0.51660 -0.05500
H 	H 	0.31760 0.30000 0.52820 -0.06000
H 	H 	0.31400 0.27920 0.61020 0.20200
H 	H 	0.30780 0.24120 0.57800 0.20100
H 	H 	0.39490 0.23760 0.58820 0.20400
H 	H 	0.12720 0.43370 0.65350 -0.01700
H 	H 	0.08540 0.36740 0.65880 0.07900
H 	H 	0.14940 0.36250 0.51990 0.07200
H 	H 	0.18690 0.43000 0.51800 -0.02000
H 	H 	0.10660 0.29080 0.61740 0.05300
H 	H 	0.12700 0.29240 0.56180 0.05400
H 	H 	0.39610 0.28450 0.69230 0.13000
H 	H 	0.48430 0.20970 0.68470 -0.03400
H 	H 	0.62200 0.19430 0.63730 0.10700
H 	H 	0.67010 0.25460 0.59880 0.00400
H 	H 	0.63550 0.49240 0.54620 0.19500
H 	H 	0.54450 0.52740 0.56680 0.20100
H 	H 	0.66870 0.49410 0.61790 -0.15900
H 	H 	0.57600 0.52580 0.64120 -0.15800
H 	H 	0.59860 0.58830 0.59550 0.40200
H 	H 	0.68240 0.55730 0.56190 0.41400
H 	H 	0.80890 0.25450 0.59490 -0.00700
H 	H 	0.65750 0.58270 0.64810 -0.32000
H 	H 	0.74140 0.54930 0.61610 -0.31000
H 	H 	0.85930 0.31540 0.60080 0.10000
H 	H 	0.67220 0.64730 0.59410 0.34800
H 	H 	0.75720 0.62770 0.60910 0.35500
H 	H 	0.75310 0.61420 0.55960 0.35000
H 	H 	0.08530 0.22430 0.58930 0.08900
H 	H 	0.02750 0.16520 0.58640 -0.00800
H 	H 	0.98160 0.33570 0.62330 0.07300
H 	H 	0.00150 0.33910 0.56810 0.07300
H 	H 	0.17430 0.59860 0.35200 0.12500
H 	H 	0.08640 0.55550 0.34890 -0.03100
H 	H 	0.03210 0.51320 0.41380 0.10200
H 	H 	0.07760 0.51070 0.48010 -0.00500
H 	H 	0.40240 0.57460 0.57500 0.12000
H 	H 	0.32510 0.55770 0.60730 0.11300
H 	H 	0.32430 0.65320 0.59500 -0.01400
H 	H 	0.34330 0.62310 0.63910 -0.02400
H 	H 	0.18700 0.64580 0.61680 0.12700
H 	H 	0.20550 0.61350 0.65970 0.13000
H 	H 	0.21930 0.67650 0.69510 -0.06500
H 	H 	0.20410 0.70890 0.65170 -0.06200
H 	H 	0.07900 0.72600 0.70780 0.19000
H 	H 	0.08360 0.67220 0.71720 0.19500
H 	H 	0.06730 0.69620 0.66980 0.19300
H 	H 	0.58950 0.19160 0.42640 0.13200
H 	H 	0.56970 0.27060 0.42860 -0.04300
H 	H 	0.62800 0.30180 0.47460 0.11500
H 	H 	0.71010 0.25250 0.51730 -0.00300
H 	H 	0.88020 0.99030 0.58310 0.12400
H 	H 	0.87820 0.03450 0.61010 0.12400
H 	H 	0.80130 0.98440 0.65900 -0.03700
H 	H 	0.73700 0.99740 0.62800 -0.03600
H 	H 	0.76230 0.06210 0.68190 0.13600
H 	H 	0.69820 0.07510 0.65090 0.13500
H 	H 	0.68100 0.01660 0.73160 -0.05500
H 	H 	0.61760 0.02820 0.70000 -0.06000
H 	H 	0.59320 0.11020 0.72080 0.20200
H 	H 	0.54900 0.07800 0.75880 0.20000
H 	H 	0.63250 0.08820 0.76240 0.20400
H 	H 	0.56090 0.15350 0.56630 -0.01700
H 	H 	0.45280 0.15880 0.63260 0.08000
H 	H 	0.51190 0.01990 0.63750 0.07200
H 	H 	0.61690 0.01800 0.57000 -0.02000
H 	H 	0.39740 0.11740 0.70920 0.05400
H 	H 	0.41940 0.06180 0.70760 0.05600
H 	H 	0.68060 0.19230 0.71550 0.13000
H 	H 	0.69400 0.18470 0.79030 -0.03400
H 	H 	0.81630 0.13730 0.80570 0.10700
H 	H 	0.92470 0.09880 0.74540 0.00400
H 	H 	0.12790 0.04620 0.50760 0.19500
H 	H 	0.07190 0.06680 0.47260 0.20100
H 	H 	0.16280 0.11790 0.50590 -0.15900
H 	H 	0.10180 0.14120 0.47420 -0.15900
H 	H 	0.18690 0.09550 0.41170 0.40200
H 	H 	0.23970 0.06190 0.44270 0.41400
H 	H 	0.06340 0.09490 0.74550 -0.00700
H 	H 	0.24020 0.14810 0.41730 -0.32000
H 	H 	0.29070 0.11610 0.45070 -0.31000
H 	H 	0.17470 0.10080 0.68460 0.09900
H 	H 	0.31950 0.09410 0.35270 0.34800
H 	H 	0.38490 0.10910 0.37230 0.35500
H 	H 	0.36730 0.05960 0.38580 0.35000
H 	H 	0.30960 0.08930 0.77570 0.08700
H 	H 	0.19270 0.08640 0.83480 -0.00600
H 	H 	0.31730 0.12330 0.66430 0.07100
H 	H 	0.34060 0.06810 0.66090 0.07100
H 	H 	0.77290 0.85200 0.40140 0.12500
H 	H 	0.64190 0.84890 0.44450 -0.03100
H 	H 	0.54530 0.91380 0.48680 0.10200
H 	H 	0.58830 0.98010 0.48930 -0.00500
H 	H 	0.97700 0.07500 0.42540 0.12000
H 	H 	0.88280 0.10730 0.44230 0.11300
H 	H 	0.97750 0.09500 0.34680 -0.01400
H 	H 	0.96640 0.13910 0.37690 -0.02400
H 	H 	0.83280 0.11680 0.35420 0.12700
H 	H 	0.81900 0.15970 0.38650 0.13000
H 	H 	0.89580 0.19510 0.32350 -0.06500
H 	H 	0.91300 0.15170 0.29110 -0.06200
H 	H 	0.80500 0.20780 0.27400 0.19000
H 	H 	0.75580 0.21720 0.32780 0.19500
H 	H 	0.76350 0.16980 0.30380 0.19300
H 	H 	0.70750 0.30840 0.07360 0.13200
H 	H 	0.76890 0.22940 0.07140 -0.04300
H 	H 	0.90440 0.19820 0.02540 0.11400
H 	H 	0.97990 0.24750 0.98270 -0.00200
H 	H 	0.95360 0.50970 0.91690 0.12400
H 	H 	0.02280 0.46550 0.88990 0.12200
H 	H 	0.94470 0.51560 0.84100 -0.03600
H 	H 	0.86240 0.50260 0.87200 -0.03600
H 	H 	0.00630 0.43790 0.81810 0.13400
H 	H 	0.92420 0.42490 0.84910 0.13500
H 	H 	0.92920 0.48340 0.76840 -0.05500
H 	H 	0.84580 0.47180 0.80000 -0.05900
H 	H 	0.92420 0.38980 0.77920 0.20100
H 	H 	0.88580 0.42200 0.74120 0.20000
H 	H 	0.98310 0.41180 0.73760 0.20400
H 	H 	0.78070 0.34650 0.93370 -0.01700
H 	H 	0.74420 0.34120 0.86740 0.08000
H 	H 	0.66930 0.48010 0.86250 0.07200
H 	H 	0.70490 0.48200 0.93000 -0.02000
H 	H 	0.72400 0.38260 0.79080 0.05400
H 	H 	0.68880 0.43820 0.79240 0.05600
H 	H 	0.08840 0.30770 0.78450 0.13000
H 	H 	0.16900 0.31530 0.70970 -0.03400
H 	H 	0.25930 0.36270 0.69430 0.10700
H 	H 	0.26890 0.40120 0.75460 0.00400
H 	H 	0.18170 0.45380 0.99240 0.19400
H 	H 	0.11130 0.43320 0.02740 0.20100
H 	H 	0.28660 0.38210 0.99410 -0.16000
H 	H 	0.21720 0.35880 0.02580 -0.15800
H 	H 	0.19410 0.40450 0.08830 0.40200
H 	H 	0.24430 0.43810 0.05730 0.41400
H 	H 	0.40380 0.40510 0.75450 -0.00700
H 	H 	0.30560 0.35190 0.08270 -0.32000
H 	H 	0.35750 0.38390 0.04930 -0.31000
H 	H 	0.46010 0.39920 0.81540 0.09900
H 	H 	0.26630 0.40590 0.14730 0.34800
H 	H 	0.36630 0.39090 0.12770 0.35500
H 	H 	0.31270 0.44040 0.11420 0.35000
H 	H 	0.67460 0.41070 0.72430 0.08700
H 	H 	0.61390 0.41360 0.66520 -0.00600
H 	H 	0.60490 0.37670 0.83570 0.07100
H 	H 	0.56960 0.43190 0.83910 0.07100
H 	H 	0.52630 0.64800 0.09860 0.12500
H 	H 	0.43530 0.65110 0.05550 -0.03100
H 	H 	0.44590 0.58620 0.01320 0.10200
H 	H 	0.55770 0.51990 0.01070 -0.00500
H 	H 	0.97740 0.42500 0.07460 0.11900
H 	H 	0.93240 0.39270 0.05770 0.11300
H 	H 	0.91930 0.40500 0.15320 -0.01400
H 	H 	0.98240 0.36090 0.12310 -0.02400
H 	H 	0.80380 0.38320 0.14580 0.12700
H 	H 	0.86520 0.34030 0.11350 0.13000
H 	H 	0.91440 0.30490 0.17650 -0.06500
H 	H 	0.85580 0.34830 0.20890 -0.06200
H 	H 	0.78680 0.29220 0.22600 0.19000
H 	H 	0.80080 0.28280 0.17220 0.19500
H 	H 	0.73710 0.33020 0.19620 0.19300
H 	H 	0.21890 0.07360 0.19160 0.13200
H 	H 	0.15970 0.07140 0.27060 -0.04300
H 	H 	0.07020 0.02540 0.30180 0.11500
H 	H 	0.03740 0.98270 0.25250 -0.00300
H 	H 	0.12950 0.91690 0.99030 0.12500
H 	H 	0.08730 0.88990 0.03450 0.12400
H 	H 	0.21430 0.84100 0.98440 -0.03700
H 	H 	0.26560 0.87200 0.99740 -0.03600
H 	H 	0.17560 0.81810 0.06210 0.13600
H 	H 	0.22670 0.84910 0.07510 0.13500
H 	H 	0.30240 0.76840 0.01660 -0.05500
H 	H 	0.35420 0.80000 0.02820 -0.06000
H 	H 	0.29660 0.77920 0.11020 0.20200
H 	H 	0.37300 0.74120 0.07800 0.20000
H 	H 	0.27930 0.73760 0.08820 0.20400
H 	H 	0.28560 0.93370 0.15350 -0.01700
H 	H 	0.38840 0.86740 0.15880 0.08000
H 	H 	0.46820 0.86250 0.01990 0.07200
H 	H 	0.36510 0.93000 0.01800 -0.02000
H 	H 	0.48520 0.79080 0.11740 0.05400
H 	H 	0.51880 0.79240 0.06180 0.05600
H 	H 	0.12710 0.78450 0.19230 0.13000
H 	H 	0.12130 0.70970 0.18470 -0.03400
H 	H 	0.04640 0.69430 0.13730 0.10800
H 	H 	0.97650 0.75460 0.09880 0.00200
H 	H 	0.82590 0.99240 0.04620 0.19200
H 	H 	0.86130 0.02740 0.06680 0.19900
H 	H 	0.71930 0.99410 0.11790 -0.16000
H 	H 	0.75700 0.02580 0.14120 -0.15800
H 	H 	0.71760 0.08830 0.09550 0.40100
H 	H 	0.69840 0.05730 0.06190 0.41400
H 	H 	0.84170 0.75450 0.09490 -0.00700
H 	H 	0.61170 0.08270 0.14810 -0.31900
H 	H 	0.59320 0.04930 0.11610 -0.30900
H 	H 	0.72450 0.81540 0.10080 0.09900
H 	H 	0.58640 0.14730 0.09410 0.34800
H 	H 	0.50600 0.12770 0.10910 0.35500
H 	H 	0.57310 0.11420 0.05960 0.35000
H 	H 	0.60110 0.72430 0.08930 0.08700
H 	H 	0.72090 0.66520 0.08640 -0.00600
H 	H 	0.55940 0.83570 0.12330 0.07100
H 	H 	0.59130 0.83910 0.06810 0.07100
H 	H 	0.37510 0.09860 0.85200 0.12500
H 	H 	0.50920 0.05550 0.84890 -0.03100
H 	H 	0.54090 0.01320 0.91380 0.10200
H 	H 	0.43160 0.01070 0.98010 -0.00500
H 	H 	0.94800 0.07460 0.07500 0.12000
H 	H 	0.00990 0.05770 0.10730 0.11400
H 	H 	0.92750 0.15320 0.09500 -0.01400
H 	H 	0.89450 0.12310 0.13910 -0.02300
H 	H 	0.05040 0.14580 0.11680 0.12600
H 	H 	0.02130 0.11350 0.15970 0.12900
H 	H 	0.90910 0.17650 0.19510 -0.06400
H 	H 	0.93530 0.20890 0.15170 -0.06100
H 	H 	0.98720 0.22600 0.20780 0.18900
H 	H 	0.02700 0.17220 0.21720 0.19400
H 	H 	0.06670 0.19620 0.16980 0.19200
H 	H 	0.98410 0.42640 0.30840 0.13100
H 	H 	0.00170 0.42860 0.22940 -0.04200
H 	H 	0.89740 0.47460 0.19820 0.11400
H 	H 	0.77260 0.51730 0.24750 -0.00300
H 	H 	0.53670 0.58310 0.50970 0.12400
H 	H 	0.51170 0.61010 0.46550 0.12400
H 	H 	0.53970 0.65900 0.51560 -0.03700
H 	H 	0.63500 0.62800 0.50260 -0.03600
H 	H 	0.55580 0.68190 0.43790 0.13600
H 	H 	0.65090 0.65090 0.42490 0.13600
H 	H 	0.58740 0.73160 0.48340 -0.05500
H 	H 	0.68240 0.70000 0.47180 -0.06000
H 	H 	0.68600 0.72080 0.38980 0.20200
H 	H 	0.69220 0.75880 0.42200 0.20100
H 	H 	0.60510 0.76240 0.41180 0.20400
H 	H 	0.87280 0.56630 0.34650 -0.01700
H 	H 	0.91460 0.63260 0.34120 0.07900
H 	H 	0.85060 0.63750 0.48010 0.07200
H 	H 	0.81310 0.57000 0.48200 -0.02000
H 	H 	0.89340 0.70920 0.38260 0.05300
H 	H 	0.87300 0.70760 0.43820 0.05400
H 	H 	0.60390 0.71550 0.30770 0.13000
H 	H 	0.51570 0.79030 0.31530 -0.03400
H 	H 	0.37800 0.80570 0.36270 0.10700
H 	H 	0.32990 0.74540 0.40120 0.00400
H 	H 	0.36450 0.50760 0.45380 0.19500
H 	H 	0.45550 0.47260 0.43320 0.20100
H 	H 	0.33130 0.50590 0.38210 -0.15900
H 	H 	0.42400 0.47420 0.35880 -0.15800
H 	H 	0.40140 0.41170 0.40450 0.40200
H 	H 	0.31760 0.44270 0.43810 0.41400
H 	H 	0.19110 0.74550 0.40510 -0.00700
H 	H 	0.34250 0.41730 0.35190 -0.32000
H 	H 	0.25860 0.45070 0.38390 -0.31000
H 	H 	0.14070 0.68460 0.39920 0.10000
H 	H 	0.32780 0.35270 0.40590 0.34800
H 	H 	0.24280 0.37230 0.39090 0.35500
H 	H 	0.24690 0.38580 0.44040 0.35000
H 	H 	0.91470 0.77570 0.41070 0.08900
H 	H 	0.97250 0.83480 0.41360 -0.00800
H 	H 	0.01840 0.66430 0.37670 0.07300
H 	H 	0.99850 0.66090 0.43190 0.07300
H 	H 	0.82570 0.40140 0.64800 0.12500
H 	H 	0.91360 0.44450 0.65110 -0.03100
H 	H 	0.96790 0.48680 0.58620 0.10200
H 	H 	0.92240 0.48930 0.51990 -0.00500
H 	H 	0.59760 0.42540 0.42500 0.12000
H 	H 	0.67490 0.44230 0.39270 0.11300
H 	H 	0.67570 0.34680 0.40500 -0.01400
H 	H 	0.65670 0.37690 0.36090 -0.02400
H 	H 	0.81300 0.35420 0.38320 0.12700
H 	H 	0.79450 0.38650 0.34030 0.13000
H 	H 	0.78070 0.32350 0.30490 -0.06500
H 	H 	0.79590 0.29110 0.34830 -0.06200
H 	H 	0.92100 0.27400 0.29220 0.19000
H 	H 	0.91640 0.32780 0.28280 0.19500
H 	H 	0.93270 0.30380 0.33020 0.19300
H 	H 	0.41050 0.80840 0.57360 0.13200
H 	H 	0.43030 0.72940 0.57140 -0.04300
H 	H 	0.37200 0.69820 0.52540 0.11500
H 	H 	0.28990 0.74750 0.48270 -0.00300
H 	H 	0.11980 0.00970 0.41690 0.12400
H 	H 	0.12180 0.96550 0.38990 0.12400
H 	H 	0.19870 0.01560 0.34100 -0.03700
H 	H 	0.26300 0.00260 0.37200 -0.03600
H 	H 	0.23770 0.93790 0.31810 0.13600
H 	H 	0.30180 0.92490 0.34910 0.13500
H 	H 	0.31900 0.98340 0.26840 -0.05500
H 	H 	0.38240 0.97180 0.30000 -0.06000
H 	H 	0.40680 0.88980 0.27920 0.20200
H 	H 	0.45100 0.92200 0.24120 0.20000
H 	H 	0.36750 0.91180 0.23760 0.20400
H 	H 	0.43910 0.84650 0.43370 -0.01700
H 	H 	0.54720 0.84120 0.36740 0.08000
H 	H 	0.48810 0.98010 0.36250 0.07200
H 	H 	0.38310 0.98200 0.43000 -0.02000
H 	H 	0.60260 0.88260 0.29080 0.05400
H 	H 	0.58060 0.93820 0.29240 0.05600
H 	H 	0.31940 0.80770 0.28450 0.13000
H 	H 	0.30600 0.81530 0.20970 -0.03400
H 	H 	0.18370 0.86270 0.19430 0.10700
H 	H 	0.07530 0.90120 0.25460 0.00400
H 	H 	0.87210 0.95380 0.49240 0.19500
H 	H 	0.92810 0.93320 0.52740 0.20100
H 	H 	0.83720 0.88210 0.49410 -0.15900
H 	H 	0.89820 0.85880 0.52580 -0.15900
H 	H 	0.81310 0.90450 0.58830 0.40200
H 	H 	0.76030 0.93810 0.55730 0.41400
H 	H 	0.93660 0.90510 0.25450 -0.00700
H 	H 	0.75980 0.85190 0.58270 -0.32000
H 	H 	0.70930 0.88390 0.54930 -0.31000
H 	H 	0.82530 0.89920 0.31540 0.09900
H 	H 	0.68050 0.90590 0.64730 0.34800
H 	H 	0.61510 0.89090 0.62770 0.35500
H 	H 	0.63270 0.94040 0.61420 0.35000
H 	H 	0.69040 0.91070 0.22430 0.08700
H 	H 	0.80730 0.91360 0.16520 -0.00600
H 	H 	0.68270 0.87670 0.33570 0.07100
H 	H 	0.65940 0.93190 0.33910 0.07100
H 	H 	0.22710 0.14800 0.59860 0.12500
H 	H 	0.35810 0.15110 0.55550 -0.03100
H 	H 	0.45470 0.08620 0.51320 0.10200
H 	H 	0.41170 0.01990 0.51070 -0.00500
H 	H 	0.02300 0.92500 0.57460 0.12000
H 	H 	0.11720 0.89270 0.55770 0.11300
H 	H 	0.02250 0.90500 0.65320 -0.01400
H 	H 	0.03360 0.86090 0.62310 -0.02400
H 	H 	0.16720 0.88320 0.64580 0.12700
H 	H 	0.18100 0.84030 0.61350 0.13000
H 	H 	0.10420 0.80490 0.67650 -0.06500
H 	H 	0.08700 0.84830 0.70890 -0.06200
H 	H 	0.19500 0.79220 0.72600 0.19000
H 	H 	0.24420 0.78280 0.67220 0.19500
H 	H 	0.23650 0.83020 0.69620 0.19300
H 	H 	0.29250 0.69160 0.92640 0.13200
H 	H 	0.23110 0.77060 0.92860 -0.04300
H 	H 	0.09560 0.80180 0.97460 0.11400
H 	H 	0.02010 0.75250 0.01730 -0.00200
H 	H 	0.04640 0.49030 0.08310 0.12400
H 	H 	0.97720 0.53450 0.11010 0.12200
H 	H 	0.05530 0.48440 0.15900 -0.03600
H 	H 	0.13760 0.49740 0.12800 -0.03600
H 	H 	0.99370 0.56210 0.18190 0.13400
H 	H 	0.07580 0.57510 0.15090 0.13500
H 	H 	0.07080 0.51660 0.23160 -0.05500
H 	H 	0.15420 0.52820 0.20000 -0.05900
H 	H 	0.07580 0.61020 0.22080 0.20100
H 	H 	0.11420 0.57800 0.25880 0.20000
H 	H 	0.01690 0.58820 0.26240 0.20400
H 	H 	0.21930 0.65350 0.06630 -0.01700
H 	H 	0.25580 0.65880 0.13260 0.08000
H 	H 	0.33070 0.51990 0.13750 0.07200
H 	H 	0.29510 0.51800 0.07000 -0.02000
H 	H 	0.27600 0.61740 0.20920 0.05400
H 	H 	0.31120 0.56180 0.20760 0.05600
H 	H 	0.91160 0.69230 0.21550 0.13000
H 	H 	0.83100 0.68470 0.29030 -0.03400
H 	H 	0.74070 0.63730 0.30570 0.10700
H 	H 	0.73110 0.59880 0.24540 0.00400
H 	H 	0.81830 0.54620 0.00760 0.19400
H 	H 	0.88870 0.56680 0.97260 0.20100
H 	H 	0.71340 0.61790 0.00590 -0.16000
H 	H 	0.78280 0.64120 0.97420 -0.15800
H 	H 	0.80590 0.59550 0.91170 0.40200
H 	H 	0.75570 0.56190 0.94270 0.41400
H 	H 	0.59620 0.59490 0.24550 -0.00700
H 	H 	0.69440 0.64810 0.91730 -0.32000
H 	H 	0.64250 0.61610 0.95070 -0.31000
H 	H 	0.53990 0.60080 0.18460 0.09900
H 	H 	0.73370 0.59410 0.85270 0.34800
H 	H 	0.63370 0.60910 0.87230 0.35500
H 	H 	0.68730 0.55960 0.88580 0.35000
H 	H 	0.32540 0.58930 0.27570 0.08700
H 	H 	0.38610 0.58640 0.33480 -0.00600
H 	H 	0.39510 0.62330 0.16430 0.07100
H 	H 	0.43040 0.56810 0.16090 0.07100
H 	H 	0.47370 0.35200 0.90140 0.12500
H 	H 	0.56470 0.34890 0.94450 -0.03100
H 	H 	0.55410 0.41380 0.98680 0.10200
H 	H 	0.44230 0.48010 0.98930 -0.00500
H 	H 	0.02260 0.57500 0.92540 0.11900
H 	H 	0.06760 0.60730 0.94230 0.11300
H 	H 	0.08070 0.59500 0.84680 -0.01400
H 	H 	0.01760 0.63910 0.87690 -0.02400
H 	H 	0.19620 0.61680 0.85420 0.12700
H 	H 	0.13480 0.65970 0.88650 0.13000
H 	H 	0.08560 0.69510 0.82350 -0.06500
H 	H 	0.14420 0.65170 0.79110 -0.06200
H 	H 	0.21320 0.70780 0.77400 0.19000
H 	H 	0.19920 0.71720 0.82780 0.19500
H 	H 	0.26290 0.66980 0.80380 0.19300
C 	C 	0.83485 0.97108 0.82682 0.31400
C 	C 	0.81789 0.94525 0.79637 -0.30200
C 	C 	0.85299 0.94657 0.74945 0.17500
C 	C 	0.90631 0.97351 0.73087 -0.23700
C 	C 	0.92545 0.99875 0.76015 0.15300
C 	C 	0.89096 0.99768 0.80860 -0.26000
C 	C 	0.91422 0.02671 0.83705 0.27800
C 	C 	0.85741 0.06443 0.94875 0.27700
C 	C 	0.86321 0.09870 0.98028 -0.37400
C 	C 	0.78417 0.13995 0.99071 0.17900
C 	C 	0.77460 0.17008 0.94972 -0.37400
C 	C 	0.69572 0.21172 0.95924 0.27100
C 	C 	0.68580 0.24096 0.91704 -0.62500
C 	C 	0.67647 0.08099 0.87427 0.10100
C 	C 	0.61608 0.12090 0.87094 -0.18500
C 	C 	0.56194 0.14431 0.91001 0.12000
C 	C 	0.56942 0.12364 0.95172 -0.17900
C 	C 	0.63062 0.08330 0.95266 0.10100
C 	C 	0.49403 0.19001 0.90933 -0.12400
C 	C 	0.94676 0.18353 0.84975 0.30200
C 	C 	0.90430 0.22098 0.82682 -0.28100
C 	C 	0.90749 0.26559 0.83143 0.15100
C 	C 	0.95200 0.27487 0.85933 -0.22400
C 	C 	0.99332 0.23897 0.88179 0.15100
C 	C 	0.99316 0.19297 0.87751 -0.25100
C 	C 	0.04092 0.15649 0.90327 0.27400
C 	C 	0.10923 0.03836 0.90738 0.35000
C 	C 	0.16544 0.99830 0.92522 -0.60800
C 	C 	0.25194 0.98110 0.88822 0.68500
C 	C 	0.30660 0.93766 0.90514 -1.36300
C 	C 	0.20838 0.25183 0.90601 0.11400
C 	C 	0.38200 0.92470 0.88450 1.21300
C 	C 	0.27724 0.21533 0.90319 -0.20700
C 	C 	0.43440 0.87930 0.90770 -1.17500
C 	C 	0.34906 0.22328 0.90620 0.13800
C 	C 	0.34944 0.26878 0.90954 -0.18400
C 	C 	0.27816 0.30359 0.91129 0.10300
C 	C 	0.42590 0.18170 0.90590 -0.15700
C 	C 	0.68030 0.91783 0.08117 0.30600
C 	C 	0.61402 0.91882 0.12154 -0.27600
C 	C 	0.53442 0.94433 0.12323 0.15600
C 	C 	0.51521 0.97019 0.08519 -0.20600
C 	C 	0.58032 0.97097 0.04579 0.14100
C 	C 	0.66279 0.94579 0.04283 -0.25100
C 	C 	0.72804 0.95118 0.00134 0.26800
C 	C 	0.93866 0.91149 0.95319 0.26300
C 	C 	0.01095 0.91673 0.91297 -0.34600
C 	C 	0.05460 0.87265 0.88435 0.15200
C 	C 	0.99902 0.85986 0.85970 -0.35700
C 	C 	0.04266 0.81755 0.82933 0.27000
C 	C 	0.98542 0.80468 0.80668 -0.61100
C 	C 	0.13275 0.52892 0.67318 0.31400
C 	C 	0.05951 0.55475 0.70363 -0.30100
C 	C 	0.04901 0.55343 0.75055 0.17400
C 	C 	0.11069 0.52649 0.76913 -0.23700
C 	C 	0.18435 0.50125 0.73985 0.15300
C 	C 	0.19724 0.50232 0.69140 -0.26000
C 	C 	0.27798 0.47329 0.66295 0.27900
C 	C 	0.37059 0.43557 0.55125 0.27700
C 	C 	0.44219 0.40130 0.51972 -0.37400
C 	C 	0.41483 0.36005 0.50929 0.18000
C 	C 	0.39440 0.32992 0.55028 -0.37500
C 	C 	0.36668 0.28828 0.54076 0.27100
C 	C 	0.34380 0.25904 0.58296 -0.62500
C 	C 	0.13173 0.41901 0.62573 0.10000
C 	C 	0.10792 0.37910 0.62906 -0.18300
C 	C 	0.11626 0.35569 0.58999 0.11700
C 	C 	0.14478 0.37636 0.54828 -0.17700
C 	C 	0.16658 0.41670 0.54734 0.10000
C 	C 	0.09337 0.30999 0.59067 -0.11900
C 	C 	0.48004 0.31647 0.65025 0.30200
C 	C 	0.45210 0.27902 0.67318 -0.28000
C 	C 	0.50451 0.23441 0.66857 0.15000
C 	C 	0.58620 0.22513 0.64067 -0.22300
C 	C 	0.61408 0.26103 0.61821 0.14800
C 	C 	0.56364 0.30703 0.62249 -0.25100
C 	C 	0.60068 0.34351 0.59673 0.27600
C 	C 	0.55497 0.46164 0.59262 0.35300
C 	C 	0.58896 0.50170 0.57478 -0.61500
C 	C 	0.62126 0.51890 0.61178 0.68600
C 	C 	0.64940 0.56234 0.59486 -1.36500
C 	C 	0.86622 0.24817 0.59399 0.11600
C 	C 	0.69120 0.57530 0.61550 1.21400
C 	C 	0.89576 0.28467 0.59681 -0.21000
C 	C 	0.72140 0.62070 0.59230 -1.17600
C 	C 	0.97854 0.27672 0.59380 0.14300
C 	C 	0.02776 0.23122 0.59046 -0.18900
C 	C 	0.99304 0.19641 0.58871 0.10800
C 	C 	0.01350 0.31830 0.59410 -0.16500
C 	C 	0.17930 0.58217 0.41883 0.30700
C 	C 	0.15438 0.58118 0.37846 -0.27700
C 	C 	0.10198 0.55567 0.37677 0.15600
C 	C 	0.07059 0.52981 0.41481 -0.20600
C 	C 	0.09708 0.52903 0.45421 0.14200
C 	C 	0.15141 0.55421 0.45717 -0.25300
C 	C 	0.18056 0.54882 0.49866 0.27300
C 	C 	0.30334 0.58851 0.54681 0.26300
C 	C 	0.34065 0.58327 0.58703 -0.34500
C 	C 	0.31160 0.62735 0.61565 0.15300
C 	C 	0.21858 0.64014 0.64030 -0.35900
C 	C 	0.18954 0.68245 0.67067 0.27300
C 	C 	0.09678 0.69532 0.69332 -0.61500
C 	C 	0.66167 0.17318 0.47108 0.31400
C 	C 	0.61426 0.20363 0.44525 -0.30200
C 	C 	0.60244 0.25055 0.44657 0.17600
C 	C 	0.63718 0.26913 0.47351 -0.23800
C 	C 	0.68560 0.23985 0.49875 0.15300
C 	C 	0.69956 0.19140 0.49768 -0.26000
C 	C 	0.75127 0.16295 0.52671 0.27900
C 	C 	0.80616 0.05125 0.56443 0.27700
C 	C 	0.84349 0.01972 0.59870 -0.37300
C 	C 	0.77488 0.00929 0.63995 0.18000
C 	C 	0.72432 0.05028 0.67008 -0.37500
C 	C 	0.65496 0.04076 0.71172 0.27100
C 	C 	0.60284 0.08296 0.74096 -0.62500
C 	C 	0.55074 0.12573 0.58099 0.10100
C 	C 	0.48702 0.12906 0.62090 -0.18500
C 	C 	0.47195 0.08999 0.64431 0.12000
C 	C 	0.52114 0.04828 0.62364 -0.17900
C 	C 	0.58328 0.04734 0.58330 0.10100
C 	C 	0.40336 0.09067 0.69001 -0.12400
C 	C 	0.79651 0.15025 0.68353 0.30200
C 	C 	0.73112 0.17318 0.72098 -0.28000
C 	C 	0.73892 0.16857 0.76559 0.15000
C 	C 	0.81133 0.14067 0.77487 -0.22300
C 	C 	0.87511 0.11821 0.73897 0.14800
C 	C 	0.87067 0.12249 0.69297 -0.25200
C 	C 	0.94419 0.09673 0.65649 0.27700
C 	C 	0.01661 0.09262 0.53836 0.35300
C 	C 	0.09066 0.07478 0.49830 -0.61400
C 	C 	0.14016 0.11178 0.48110 0.68600
C 	C 	0.21174 0.09486 0.43766 -1.36500
C 	C 	0.11439 0.09399 0.75183 0.11400
C 	C 	0.26650 0.11550 0.42470 1.21400
C 	C 	0.18043 0.09681 0.71533 -0.20700
C 	C 	0.34210 0.09230 0.37930 -1.17600
C 	C 	0.25526 0.09380 0.72328 0.13800
C 	C 	0.25898 0.09046 0.76878 -0.18400
C 	C 	0.18945 0.08871 0.80359 0.10400
C 	C 	0.33180 0.09410 0.68170 -0.15700
C 	C 	0.76147 0.91883 0.41783 0.30600
C 	C 	0.73556 0.87846 0.41882 -0.27600
C 	C 	0.65765 0.87677 0.44433 0.15600
C 	C 	0.60040 0.91481 0.47019 -0.20600
C 	C 	0.62611 0.95421 0.47097 0.14200
C 	C 	0.70562 0.95717 0.44579 -0.25200
C 	C 	0.72938 0.99866 0.45118 0.27200
C 	C 	0.89185 0.04681 0.41149 0.26300
C 	C 	0.92392 0.08703 0.41673 -0.34500
C 	C 	0.93895 0.11565 0.37265 0.15300
C 	C 	0.85872 0.14030 0.35986 -0.35900
C 	C 	0.87199 0.17067 0.31755 0.27300
C 	C 	0.79210 0.19332 0.30468 -0.61500
C 	C 	0.80593 0.32682 0.02892 0.31400
C 	C 	0.76314 0.29637 0.05475 -0.30200
C 	C 	0.79956 0.24945 0.05343 0.17500
C 	C 	0.87982 0.23087 0.02649 -0.23700
C 	C 	0.92420 0.26015 0.00125 0.15200
C 	C 	0.88864 0.30860 0.00232 -0.26100
C 	C 	0.94093 0.33705 0.97329 0.28100
C 	C 	0.92184 0.44875 0.93557 0.27600
C 	C 	0.96191 0.48028 0.90130 -0.37100
C 	C 	0.92412 0.49071 0.86005 0.17700
C 	C 	0.94468 0.44972 0.82992 -0.37100
C 	C 	0.90744 0.45924 0.78828 0.26900
C 	C 	0.92676 0.41704 0.75904 -0.62300
C 	C 	0.75746 0.37427 0.91901 0.10100
C 	C 	0.73698 0.37094 0.87910 -0.18500
C 	C 	0.70625 0.41001 0.85569 0.12000
C 	C 	0.69306 0.45172 0.87636 -0.17900
C 	C 	0.71392 0.45266 0.91670 0.10100
C 	C 	0.68404 0.40933 0.80999 -0.12400
C 	C 	0.13029 0.34975 0.81647 0.30200
C 	C 	0.12528 0.32682 0.77902 -0.28000
C 	C 	0.17308 0.33143 0.73441 0.15000
C 	C 	0.22687 0.35933 0.72513 -0.22300
C 	C 	0.23229 0.38179 0.76103 0.14800
C 	C 	0.18613 0.37751 0.80703 -0.25100
C 	C 	0.19741 0.40327 0.84351 0.27600
C 	C 	0.14759 0.40738 0.96164 0.35200
C 	C 	0.16374 0.42522 0.00170 -0.61200
C 	C 	0.23304 0.38822 0.01890 0.68700
C 	C 	0.24426 0.40514 0.06234 -1.36500
C 	C 	0.46021 0.40601 0.74817 0.11400
C 	C 	0.30670 0.38450 0.07530 1.21400
C 	C 	0.49257 0.40319 0.78467 -0.20700
C 	C 	0.31370 0.40770 0.12070 -1.17600
C 	C 	0.57234 0.40620 0.77672 0.13800
C 	C 	0.61822 0.40954 0.73122 -0.18400
C 	C 	0.58175 0.41129 0.69641 0.10400
C 	C 	0.60760 0.40590 0.81830 -0.15700
C 	C 	0.59813 0.58117 0.08217 0.30700
C 	C 	0.53284 0.62154 0.08118 -0.27700
C 	C 	0.47875 0.62323 0.05567 0.15600
C 	C 	0.48540 0.58519 0.02981 -0.20700
C 	C 	0.55129 0.54579 0.02903 0.14200
C 	C 	0.60858 0.54283 0.05421 -0.25300
C 	C 	0.67922 0.50134 0.04882 0.27300
C 	C 	0.85015 0.45319 0.08851 0.26200
C 	C 	0.92768 0.41297 0.08327 -0.34500
C 	C 	0.92725 0.38435 0.12735 0.15300
C 	C 	0.85888 0.35970 0.14014 -0.35900
C 	C 	0.86021 0.32933 0.18245 0.27300
C 	C 	0.79010 0.30668 0.19532 -0.61500
C 	C 	0.16515 0.02892 0.17318 0.31400
C 	C 	0.18211 0.05475 0.20363 -0.30200
C 	C 	0.14701 0.05343 0.25055 0.17500
C 	C 	0.09369 0.02649 0.26913 -0.23700
C 	C 	0.07455 0.00125 0.23985 0.15300
C 	C 	0.10904 0.00232 0.19140 -0.26000
C 	C 	0.08578 0.97329 0.16295 0.27800
C 	C 	0.14259 0.93557 0.05125 0.27700
C 	C 	0.13679 0.90130 0.01972 -0.37400
C 	C 	0.21583 0.86005 0.00929 0.17900
C 	C 	0.22540 0.82992 0.05028 -0.37400
C 	C 	0.30428 0.78828 0.04076 0.27100
C 	C 	0.31420 0.75904 0.08296 -0.62500
C 	C 	0.32353 0.91901 0.12573 0.10100
C 	C 	0.38392 0.87910 0.12906 -0.18500
C 	C 	0.43806 0.85569 0.08999 0.12000
C 	C 	0.43058 0.87636 0.04828 -0.17900
C 	C 	0.36938 0.91670 0.04734 0.10100
C 	C 	0.50597 0.80999 0.09067 -0.12400
C 	C 	0.05324 0.81647 0.15025 0.30200
C 	C 	0.09570 0.77902 0.17318 -0.28100
C 	C 	0.09251 0.73441 0.16857 0.15100
C 	C 	0.04800 0.72513 0.14067 -0.22400
C 	C 	0.00668 0.76103 0.11821 0.15100
C 	C 	0.00684 0.80703 0.12249 -0.25100
C 	C 	0.95908 0.84351 0.09673 0.27400
C 	C 	0.89077 0.96164 0.09262 0.35000
C 	C 	0.83456 0.00170 0.07478 -0.60800
C 	C 	0.74806 0.01890 0.11178 0.68500
C 	C 	0.69340 0.06234 0.09486 -1.36300
C 	C 	0.79162 0.74817 0.09399 0.11400
C 	C 	0.61800 0.07530 0.11550 1.21300
C 	C 	0.72276 0.78467 0.09681 -0.20700
C 	C 	0.56560 0.12070 0.09230 -1.17500
C 	C 	0.65094 0.77672 0.09380 0.13800
C 	C 	0.65056 0.73122 0.09046 -0.18400
C 	C 	0.72184 0.69641 0.08871 0.10300
C 	C 	0.57410 0.81830 0.09410 -0.15700
C 	C 	0.31970 0.08217 0.91883 0.30600
C 	C 	0.38598 0.08118 0.87846 -0.27600
C 	C 	0.46558 0.05567 0.87677 0.15600
C 	C 	0.48479 0.02981 0.91481 -0.20600
C 	C 	0.41968 0.02903 0.95421 0.14100
C 	C 	0.33721 0.05421 0.95717 -0.25100
C 	C 	0.27196 0.04882 0.99866 0.26800
C 	C 	0.06134 0.08851 0.04681 0.26300
C 	C 	0.98905 0.08327 0.08703 -0.34600
C 	C 	0.94540 0.12735 0.11565 0.15200
C 	C 	0.00098 0.14014 0.14030 -0.35700
C 	C 	0.95734 0.18245 0.17067 0.27000
C 	C 	0.01458 0.19532 0.19332 -0.61100
C 	C 	0.86725 0.47108 0.32682 0.31400
C 	C 	0.94049 0.44525 0.29637 -0.30100
C 	C 	0.95099 0.44657 0.24945 0.17400
C 	C 	0.88931 0.47351 0.23087 -0.23700
C 	C 	0.81565 0.49875 0.26015 0.15300
C 	C 	0.80276 0.49768 0.30860 -0.26000
C 	C 	0.72202 0.52671 0.33705 0.27900
C 	C 	0.62941 0.56443 0.44875 0.27700
C 	C 	0.55781 0.59870 0.48028 -0.37400
C 	C 	0.58517 0.63995 0.49071 0.18000
C 	C 	0.60560 0.67008 0.44972 -0.37500
C 	C 	0.63332 0.71172 0.45924 0.27100
C 	C 	0.65620 0.74096 0.41704 -0.62500
C 	C 	0.86827 0.58099 0.37427 0.10000
C 	C 	0.89208 0.62090 0.37094 -0.18300
C 	C 	0.88374 0.64431 0.41001 0.11700
C 	C 	0.85522 0.62364 0.45172 -0.17700
C 	C 	0.83342 0.58330 0.45266 0.10000
C 	C 	0.90663 0.69001 0.40933 -0.11900
C 	C 	0.51996 0.68353 0.34975 0.30200
C 	C 	0.54790 0.72098 0.32682 -0.28000
C 	C 	0.49549 0.76559 0.33143 0.15000
C 	C 	0.41380 0.77487 0.35933 -0.22300
C 	C 	0.38592 0.73897 0.38179 0.14800
C 	C 	0.43636 0.69297 0.37751 -0.25100
C 	C 	0.39932 0.65649 0.40327 0.27600
C 	C 	0.44503 0.53836 0.40738 0.35300
C 	C 	0.41104 0.49830 0.42522 -0.61500
C 	C 	0.37874 0.48110 0.38822 0.68600
C 	C 	0.35060 0.43766 0.40514 -1.36500
C 	C 	0.13378 0.75183 0.40601 0.11600
C 	C 	0.30880 0.42470 0.38450 1.21400
C 	C 	0.10424 0.71533 0.40319 -0.21000
C 	C 	0.27860 0.37930 0.40770 -1.17600
C 	C 	0.02146 0.72328 0.40620 0.14300
C 	C 	0.97224 0.76878 0.40954 -0.18900
C 	C 	0.00696 0.80359 0.41129 0.10800
C 	C 	0.98650 0.68170 0.40590 -0.16500
C 	C 	0.82070 0.41783 0.58117 0.30700
C 	C 	0.84562 0.41882 0.62154 -0.27700
C 	C 	0.89802 0.44433 0.62323 0.15600
C 	C 	0.92941 0.47019 0.58519 -0.20600
C 	C 	0.90292 0.47097 0.54579 0.14200
C 	C 	0.84859 0.44579 0.54283 -0.25300
C 	C 	0.81944 0.45118 0.50134 0.27300
C 	C 	0.69666 0.41149 0.45319 0.26300
C 	C 	0.65935 0.41673 0.41297 -0.34500
C 	C 	0.68840 0.37265 0.38435 0.15300
C 	C 	0.78142 0.35986 0.35970 -0.35900
C 	C 	0.81046 0.31755 0.32933 0.27300
C 	C 	0.90322 0.30468 0.30668 -0.61500
C 	C 	0.33833 0.82682 0.52892 0.31400
C 	C 	0.38574 0.79637 0.55475 -0.30200
C 	C 	0.39756 0.74945 0.55343 0.17600
C 	C 	0.36282 0.73087 0.52649 -0.23800
C 	C 	0.31440 0.76015 0.50125 0.15300
C 	C 	0.30044 0.80860 0.50232 -0.26000
C 	C 	0.24873 0.83705 0.47329 0.27900
C 	C 	0.19384 0.94875 0.43557 0.27700
C 	C 	0.15651 0.98028 0.40130 -0.37300
C 	C 	0.22512 0.99071 0.36005 0.18000
C 	C 	0.27568 0.94972 0.32992 -0.37500
C 	C 	0.34504 0.95924 0.28828 0.27100
C 	C 	0.39716 0.91704 0.25904 -0.62500
C 	C 	0.44926 0.87427 0.41901 0.10100
C 	C 	0.51298 0.87094 0.37910 -0.18500
C 	C 	0.52805 0.91001 0.35569 0.12000
C 	C 	0.47886 0.95172 0.37636 -0.17900
C 	C 	0.41672 0.95266 0.41670 0.10100
C 	C 	0.59664 0.90933 0.30999 -0.12400
C 	C 	0.20349 0.84975 0.31647 0.30200
C 	C 	0.26888 0.82682 0.27902 -0.28000
C 	C 	0.26108 0.83143 0.23441 0.15000
C 	C 	0.18867 0.85933 0.22513 -0.22300
C 	C 	0.12489 0.88179 0.26103 0.14800
C 	C 	0.12933 0.87751 0.30703 -0.25200
C 	C 	0.05581 0.90327 0.34351 0.27700
C 	C 	0.98339 0.90738 0.46164 0.35300
C 	C 	0.90934 0.92522 0.50170 -0.61400
C 	C 	0.85984 0.88822 0.51890 0.68600
C 	C 	0.78826 0.90514 0.56234 -1.36500
C 	C 	0.88561 0.90601 0.24817 0.11400
C 	C 	0.73350 0.88450 0.57530 1.21400
C 	C 	0.81957 0.90319 0.28467 -0.20700
C 	C 	0.65790 0.90770 0.62070 -1.17600
C 	C 	0.74474 0.90620 0.27672 0.13800
C 	C 	0.74102 0.90954 0.23122 -0.18400
C 	C 	0.81055 0.91129 0.19641 0.10400
C 	C 	0.66820 0.90590 0.31830 -0.15700
C 	C 	0.23853 0.08117 0.58217 0.30600
C 	C 	0.26444 0.12154 0.58118 -0.27600
C 	C 	0.34235 0.12323 0.55567 0.15600
C 	C 	0.39960 0.08519 0.52981 -0.20600
C 	C 	0.37389 0.04579 0.52903 0.14200
C 	C 	0.29438 0.04283 0.55421 -0.25200
C 	C 	0.27062 0.00134 0.54882 0.27200
C 	C 	0.10815 0.95319 0.58851 0.26300
C 	C 	0.07608 0.91297 0.58327 -0.34500
C 	C 	0.06105 0.88435 0.62735 0.15300
C 	C 	0.14128 0.85970 0.64014 -0.35900
C 	C 	0.12801 0.82933 0.68245 0.27300
C 	C 	0.20790 0.80668 0.69532 -0.61500
C 	C 	0.19407 0.67318 0.97108 0.31400
C 	C 	0.23686 0.70363 0.94525 -0.30200
C 	C 	0.20044 0.75055 0.94657 0.17500
C 	C 	0.12018 0.76913 0.97351 -0.23700
C 	C 	0.07580 0.73985 0.99875 0.15200
C 	C 	0.11136 0.69140 0.99768 -0.26100
C 	C 	0.05907 0.66295 0.02671 0.28100
C 	C 	0.07816 0.55125 0.06443 0.27600
C 	C 	0.03809 0.51972 0.09870 -0.37100
C 	C 	0.07588 0.50929 0.13995 0.17700
C 	C 	0.05532 0.55028 0.17008 -0.37100
C 	C 	0.09256 0.54076 0.21172 0.26900
C 	C 	0.07324 0.58296 0.24096 -0.62300
C 	C 	0.24254 0.62573 0.08099 0.10100
C 	C 	0.26302 0.62906 0.12090 -0.18500
C 	C 	0.29375 0.58999 0.14431 0.12000
C 	C 	0.30694 0.54828 0.12364 -0.17900
C 	C 	0.28608 0.54734 0.08330 0.10100
C 	C 	0.31596 0.59067 0.19001 -0.12400
C 	C 	0.86971 0.65025 0.18353 0.30200
C 	C 	0.87472 0.67318 0.22098 -0.28000
C 	C 	0.82692 0.66857 0.26559 0.15000
C 	C 	0.77313 0.64067 0.27487 -0.22300
C 	C 	0.76771 0.61821 0.23897 0.14800
C 	C 	0.81387 0.62249 0.19297 -0.25100
C 	C 	0.80259 0.59673 0.15649 0.27600
C 	C 	0.85241 0.59262 0.03836 0.35200
C 	C 	0.83626 0.57478 0.99830 -0.61200
C 	C 	0.76696 0.61178 0.98110 0.68700
C 	C 	0.75574 0.59486 0.93766 -1.36500
C 	C 	0.53979 0.59399 0.25183 0.11400
C 	C 	0.69330 0.61550 0.92470 1.21400
C 	C 	0.50743 0.59681 0.21533 -0.20700
C 	C 	0.68630 0.59230 0.87930 -1.17600
C 	C 	0.42766 0.59380 0.22328 0.13800
C 	C 	0.38178 0.59046 0.26878 -0.18400
C 	C 	0.41825 0.58871 0.30359 0.10400
C 	C 	0.39240 0.59410 0.18170 -0.15700
C 	C 	0.40187 0.41883 0.91783 0.30700
C 	C 	0.46716 0.37846 0.91882 -0.27700
C 	C 	0.52125 0.37677 0.94433 0.15600
C 	C 	0.51460 0.41481 0.97019 -0.20700
C 	C 	0.44871 0.45421 0.97097 0.14200
C 	C 	0.39142 0.45717 0.94579 -0.25300
C 	C 	0.32078 0.49866 0.95118 0.27300
C 	C 	0.14985 0.54681 0.91149 0.26200
C 	C 	0.07232 0.58703 0.91673 -0.34500
C 	C 	0.07275 0.61565 0.87265 0.15300
C 	C 	0.14112 0.64030 0.85986 -0.35900
C 	C 	0.13979 0.67067 0.81755 0.27300
C 	C 	0.20990 0.69332 0.80468 -0.61500
N 	N 	0.87719 0.02983 0.88199 -0.28900
N 	N 	0.89837 0.06172 0.90528 -0.24400
N 	N 	0.68436 0.06184 0.91444 -0.23000
N 	N 	0.04413 0.11234 0.89784 -0.28700
N 	N 	0.09505 0.08007 0.92187 -0.25800
N 	N 	0.20652 0.29575 0.90995 -0.23100
N 	N 	0.80667 0.92842 0.99734 -0.29600
N 	N 	0.86395 0.93838 0.95638 -0.24100
N 	N 	0.28901 0.47017 0.61801 -0.28900
N 	N 	0.36537 0.43828 0.59472 -0.24400
N 	N 	0.16064 0.43816 0.58556 -0.23000
N 	N 	0.55431 0.38766 0.60216 -0.28700
N 	N 	0.59699 0.41993 0.57813 -0.25800
N 	N 	0.91222 0.20425 0.59005 -0.23200
N 	N 	0.23243 0.57158 0.50266 -0.29800
N 	N 	0.25871 0.56162 0.54362 -0.24100
N 	N 	0.75918 0.11801 0.52983 -0.28900
N 	N 	0.80365 0.09472 0.56172 -0.24400
N 	N 	0.59880 0.08556 0.56184 -0.23000
N 	N 	0.94197 0.10216 0.61234 -0.28700
N 	N 	0.01692 0.07813 0.58007 -0.25800
N 	N 	0.11647 0.09005 0.79575 -0.23100
N 	N 	0.80401 0.00266 0.42842 -0.29700
N 	N 	0.82033 0.04362 0.43838 -0.24100
N 	N 	0.90702 0.38199 0.97017 -0.28900
N 	N 	0.96009 0.40528 0.93828 -0.24400
N 	N 	0.74620 0.41444 0.93816 -0.23000
N 	N 	0.15647 0.39784 0.88766 -0.28700
N 	N 	0.17512 0.42187 0.91993 -0.25800
N 	N 	0.50227 0.40995 0.70425 -0.23100
N 	N 	0.73509 0.49734 0.07158 -0.29800
N 	N 	0.80233 0.45638 0.06162 -0.24100
N 	N 	0.12281 0.97017 0.11801 -0.28900
N 	N 	0.10163 0.93828 0.09472 -0.24400
N 	N 	0.31564 0.93816 0.08556 -0.23000
N 	N 	0.95587 0.88766 0.10216 -0.28700
N 	N 	0.90495 0.91993 0.07813 -0.25800
N 	N 	0.79348 0.70425 0.09005 -0.23100
N 	N 	0.19333 0.07158 0.00266 -0.29600
N 	N 	0.13605 0.06162 0.04362 -0.24100
N 	N 	0.71099 0.52983 0.38199 -0.28900
N 	N 	0.63463 0.56172 0.40528 -0.24400
N 	N 	0.83936 0.56184 0.41444 -0.23000
N 	N 	0.44569 0.61234 0.39784 -0.28700
N 	N 	0.40301 0.58007 0.42187 -0.25800
N 	N 	0.08778 0.79575 0.40995 -0.23200
N 	N 	0.76757 0.42842 0.49734 -0.29800
N 	N 	0.74129 0.43838 0.45638 -0.24100
N 	N 	0.24082 0.88199 0.47017 -0.28900
N 	N 	0.19635 0.90528 0.43828 -0.24400
N 	N 	0.40120 0.91444 0.43816 -0.23000
N 	N 	0.05803 0.89784 0.38766 -0.28700
N 	N 	0.98308 0.92187 0.41993 -0.25800
N 	N 	0.88353 0.90995 0.20425 -0.23100
N 	N 	0.19599 0.99734 0.57158 -0.29700
N 	N 	0.17967 0.95638 0.56162 -0.24100
N 	N 	0.09298 0.61801 0.02983 -0.28900
N 	N 	0.03991 0.59472 0.06172 -0.24400
N 	N 	0.25380 0.58556 0.06184 -0.23000
N 	N 	0.84353 0.60216 0.11234 -0.28700
N 	N 	0.82488 0.57813 0.08007 -0.25800
N 	N 	0.49773 0.59005 0.29575 -0.23100
N 	N 	0.26491 0.50266 0.92842 -0.29800
N 	N 	0.19767 0.54362 0.93838 -0.24100
O 	O 	0.79709 0.96790 0.87204 -0.47900
O 	O 	0.96879 0.04832 0.81724 -0.41500
O 	O 	0.80558 0.03935 0.96699 -0.45300
O 	O 	0.94084 0.14169 0.84275 -0.47700
O 	O 	0.07844 0.16782 0.92968 -0.42800
O 	O 	0.07770 0.02909 0.87575 -0.45300
O 	O 	0.75552 0.89096 0.08168 -0.48100
O 	O 	0.70679 0.97925 0.96969 -0.41400
O 	O 	0.95494 0.87955 0.98399 -0.44700
O 	O 	0.13703 0.53210 0.62796 -0.47900
O 	O 	0.33435 0.45168 0.68276 -0.41600
O 	O 	0.31192 0.46065 0.53301 -0.45300
O 	O 	0.42528 0.35831 0.65725 -0.47800
O 	O 	0.67594 0.33218 0.57032 -0.42700
O 	O 	0.48254 0.47091 0.62425 -0.45300
O 	O 	0.22816 0.60904 0.41832 -0.48100
O 	O 	0.15573 0.52075 0.53031 -0.41700
O 	O 	0.31848 0.62045 0.51601 -0.44800
O 	O 	0.66913 0.12796 0.46790 -0.47900
O 	O 	0.78603 0.18276 0.54832 -0.41600
O 	O 	0.77257 0.03301 0.53935 -0.45300
O 	O 	0.78359 0.15725 0.64169 -0.47800
O 	O 	0.00812 0.07032 0.66782 -0.42900
O 	O 	0.95345 0.12425 0.52909 -0.45200
O 	O 	0.83720 0.91832 0.39096 -0.48100
O 	O 	0.67648 0.03031 0.47925 -0.41600
O 	O 	0.93893 0.01601 0.37955 -0.44800
O 	O 	0.76499 0.37204 0.03210 -0.48000
O 	O 	0.01711 0.31724 0.95168 -0.41800
O 	O 	0.84493 0.46699 0.96065 -0.45300
O 	O 	0.08253 0.34275 0.85831 -0.47800
O 	O 	0.24626 0.42968 0.83218 -0.42700
O 	O 	0.10679 0.37575 0.97091 -0.45300
O 	O 	0.64648 0.58168 0.10904 -0.48100
O 	O 	0.68604 0.46969 0.02075 -0.41700
O 	O 	0.83449 0.48399 0.12045 -0.44800
O 	O 	0.20291 0.03210 0.12796 -0.47900
O 	O 	0.03121 0.95168 0.18276 -0.41500
O 	O 	0.19442 0.96065 0.03301 -0.45300
O 	O 	0.05916 0.85831 0.15725 -0.47700
O 	O 	0.92156 0.83218 0.07032 -0.42800
O 	O 	0.92230 0.97091 0.12425 -0.45300
O 	O 	0.24448 0.10904 0.91832 -0.48100
O 	O 	0.29321 0.02075 0.03031 -0.41400
O 	O 	0.04506 0.12045 0.01601 -0.44700
O 	O 	0.86297 0.46790 0.37204 -0.47900
O 	O 	0.66565 0.54832 0.31724 -0.41600
O 	O 	0.68808 0.53935 0.46699 -0.45300
O 	O 	0.57472 0.64169 0.34275 -0.47800
O 	O 	0.32406 0.66782 0.42968 -0.42700
O 	O 	0.51746 0.52909 0.37575 -0.45300
O 	O 	0.77184 0.39096 0.58168 -0.48100
O 	O 	0.84427 0.47925 0.46969 -0.41700
O 	O 	0.68152 0.37955 0.48399 -0.44800
O 	O 	0.33087 0.87204 0.53210 -0.47900
O 	O 	0.21397 0.81724 0.45168 -0.41600
O 	O 	0.22743 0.96699 0.46065 -0.45300
O 	O 	0.21641 0.84275 0.35831 -0.47800
O 	O 	0.99188 0.92968 0.33218 -0.42900
O 	O 	0.04655 0.87575 0.47091 -0.45200
O 	O 	0.16280 0.08168 0.60904 -0.48100
O 	O 	0.32352 0.96969 0.52075 -0.41600
O 	O 	0.06107 0.98399 0.62045 -0.44800
O 	O 	0.23501 0.62796 0.96790 -0.48000
O 	O 	0.98289 0.68276 0.04832 -0.41800
O 	O 	0.15507 0.53301 0.03935 -0.45300
O 	O 	0.91747 0.65725 0.14169 -0.47800
O 	O 	0.75374 0.57032 0.16782 -0.42700
O 	O 	0.89321 0.62425 0.02909 -0.45300
O 	O 	0.35352 0.41832 0.89096 -0.48100
O 	O 	0.31396 0.53031 0.97925 -0.41700
O 	O 	0.16551 0.51601 0.87955 -0.44800
