data_crystal

_cell_length_a 17.20400
_cell_length_b 30.02920
_cell_length_c 30.02920
_cell_angle_alpha 85.29320
_cell_angle_beta  73.35420
_cell_angle_gamma 73.35420

_symmetry_space_group_name_	'P 1'
_symmetry_space_group_name_H-M	'P 1'

loop_
_symmetry_equiv_pos_as_xyz
  x,y,z

loop_
_atom_site_label
_atom_site_type_symbol
_atom_site_fract_x
_atom_site_fract_y
_atom_site_fract_z
_atom_site_charge
Mn	Mn	0.39403 0.96405 0.38061 1.31900
Mn	Mn	0.21502 0.07791 0.49996 1.33300
Mn	Mn	0.64085 0.85684 0.41604 1.33400
Mn	Mn	0.23869 0.53595 0.11939 1.31900
Mn	Mn	0.29290 0.42209 0.00004 1.33200
Mn	Mn	0.41373 0.64316 0.08396 1.33400
Mn	Mn	0.77464 0.61939 0.46405 1.31900
Mn	Mn	0.71499 0.50004 0.57790 1.33300
Mn	Mn	0.05689 0.58396 0.35684 1.33400
Mn	Mn	0.35808 0.88061 0.03595 1.31900
Mn	Mn	0.29293 0.99996 0.92210 1.33200
Mn	Mn	0.49769 0.91604 0.14316 1.33400
Mn	Mn	0.60597 0.03595 0.61939 1.31900
Mn	Mn	0.78498 0.92209 0.50004 1.33300
Mn	Mn	0.35915 0.14316 0.58396 1.33400
Mn	Mn	0.76131 0.46405 0.88061 1.31900
Mn	Mn	0.70710 0.57791 0.99996 1.33200
Mn	Mn	0.58627 0.35684 0.91604 1.33400
Mn	Mn	0.22536 0.38061 0.53595 1.31900
Mn	Mn	0.28501 0.49996 0.42210 1.33300
Mn	Mn	0.94311 0.41604 0.64316 1.33400
Mn	Mn	0.64192 0.11939 0.96405 1.31900
Mn	Mn	0.70707 0.00004 0.07790 1.33200
Mn	Mn	0.50231 0.08396 0.85684 1.33400
H 	H 	0.27380 0.85070 0.40230 0.12400
H 	H 	0.14070 0.84760 0.44680 -0.03700
H 	H 	0.04600 0.91210 0.48650 0.10600
H 	H 	0.08710 0.97880 0.49000 -0.00500
H 	H 	0.38090 0.10840 0.44140 0.11500
H 	H 	0.47630 0.07670 0.42470 0.12600
H 	H 	0.46500 0.13970 0.37510 -0.02100
H 	H 	0.47470 0.09530 0.34570 -0.01100
H 	H 	0.32890 0.11720 0.35400 0.12200
H 	H 	0.31550 0.15980 0.38660 0.12400
H 	H 	0.40670 0.15280 0.29020 -0.05400
H 	H 	0.39480 0.19520 0.32280 -0.05700
H 	H 	0.24760 0.21460 0.33320 0.19000
H 	H 	0.29800 0.21740 0.27960 0.18100
H 	H 	0.26230 0.17360 0.29820 0.18600
H 	H 	0.08450 0.19260 0.42620 0.12800
H 	H 	0.06880 0.27080 0.42680 -0.03400
H 	H 	0.12650 0.30220 0.47420 0.10900
H 	H 	0.21190 0.25160 0.51580 0.00100
H 	H 	0.37840 0.99040 0.58400 0.12700
H 	H 	0.37320 0.03530 0.61130 0.11800
H 	H 	0.29550 0.98420 0.65940 -0.02700
H 	H 	0.23240 0.99670 0.62710 -0.02100
H 	H 	0.18960 0.07580 0.65000 0.14500
H 	H 	0.25480 0.06460 0.68080 0.14400
H 	H 	0.17540 0.01590 0.72950 -0.08700
H 	H 	0.10800 0.03160 0.70000 -0.09000
H 	H 	0.12460 0.10860 0.72820 0.24100
H 	H 	0.04340 0.08920 0.74460 0.23700
H 	H 	0.11370 0.07490 0.77230 0.24100
H 	H 	0.05840 0.15390 0.56730 -0.01600
H 	H 	0.95080 0.15720 0.63360 0.08100
H 	H 	0.11340 0.01820 0.56680 -0.00500
H 	H 	0.00940 0.01950 0.63650 0.07800
H 	H 	0.89850 0.11680 0.70860 0.05300
H 	H 	0.91650 0.06150 0.70670 0.05500
H 	H 	0.82260 0.80800 0.28500 0.12400
H 	H 	0.81000 0.81570 0.20970 -0.02800
H 	H 	0.68760 0.86360 0.19380 0.10000
H 	H 	0.57700 0.90220 0.25440 0.01100
H 	H 	0.37170 0.95460 0.49140 0.11600
H 	H 	0.42790 0.93570 0.52690 0.12200
H 	H 	0.33990 0.88110 0.49470 -0.00200
H 	H 	0.39910 0.86060 0.52820 0.00100
H 	H 	0.30730 0.90870 0.58810 0.11700
H 	H 	0.25270 0.93700 0.55480 0.12900
H 	H 	0.26300 0.84570 0.58190 -0.03300
H 	H 	0.20470 0.87620 0.55060 -0.02700
H 	H 	0.13680 0.93600 0.61420 0.16100
H 	H 	0.19300 0.90450 0.64550 0.15700
H 	H 	0.12080 0.88740 0.63420 0.15800
H 	H 	0.69270 0.08440 0.83560 -0.00400
H 	H 	0.80810 0.09270 0.77670 0.08100
H 	H 	0.56050 0.09530 0.74650 -0.00800
H 	H 	0.66980 0.10170 0.68610 0.09900
H 	H 	0.81680 0.12590 0.66670 0.06600
H 	H 	0.83750 0.07130 0.66090 0.06800
H 	H 	0.02680 0.64930 0.09770 0.12400
H 	H 	0.93510 0.65240 0.05320 -0.03700
H 	H 	0.94460 0.58790 0.01350 0.10600
H 	H 	0.05590 0.52120 0.01000 -0.00500
H 	H 	0.43070 0.39160 0.05860 0.11500
H 	H 	0.47770 0.42330 0.07530 0.12600
H 	H 	0.47980 0.36030 0.12490 -0.02100
H 	H 	0.41570 0.40470 0.15430 -0.01100
H 	H 	0.30010 0.38280 0.14600 0.12200
H 	H 	0.36190 0.34020 0.11340 0.12400
H 	H 	0.34970 0.34720 0.20980 -0.05400
H 	H 	0.41280 0.30480 0.17720 -0.05700
H 	H 	0.29540 0.28540 0.16680 0.19000
H 	H 	0.29500 0.28260 0.22040 0.18100
H 	H 	0.23410 0.32640 0.20180 0.18600
H 	H 	0.20330 0.30740 0.07380 0.12700
H 	H 	0.26640 0.22920 0.07320 -0.03400
H 	H 	0.40290 0.19780 0.02580 0.10900
H 	H 	0.47930 0.24840 0.98420 0.00100
H 	H 	0.45280 0.50960 0.91600 0.12700
H 	H 	0.51980 0.46470 0.88870 0.11800
H 	H 	0.43910 0.51580 0.84060 -0.02700
H 	H 	0.35620 0.50330 0.87290 -0.02000
H 	H 	0.41540 0.42420 0.85000 0.14500
H 	H 	0.50020 0.43540 0.81920 0.14300
H 	H 	0.42080 0.48410 0.77050 -0.08700
H 	H 	0.33960 0.46840 0.80000 -0.09000
H 	H 	0.46140 0.39140 0.77180 0.24100
H 	H 	0.37720 0.41080 0.75540 0.23600
H 	H 	0.46090 0.42510 0.72770 0.24000
H 	H 	0.27960 0.34610 0.93270 -0.01600
H 	H 	0.24160 0.34280 0.86640 0.08100
H 	H 	0.19840 0.48180 0.93320 -0.00500
H 	H 	0.16540 0.48050 0.86350 0.07800
H 	H 	0.22390 0.38320 0.79140 0.05300
H 	H 	0.18470 0.43850 0.79330 0.05600
H 	H 	0.41560 0.69200 0.21500 0.12400
H 	H 	0.33540 0.68430 0.29030 -0.02800
H 	H 	0.24500 0.63640 0.30620 0.10000
H 	H 	0.23360 0.59780 0.24560 0.01100
H 	H 	0.31770 0.54540 0.00860 0.11600
H 	H 	0.39050 0.56430 0.97310 0.12200
H 	H 	0.21570 0.61890 0.00530 -0.00300
H 	H 	0.28790 0.63940 0.97180 0.00100
H 	H 	0.30410 0.59130 0.91190 0.11700
H 	H 	0.24450 0.56300 0.94520 0.12900
H 	H 	0.19060 0.65430 0.91810 -0.03300
H 	H 	0.13150 0.62380 0.94940 -0.02700
H 	H 	0.18700 0.56400 0.88580 0.16100
H 	H 	0.24300 0.59550 0.85450 0.15800
H 	H 	0.14240 0.61260 0.86580 0.15800
H 	H 	0.11270 0.41560 0.66440 -0.00400
H 	H 	0.17750 0.40730 0.72330 0.08100
H 	H 	0.90230 0.40470 0.75350 -0.00800
H 	H 	0.95760 0.39830 0.81390 0.10000
H 	H 	0.10940 0.37410 0.83330 0.06700
H 	H 	0.06970 0.42870 0.83910 0.06800
H 	H 	0.67610 0.59770 0.35070 0.12400
H 	H 	0.58750 0.55320 0.34760 -0.03700
H 	H 	0.53250 0.51350 0.41210 0.10600
H 	H 	0.57710 0.51000 0.47880 -0.00500
H 	H 	0.82230 0.55860 0.60840 0.11500
H 	H 	0.90100 0.57530 0.57670 0.12600
H 	H 	0.84010 0.62490 0.63970 -0.02100
H 	H 	0.82040 0.65430 0.59530 -0.01100
H 	H 	0.68290 0.64600 0.61720 0.12200
H 	H 	0.70210 0.61340 0.65980 0.12400
H 	H 	0.69690 0.70980 0.65280 -0.05400
H 	H 	0.71760 0.67720 0.69520 -0.05700
H 	H 	0.58080 0.66680 0.71460 0.19000
H 	H 	0.57760 0.72040 0.71740 0.18100
H 	H 	0.56050 0.70180 0.67360 0.18600
H 	H 	0.51070 0.57380 0.69260 0.12700
H 	H 	0.49560 0.57320 0.77080 -0.03400
H 	H 	0.60070 0.52580 0.80220 0.10900
H 	H 	0.72770 0.48420 0.75160 0.00100
H 	H 	0.96240 0.41600 0.49040 0.12700
H 	H 	0.98450 0.38870 0.53530 0.11800
H 	H 	0.95490 0.34060 0.48420 -0.02700
H 	H 	0.85950 0.37290 0.49670 -0.02000
H 	H 	0.83960 0.35000 0.57580 0.14500
H 	H 	0.93560 0.31920 0.56460 0.14300
H 	H 	0.90490 0.27050 0.51590 -0.08700
H 	H 	0.80800 0.30000 0.53160 -0.09000
H 	H 	0.85280 0.27180 0.60860 0.24000
H 	H 	0.78800 0.25540 0.58920 0.23600
H 	H 	0.88600 0.22770 0.57490 0.24000
H 	H 	0.62570 0.43270 0.65390 -0.01600
H 	H 	0.58440 0.36640 0.65720 0.08100
H 	H 	0.68020 0.43320 0.51820 -0.00500
H 	H 	0.64590 0.36350 0.51950 0.07900
H 	H 	0.60710 0.29140 0.61680 0.05300
H 	H 	0.62320 0.29330 0.56150 0.05600
H 	H 	0.10760 0.71500 0.30800 0.12400
H 	H 	0.01970 0.79030 0.31570 -0.02900
H 	H 	0.88140 0.80620 0.36360 0.10100
H 	H 	0.83140 0.74560 0.40220 0.01100
H 	H 	0.86310 0.50860 0.45460 0.11600
H 	H 	0.95480 0.47310 0.43570 0.12200
H 	H 	0.83460 0.50530 0.38110 -0.00200
H 	H 	0.92730 0.47180 0.36060 0.00100
H 	H 	0.89540 0.41190 0.40870 0.11700
H 	H 	0.80750 0.44520 0.43700 0.12900
H 	H 	0.84490 0.41810 0.34570 -0.03300
H 	H 	0.75530 0.44940 0.37620 -0.02700
H 	H 	0.75100 0.38580 0.43600 0.16100
H 	H 	0.83850 0.35450 0.40450 0.15700
H 	H 	0.75500 0.36580 0.38740 0.15800
H 	H 	0.52830 0.16440 0.58440 -0.00400
H 	H 	0.58480 0.22330 0.59270 0.08000
H 	H 	0.30700 0.25350 0.59530 -0.00800
H 	H 	0.35590 0.31390 0.60170 0.09900
H 	H 	0.48350 0.33330 0.62590 0.06600
H 	H 	0.49840 0.33910 0.57130 0.06800
H 	H 	0.12450 0.90230 0.14930 0.12400
H 	H 	0.98830 0.94680 0.15240 -0.03600
H 	H 	0.95810 0.98650 0.08790 0.10800
H 	H 	0.06590 0.99000 0.02120 -0.00500
H 	H 	0.48930 0.94140 0.89160 0.11500
H 	H 	0.55300 0.92470 0.92330 0.12600
H 	H 	0.60470 0.87510 0.86030 -0.02100
H 	H 	0.57000 0.84570 0.90470 -0.01100
H 	H 	0.44610 0.85400 0.88280 0.12200
H 	H 	0.47530 0.88660 0.84020 0.12400
H 	H 	0.55950 0.79020 0.84720 -0.05400
H 	H 	0.59000 0.82280 0.80480 -0.05700
H 	H 	0.46220 0.83320 0.78540 0.19000
H 	H 	0.51540 0.77960 0.78260 0.18100
H 	H 	0.43590 0.79820 0.82640 0.18600
H 	H 	0.27710 0.92620 0.80740 0.12700
H 	H 	0.33960 0.92680 0.72920 -0.03400
H 	H 	0.42870 0.97420 0.69780 0.10900
H 	H 	0.46350 0.01580 0.74840 0.00100
H 	H 	0.36880 0.08400 0.00960 0.12700
H 	H 	0.40850 0.11130 0.96470 0.11800
H 	H 	0.27970 0.15940 0.01580 -0.02700
H 	H 	0.22910 0.12710 0.00330 -0.02100
H 	H 	0.26540 0.15000 0.92420 0.14500
H 	H 	0.31940 0.18080 0.93540 0.14300
H 	H 	0.19130 0.22950 0.98410 -0.08700
H 	H 	0.13960 0.20000 0.96840 -0.09000
H 	H 	0.23320 0.22820 0.89140 0.24100
H 	H 	0.13260 0.24460 0.91080 0.23600
H 	H 	0.18860 0.27230 0.92510 0.24000
H 	H 	0.21230 0.06730 0.84610 -0.01700
H 	H 	0.10800 0.13360 0.84280 0.08300
H 	H 	0.13160 0.06680 0.98180 -0.00600
H 	H 	0.02890 0.13650 0.98050 0.08000
H 	H 	0.01530 0.20860 0.88320 0.05700
H 	H 	0.97800 0.20670 0.93850 0.06000
H 	H 	0.63060 0.78500 0.19200 0.12400
H 	H 	0.62570 0.70970 0.18430 -0.02800
H 	H 	0.55120 0.69380 0.13640 0.10000
H 	H 	0.47920 0.75440 0.09780 0.01100
H 	H 	0.32630 0.99140 0.04540 0.11600
H 	H 	0.36360 0.02690 0.06430 0.12200
H 	H 	0.22100 0.99470 0.11890 -0.00300
H 	H 	0.25970 0.02820 0.13940 0.00100
H 	H 	0.21600 0.08810 0.09130 0.11700
H 	H 	0.18970 0.05480 0.06300 0.12900
H 	H 	0.10870 0.08190 0.15430 -0.03300
H 	H 	0.08090 0.05060 0.12380 -0.02700
H 	H 	0.07280 0.11420 0.06400 0.16100
H 	H 	0.09750 0.14550 0.09550 0.15800
H 	H 	0.00820 0.13420 0.11260 0.15800
H 	H 	0.77710 0.33560 0.91560 -0.00300
H 	H 	0.90080 0.27670 0.90730 0.07900
H 	H 	0.65580 0.24650 0.90470 -0.00700
H 	H 	0.77150 0.18610 0.89830 0.09800
H 	H 	0.94270 0.16670 0.87410 0.06300
H 	H 	0.90880 0.16090 0.92870 0.06400
H 	H 	0.72620 0.14930 0.59770 0.12400
H 	H 	0.85930 0.15240 0.55320 -0.03700
H 	H 	0.95400 0.08790 0.51350 0.10600
H 	H 	0.91290 0.02120 0.51000 -0.00500
H 	H 	0.61910 0.89160 0.55860 0.11500
H 	H 	0.52370 0.92330 0.57530 0.12600
H 	H 	0.53500 0.86030 0.62490 -0.02100
H 	H 	0.52530 0.90470 0.65430 -0.01100
H 	H 	0.67110 0.88280 0.64600 0.12200
H 	H 	0.68450 0.84020 0.61340 0.12400
H 	H 	0.59330 0.84720 0.70980 -0.05400
H 	H 	0.60520 0.80480 0.67720 -0.05700
H 	H 	0.75240 0.78540 0.66680 0.19000
H 	H 	0.70200 0.78260 0.72040 0.18100
H 	H 	0.73770 0.82640 0.70180 0.18600
H 	H 	0.91550 0.80740 0.57380 0.12800
H 	H 	0.93120 0.72920 0.57320 -0.03400
H 	H 	0.87350 0.69780 0.52580 0.10900
H 	H 	0.78810 0.74840 0.48420 0.00100
H 	H 	0.62160 0.00960 0.41600 0.12700
H 	H 	0.62680 0.96470 0.38870 0.11800
H 	H 	0.70450 0.01580 0.34060 -0.02700
H 	H 	0.76760 0.00330 0.37290 -0.02100
H 	H 	0.81040 0.92420 0.35000 0.14500
H 	H 	0.74520 0.93540 0.31920 0.14400
H 	H 	0.82460 0.98410 0.27050 -0.08700
H 	H 	0.89200 0.96840 0.30000 -0.09000
H 	H 	0.87540 0.89140 0.27180 0.24100
H 	H 	0.95660 0.91080 0.25540 0.23700
H 	H 	0.88630 0.92510 0.22770 0.24100
H 	H 	0.94160 0.84610 0.43270 -0.01600
H 	H 	0.04920 0.84280 0.36640 0.08100
H 	H 	0.88660 0.98180 0.43320 -0.00500
H 	H 	0.99060 0.98050 0.36350 0.07800
H 	H 	0.10150 0.88320 0.29140 0.05300
H 	H 	0.08350 0.93850 0.29330 0.05500
H 	H 	0.17740 0.19200 0.71500 0.12400
H 	H 	0.19000 0.18430 0.79030 -0.02800
H 	H 	0.31240 0.13640 0.80620 0.10000
H 	H 	0.42300 0.09780 0.74560 0.01100
H 	H 	0.62830 0.04540 0.50860 0.11600
H 	H 	0.57210 0.06430 0.47310 0.12200
H 	H 	0.66010 0.11890 0.50530 -0.00200
H 	H 	0.60090 0.13940 0.47180 0.00100
H 	H 	0.69270 0.09130 0.41190 0.11700
H 	H 	0.74730 0.06300 0.44520 0.12900
H 	H 	0.73700 0.15430 0.41810 -0.03300
H 	H 	0.79530 0.12380 0.44940 -0.02700
H 	H 	0.86320 0.06400 0.38580 0.16100
H 	H 	0.80700 0.09550 0.35450 0.15700
H 	H 	0.87920 0.11260 0.36580 0.15800
H 	H 	0.30730 0.91560 0.16440 -0.00400
H 	H 	0.19190 0.90730 0.22330 0.08100
H 	H 	0.43950 0.90470 0.25350 -0.00800
H 	H 	0.33020 0.89830 0.31390 0.09900
H 	H 	0.18320 0.87410 0.33330 0.06600
H 	H 	0.16250 0.92870 0.33910 0.06800
H 	H 	0.97320 0.35070 0.90230 0.12400
H 	H 	0.06490 0.34760 0.94680 -0.03700
H 	H 	0.05540 0.41210 0.98650 0.10600
H 	H 	0.94410 0.47880 0.99000 -0.00500
H 	H 	0.56930 0.60840 0.94140 0.11500
H 	H 	0.52230 0.57670 0.92470 0.12600
H 	H 	0.52020 0.63970 0.87510 -0.02100
H 	H 	0.58430 0.59530 0.84570 -0.01100
H 	H 	0.69990 0.61720 0.85400 0.12200
H 	H 	0.63810 0.65980 0.88660 0.12400
H 	H 	0.65030 0.65280 0.79020 -0.05400
H 	H 	0.58720 0.69520 0.82280 -0.05700
H 	H 	0.70460 0.71460 0.83320 0.19000
H 	H 	0.70500 0.71740 0.77960 0.18100
H 	H 	0.76590 0.67360 0.79820 0.18600
H 	H 	0.79670 0.69260 0.92620 0.12700
H 	H 	0.73360 0.77080 0.92680 -0.03400
H 	H 	0.59710 0.80220 0.97420 0.10900
H 	H 	0.52070 0.75160 0.01580 0.00100
H 	H 	0.54720 0.49040 0.08400 0.12700
H 	H 	0.48020 0.53530 0.11130 0.11800
H 	H 	0.56090 0.48420 0.15940 -0.02700
H 	H 	0.64380 0.49670 0.12710 -0.02000
H 	H 	0.58460 0.57580 0.15000 0.14500
H 	H 	0.49980 0.56460 0.18080 0.14300
H 	H 	0.57920 0.51590 0.22950 -0.08700
H 	H 	0.66040 0.53160 0.20000 -0.09000
H 	H 	0.53860 0.60860 0.22820 0.24100
H 	H 	0.62280 0.58920 0.24460 0.23600
H 	H 	0.53910 0.57490 0.27230 0.24000
H 	H 	0.72040 0.65390 0.06730 -0.01600
H 	H 	0.75840 0.65720 0.13360 0.08100
H 	H 	0.80160 0.51820 0.06680 -0.00500
H 	H 	0.83460 0.51950 0.13650 0.07800
H 	H 	0.77610 0.61680 0.20860 0.05300
H 	H 	0.81530 0.56150 0.20670 0.05600
H 	H 	0.58440 0.30800 0.78500 0.12400
H 	H 	0.66460 0.31570 0.70970 -0.02800
H 	H 	0.75500 0.36360 0.69380 0.10000
H 	H 	0.76640 0.40220 0.75440 0.01100
H 	H 	0.68230 0.45460 0.99140 0.11600
H 	H 	0.60950 0.43570 0.02690 0.12200
H 	H 	0.78430 0.38110 0.99470 -0.00300
H 	H 	0.71210 0.36060 0.02820 0.00100
H 	H 	0.69590 0.40870 0.08810 0.11700
H 	H 	0.75550 0.43700 0.05480 0.12900
H 	H 	0.80940 0.34570 0.08190 -0.03300
H 	H 	0.86850 0.37620 0.05060 -0.02700
H 	H 	0.81300 0.43600 0.11420 0.16100
H 	H 	0.75700 0.40450 0.14550 0.15800
H 	H 	0.85760 0.38740 0.13420 0.15800
H 	H 	0.88730 0.58440 0.33560 -0.00400
H 	H 	0.82250 0.59270 0.27670 0.08100
H 	H 	0.09770 0.59530 0.24650 -0.00800
H 	H 	0.04240 0.60170 0.18610 0.10000
H 	H 	0.89060 0.62590 0.16670 0.06700
H 	H 	0.93030 0.57130 0.16090 0.06800
H 	H 	0.32390 0.40230 0.64930 0.12400
H 	H 	0.41250 0.44680 0.65240 -0.03700
H 	H 	0.46750 0.48650 0.58790 0.10600
H 	H 	0.42290 0.49000 0.52120 -0.00500
H 	H 	0.17770 0.44140 0.39160 0.11500
H 	H 	0.09900 0.42470 0.42330 0.12600
H 	H 	0.15990 0.37510 0.36030 -0.02100
H 	H 	0.17960 0.34570 0.40470 -0.01100
H 	H 	0.31710 0.35400 0.38280 0.12200
H 	H 	0.29790 0.38660 0.34020 0.12400
H 	H 	0.30310 0.29020 0.34720 -0.05400
H 	H 	0.28240 0.32280 0.30480 -0.05700
H 	H 	0.41920 0.33320 0.28540 0.19000
H 	H 	0.42240 0.27960 0.28260 0.18100
H 	H 	0.43950 0.29820 0.32640 0.18600
H 	H 	0.48930 0.42620 0.30740 0.12700
H 	H 	0.50440 0.42680 0.22920 -0.03400
H 	H 	0.39930 0.47420 0.19780 0.10900
H 	H 	0.27230 0.51580 0.24840 0.00100
H 	H 	0.03760 0.58400 0.50960 0.12700
H 	H 	0.01550 0.61130 0.46470 0.11800
H 	H 	0.04510 0.65940 0.51580 -0.02700
H 	H 	0.14050 0.62710 0.50330 -0.02000
H 	H 	0.16040 0.65000 0.42420 0.14500
H 	H 	0.06440 0.68080 0.43540 0.14300
H 	H 	0.09510 0.72950 0.48410 -0.08700
H 	H 	0.19200 0.70000 0.46840 -0.09000
H 	H 	0.14720 0.72820 0.39140 0.24000
H 	H 	0.21200 0.74460 0.41080 0.23600
H 	H 	0.11400 0.77230 0.42510 0.24000
H 	H 	0.37430 0.56730 0.34610 -0.01600
H 	H 	0.41560 0.63360 0.34280 0.08100
H 	H 	0.31980 0.56680 0.48180 -0.00500
H 	H 	0.35410 0.63650 0.48050 0.07900
H 	H 	0.39290 0.70860 0.38320 0.05300
H 	H 	0.37680 0.70670 0.43850 0.05600
H 	H 	0.89240 0.28500 0.69200 0.12400
H 	H 	0.98030 0.20970 0.68430 -0.02900
H 	H 	0.11860 0.19380 0.63640 0.10100
H 	H 	0.16860 0.25440 0.59780 0.01100
H 	H 	0.13690 0.49140 0.54540 0.11600
H 	H 	0.04520 0.52690 0.56430 0.12200
H 	H 	0.16540 0.49470 0.61890 -0.00200
H 	H 	0.07270 0.52820 0.63940 0.00100
H 	H 	0.10460 0.58810 0.59130 0.11700
H 	H 	0.19250 0.55480 0.56300 0.12900
H 	H 	0.15510 0.58190 0.65430 -0.03300
H 	H 	0.24470 0.55060 0.62380 -0.02700
H 	H 	0.24900 0.61420 0.56400 0.16100
H 	H 	0.16150 0.64550 0.59550 0.15700
H 	H 	0.24500 0.63420 0.61260 0.15800
H 	H 	0.47170 0.83560 0.41560 -0.00400
H 	H 	0.41520 0.77670 0.40730 0.08000
H 	H 	0.69300 0.74650 0.40470 -0.00800
H 	H 	0.64410 0.68610 0.39830 0.09900
H 	H 	0.51650 0.66670 0.37410 0.06600
H 	H 	0.50160 0.66090 0.42870 0.06800
H 	H 	0.87550 0.09770 0.85070 0.12400
H 	H 	0.01170 0.05320 0.84760 -0.03600
H 	H 	0.04190 0.01350 0.91210 0.10800
H 	H 	0.93410 0.01000 0.97880 -0.00500
H 	H 	0.51070 0.05860 0.10840 0.11500
H 	H 	0.44700 0.07530 0.07670 0.12600
H 	H 	0.39530 0.12490 0.13970 -0.02100
H 	H 	0.43000 0.15430 0.09530 -0.01100
H 	H 	0.55390 0.14600 0.11720 0.12200
H 	H 	0.52470 0.11340 0.15980 0.12400
H 	H 	0.44050 0.20980 0.15280 -0.05400
H 	H 	0.41000 0.17720 0.19520 -0.05700
H 	H 	0.53780 0.16680 0.21460 0.19000
H 	H 	0.48460 0.22040 0.21740 0.18100
H 	H 	0.56410 0.20180 0.17360 0.18600
H 	H 	0.72290 0.07380 0.19260 0.12700
H 	H 	0.66040 0.07320 0.27080 -0.03400
H 	H 	0.57130 0.02580 0.30220 0.10900
H 	H 	0.53650 0.98420 0.25160 0.00100
H 	H 	0.63120 0.91600 0.99040 0.12700
H 	H 	0.59150 0.88870 0.03530 0.11800
H 	H 	0.72030 0.84060 0.98420 -0.02700
H 	H 	0.77090 0.87290 0.99670 -0.02100
H 	H 	0.73460 0.85000 0.07580 0.14500
H 	H 	0.68060 0.81920 0.06460 0.14300
H 	H 	0.80870 0.77050 0.01590 -0.08700
H 	H 	0.86040 0.80000 0.03160 -0.09000
H 	H 	0.76680 0.77180 0.10860 0.24100
H 	H 	0.86740 0.75540 0.08920 0.23600
H 	H 	0.81140 0.72770 0.07490 0.24000
H 	H 	0.78770 0.93270 0.15390 -0.01700
H 	H 	0.89200 0.86640 0.15720 0.08300
H 	H 	0.86840 0.93320 0.01820 -0.00600
H 	H 	0.97110 0.86350 0.01950 0.08000
H 	H 	0.98470 0.79140 0.11680 0.05700
H 	H 	0.02200 0.79330 0.06150 0.06000
H 	H 	0.36940 0.21500 0.80800 0.12400
H 	H 	0.37430 0.29030 0.81570 -0.02800
H 	H 	0.44880 0.30620 0.86360 0.10000
H 	H 	0.52080 0.24560 0.90220 0.01100
H 	H 	0.67370 0.00860 0.95460 0.11600
H 	H 	0.63640 0.97310 0.93570 0.12200
H 	H 	0.77900 0.00530 0.88110 -0.00300
H 	H 	0.74030 0.97180 0.86060 0.00100
H 	H 	0.78400 0.91190 0.90870 0.11700
H 	H 	0.81030 0.94520 0.93700 0.12900
H 	H 	0.89130 0.91810 0.84570 -0.03300
H 	H 	0.91910 0.94940 0.87620 -0.02700
H 	H 	0.92720 0.88580 0.93600 0.16100
H 	H 	0.90250 0.85450 0.90450 0.15800
H 	H 	0.99180 0.86580 0.88740 0.15800
H 	H 	0.22290 0.66440 0.08440 -0.00300
H 	H 	0.09920 0.72330 0.09270 0.07900
H 	H 	0.34420 0.75350 0.09530 -0.00700
H 	H 	0.22850 0.81390 0.10170 0.09800
H 	H 	0.05730 0.83330 0.12590 0.06300
H 	H 	0.09120 0.83910 0.07130 0.06400
C 	C 	0.26070 0.91816 0.41804 0.30000
C 	C 	0.23593 0.87726 0.41948 -0.28100
C 	C 	0.15680 0.87550 0.44570 0.16100
C 	C 	0.10160 0.91320 0.47020 -0.22100
C 	C 	0.12535 0.95320 0.47150 0.14500
C 	C 	0.20569 0.95622 0.44560 -0.25700
C 	C 	0.22736 0.99857 0.45111 0.28100
C 	C 	0.39176 0.04779 0.41069 0.27000
C 	C 	0.42265 0.08813 0.41597 -0.35200
C 	C 	0.43674 0.11628 0.37164 0.14900
C 	C 	0.35510 0.14073 0.35967 -0.34400
C 	C 	0.36790 0.17190 0.31730 0.25200
C 	C 	0.28700 0.19650 0.30610 -0.59200
C 	C 	0.16004 0.17318 0.47014 0.30300
C 	C 	0.11110 0.20434 0.44446 -0.28600
C 	C 	0.10077 0.25081 0.44525 0.16000
C 	C 	0.13596 0.26951 0.47257 -0.21900
C 	C 	0.18570 0.23931 0.49769 0.14000
C 	C 	0.19787 0.19164 0.49702 -0.25000
C 	C 	0.25050 0.16284 0.52616 0.27000
C 	C 	0.30372 0.05078 0.56358 0.27800
C 	C 	0.33988 0.01974 0.59910 -0.35700
C 	C 	0.26980 0.00873 0.63967 0.16800
C 	C 	0.21680 0.05178 0.66962 -0.40800
C 	C 	0.14900 0.04170 0.71130 0.38100
C 	C 	0.10400 0.08190 0.74150 -0.75400
C 	C 	0.04848 0.12575 0.58109 0.09900
C 	C 	0.98512 0.12778 0.62118 -0.18900
C 	C 	0.08091 0.04734 0.58104 0.09500
C 	C 	0.01830 0.04790 0.62270 -0.17200
C 	C 	0.96990 0.08930 0.64370 0.12300
C 	C 	0.90140 0.09080 0.68940 -0.12700
C 	C 	0.70619 0.85008 0.31674 0.29100
C 	C 	0.77180 0.82724 0.27936 -0.26800
C 	C 	0.76471 0.83194 0.23424 0.13200
C 	C 	0.69217 0.86010 0.22476 -0.20100
C 	C 	0.62678 0.88282 0.26082 0.12800
C 	C 	0.63135 0.87828 0.30702 -0.23600
C 	C 	0.55677 0.90398 0.34368 0.26900
C 	C 	0.48532 0.90791 0.46145 0.27700
C 	C 	0.40957 0.92655 0.50151 -0.33200
C 	C 	0.36010 0.88910 0.51990 0.11200
C 	C 	0.28580 0.90560 0.56160 -0.32400
C 	C 	0.23250 0.87770 0.57490 0.18200
C 	C 	0.16380 0.90400 0.62200 -0.48700
C 	C 	0.68860 0.08830 0.80450 0.09000
C 	C 	0.75780 0.09210 0.76990 -0.17200
C 	C 	0.61211 0.09441 0.75277 0.12000
C 	C 	0.67643 0.09768 0.71666 -0.20900
C 	C 	0.75230 0.09520 0.72400 0.12700
C 	C 	0.83070 0.09590 0.68290 -0.14500
C 	C 	0.09690 0.58184 0.08196 0.30100
C 	C 	0.03267 0.62274 0.08052 -0.28200
C 	C 	0.97800 0.62450 0.05430 0.16200
C 	C 	0.98500 0.58680 0.02980 -0.22000
C 	C 	0.05005 0.54680 0.02850 0.14400
C 	C 	0.10751 0.54378 0.05440 -0.25800
C 	C 	0.17704 0.50143 0.04889 0.28200
C 	C 	0.35024 0.45221 0.08931 0.27000
C 	C 	0.42675 0.41187 0.08403 -0.35200
C 	C 	0.42466 0.38372 0.12836 0.14800
C 	C 	0.35550 0.35927 0.14033 -0.34400
C 	C 	0.35710 0.32810 0.18270 0.25200
C 	C 	0.28960 0.30350 0.19390 -0.59100
C 	C 	0.30336 0.32682 0.02986 0.30300
C 	C 	0.25990 0.29566 0.05554 -0.28600
C 	C 	0.29683 0.24919 0.05475 0.16000
C 	C 	0.37804 0.23049 0.02743 -0.21900
C 	C 	0.42270 0.26069 0.00231 0.14000
C 	C 	0.38653 0.30836 0.00298 -0.25000
C 	C 	0.43950 0.33716 0.97384 0.27000
C 	C 	0.41808 0.44922 0.93642 0.27800
C 	C 	0.45872 0.48026 0.90090 -0.35700
C 	C 	0.41820 0.49127 0.86033 0.16600
C 	C 	0.43820 0.44822 0.83038 -0.40700
C 	C 	0.40200 0.45830 0.78870 0.38000
C 	C 	0.42740 0.41810 0.75850 -0.75200
C 	C 	0.25532 0.37425 0.91891 0.09800
C 	C 	0.23408 0.37222 0.87882 -0.18800
C 	C 	0.20929 0.45266 0.91896 0.09500
C 	C 	0.18890 0.45210 0.87730 -0.17400
C 	C 	0.20290 0.41070 0.85630 0.12400
C 	C 	0.18160 0.40920 0.81060 -0.12800
C 	C 	0.37301 0.64992 0.18326 0.29100
C 	C 	0.37840 0.67276 0.22064 -0.26800
C 	C 	0.33089 0.66806 0.26576 0.13200
C 	C 	0.27703 0.63990 0.27524 -0.20100
C 	C 	0.27042 0.61718 0.23918 0.12800
C 	C 	0.31665 0.62172 0.19298 -0.23600
C 	C 	0.30443 0.59602 0.15632 0.26900
C 	C 	0.35468 0.59209 0.03855 0.27700
C 	C 	0.33763 0.57345 0.99849 -0.33100
C 	C 	0.26910 0.61090 0.98010 0.11300
C 	C 	0.25300 0.59440 0.93840 -0.32500
C 	C 	0.18510 0.62230 0.92510 0.18300
C 	C 	0.18980 0.59600 0.87800 -0.48700
C 	C 	0.08140 0.41170 0.69550 0.09000
C 	C 	0.11980 0.40790 0.73010 -0.17300
C 	C 	0.95929 0.40559 0.74723 0.12000
C 	C 	0.99077 0.40232 0.78334 -0.20900
C 	C 	0.07150 0.40480 0.77600 0.12700
C 	C 	0.10950 0.40410 0.81710 -0.14500
C 	C 	0.67874 0.58196 0.41816 0.30100
C 	C 	0.65541 0.58052 0.37726 -0.28100
C 	C 	0.60250 0.55430 0.37550 0.16100
C 	C 	0.57180 0.52980 0.41320 -0.22100
C 	C 	0.59685 0.52850 0.45320 0.14500
C 	C 	0.65129 0.55440 0.45622 -0.25800
C 	C 	0.67847 0.54889 0.49857 0.28200
C 	C 	0.80245 0.58931 0.54779 0.27000
C 	C 	0.83862 0.58403 0.58813 -0.35200
C 	C 	0.80838 0.62836 0.61628 0.14800
C 	C 	0.71477 0.64033 0.64073 -0.34400
C 	C 	0.68520 0.68270 0.67190 0.25200
C 	C 	0.59310 0.69390 0.69650 -0.59100
C 	C 	0.63018 0.52986 0.67318 0.30300
C 	C 	0.55556 0.55554 0.70434 -0.28600
C 	C 	0.54602 0.55475 0.75081 0.16000
C 	C 	0.60853 0.52743 0.76951 -0.21900
C 	C 	0.68339 0.50231 0.73931 0.14000
C 	C 	0.69489 0.50298 0.69164 -0.25000
C 	C 	0.77666 0.47384 0.66284 0.27000
C 	C 	0.86730 0.43642 0.55078 0.27800
C 	C 	0.93898 0.40090 0.51974 -0.35700
C 	C 	0.90947 0.36033 0.50873 0.16600
C 	C 	0.88642 0.33038 0.55178 -0.40600
C 	C 	0.86030 0.28870 0.54170 0.37900
C 	C 	0.84550 0.25850 0.58190 -0.75200
C 	C 	0.62957 0.41891 0.62575 0.09800
C 	C 	0.60630 0.37882 0.62778 -0.18900
C 	C 	0.66195 0.41896 0.54734 0.09500
C 	C 	0.64100 0.37730 0.54790 -0.17400
C 	C 	0.61360 0.35630 0.58930 0.12500
C 	C 	0.59080 0.31060 0.59080 -0.12900
C 	C 	0.02293 0.68326 0.35008 0.29100
C 	C 	0.05116 0.72064 0.32724 -0.27000
C 	C 	0.99895 0.76576 0.33194 0.13500
C 	C 	0.91693 0.77524 0.36010 -0.20300
C 	C 	0.88760 0.73918 0.38282 0.12900
C 	C 	0.93837 0.69298 0.37828 -0.23700
C 	C 	0.90045 0.65632 0.40398 0.26900
C 	C 	0.94677 0.53855 0.40791 0.27700
C 	C 	0.91108 0.49849 0.42655 -0.33200
C 	C 	0.88000 0.48010 0.38910 0.11300
C 	C 	0.84740 0.43840 0.40560 -0.32400
C 	C 	0.80740 0.42510 0.37770 0.18300
C 	C 	0.78580 0.37800 0.40400 -0.48700
C 	C 	0.49310 0.19550 0.58830 0.09000
C 	C 	0.52770 0.23010 0.59210 -0.17200
C 	C 	0.36488 0.24723 0.59441 0.12000
C 	C 	0.39309 0.28334 0.59768 -0.20800
C 	C 	0.47630 0.27600 0.59520 0.12600
C 	C 	0.51360 0.31710 0.59590 -0.14300
C 	C 	0.17886 0.91804 0.08184 0.30000
C 	C 	0.11319 0.91948 0.12274 -0.28000
C 	C 	0.03230 0.94570 0.12450 0.16000
C 	C 	0.01480 0.97020 0.08680 -0.22300
C 	C 	0.07855 0.97150 0.04680 0.14600
C 	C 	0.16191 0.94560 0.04378 -0.25800
C 	C 	0.22593 0.95111 0.00143 0.28100
C 	C 	0.43955 0.91069 0.95221 0.27000
C 	C 	0.51078 0.91597 0.91187 -0.35200
C 	C 	0.55302 0.87164 0.88372 0.14900
C 	C 	0.49583 0.85967 0.85927 -0.34400
C 	C 	0.53980 0.81730 0.82810 0.25200
C 	C 	0.48350 0.80610 0.80350 -0.59200
C 	C 	0.33322 0.97014 0.82682 0.30300
C 	C 	0.31544 0.94446 0.79566 -0.28600
C 	C 	0.35158 0.94525 0.74919 0.16000
C 	C 	0.40547 0.97257 0.73049 -0.21900
C 	C 	0.42501 0.99769 0.76069 0.14000
C 	C 	0.38951 0.99702 0.80836 -0.25000
C 	C 	0.41334 0.02616 0.83716 0.27000
C 	C 	0.35450 0.06358 0.94922 0.27800
C 	C 	0.35962 0.09910 0.98026 -0.35700
C 	C 	0.27853 0.13967 0.99127 0.16700
C 	C 	0.26858 0.16962 0.94822 -0.40700
C 	C 	0.19070 0.21130 0.95830 0.38000
C 	C 	0.18590 0.24150 0.91810 -0.75300
C 	C 	0.17423 0.08109 0.87425 0.10000
C 	C 	0.11290 0.12118 0.87222 -0.19300
C 	C 	0.12825 0.08104 0.95266 0.09700
C 	C 	0.06620 0.12270 0.95210 -0.17800
C 	C 	0.05920 0.14370 0.91070 0.13100
C 	C 	0.99220 0.18940 0.90920 -0.14300
C 	C 	0.55627 0.81674 0.14992 0.29100
C 	C 	0.59904 0.77936 0.17276 -0.26800
C 	C 	0.59665 0.73424 0.16806 0.13200
C 	C 	0.55227 0.72476 0.13990 -0.20100
C 	C 	0.50960 0.76082 0.11718 0.12800
C 	C 	0.50963 0.80702 0.12172 -0.23600
C 	C 	0.46075 0.84368 0.09602 0.26900
C 	C 	0.39323 0.96145 0.09209 0.27700
C 	C 	0.33612 0.00151 0.07345 -0.33100
C 	C 	0.24920 0.01990 0.11090 0.11400
C 	C 	0.19140 0.06160 0.09440 -0.32500
C 	C 	0.11020 0.07490 0.12230 0.18300
C 	C 	0.06780 0.12200 0.09600 -0.48700
C 	C 	0.77690 0.30450 0.91170 0.08800
C 	C 	0.84990 0.26990 0.90790 -0.16900
C 	C 	0.70652 0.25277 0.90559 0.11800
C 	C 	0.77411 0.21666 0.90232 -0.20500
C 	C 	0.84750 0.22400 0.90480 0.12100
C 	C 	0.92660 0.18290 0.90410 -0.13200
C 	C 	0.73930 0.08184 0.58196 0.30000
C 	C 	0.76407 0.12274 0.58052 -0.28100
C 	C 	0.84320 0.12450 0.55430 0.16100
C 	C 	0.89840 0.08680 0.52980 -0.22100
C 	C 	0.87465 0.04680 0.52850 0.14500
C 	C 	0.79431 0.04378 0.55440 -0.25700
C 	C 	0.77264 0.00143 0.54889 0.28100
C 	C 	0.60824 0.95221 0.58931 0.27000
C 	C 	0.57735 0.91187 0.58403 -0.35200
C 	C 	0.56326 0.88372 0.62836 0.14900
C 	C 	0.64490 0.85927 0.64033 -0.34400
C 	C 	0.63210 0.82810 0.68270 0.25200
C 	C 	0.71300 0.80350 0.69390 -0.59200
C 	C 	0.83996 0.82682 0.52986 0.30300
C 	C 	0.88890 0.79566 0.55554 -0.28600
C 	C 	0.89923 0.74919 0.55475 0.16000
C 	C 	0.86404 0.73049 0.52743 -0.21900
C 	C 	0.81430 0.76069 0.50231 0.14000
C 	C 	0.80213 0.80836 0.50298 -0.25000
C 	C 	0.74950 0.83716 0.47384 0.27000
C 	C 	0.69628 0.94922 0.43642 0.27800
C 	C 	0.66012 0.98026 0.40090 -0.35700
C 	C 	0.73020 0.99127 0.36033 0.16800
C 	C 	0.78320 0.94822 0.33038 -0.40800
C 	C 	0.85100 0.95830 0.28870 0.38100
C 	C 	0.89600 0.91810 0.25850 -0.75400
C 	C 	0.95152 0.87425 0.41891 0.09900
C 	C 	0.01488 0.87222 0.37882 -0.18900
C 	C 	0.91909 0.95266 0.41896 0.09500
C 	C 	0.98170 0.95210 0.37730 -0.17200
C 	C 	0.03010 0.91070 0.35630 0.12300
C 	C 	0.09860 0.90920 0.31060 -0.12700
C 	C 	0.29381 0.14992 0.68326 0.29100
C 	C 	0.22820 0.17276 0.72064 -0.26800
C 	C 	0.23529 0.16806 0.76576 0.13200
C 	C 	0.30783 0.13990 0.77524 -0.20100
C 	C 	0.37322 0.11718 0.73918 0.12800
C 	C 	0.36865 0.12172 0.69298 -0.23600
C 	C 	0.44323 0.09602 0.65632 0.26900
C 	C 	0.51468 0.09209 0.53855 0.27700
C 	C 	0.59043 0.07345 0.49849 -0.33200
C 	C 	0.63990 0.11090 0.48010 0.11200
C 	C 	0.71420 0.09440 0.43840 -0.32400
C 	C 	0.76750 0.12230 0.42510 0.18200
C 	C 	0.83620 0.09600 0.37800 -0.48700
C 	C 	0.31140 0.91170 0.19550 0.09000
C 	C 	0.24220 0.90790 0.23010 -0.17200
C 	C 	0.38789 0.90559 0.24723 0.12000
C 	C 	0.32357 0.90232 0.28334 -0.20900
C 	C 	0.24770 0.90480 0.27600 0.12700
C 	C 	0.16930 0.90410 0.31710 -0.14500
C 	C 	0.90310 0.41816 0.91804 0.30100
C 	C 	0.96733 0.37726 0.91948 -0.28200
C 	C 	0.02200 0.37550 0.94570 0.16200
C 	C 	0.01500 0.41320 0.97020 -0.22000
C 	C 	0.94995 0.45320 0.97150 0.14400
C 	C 	0.89249 0.45622 0.94560 -0.25800
C 	C 	0.82296 0.49857 0.95111 0.28200
C 	C 	0.64976 0.54779 0.91069 0.27000
C 	C 	0.57325 0.58813 0.91597 -0.35200
C 	C 	0.57534 0.61628 0.87164 0.14800
C 	C 	0.64450 0.64073 0.85967 -0.34400
C 	C 	0.64290 0.67190 0.81730 0.25200
C 	C 	0.71040 0.69650 0.80610 -0.59100
C 	C 	0.69664 0.67318 0.97014 0.30300
C 	C 	0.74010 0.70434 0.94446 -0.28600
C 	C 	0.70317 0.75081 0.94525 0.16000
C 	C 	0.62196 0.76951 0.97257 -0.21900
C 	C 	0.57730 0.73931 0.99769 0.14000
C 	C 	0.61347 0.69164 0.99702 -0.25000
C 	C 	0.56050 0.66284 0.02616 0.27000
C 	C 	0.58192 0.55078 0.06358 0.27800
C 	C 	0.54128 0.51974 0.09910 -0.35700
C 	C 	0.58180 0.50873 0.13967 0.16600
C 	C 	0.56180 0.55178 0.16962 -0.40700
C 	C 	0.59800 0.54170 0.21130 0.38000
C 	C 	0.57260 0.58190 0.24150 -0.75200
C 	C 	0.74468 0.62575 0.08109 0.09800
C 	C 	0.76592 0.62778 0.12118 -0.18800
C 	C 	0.79071 0.54734 0.08104 0.09500
C 	C 	0.81110 0.54790 0.12270 -0.17400
C 	C 	0.79710 0.58930 0.14370 0.12400
C 	C 	0.81840 0.59080 0.18940 -0.12800
C 	C 	0.62699 0.35008 0.81674 0.29100
C 	C 	0.62160 0.32724 0.77936 -0.26800
C 	C 	0.66911 0.33194 0.73424 0.13200
C 	C 	0.72297 0.36010 0.72476 -0.20100
C 	C 	0.72958 0.38282 0.76082 0.12800
C 	C 	0.68335 0.37828 0.80702 -0.23600
C 	C 	0.69557 0.40398 0.84368 0.26900
C 	C 	0.64532 0.40791 0.96145 0.27700
C 	C 	0.66237 0.42655 0.00151 -0.33100
C 	C 	0.73090 0.38910 0.01990 0.11300
C 	C 	0.74700 0.40560 0.06160 -0.32500
C 	C 	0.81490 0.37770 0.07490 0.18300
C 	C 	0.81020 0.40400 0.12200 -0.48700
C 	C 	0.91860 0.58830 0.30450 0.09000
C 	C 	0.88020 0.59210 0.26990 -0.17300
C 	C 	0.04071 0.59441 0.25277 0.12000
C 	C 	0.00923 0.59768 0.21666 -0.20900
C 	C 	0.92850 0.59520 0.22400 0.12700
C 	C 	0.89050 0.59590 0.18290 -0.14500
C 	C 	0.32126 0.41804 0.58184 0.30100
C 	C 	0.34459 0.41948 0.62274 -0.28100
C 	C 	0.39750 0.44570 0.62450 0.16100
C 	C 	0.42820 0.47020 0.58680 -0.22100
C 	C 	0.40315 0.47150 0.54680 0.14500
C 	C 	0.34871 0.44560 0.54378 -0.25800
C 	C 	0.32153 0.45111 0.50143 0.28200
C 	C 	0.19755 0.41069 0.45221 0.27000
C 	C 	0.16138 0.41597 0.41187 -0.35200
C 	C 	0.19162 0.37164 0.38372 0.14800
C 	C 	0.28523 0.35967 0.35927 -0.34400
C 	C 	0.31480 0.31730 0.32810 0.25200
C 	C 	0.40690 0.30610 0.30350 -0.59100
C 	C 	0.36982 0.47014 0.32682 0.30300
C 	C 	0.44444 0.44446 0.29566 -0.28600
C 	C 	0.45398 0.44525 0.24919 0.16000
C 	C 	0.39147 0.47257 0.23049 -0.21900
C 	C 	0.31661 0.49769 0.26069 0.14000
C 	C 	0.30511 0.49702 0.30836 -0.25000
C 	C 	0.22334 0.52616 0.33716 0.27000
C 	C 	0.13270 0.56358 0.44922 0.27800
C 	C 	0.06102 0.59910 0.48026 -0.35700
C 	C 	0.09053 0.63967 0.49127 0.16600
C 	C 	0.11358 0.66962 0.44822 -0.40600
C 	C 	0.13970 0.71130 0.45830 0.37900
C 	C 	0.15450 0.74150 0.41810 -0.75200
C 	C 	0.37043 0.58109 0.37425 0.09800
C 	C 	0.39370 0.62118 0.37222 -0.18900
C 	C 	0.33805 0.58104 0.45266 0.09500
C 	C 	0.35900 0.62270 0.45210 -0.17400
C 	C 	0.38640 0.64370 0.41070 0.12500
C 	C 	0.40920 0.68940 0.40920 -0.12900
C 	C 	0.97707 0.31674 0.64992 0.29100
C 	C 	0.94884 0.27936 0.67276 -0.27000
C 	C 	0.00105 0.23424 0.66806 0.13500
C 	C 	0.08307 0.22476 0.63990 -0.20300
C 	C 	0.11240 0.26082 0.61718 0.12900
C 	C 	0.06163 0.30702 0.62172 -0.23700
C 	C 	0.09955 0.34368 0.59602 0.26900
C 	C 	0.05323 0.46145 0.59209 0.27700
C 	C 	0.08892 0.50151 0.57345 -0.33200
C 	C 	0.12000 0.51990 0.61090 0.11300
C 	C 	0.15260 0.56160 0.59440 -0.32400
C 	C 	0.19260 0.57490 0.62230 0.18300
C 	C 	0.21420 0.62200 0.59600 -0.48700
C 	C 	0.50690 0.80450 0.41170 0.09000
C 	C 	0.47230 0.76990 0.40790 -0.17200
C 	C 	0.63512 0.75277 0.40559 0.12000
C 	C 	0.60691 0.71666 0.40232 -0.20800
C 	C 	0.52370 0.72400 0.40480 0.12600
C 	C 	0.48640 0.68290 0.40410 -0.14300
C 	C 	0.82114 0.08196 0.91816 0.30000
C 	C 	0.88681 0.08052 0.87726 -0.28000
C 	C 	0.96770 0.05430 0.87550 0.16000
C 	C 	0.98520 0.02980 0.91320 -0.22300
C 	C 	0.92145 0.02850 0.95320 0.14600
C 	C 	0.83809 0.05440 0.95622 -0.25800
C 	C 	0.77407 0.04889 0.99857 0.28100
C 	C 	0.56045 0.08931 0.04779 0.27000
C 	C 	0.48922 0.08403 0.08813 -0.35200
C 	C 	0.44698 0.12836 0.11628 0.14900
C 	C 	0.50417 0.14033 0.14073 -0.34400
C 	C 	0.46020 0.18270 0.17190 0.25200
C 	C 	0.51650 0.19390 0.19650 -0.59200
C 	C 	0.66678 0.02986 0.17318 0.30300
C 	C 	0.68456 0.05554 0.20434 -0.28600
C 	C 	0.64842 0.05475 0.25081 0.16000
C 	C 	0.59453 0.02743 0.26951 -0.21900
C 	C 	0.57499 0.00231 0.23931 0.14000
C 	C 	0.61049 0.00298 0.19164 -0.25000
C 	C 	0.58666 0.97384 0.16284 0.27000
C 	C 	0.64550 0.93642 0.05078 0.27800
C 	C 	0.64038 0.90090 0.01974 -0.35700
C 	C 	0.72147 0.86033 0.00873 0.16700
C 	C 	0.73142 0.83038 0.05178 -0.40700
C 	C 	0.80930 0.78870 0.04170 0.38000
C 	C 	0.81410 0.75850 0.08190 -0.75300
C 	C 	0.82577 0.91891 0.12575 0.10000
C 	C 	0.88710 0.87882 0.12778 -0.19300
C 	C 	0.87175 0.91896 0.04734 0.09700
C 	C 	0.93380 0.87730 0.04790 -0.17800
C 	C 	0.94080 0.85630 0.08930 0.13100
C 	C 	0.00780 0.81060 0.09080 -0.14300
C 	C 	0.44373 0.18326 0.85008 0.29100
C 	C 	0.40096 0.22064 0.82724 -0.26800
C 	C 	0.40335 0.26576 0.83194 0.13200
C 	C 	0.44773 0.27524 0.86010 -0.20100
C 	C 	0.49040 0.23918 0.88282 0.12800
C 	C 	0.49037 0.19298 0.87828 -0.23600
C 	C 	0.53925 0.15632 0.90398 0.26900
C 	C 	0.60677 0.03855 0.90791 0.27700
C 	C 	0.66388 0.99849 0.92655 -0.33100
C 	C 	0.75080 0.98010 0.88910 0.11400
C 	C 	0.80860 0.93840 0.90560 -0.32500
C 	C 	0.88980 0.92510 0.87770 0.18300
C 	C 	0.93220 0.87800 0.90400 -0.48700
C 	C 	0.22310 0.69550 0.08830 0.08800
C 	C 	0.15010 0.73010 0.09210 -0.16900
C 	C 	0.29348 0.74723 0.09441 0.11800
C 	C 	0.22589 0.78334 0.09768 -0.20500
C 	C 	0.15250 0.77600 0.09520 0.12100
C 	C 	0.07340 0.81710 0.09590 -0.13200
N 	N 	0.30369 0.00234 0.42768 -0.29700
N 	N 	0.31883 0.04418 0.43776 -0.24200
N 	N 	0.25687 0.11763 0.52883 -0.29000
N 	N 	0.30151 0.09443 0.56135 -0.24500
N 	N 	0.09693 0.08554 0.56060 -0.22800
N 	N 	0.55958 0.89857 0.38747 -0.28700
N 	N 	0.48377 0.92226 0.42000 -0.24200
N 	N 	0.61399 0.09001 0.79661 -0.23200
N 	N 	0.23371 0.49766 0.07232 -0.29800
N 	N 	0.30077 0.45582 0.06224 -0.24200
N 	N 	0.40333 0.38237 0.97117 -0.29000
N 	N 	0.45729 0.40557 0.93865 -0.24500
N 	N 	0.24307 0.41446 0.93940 -0.22800
N 	N 	0.34562 0.60143 0.11253 -0.28700
N 	N 	0.32603 0.57774 0.08000 -0.24200
N 	N 	0.00061 0.40999 0.70339 -0.23200
N 	N 	0.73137 0.57232 0.50234 -0.29800
N 	N 	0.75659 0.56224 0.54418 -0.24200
N 	N 	0.78570 0.47117 0.61763 -0.29000
N 	N 	0.86286 0.43865 0.59443 -0.24500
N 	N 	0.65753 0.43940 0.58554 -0.22900
N 	N 	0.94705 0.61253 0.39857 -0.28700
N 	N 	0.90377 0.58000 0.42226 -0.24200
N 	N 	0.41060 0.20339 0.59001 -0.23200
N 	N 	0.30603 0.92768 0.99766 -0.29700
N 	N 	0.36301 0.93776 0.95582 -0.24200
N 	N 	0.37450 0.02883 0.88237 -0.29000
N 	N 	0.39594 0.06135 0.90557 -0.24500
N 	N 	0.18247 0.06060 0.91446 -0.22900
N 	N 	0.45815 0.88747 0.10143 -0.28700
N 	N 	0.40603 0.92000 0.07774 -0.24200
N 	N 	0.70400 0.29661 0.90999 -0.23100
N 	N 	0.69631 0.99766 0.57232 -0.29700
N 	N 	0.68117 0.95582 0.56224 -0.24200
N 	N 	0.74313 0.88237 0.47117 -0.29000
N 	N 	0.69849 0.90557 0.43865 -0.24500
N 	N 	0.90307 0.91446 0.43940 -0.22800
N 	N 	0.44042 0.10143 0.61253 -0.28700
N 	N 	0.51623 0.07774 0.58000 -0.24200
N 	N 	0.38601 0.90999 0.20339 -0.23200
N 	N 	0.76629 0.50234 0.92768 -0.29800
N 	N 	0.69923 0.54418 0.93776 -0.24200
N 	N 	0.59667 0.61763 0.02883 -0.29000
N 	N 	0.54271 0.59443 0.06135 -0.24500
N 	N 	0.75693 0.58554 0.06060 -0.22800
N 	N 	0.65438 0.39857 0.88747 -0.28700
N 	N 	0.67397 0.42226 0.92000 -0.24200
N 	N 	0.99939 0.59001 0.29661 -0.23200
N 	N 	0.26863 0.42768 0.49766 -0.29800
N 	N 	0.24341 0.43776 0.45582 -0.24200
N 	N 	0.21430 0.52883 0.38237 -0.29000
N 	N 	0.13714 0.56135 0.40557 -0.24500
N 	N 	0.34247 0.56060 0.41446 -0.22900
N 	N 	0.05295 0.38747 0.60143 -0.28700
N 	N 	0.09623 0.42000 0.57774 -0.24200
N 	N 	0.58940 0.79661 0.40999 -0.23200
N 	N 	0.69397 0.07232 0.00234 -0.29700
N 	N 	0.63699 0.06224 0.04418 -0.24200
N 	N 	0.62550 0.97117 0.11763 -0.29000
N 	N 	0.60406 0.93865 0.09443 -0.24500
N 	N 	0.81753 0.93940 0.08554 -0.22900
N 	N 	0.54185 0.11253 0.89857 -0.28700
N 	N 	0.59397 0.08000 0.92226 -0.24200
N 	N 	0.29600 0.70339 0.09001 -0.23100
O 	O 	0.33754 0.91804 0.39068 -0.47800
O 	O 	0.17431 0.03034 0.47792 -0.41900
O 	O 	0.43876 0.01692 0.37936 -0.44700
O 	O 	0.16574 0.12849 0.46723 -0.47400
O 	O 	0.28460 0.18290 0.54818 -0.41600
O 	O 	0.27170 0.03256 0.53828 -0.44200
O 	O 	0.71930 0.84304 0.35836 -0.47400
O 	O 	0.49210 0.92986 0.33194 -0.42800
O 	O 	0.54736 0.87700 0.47108 -0.43700
O 	O 	0.14626 0.58196 0.10932 -0.47800
O 	O 	0.18257 0.46966 0.02208 -0.42000
O 	O 	0.33504 0.48308 0.12064 -0.44800
O 	O 	0.26146 0.37151 0.03277 -0.47400
O 	O 	0.51568 0.31710 0.95182 -0.41600
O 	O 	0.34254 0.46744 0.96172 -0.44200
O 	O 	0.42070 0.65696 0.14164 -0.47400
O 	O 	0.25390 0.57014 0.16806 -0.42800
O 	O 	0.39544 0.62300 0.02892 -0.43700
O 	O 	0.72822 0.60932 0.41804 -0.47800
O 	O 	0.65223 0.52208 0.53034 -0.42000
O 	O 	0.81812 0.62064 0.51692 -0.44700
O 	O 	0.63297 0.53277 0.62849 -0.47400
O 	O 	0.83278 0.45182 0.68290 -0.41600
O 	O 	0.80998 0.46172 0.53256 -0.44200
O 	O 	0.07766 0.64164 0.34304 -0.47400
O 	O 	0.82404 0.66806 0.42986 -0.42800
O 	O 	0.01844 0.52892 0.37700 -0.43700
O 	O 	0.25558 0.89068 0.08196 -0.47800
O 	O 	0.20465 0.97792 0.96966 -0.41900
O 	O 	0.45568 0.87936 0.98308 -0.44700
O 	O 	0.29423 0.96723 0.87151 -0.47400
O 	O 	0.46750 0.04818 0.81710 -0.41600
O 	O 	0.30426 0.03828 0.96744 -0.44200
O 	O 	0.56234 0.85836 0.15696 -0.47400
O 	O 	0.42196 0.83194 0.07014 -0.42800
O 	O 	0.42436 0.97108 0.12300 -0.43700
O 	O 	0.66246 0.08196 0.60932 -0.47800
O 	O 	0.82569 0.96966 0.52208 -0.41900
O 	O 	0.56124 0.98308 0.62064 -0.44700
O 	O 	0.83426 0.87151 0.53277 -0.47400
O 	O 	0.71540 0.81710 0.45182 -0.41600
O 	O 	0.72830 0.96744 0.46172 -0.44200
O 	O 	0.28070 0.15696 0.64164 -0.47400
O 	O 	0.50790 0.07014 0.66806 -0.42800
O 	O 	0.45264 0.12300 0.52892 -0.43700
O 	O 	0.85374 0.41804 0.89068 -0.47800
O 	O 	0.81743 0.53034 0.97792 -0.42000
O 	O 	0.66496 0.51692 0.87936 -0.44800
O 	O 	0.73854 0.62849 0.96723 -0.47400
O 	O 	0.48432 0.68290 0.04818 -0.41600
O 	O 	0.65746 0.53256 0.03828 -0.44200
O 	O 	0.57930 0.34304 0.85836 -0.47400
O 	O 	0.74610 0.42986 0.83194 -0.42800
O 	O 	0.60456 0.37700 0.97108 -0.43700
O 	O 	0.27178 0.39068 0.58196 -0.47800
O 	O 	0.34777 0.47792 0.46966 -0.42000
O 	O 	0.18188 0.37936 0.48308 -0.44700
O 	O 	0.36703 0.46723 0.37151 -0.47400
O 	O 	0.16722 0.54818 0.31710 -0.41600
O 	O 	0.19002 0.53828 0.46744 -0.44200
O 	O 	0.92234 0.35836 0.65696 -0.47400
O 	O 	0.17596 0.33194 0.57014 -0.42800
O 	O 	0.98156 0.47108 0.62300 -0.43700
O 	O 	0.74442 0.10932 0.91804 -0.47800
O 	O 	0.79535 0.02208 0.03034 -0.41900
O 	O 	0.54432 0.12064 0.01692 -0.44700
O 	O 	0.70577 0.03277 0.12849 -0.47400
O 	O 	0.53250 0.95182 0.18290 -0.41600
O 	O 	0.69574 0.96172 0.03256 -0.44200
O 	O 	0.43766 0.14164 0.84304 -0.47400
O 	O 	0.57804 0.16806 0.92986 -0.42800
O 	O 	0.57564 0.02892 0.87700 -0.43700
