data_crystal

_cell_length_a 17.49930
_cell_length_b 30.19700
_cell_length_c 30.19700
_cell_angle_alpha 85.18390
_cell_angle_beta  73.15680
_cell_angle_gamma 73.15680

_symmetry_space_group_name_	'P 1'
_symmetry_space_group_name_H-M	'P 1'

loop_
_symmetry_equiv_pos_as_xyz
  x,y,z

loop_
_atom_site_label
_atom_site_type_symbol
_atom_site_fract_x
_atom_site_fract_y
_atom_site_fract_z
_atom_site_charge
Mn	Mn	0.85265 0.88269 0.03466 1.31700
Mn	Mn	0.79844 0.00308 0.92026 1.33200
Mn	Mn	0.98910 0.91650 0.14254 1.33400
Mn	Mn	0.27001 0.61731 0.46533 1.31800
Mn	Mn	0.22178 0.49692 0.57974 1.33200
Mn	Mn	0.54814 0.58350 0.35746 1.33500
Mn	Mn	0.88731 0.96534 0.38269 1.31700
Mn	Mn	0.71870 0.07974 0.50308 1.33100
Mn	Mn	0.13164 0.85746 0.41650 1.33400
Mn	Mn	0.73534 0.53466 0.11732 1.31700
Mn	Mn	0.80152 0.42026 0.99692 1.33100
Mn	Mn	0.90560 0.64254 0.08350 1.33300
Mn	Mn	0.14735 0.11731 0.96533 1.31600
Mn	Mn	0.20156 0.99692 0.07974 1.33100
Mn	Mn	0.01090 0.08350 0.85746 1.33300
Mn	Mn	0.72999 0.38269 0.53467 1.31700
Mn	Mn	0.77822 0.50308 0.42026 1.33100
Mn	Mn	0.45186 0.41650 0.64254 1.33400
Mn	Mn	0.11269 0.03466 0.61731 1.31700
Mn	Mn	0.28130 0.92026 0.49692 1.33100
Mn	Mn	0.86836 0.14254 0.58350 1.33400
Mn	Mn	0.26465 0.46534 0.88269 1.31700
Mn	Mn	0.19848 0.57974 0.00308 1.33100
Mn	Mn	0.09440 0.35746 0.91650 1.33300
H 	H 	0.61420 0.90250 0.14190 0.12200
H 	H 	0.48250 0.94510 0.14110 -0.03100
H 	H 	0.45780 0.98870 0.07650 0.10600
H 	H 	0.56990 0.99210 0.01370 -0.00700
H 	H 	0.99150 0.94440 0.89400 0.10800
H 	H 	0.05110 0.92650 0.92710 0.12000
H 	H 	0.07150 0.84870 0.90550 -0.00300
H 	H 	0.10540 0.87900 0.86240 -0.01300
H 	H 	0.98190 0.88910 0.83990 0.11700
H 	H 	0.95020 0.85750 0.88230 0.11400
H 	H 	0.09300 0.82500 0.80580 -0.04300
H 	H 	0.06280 0.79330 0.84850 -0.04100
H 	H 	0.93700 0.80380 0.82720 0.17500
H 	H 	0.97190 0.83280 0.78300 0.17800
H 	H 	0.01700 0.77900 0.78700 0.17100
H 	H 	0.78870 0.92860 0.80580 0.12900
H 	H 	0.85260 0.92950 0.72710 -0.03400
H 	H 	0.94080 0.97600 0.69760 0.11300
H 	H 	0.97340 0.01680 0.74760 -0.00500
H 	H 	0.87700 0.08210 0.00890 0.12800
H 	H 	0.91740 0.10970 0.96490 0.12000
H 	H 	0.79280 0.15760 0.01660 -0.02600
H 	H 	0.74110 0.12740 0.00340 -0.02000
H 	H 	0.83110 0.18130 0.93830 0.13800
H 	H 	0.77790 0.15170 0.92570 0.13800
H 	H 	0.70740 0.23140 0.98520 -0.06900
H 	H 	0.65370 0.20150 0.97350 -0.07300
H 	H 	0.69750 0.22270 0.89510 0.21900
H 	H 	0.64060 0.26540 0.92860 0.21900
H 	H 	0.73920 0.25700 0.91100 0.22400
H 	H 	0.64530 0.07440 0.97860 -0.00400
H 	H 	0.54380 0.14300 0.97580 0.07800
H 	H 	0.61640 0.13240 0.83780 0.08000
H 	H 	0.71810 0.06600 0.84380 -0.01800
H 	H 	0.51630 0.20450 0.87350 0.06000
H 	H 	0.49960 0.21210 0.92770 0.05800
H 	H 	0.12060 0.78490 0.18910 0.12700
H 	H 	0.11480 0.71020 0.18080 -0.03000
H 	H 	0.03760 0.69590 0.13510 0.10300
H 	H 	0.96720 0.75690 0.09770 0.00700
H 	H 	0.82170 0.99410 0.04510 0.10800
H 	H 	0.85520 0.02920 0.06620 0.11600
H 	H 	0.74980 0.03020 0.13920 0.01100
H 	H 	0.71750 0.99360 0.11920 0.00700
H 	H 	0.70240 0.08880 0.08900 0.10900
H 	H 	0.68840 0.05290 0.05830 0.12200
H 	H 	0.59330 0.08150 0.14670 -0.02600
H 	H 	0.58040 0.04340 0.11760 -0.01900
H 	H 	0.58540 0.12660 0.06460 0.15700
H 	H 	0.50830 0.13620 0.11020 0.15400
H 	H 	0.51610 0.09960 0.07260 0.16000
H 	H 	0.16150 0.24720 0.90760 -0.00200
H 	H 	0.27680 0.18550 0.90650 0.09200
H 	H 	0.39900 0.27670 0.91730 0.08300
H 	H 	0.28100 0.33540 0.91760 -0.00800
H 	H 	0.43100 0.16090 0.88910 0.06900
H 	H 	0.41530 0.16740 0.94300 0.06600
H 	H 	0.15860 0.59750 0.35810 0.12200
H 	H 	0.06870 0.55490 0.35890 -0.03100
H 	H 	0.02300 0.51130 0.42350 0.10600
H 	H 	0.07570 0.50790 0.48630 -0.00700
H 	H 	0.32990 0.55560 0.60600 0.10800
H 	H 	0.40470 0.57350 0.57290 0.12000
H 	H 	0.32570 0.65130 0.59450 -0.00300
H 	H 	0.34680 0.62100 0.63760 -0.01300
H 	H 	0.21090 0.61090 0.66010 0.11700
H 	H 	0.19000 0.64250 0.61770 0.11400
H 	H 	0.22380 0.67500 0.69420 -0.04300
H 	H 	0.20460 0.70670 0.65150 -0.04100
H 	H 	0.06800 0.69620 0.67280 0.17500
H 	H 	0.08770 0.66720 0.71700 0.17800
H 	H 	0.08300 0.72100 0.71300 0.17100
H 	H 	0.02310 0.57140 0.69420 0.12900
H 	H 	0.00920 0.57050 0.77290 -0.03400
H 	H 	0.11440 0.52400 0.80240 0.11300
H 	H 	0.23780 0.48320 0.75240 -0.00500
H 	H 	0.46800 0.41790 0.49110 0.12800
H 	H 	0.49200 0.39030 0.53510 0.12000
H 	H 	0.46700 0.34240 0.48340 -0.02600
H 	H 	0.37190 0.37260 0.49660 -0.02000
H 	H 	0.45070 0.31870 0.56170 0.13800
H 	H 	0.35530 0.34830 0.57430 0.13800
H 	H 	0.42400 0.26860 0.51480 -0.06900
H 	H 	0.32870 0.29850 0.52650 -0.07300
H 	H 	0.31530 0.27730 0.60490 0.22000
H 	H 	0.33460 0.23460 0.57140 0.22000
H 	H 	0.40720 0.24300 0.58900 0.22400
H 	H 	0.19830 0.42560 0.52140 -0.00300
H 	H 	0.16260 0.35700 0.52420 0.07800
H 	H 	0.08660 0.36760 0.66220 0.07900
H 	H 	0.12790 0.43400 0.65620 -0.01800
H 	H 	0.09430 0.29550 0.62650 0.05900
H 	H 	0.13940 0.28790 0.57230 0.05700
H 	H 	0.59460 0.71510 0.31090 0.12700
H 	H 	0.50580 0.78980 0.31920 -0.03000
H 	H 	0.36860 0.80410 0.36490 0.10400
H 	H 	0.32180 0.74310 0.40230 0.00700
H 	H 	0.36090 0.50590 0.45490 0.11100
H 	H 	0.45060 0.47080 0.43380 0.11700
H 	H 	0.41920 0.46980 0.36080 0.01100
H 	H 	0.33030 0.50640 0.38080 0.00800
H 	H 	0.38020 0.41120 0.41100 0.10900
H 	H 	0.29960 0.44710 0.44170 0.12200
H 	H 	0.32150 0.41850 0.35330 -0.02600
H 	H 	0.24140 0.45660 0.38240 -0.01900
H 	H 	0.27660 0.37340 0.43540 0.15700
H 	H 	0.25470 0.36380 0.38980 0.15400
H 	H 	0.18830 0.40040 0.42740 0.15900
H 	H 	0.81630 0.25280 0.59240 -0.00200
H 	H 	0.86880 0.31450 0.59350 0.09200
H 	H 	0.09300 0.22330 0.58270 0.08500
H 	H 	0.03400 0.16460 0.58240 -0.01000
H 	H 	0.98100 0.33910 0.61090 0.07100
H 	H 	0.02570 0.33260 0.55700 0.06700
H 	H 	0.75610 0.85810 0.40250 0.12200
H 	H 	0.62360 0.85890 0.44510 -0.03100
H 	H 	0.53430 0.92350 0.48870 0.10600
H 	H 	0.58360 0.98630 0.49210 -0.00700
H 	H 	0.88550 0.10600 0.44440 0.10800
H 	H 	0.97820 0.07290 0.42650 0.12000
H 	H 	0.97700 0.09450 0.34870 -0.00300
H 	H 	0.96780 0.13760 0.37900 -0.01300
H 	H 	0.82180 0.16010 0.38910 0.11700
H 	H 	0.83250 0.11770 0.35750 0.11400
H 	H 	0.89880 0.19420 0.32500 -0.04300
H 	H 	0.91130 0.15150 0.29330 -0.04100
H 	H 	0.76420 0.17280 0.30380 0.17500
H 	H 	0.75490 0.21700 0.33280 0.17800
H 	H 	0.80400 0.21300 0.27900 0.17100
H 	H 	0.59450 0.19420 0.42860 0.12900
H 	H 	0.57970 0.27290 0.42950 -0.03400
H 	H 	0.63840 0.30240 0.47600 0.11300
H 	H 	0.72100 0.25240 0.51680 -0.00500
H 	H 	0.88590 0.99110 0.58210 0.12800
H 	H 	0.88230 0.03510 0.60970 0.12000
H 	H 	0.80940 0.98340 0.65760 -0.02600
H 	H 	0.74450 0.99660 0.62740 -0.02000
H 	H 	0.76940 0.06170 0.68130 0.13800
H 	H 	0.70360 0.07430 0.65170 0.13800
H 	H 	0.69260 0.01480 0.73140 -0.06900
H 	H 	0.62720 0.02650 0.70150 -0.07300
H 	H 	0.59260 0.10490 0.72270 0.22000
H 	H 	0.56920 0.07140 0.76540 0.22000
H 	H 	0.65020 0.08900 0.75700 0.22400
H 	H 	0.62390 0.02140 0.57440 -0.00300
H 	H 	0.51960 0.02420 0.64300 0.07800
H 	H 	0.45420 0.16220 0.63240 0.08000
H 	H 	0.56190 0.15620 0.56600 -0.01800
H 	H 	0.38980 0.12650 0.70450 0.06000
H 	H 	0.42730 0.07230 0.71210 0.05800
H 	H 	0.30970 0.81090 0.28490 0.12700
H 	H 	0.29560 0.81920 0.21020 -0.03100
H 	H 	0.17270 0.86490 0.19590 0.10400
H 	H 	0.06490 0.90230 0.25690 0.00700
H 	H 	0.86680 0.95490 0.49410 0.11100
H 	H 	0.92140 0.93380 0.52920 0.11700
H 	H 	0.88900 0.86080 0.53020 0.01100
H 	H 	0.83670 0.88080 0.49360 0.00800
H 	H 	0.79140 0.91100 0.58880 0.10900
H 	H 	0.74670 0.94170 0.55290 0.12200
H 	H 	0.74000 0.85330 0.58150 -0.02600
H 	H 	0.69800 0.88240 0.54340 -0.01900
H 	H 	0.65000 0.93540 0.62660 0.15700
H 	H 	0.61850 0.88980 0.63620 0.15400
H 	H 	0.58870 0.92740 0.59960 0.16000
H 	H 	0.06910 0.09240 0.74720 -0.00200
H 	H 	0.18330 0.09350 0.68550 0.09200
H 	H 	0.31630 0.08270 0.77670 0.08300
H 	H 	0.19860 0.08240 0.83540 -0.00800
H 	H 	0.32010 0.11090 0.66090 0.07000
H 	H 	0.35830 0.05700 0.66740 0.06600
H 	H 	0.51670 0.64190 0.09750 0.12200
H 	H 	0.42760 0.64110 0.05490 -0.03100
H 	H 	0.44650 0.57650 0.01130 0.10600
H 	H 	0.56200 0.51370 0.00790 -0.00700
H 	H 	0.93590 0.39400 0.05560 0.10800
H 	H 	0.97760 0.42710 0.07350 0.11900
H 	H 	0.92020 0.40550 0.15130 -0.00300
H 	H 	0.98440 0.36240 0.12100 -0.01300
H 	H 	0.87100 0.33990 0.11090 0.11700
H 	H 	0.80770 0.38230 0.14250 0.11400
H 	H 	0.91800 0.30580 0.17500 -0.04300
H 	H 	0.85610 0.34850 0.20670 -0.04100
H 	H 	0.74080 0.32720 0.19620 0.17500
H 	H 	0.80470 0.28300 0.16720 0.17800
H 	H 	0.79600 0.28700 0.22100 0.17100
H 	H 	0.71730 0.30580 0.07140 0.12900
H 	H 	0.78210 0.22710 0.07050 -0.03400
H 	H 	0.91680 0.19760 0.02400 0.11300
H 	H 	0.99020 0.24760 0.98320 -0.00500
H 	H 	0.95910 0.50890 0.91790 0.12800
H 	H 	0.02710 0.46490 0.89030 0.11900
H 	H 	0.95040 0.51660 0.84240 -0.02600
H 	H 	0.86850 0.50340 0.87260 -0.02000
H 	H 	0.01240 0.43830 0.81870 0.13700
H 	H 	0.92960 0.42570 0.84830 0.13700
H 	H 	0.93880 0.48520 0.76860 -0.06800
H 	H 	0.85520 0.47350 0.79850 -0.07300
H 	H 	0.92020 0.39510 0.77730 0.21900
H 	H 	0.90600 0.42860 0.73460 0.21900
H 	H 	0.99620 0.41100 0.74300 0.22400
H 	H 	0.71970 0.47860 0.92560 -0.00300
H 	H 	0.68680 0.47580 0.85700 0.07800
H 	H 	0.74880 0.33780 0.86760 0.08000
H 	H 	0.78410 0.34380 0.93400 -0.01800
H 	H 	0.72080 0.37350 0.79550 0.06000
H 	H 	0.71170 0.42770 0.78790 0.05800
H 	H 	0.90550 0.68910 0.21510 0.12700
H 	H 	0.82500 0.68080 0.28980 -0.03100
H 	H 	0.73350 0.63510 0.30410 0.10400
H 	H 	0.72410 0.59770 0.24310 0.00700
H 	H 	0.81580 0.54510 0.00590 0.11000
H 	H 	0.88440 0.56620 0.97080 0.11600
H 	H 	0.78000 0.63920 0.96980 0.01100
H 	H 	0.71110 0.61920 0.00640 0.00700
H 	H 	0.79120 0.58900 0.91120 0.10900
H 	H 	0.74130 0.55830 0.94710 0.12200
H 	H 	0.67480 0.64670 0.91850 -0.02600
H 	H 	0.62380 0.61760 0.95660 -0.01900
H 	H 	0.71200 0.56460 0.87340 0.15700
H 	H 	0.64450 0.61020 0.86380 0.15400
H 	H 	0.61570 0.57260 0.90040 0.15900
H 	H 	0.40870 0.40760 0.75280 -0.00200
H 	H 	0.46230 0.40650 0.81450 0.09200
H 	H 	0.67570 0.41730 0.72330 0.08300
H 	H 	0.61640 0.41760 0.66460 -0.00800
H 	H 	0.59190 0.38910 0.83910 0.07000
H 	H 	0.58270 0.44300 0.83260 0.06600
H 	H 	0.38580 0.09750 0.85810 0.12200
H 	H 	0.51750 0.05490 0.85890 -0.03100
H 	H 	0.54220 0.01130 0.92350 0.10600
H 	H 	0.43010 0.00790 0.98630 -0.00700
H 	H 	0.00850 0.05560 0.10600 0.10800
H 	H 	0.94890 0.07350 0.07290 0.12000
H 	H 	0.92850 0.15130 0.09450 -0.00300
H 	H 	0.89460 0.12100 0.13760 -0.01300
H 	H 	0.01810 0.11090 0.16010 0.11700
H 	H 	0.04980 0.14250 0.11770 0.11400
H 	H 	0.90700 0.17500 0.19420 -0.04300
H 	H 	0.93720 0.20670 0.15150 -0.04100
H 	H 	0.06300 0.19620 0.17280 0.17500
H 	H 	0.02810 0.16720 0.21700 0.17800
H 	H 	0.98300 0.22100 0.21300 0.17100
H 	H 	0.21130 0.07140 0.19420 0.12900
H 	H 	0.14740 0.07050 0.27290 -0.03400
H 	H 	0.05920 0.02400 0.30240 0.11300
H 	H 	0.02660 0.98320 0.25240 -0.00500
H 	H 	0.12300 0.91790 0.99110 0.12800
H 	H 	0.08260 0.89030 0.03510 0.12000
H 	H 	0.20720 0.84240 0.98340 -0.02600
H 	H 	0.25890 0.87260 0.99660 -0.02000
H 	H 	0.16890 0.81870 0.06170 0.13800
H 	H 	0.22210 0.84830 0.07430 0.13800
H 	H 	0.29260 0.76860 0.01480 -0.06900
H 	H 	0.34630 0.79850 0.02650 -0.07300
H 	H 	0.30250 0.77730 0.10490 0.21900
H 	H 	0.35940 0.73460 0.07140 0.21900
H 	H 	0.26080 0.74300 0.08900 0.22400
H 	H 	0.35470 0.92560 0.02140 -0.00400
H 	H 	0.45620 0.85700 0.02420 0.07800
H 	H 	0.38360 0.86760 0.16220 0.08000
H 	H 	0.28190 0.93400 0.15620 -0.01800
H 	H 	0.48370 0.79550 0.12650 0.06000
H 	H 	0.50040 0.78790 0.07230 0.05800
H 	H 	0.87940 0.21510 0.81090 0.12700
H 	H 	0.88520 0.28980 0.81920 -0.03000
H 	H 	0.96240 0.30410 0.86490 0.10300
H 	H 	0.03280 0.24310 0.90230 0.00700
H 	H 	0.17830 0.00590 0.95490 0.10800
H 	H 	0.14480 0.97080 0.93380 0.11600
H 	H 	0.25020 0.96980 0.86080 0.01100
H 	H 	0.28250 0.00640 0.88080 0.00700
H 	H 	0.29760 0.91120 0.91100 0.10900
H 	H 	0.31160 0.94710 0.94170 0.12200
H 	H 	0.40670 0.91850 0.85330 -0.02600
H 	H 	0.41960 0.95660 0.88240 -0.01900
H 	H 	0.41460 0.87340 0.93540 0.15700
H 	H 	0.49170 0.86380 0.88980 0.15400
H 	H 	0.48390 0.90040 0.92740 0.16000
H 	H 	0.83850 0.75280 0.09240 -0.00200
H 	H 	0.72320 0.81450 0.09350 0.09200
H 	H 	0.60100 0.72330 0.08270 0.08300
H 	H 	0.71900 0.66460 0.08240 -0.00800
H 	H 	0.56900 0.83910 0.11090 0.06900
H 	H 	0.58470 0.83260 0.05700 0.06600
H 	H 	0.84140 0.40250 0.64190 0.12200
H 	H 	0.93130 0.44510 0.64110 -0.03100
H 	H 	0.97700 0.48870 0.57650 0.10600
H 	H 	0.92430 0.49210 0.51370 -0.00700
H 	H 	0.67010 0.44440 0.39400 0.10800
H 	H 	0.59530 0.42650 0.42710 0.12000
H 	H 	0.67430 0.34870 0.40550 -0.00300
H 	H 	0.65320 0.37900 0.36240 -0.01300
H 	H 	0.78910 0.38910 0.33990 0.11700
H 	H 	0.81000 0.35750 0.38230 0.11400
H 	H 	0.77620 0.32500 0.30580 -0.04300
H 	H 	0.79540 0.29330 0.34850 -0.04100
H 	H 	0.93200 0.30380 0.32720 0.17500
H 	H 	0.91230 0.33280 0.28300 0.17800
H 	H 	0.91700 0.27900 0.28700 0.17100
H 	H 	0.97690 0.42860 0.30580 0.12900
H 	H 	0.99080 0.42950 0.22710 -0.03400
H 	H 	0.88560 0.47600 0.19760 0.11300
H 	H 	0.76220 0.51680 0.24760 -0.00500
H 	H 	0.53200 0.58210 0.50890 0.12800
H 	H 	0.50800 0.60970 0.46490 0.12000
H 	H 	0.53300 0.65760 0.51660 -0.02600
H 	H 	0.62810 0.62740 0.50340 -0.02000
H 	H 	0.54930 0.68130 0.43830 0.13800
H 	H 	0.64470 0.65170 0.42570 0.13800
H 	H 	0.57600 0.73140 0.48520 -0.06900
H 	H 	0.67130 0.70150 0.47350 -0.07300
H 	H 	0.68470 0.72270 0.39510 0.22000
H 	H 	0.66540 0.76540 0.42860 0.22000
H 	H 	0.59280 0.75700 0.41100 0.22400
H 	H 	0.80170 0.57440 0.47860 -0.00300
H 	H 	0.83740 0.64300 0.47580 0.07800
H 	H 	0.91340 0.63240 0.33780 0.07900
H 	H 	0.87210 0.56600 0.34380 -0.01800
H 	H 	0.90570 0.70450 0.37350 0.05900
H 	H 	0.86060 0.71210 0.42770 0.05700
H 	H 	0.40540 0.28490 0.68910 0.12700
H 	H 	0.49420 0.21020 0.68080 -0.03000
H 	H 	0.63140 0.19590 0.63510 0.10400
H 	H 	0.67820 0.25690 0.59770 0.00700
H 	H 	0.63910 0.49410 0.54510 0.11100
H 	H 	0.54940 0.52920 0.56620 0.11700
H 	H 	0.58080 0.53020 0.63920 0.01100
H 	H 	0.66970 0.49360 0.61920 0.00800
H 	H 	0.61980 0.58880 0.58900 0.10900
H 	H 	0.70040 0.55290 0.55830 0.12200
H 	H 	0.67850 0.58150 0.64670 -0.02600
H 	H 	0.75860 0.54340 0.61760 -0.01900
H 	H 	0.72340 0.62660 0.56460 0.15700
H 	H 	0.74530 0.63620 0.61020 0.15400
H 	H 	0.81170 0.59960 0.57260 0.15900
H 	H 	0.18370 0.74720 0.40760 -0.00200
H 	H 	0.13120 0.68550 0.40650 0.09200
H 	H 	0.90700 0.77670 0.41730 0.08500
H 	H 	0.96600 0.83540 0.41760 -0.01000
H 	H 	0.01900 0.66090 0.38910 0.07100
H 	H 	0.97430 0.66740 0.44300 0.06700
H 	H 	0.24390 0.14190 0.59750 0.12200
H 	H 	0.37640 0.14110 0.55490 -0.03100
H 	H 	0.46570 0.07650 0.51130 0.10600
H 	H 	0.41640 0.01370 0.50790 -0.00700
H 	H 	0.11450 0.89400 0.55560 0.10800
H 	H 	0.02180 0.92710 0.57350 0.12000
H 	H 	0.02300 0.90550 0.65130 -0.00300
H 	H 	0.03220 0.86240 0.62100 -0.01300
H 	H 	0.17820 0.83990 0.61090 0.11700
H 	H 	0.16750 0.88230 0.64250 0.11400
H 	H 	0.10120 0.80580 0.67500 -0.04300
H 	H 	0.08870 0.84850 0.70670 -0.04100
H 	H 	0.23580 0.82720 0.69620 0.17500
H 	H 	0.24510 0.78300 0.66720 0.17800
H 	H 	0.19600 0.78700 0.72100 0.17100
H 	H 	0.40550 0.80580 0.57140 0.12900
H 	H 	0.42030 0.72710 0.57050 -0.03400
H 	H 	0.36160 0.69760 0.52400 0.11300
H 	H 	0.27900 0.74760 0.48320 -0.00500
H 	H 	0.11410 0.00890 0.41790 0.12800
H 	H 	0.11770 0.96490 0.39030 0.12000
H 	H 	0.19060 0.01660 0.34240 -0.02600
H 	H 	0.25550 0.00340 0.37260 -0.02000
H 	H 	0.23060 0.93830 0.31870 0.13800
H 	H 	0.29640 0.92570 0.34830 0.13800
H 	H 	0.30740 0.98520 0.26860 -0.06900
H 	H 	0.37280 0.97350 0.29850 -0.07300
H 	H 	0.40740 0.89510 0.27730 0.22000
H 	H 	0.43080 0.92860 0.23460 0.22000
H 	H 	0.34980 0.91100 0.24300 0.22400
H 	H 	0.37610 0.97860 0.42560 -0.00300
H 	H 	0.48040 0.97580 0.35700 0.07800
H 	H 	0.54580 0.83780 0.36760 0.08000
H 	H 	0.43810 0.84380 0.43400 -0.01800
H 	H 	0.61020 0.87350 0.29550 0.06000
H 	H 	0.57270 0.92770 0.28790 0.05800
H 	H 	0.69030 0.18910 0.71510 0.12700
H 	H 	0.70440 0.18080 0.78980 -0.03100
H 	H 	0.82730 0.13510 0.80410 0.10400
H 	H 	0.93510 0.09770 0.74310 0.00700
H 	H 	0.13320 0.04510 0.50590 0.11100
H 	H 	0.07860 0.06620 0.47080 0.11700
H 	H 	0.11100 0.13920 0.46980 0.01100
H 	H 	0.16330 0.11920 0.50640 0.00800
H 	H 	0.20860 0.08900 0.41120 0.10900
H 	H 	0.25330 0.05830 0.44710 0.12200
H 	H 	0.26000 0.14670 0.41850 -0.02600
H 	H 	0.30200 0.11760 0.45660 -0.01900
H 	H 	0.35000 0.06460 0.37340 0.15700
H 	H 	0.38150 0.11020 0.36380 0.15400
H 	H 	0.41130 0.07260 0.40040 0.16000
H 	H 	0.93090 0.90760 0.25280 -0.00200
H 	H 	0.81670 0.90650 0.31450 0.09200
H 	H 	0.68370 0.91730 0.22330 0.08300
H 	H 	0.80140 0.91760 0.16460 -0.00800
H 	H 	0.67990 0.88910 0.33910 0.07000
H 	H 	0.64170 0.94300 0.33260 0.06600
H 	H 	0.48330 0.35810 0.90250 0.12200
H 	H 	0.57240 0.35890 0.94510 -0.03100
H 	H 	0.55350 0.42350 0.98870 0.10600
H 	H 	0.43800 0.48630 0.99210 -0.00700
H 	H 	0.06410 0.60600 0.94440 0.10800
H 	H 	0.02240 0.57290 0.92650 0.11900
H 	H 	0.07980 0.59450 0.84870 -0.00300
H 	H 	0.01560 0.63760 0.87900 -0.01300
H 	H 	0.12900 0.66010 0.88910 0.11700
H 	H 	0.19230 0.61770 0.85750 0.11400
H 	H 	0.08200 0.69420 0.82500 -0.04300
H 	H 	0.14390 0.65150 0.79330 -0.04100
H 	H 	0.25920 0.67280 0.80380 0.17500
H 	H 	0.19530 0.71700 0.83280 0.17800
H 	H 	0.20400 0.71300 0.77900 0.17100
H 	H 	0.28270 0.69420 0.92860 0.12900
H 	H 	0.21790 0.77290 0.92950 -0.03400
H 	H 	0.08320 0.80240 0.97600 0.11300
H 	H 	0.00980 0.75240 0.01680 -0.00500
H 	H 	0.04090 0.49110 0.08210 0.12800
H 	H 	0.97290 0.53510 0.10970 0.11900
H 	H 	0.04960 0.48340 0.15760 -0.02600
H 	H 	0.13150 0.49660 0.12740 -0.02000
H 	H 	0.98760 0.56170 0.18130 0.13700
H 	H 	0.07040 0.57430 0.15170 0.13700
H 	H 	0.06120 0.51480 0.23140 -0.06800
H 	H 	0.14480 0.52650 0.20150 -0.07300
H 	H 	0.07980 0.60490 0.22270 0.21900
H 	H 	0.09400 0.57140 0.26540 0.21900
H 	H 	0.00380 0.58900 0.25700 0.22400
H 	H 	0.28030 0.52140 0.07440 -0.00300
H 	H 	0.31320 0.52420 0.14300 0.07800
H 	H 	0.25120 0.66220 0.13240 0.08000
H 	H 	0.21590 0.65620 0.06600 -0.01800
H 	H 	0.27920 0.62650 0.20450 0.06000
H 	H 	0.28830 0.57230 0.21210 0.05800
H 	H 	0.09450 0.31090 0.78490 0.12700
H 	H 	0.17500 0.31920 0.71020 -0.03100
H 	H 	0.26650 0.36490 0.69590 0.10400
H 	H 	0.27590 0.40230 0.75690 0.00700
H 	H 	0.18420 0.45490 0.99410 0.11000
H 	H 	0.11560 0.43380 0.02920 0.11600
H 	H 	0.22000 0.36080 0.03020 0.01100
H 	H 	0.28890 0.38080 0.99360 0.00700
H 	H 	0.20880 0.41100 0.08880 0.10900
H 	H 	0.25870 0.44170 0.05290 0.12200
H 	H 	0.32520 0.35330 0.08150 -0.02600
H 	H 	0.37620 0.38240 0.04340 -0.01900
H 	H 	0.28800 0.43540 0.12660 0.15700
H 	H 	0.35550 0.38980 0.13620 0.15400
H 	H 	0.38430 0.42740 0.09960 0.15900
H 	H 	0.59130 0.59240 0.24720 -0.00200
H 	H 	0.53770 0.59350 0.18550 0.09200
H 	H 	0.32430 0.58270 0.27670 0.08300
H 	H 	0.38360 0.58240 0.33540 -0.00800
H 	H 	0.40810 0.61090 0.16090 0.07000
H 	H 	0.41730 0.55700 0.16740 0.06600
C 	C 	0.67458 0.91946 0.07618 0.29200
C 	C 	0.60588 0.92002 0.11522 -0.27500
C 	C 	0.52779 0.94551 0.11471 0.15300
C 	C 	0.51276 0.97198 0.07670 -0.21800
C 	C 	0.57934 0.97331 0.03941 0.14600
C 	C 	0.65984 0.94815 0.03817 -0.25300
C 	C 	0.72699 0.95390 0.99794 0.27400
C 	C 	0.93793 0.91317 0.95303 0.25700
C 	C 	0.01086 0.91852 0.91416 -0.32900
C 	C 	0.05449 0.87475 0.88507 0.12100
C 	C 	0.00033 0.86252 0.85942 -0.31300
C 	C 	0.04348 0.81987 0.82917 0.20400
C 	C 	0.98724 0.80777 0.80435 -0.55000
C 	C 	0.84183 0.97294 0.82500 0.30700
C 	C 	0.82598 0.94699 0.79425 -0.28800
C 	C 	0.86353 0.94767 0.74747 0.16400
C 	C 	0.91672 0.97450 0.73006 -0.23100
C 	C 	0.93499 0.99923 0.75979 0.15200
C 	C 	0.89882 0.99927 0.80729 -0.25700
C 	C 	0.92103 0.02730 0.83650 0.27700
C 	C 	0.86121 0.06475 0.94837 0.27800
C 	C 	0.86848 0.09824 0.98000 -0.36100
C 	C 	0.79045 0.13920 0.99170 0.16500
C 	C 	0.78100 0.17028 0.95032 -0.38200
C 	C 	0.70388 0.21250 0.96094 0.32200
C 	C 	0.69449 0.24187 0.92055 -0.69100
C 	C 	0.63970 0.08677 0.94943 0.09000
C 	C 	0.57897 0.12771 0.94795 -0.17400
C 	C 	0.56972 0.14622 0.90614 0.12300
C 	C 	0.62185 0.12163 0.86747 -0.18700
C 	C 	0.68161 0.08164 0.87134 0.10500
C 	C 	0.50202 0.19012 0.90444 -0.13900
C 	C 	0.04572 0.81742 0.14854 0.29800
C 	C 	0.08861 0.77976 0.17042 -0.27300
C 	C 	0.08532 0.73511 0.16545 0.13900
C 	C 	0.03991 0.72651 0.13847 -0.21000
C 	C 	0.99805 0.76293 0.11657 0.13700
C 	C 	0.99888 0.80874 0.12084 -0.24800
C 	C 	0.95215 0.84524 0.09586 0.27400
C 	C 	0.88641 0.96316 0.09162 0.26000
C 	C 	0.82957 0.00327 0.07379 -0.30600
C 	C 	0.74252 0.01974 0.11082 0.07500
C 	C 	0.68320 0.06080 0.09040 -0.29400
C 	C 	0.60050 0.07120 0.11500 0.16200
C 	C 	0.54720 0.11250 0.08790 -0.47800
C 	C 	0.21085 0.25321 0.90949 0.10100
C 	C 	0.27899 0.21616 0.90926 -0.18900
C 	C 	0.35036 0.22410 0.91318 0.12500
C 	C 	0.35051 0.26963 0.91555 -0.17800
C 	C 	0.28022 0.30436 0.91540 0.09900
C 	C 	0.42672 0.18312 0.91264 -0.14600
C 	C 	0.17022 0.58054 0.42382 0.29200
C 	C 	0.14112 0.57998 0.38478 -0.27400
C 	C 	0.08801 0.55449 0.38529 0.15200
C 	C 	0.06144 0.52802 0.42330 -0.21700
C 	C 	0.09206 0.52669 0.46059 0.14500
C 	C 	0.14616 0.55185 0.46183 -0.25100
C 	C 	0.17883 0.54610 0.50206 0.27200
C 	C 	0.30413 0.58683 0.54697 0.25700
C 	C 	0.34354 0.58148 0.58584 -0.32900
C 	C 	0.31431 0.62525 0.61493 0.12100
C 	C 	0.22227 0.63748 0.64058 -0.31300
C 	C 	0.19252 0.68013 0.67083 0.20400
C 	C 	0.09936 0.69223 0.69565 -0.55000
C 	C 	0.13977 0.52706 0.67500 0.30700
C 	C 	0.06722 0.55301 0.70575 -0.28900
C 	C 	0.05867 0.55233 0.75253 0.16400
C 	C 	0.12128 0.52550 0.76994 -0.23200
C 	C 	0.19401 0.50077 0.74021 0.15300
C 	C 	0.20538 0.50073 0.69271 -0.25700
C 	C 	0.28483 0.47270 0.66350 0.27700
C 	C 	0.37433 0.43525 0.55163 0.27800
C 	C 	0.44672 0.40176 0.52000 -0.36100
C 	C 	0.42135 0.36080 0.50830 0.16700
C 	C 	0.40160 0.32972 0.54968 -0.38200
C 	C 	0.37732 0.28750 0.53906 0.32300
C 	C 	0.35691 0.25813 0.57945 -0.69200
C 	C 	0.17590 0.41323 0.55057 0.08900
C 	C 	0.15463 0.37229 0.55205 -0.17300
C 	C 	0.12208 0.35378 0.59386 0.12200
C 	C 	0.11095 0.37837 0.63253 -0.18600
C 	C 	0.13459 0.41836 0.62866 0.10500
C 	C 	0.09658 0.30988 0.59556 -0.13500
C 	C 	0.51168 0.68258 0.35146 0.29700
C 	C 	0.53879 0.72024 0.32958 -0.27300
C 	C 	0.48588 0.76489 0.33455 0.14000
C 	C 	0.40489 0.77349 0.36153 -0.21100
C 	C 	0.37755 0.73707 0.38343 0.13800
C 	C 	0.42846 0.69126 0.37916 -0.24700
C 	C 	0.39325 0.65476 0.40414 0.27400
C 	C 	0.44119 0.53684 0.40838 0.26300
C 	C 	0.40663 0.49673 0.42621 -0.31100
C 	C 	0.37308 0.48026 0.38918 0.07500
C 	C 	0.33440 0.43920 0.40960 -0.29400
C 	C 	0.28670 0.42880 0.38500 0.16200
C 	C 	0.24760 0.38750 0.41210 -0.47800
C 	C 	0.87355 0.24679 0.59051 0.10200
C 	C 	0.90441 0.28384 0.59074 -0.19100
C 	C 	0.98764 0.27590 0.58682 0.12800
C 	C 	0.03569 0.23037 0.58445 -0.18100
C 	C 	0.99998 0.19564 0.58460 0.10200
C 	C 	0.02248 0.31688 0.58736 -0.15000
C 	C 	0.75076 0.92382 0.41946 0.29200
C 	C 	0.72110 0.88478 0.42002 -0.27400
C 	C 	0.64250 0.88529 0.44551 0.15300
C 	C 	0.58946 0.92330 0.47198 -0.21800
C 	C 	0.61875 0.96059 0.47331 0.14500
C 	C 	0.69801 0.96183 0.44815 -0.25200
C 	C 	0.72493 0.00206 0.45390 0.27300
C 	C 	0.89096 0.04697 0.41317 0.25700
C 	C 	0.92502 0.08584 0.41852 -0.32900
C 	C 	0.93956 0.11493 0.37475 0.12100
C 	C 	0.85975 0.14058 0.36252 -0.31300
C 	C 	0.87265 0.17083 0.31987 0.20400
C 	C 	0.79159 0.19565 0.30777 -0.55000
C 	C 	0.66683 0.17500 0.47294 0.30700
C 	C 	0.62023 0.20575 0.44699 -0.28900
C 	C 	0.61100 0.25253 0.44767 0.16400
C 	C 	0.64678 0.26994 0.47450 -0.23200
C 	C 	0.69478 0.24021 0.49923 0.15300
C 	C 	0.70611 0.19271 0.49927 -0.25700
C 	C 	0.75753 0.16350 0.52730 0.27700
C 	C 	0.80958 0.05163 0.56475 0.27800
C 	C 	0.84848 0.02000 0.59824 -0.36000
C 	C 	0.78215 0.00830 0.63920 0.16700
C 	C 	0.73132 0.04968 0.67028 -0.38300
C 	C 	0.66482 0.03906 0.71250 0.32300
C 	C 	0.61504 0.07945 0.74187 -0.69200
C 	C 	0.58913 0.05057 0.58677 0.09000
C 	C 	0.52692 0.05205 0.62771 -0.17300
C 	C 	0.47586 0.09386 0.64622 0.12300
C 	C 	0.48932 0.13253 0.62163 -0.18700
C 	C 	0.55295 0.12866 0.58164 0.10500
C 	C 	0.40646 0.09556 0.69012 -0.13900
C 	C 	0.19426 0.85146 0.31742 0.29700
C 	C 	0.25903 0.82958 0.27976 -0.27300
C 	C 	0.25077 0.83455 0.23511 0.14000
C 	C 	0.17838 0.86153 0.22651 -0.21100
C 	C 	0.11462 0.88343 0.26293 0.13800
C 	C 	0.11972 0.87916 0.30874 -0.24700
C 	C 	0.04801 0.90414 0.34524 0.27500
C 	C 	0.97803 0.90838 0.46316 0.26200
C 	C 	0.90336 0.92621 0.50327 -0.31100
C 	C 	0.85334 0.88918 0.51974 0.07500
C 	C 	0.77360 0.90960 0.56080 -0.29400
C 	C 	0.71550 0.88500 0.57120 0.16200
C 	C 	0.63510 0.91210 0.61250 -0.47800
C 	C 	0.12034 0.09051 0.75321 0.10100
C 	C 	0.18825 0.09074 0.71616 -0.18900
C 	C 	0.26354 0.08682 0.72410 0.12500
C 	C 	0.26606 0.08445 0.76963 -0.17800
C 	C 	0.19562 0.08460 0.80436 0.09900
C 	C 	0.33936 0.08736 0.68312 -0.14600
C 	C 	0.59404 0.57618 0.08054 0.29200
C 	C 	0.52590 0.61522 0.07998 -0.27400
C 	C 	0.47330 0.61471 0.05449 0.15200
C 	C 	0.48474 0.57670 0.02802 -0.21700
C 	C 	0.55265 0.53941 0.02669 0.14500
C 	C 	0.60799 0.53817 0.05185 -0.25100
C 	C 	0.68089 0.49794 0.04610 0.27200
C 	C 	0.85110 0.45303 0.08683 0.25700
C 	C 	0.92938 0.41416 0.08148 -0.32900
C 	C 	0.92924 0.38507 0.12525 0.12100
C 	C 	0.86285 0.35942 0.13748 -0.31300
C 	C 	0.86335 0.32917 0.18013 0.20400
C 	C 	0.79501 0.30435 0.19223 -0.55000
C 	C 	0.81477 0.32500 0.02706 0.30800
C 	C 	0.77297 0.29425 0.05301 -0.28900
C 	C 	0.81120 0.24747 0.05233 0.16400
C 	C 	0.89122 0.23006 0.02550 -0.23200
C 	C 	0.93422 0.25979 0.00077 0.15300
C 	C 	0.89809 0.30729 0.00073 -0.25800
C 	C 	0.94833 0.33650 0.97270 0.27800
C 	C 	0.92596 0.44837 0.93525 0.27700
C 	C 	0.96672 0.48000 0.90176 -0.35900
C 	C 	0.92965 0.49170 0.86080 0.16500
C 	C 	0.95128 0.45032 0.82972 -0.38000
C 	C 	0.91638 0.46094 0.78750 0.32200
C 	C 	0.93636 0.42055 0.75813 -0.69100
C 	C 	0.72647 0.44943 0.91323 0.09000
C 	C 	0.70668 0.44795 0.87229 -0.17300
C 	C 	0.71594 0.40614 0.85378 0.12300
C 	C 	0.74348 0.36747 0.87837 -0.18700
C 	C 	0.76325 0.37134 0.91836 0.10500
C 	C 	0.69214 0.40444 0.80988 -0.13900
C 	C 	0.86314 0.64854 0.18258 0.29700
C 	C 	0.86837 0.67042 0.22024 -0.27300
C 	C 	0.82043 0.66545 0.26489 0.13900
C 	C 	0.76642 0.63847 0.27349 -0.21100
C 	C 	0.76098 0.61657 0.23707 0.13800
C 	C 	0.80762 0.62084 0.19126 -0.24700
C 	C 	0.79739 0.59586 0.15476 0.27400
C 	C 	0.84957 0.59162 0.03684 0.26200
C 	C 	0.83284 0.57379 0.99673 -0.30900
C 	C 	0.76226 0.61082 0.98026 0.07500
C 	C 	0.74400 0.59040 0.93920 -0.29400
C 	C 	0.67170 0.61500 0.92880 0.16200
C 	C 	0.65970 0.58790 0.88750 -0.47800
C 	C 	0.46406 0.40949 0.74679 0.10100
C 	C 	0.49515 0.40926 0.78384 -0.18900
C 	C 	0.57446 0.41318 0.77590 0.12500
C 	C 	0.62014 0.41555 0.73037 -0.17800
C 	C 	0.58458 0.41540 0.69564 0.09900
C 	C 	0.60984 0.41264 0.81688 -0.14600
C 	C 	0.32542 0.08054 0.92382 0.29200
C 	C 	0.39412 0.07998 0.88478 -0.27500
C 	C 	0.47221 0.05449 0.88529 0.15300
C 	C 	0.48724 0.02802 0.92330 -0.21800
C 	C 	0.42066 0.02669 0.96059 0.14600
C 	C 	0.34016 0.05185 0.96183 -0.25300
C 	C 	0.27301 0.04610 0.00206 0.27400
C 	C 	0.06207 0.08683 0.04697 0.25700
C 	C 	0.98914 0.08148 0.08584 -0.32900
C 	C 	0.94551 0.12525 0.11493 0.12100
C 	C 	0.99967 0.13748 0.14058 -0.31300
C 	C 	0.95652 0.18013 0.17083 0.20400
C 	C 	0.01276 0.19223 0.19565 -0.55000
C 	C 	0.15817 0.02706 0.17500 0.30700
C 	C 	0.17402 0.05301 0.20575 -0.28800
C 	C 	0.13647 0.05233 0.25253 0.16400
C 	C 	0.08328 0.02550 0.26994 -0.23100
C 	C 	0.06501 0.00077 0.24021 0.15200
C 	C 	0.10118 0.00073 0.19271 -0.25700
C 	C 	0.07897 0.97270 0.16350 0.27700
C 	C 	0.13879 0.93525 0.05163 0.27800
C 	C 	0.13152 0.90176 0.02000 -0.36100
C 	C 	0.20955 0.86080 0.00830 0.16500
C 	C 	0.21900 0.82972 0.04968 -0.38200
C 	C 	0.29612 0.78750 0.03906 0.32200
C 	C 	0.30551 0.75813 0.07945 -0.69100
C 	C 	0.36030 0.91323 0.05057 0.09000
C 	C 	0.42103 0.87229 0.05205 -0.17400
C 	C 	0.43028 0.85378 0.09386 0.12300
C 	C 	0.37815 0.87837 0.13253 -0.18700
C 	C 	0.31839 0.91836 0.12866 0.10500
C 	C 	0.49798 0.80988 0.09556 -0.13900
C 	C 	0.95428 0.18258 0.85146 0.29800
C 	C 	0.91139 0.22024 0.82958 -0.27300
C 	C 	0.91468 0.26489 0.83455 0.13900
C 	C 	0.96009 0.27349 0.86153 -0.21000
C 	C 	0.00195 0.23707 0.88343 0.13700
C 	C 	0.00112 0.19126 0.87916 -0.24800
C 	C 	0.04785 0.15476 0.90414 0.27400
C 	C 	0.11359 0.03684 0.90838 0.26000
C 	C 	0.17043 0.99673 0.92621 -0.30600
C 	C 	0.25748 0.98026 0.88918 0.07500
C 	C 	0.31680 0.93920 0.90960 -0.29400
C 	C 	0.39950 0.92880 0.88500 0.16200
C 	C 	0.45280 0.88750 0.91210 -0.47800
C 	C 	0.78915 0.74679 0.09051 0.10100
C 	C 	0.72101 0.78384 0.09074 -0.18900
C 	C 	0.64964 0.77590 0.08682 0.12500
C 	C 	0.64949 0.73037 0.08445 -0.17800
C 	C 	0.71978 0.69564 0.08460 0.09900
C 	C 	0.57328 0.81688 0.08736 -0.14600
C 	C 	0.82978 0.41946 0.57618 0.29200
C 	C 	0.85888 0.42002 0.61522 -0.27400
C 	C 	0.91199 0.44551 0.61471 0.15200
C 	C 	0.93856 0.47198 0.57670 -0.21700
C 	C 	0.90794 0.47331 0.53941 0.14500
C 	C 	0.85384 0.44815 0.53817 -0.25100
C 	C 	0.82117 0.45390 0.49794 0.27200
C 	C 	0.69587 0.41317 0.45303 0.25700
C 	C 	0.65646 0.41852 0.41416 -0.32900
C 	C 	0.68569 0.37475 0.38507 0.12100
C 	C 	0.77773 0.36252 0.35942 -0.31300
C 	C 	0.80748 0.31987 0.32917 0.20400
C 	C 	0.90064 0.30777 0.30435 -0.55000
C 	C 	0.86023 0.47294 0.32500 0.30700
C 	C 	0.93278 0.44699 0.29425 -0.28900
C 	C 	0.94133 0.44767 0.24747 0.16400
C 	C 	0.87872 0.47450 0.23006 -0.23200
C 	C 	0.80599 0.49923 0.25979 0.15300
C 	C 	0.79462 0.49927 0.30729 -0.25700
C 	C 	0.71517 0.52730 0.33650 0.27700
C 	C 	0.62567 0.56475 0.44837 0.27800
C 	C 	0.55328 0.59824 0.48000 -0.36100
C 	C 	0.57865 0.63920 0.49170 0.16700
C 	C 	0.59840 0.67028 0.45032 -0.38200
C 	C 	0.62268 0.71250 0.46094 0.32300
C 	C 	0.64309 0.74187 0.42055 -0.69200
C 	C 	0.82410 0.58677 0.44943 0.08900
C 	C 	0.84537 0.62771 0.44795 -0.17300
C 	C 	0.87792 0.64622 0.40614 0.12200
C 	C 	0.88905 0.62163 0.36747 -0.18600
C 	C 	0.86541 0.58164 0.37134 0.10500
C 	C 	0.90342 0.69012 0.40444 -0.13500
C 	C 	0.48832 0.31742 0.64854 0.29700
C 	C 	0.46121 0.27976 0.67042 -0.27300
C 	C 	0.51412 0.23511 0.66545 0.14000
C 	C 	0.59511 0.22651 0.63847 -0.21100
C 	C 	0.62245 0.26293 0.61657 0.13800
C 	C 	0.57154 0.30874 0.62084 -0.24700
C 	C 	0.60675 0.34524 0.59586 0.27400
C 	C 	0.55881 0.46316 0.59162 0.26300
C 	C 	0.59337 0.50327 0.57379 -0.31100
C 	C 	0.62692 0.51974 0.61082 0.07500
C 	C 	0.66560 0.56080 0.59040 -0.29400
C 	C 	0.71330 0.57120 0.61500 0.16200
C 	C 	0.75240 0.61250 0.58790 -0.47800
C 	C 	0.12645 0.75321 0.40949 0.10200
C 	C 	0.09559 0.71616 0.40926 -0.19100
C 	C 	0.01236 0.72410 0.41318 0.12800
C 	C 	0.96431 0.76963 0.41555 -0.18100
C 	C 	0.00002 0.80436 0.41540 0.10200
C 	C 	0.97752 0.68312 0.41264 -0.15000
C 	C 	0.24924 0.07618 0.58054 0.29200
C 	C 	0.27890 0.11522 0.57998 -0.27400
C 	C 	0.35750 0.11471 0.55449 0.15300
C 	C 	0.41054 0.07670 0.52802 -0.21800
C 	C 	0.38125 0.03941 0.52669 0.14500
C 	C 	0.30199 0.03817 0.55185 -0.25200
C 	C 	0.27507 0.99794 0.54610 0.27300
C 	C 	0.10904 0.95303 0.58683 0.25700
C 	C 	0.07498 0.91416 0.58148 -0.32900
C 	C 	0.06044 0.88507 0.62525 0.12100
C 	C 	0.14025 0.85942 0.63748 -0.31300
C 	C 	0.12735 0.82917 0.68013 0.20400
C 	C 	0.20841 0.80435 0.69223 -0.55000
C 	C 	0.33317 0.82500 0.52706 0.30700
C 	C 	0.37977 0.79425 0.55301 -0.28900
C 	C 	0.38900 0.74747 0.55233 0.16400
C 	C 	0.35322 0.73006 0.52550 -0.23200
C 	C 	0.30522 0.75979 0.50077 0.15300
C 	C 	0.29389 0.80729 0.50073 -0.25700
C 	C 	0.24247 0.83650 0.47270 0.27700
C 	C 	0.19042 0.94837 0.43525 0.27800
C 	C 	0.15152 0.98000 0.40176 -0.36000
C 	C 	0.21785 0.99170 0.36080 0.16700
C 	C 	0.26868 0.95032 0.32972 -0.38300
C 	C 	0.33518 0.96094 0.28750 0.32300
C 	C 	0.38496 0.92055 0.25813 -0.69200
C 	C 	0.41087 0.94943 0.41323 0.09000
C 	C 	0.47308 0.94795 0.37229 -0.17300
C 	C 	0.52414 0.90614 0.35378 0.12300
C 	C 	0.51068 0.86747 0.37837 -0.18700
C 	C 	0.44705 0.87134 0.41836 0.10500
C 	C 	0.59354 0.90444 0.30988 -0.13900
C 	C 	0.80574 0.14854 0.68258 0.29700
C 	C 	0.74097 0.17042 0.72024 -0.27300
C 	C 	0.74923 0.16545 0.76489 0.14000
C 	C 	0.82162 0.13847 0.77349 -0.21100
C 	C 	0.88538 0.11657 0.73707 0.13800
C 	C 	0.88028 0.12084 0.69126 -0.24700
C 	C 	0.95199 0.09586 0.65476 0.27500
C 	C 	0.02197 0.09162 0.53684 0.26200
C 	C 	0.09664 0.07379 0.49673 -0.31100
C 	C 	0.14666 0.11082 0.48026 0.07500
C 	C 	0.22640 0.09040 0.43920 -0.29400
C 	C 	0.28450 0.11500 0.42880 0.16200
C 	C 	0.36490 0.08790 0.38750 -0.47800
C 	C 	0.87966 0.90949 0.24679 0.10100
C 	C 	0.81175 0.90926 0.28384 -0.18900
C 	C 	0.73646 0.91318 0.27590 0.12500
C 	C 	0.73394 0.91555 0.23037 -0.17800
C 	C 	0.80438 0.91540 0.19564 0.09900
C 	C 	0.66064 0.91264 0.31688 -0.14600
C 	C 	0.40596 0.42382 0.91946 0.29200
C 	C 	0.47410 0.38478 0.92002 -0.27400
C 	C 	0.52670 0.38529 0.94551 0.15200
C 	C 	0.51526 0.42330 0.97198 -0.21700
C 	C 	0.44735 0.46059 0.97331 0.14500
C 	C 	0.39201 0.46183 0.94815 -0.25100
C 	C 	0.31911 0.50206 0.95390 0.27200
C 	C 	0.14890 0.54697 0.91317 0.25700
C 	C 	0.07062 0.58584 0.91852 -0.32900
C 	C 	0.07076 0.61493 0.87475 0.12100
C 	C 	0.13715 0.64058 0.86252 -0.31300
C 	C 	0.13665 0.67083 0.81987 0.20400
C 	C 	0.20499 0.69565 0.80777 -0.55000
C 	C 	0.18523 0.67500 0.97294 0.30800
C 	C 	0.22703 0.70575 0.94699 -0.28900
C 	C 	0.18880 0.75253 0.94767 0.16400
C 	C 	0.10878 0.76994 0.97450 -0.23200
C 	C 	0.06578 0.74021 0.99923 0.15300
C 	C 	0.10191 0.69271 0.99927 -0.25800
C 	C 	0.05167 0.66350 0.02730 0.27800
C 	C 	0.07404 0.55163 0.06475 0.27700
C 	C 	0.03328 0.52000 0.09824 -0.35900
C 	C 	0.07035 0.50830 0.13920 0.16500
C 	C 	0.04872 0.54968 0.17028 -0.38000
C 	C 	0.08362 0.53906 0.21250 0.32200
C 	C 	0.06364 0.57945 0.24187 -0.69100
C 	C 	0.27353 0.55057 0.08677 0.09000
C 	C 	0.29332 0.55205 0.12771 -0.17300
C 	C 	0.28406 0.59386 0.14622 0.12300
C 	C 	0.25652 0.63253 0.12163 -0.18700
C 	C 	0.23675 0.62866 0.08164 0.10500
C 	C 	0.30786 0.59556 0.19012 -0.13900
C 	C 	0.13686 0.35146 0.81742 0.29700
C 	C 	0.13163 0.32958 0.77976 -0.27300
C 	C 	0.17957 0.33455 0.73511 0.13900
C 	C 	0.23358 0.36153 0.72651 -0.21100
C 	C 	0.23902 0.38343 0.76293 0.13800
C 	C 	0.19238 0.37916 0.80874 -0.24700
C 	C 	0.20261 0.40414 0.84524 0.27400
C 	C 	0.15043 0.40838 0.96316 0.26200
C 	C 	0.16716 0.42621 0.00327 -0.30900
C 	C 	0.23774 0.38918 0.01974 0.07500
C 	C 	0.25600 0.40960 0.06080 -0.29400
C 	C 	0.32830 0.38500 0.07120 0.16200
C 	C 	0.34030 0.41210 0.11250 -0.47800
C 	C 	0.53594 0.59051 0.25321 0.10100
C 	C 	0.50485 0.59074 0.21616 -0.18900
C 	C 	0.42554 0.58682 0.22410 0.12500
C 	C 	0.37986 0.58445 0.26963 -0.17800
C 	C 	0.41542 0.58460 0.30436 0.09900
C 	C 	0.39016 0.58736 0.18312 -0.14600
N 	N 	0.80490 0.93032 0.99524 -0.29400
N 	N 	0.86412 0.94035 0.95515 -0.23800
N 	N 	0.88258 0.03082 0.88112 -0.28700
N 	N 	0.90336 0.06196 0.90532 -0.24300
N 	N 	0.69084 0.06400 0.91102 -0.22800
N 	N 	0.94911 0.88875 0.10125 -0.28800
N 	N 	0.89810 0.92129 0.07759 -0.23600
N 	N 	0.21081 0.29680 0.91220 -0.22800
N 	N 	0.23046 0.56968 0.50476 -0.29400
N 	N 	0.25962 0.55965 0.54485 -0.23900
N 	N 	0.29452 0.46918 0.61888 -0.28800
N 	N 	0.37064 0.43804 0.59468 -0.24300
N 	N 	0.16586 0.43600 0.58898 -0.22800
N 	N 	0.43911 0.61125 0.39875 -0.28800
N 	N 	0.39698 0.57871 0.42241 -0.23600
N 	N 	0.91981 0.20320 0.58780 -0.22900
N 	N 	0.80014 0.00476 0.43032 -0.29400
N 	N 	0.81927 0.04485 0.44035 -0.23900
N 	N 	0.76370 0.11888 0.53082 -0.28800
N 	N 	0.80868 0.09468 0.56196 -0.24300
N 	N 	0.60186 0.08898 0.56400 -0.22800
N 	N 	0.05036 0.89875 0.38875 -0.28800
N 	N 	0.97569 0.92241 0.42129 -0.23600
N 	N 	0.12301 0.08780 0.79680 -0.22800
N 	N 	0.73522 0.49524 0.06968 -0.29400
N 	N 	0.80447 0.45515 0.05965 -0.23900
N 	N 	0.91340 0.38112 0.96918 -0.28800
N 	N 	0.96532 0.40532 0.93804 -0.24300
N 	N 	0.75484 0.41102 0.93600 -0.22800
N 	N 	0.83786 0.60125 0.11125 -0.28800
N 	N 	0.81939 0.57759 0.07871 -0.23600
N 	N 	0.50761 0.41220 0.70320 -0.22800
N 	N 	0.19510 0.06968 0.00476 -0.29400
N 	N 	0.13588 0.05965 0.04485 -0.23800
N 	N 	0.11742 0.96918 0.11888 -0.28700
N 	N 	0.09664 0.93804 0.09468 -0.24300
N 	N 	0.30916 0.93600 0.08898 -0.22800
N 	N 	0.05089 0.11125 0.89875 -0.28800
N 	N 	0.10190 0.07871 0.92241 -0.23600
N 	N 	0.78919 0.70320 0.08780 -0.22800
N 	N 	0.76954 0.43032 0.49524 -0.29400
N 	N 	0.74038 0.44035 0.45515 -0.23900
N 	N 	0.70548 0.53082 0.38112 -0.28800
N 	N 	0.62936 0.56196 0.40532 -0.24300
N 	N 	0.83414 0.56400 0.41102 -0.22800
N 	N 	0.56089 0.38875 0.60125 -0.28800
N 	N 	0.60302 0.42129 0.57759 -0.23600
N 	N 	0.08019 0.79680 0.41220 -0.22900
N 	N 	0.19986 0.99524 0.56968 -0.29400
N 	N 	0.18073 0.95515 0.55965 -0.23900
N 	N 	0.23630 0.88112 0.46918 -0.28800
N 	N 	0.19132 0.90532 0.43804 -0.24300
N 	N 	0.39814 0.91102 0.43600 -0.22800
N 	N 	0.94964 0.10125 0.61125 -0.28800
N 	N 	0.02431 0.07759 0.57871 -0.23600
N 	N 	0.87699 0.91220 0.20320 -0.22800
N 	N 	0.26478 0.50476 0.93032 -0.29400
N 	N 	0.19553 0.54485 0.94035 -0.23900
N 	N 	0.08660 0.61888 0.03082 -0.28800
N 	N 	0.03468 0.59468 0.06196 -0.24300
N 	N 	0.24516 0.58898 0.06400 -0.22800
N 	N 	0.16214 0.39875 0.88875 -0.28800
N 	N 	0.18061 0.42241 0.92129 -0.23600
N 	N 	0.49239 0.58780 0.29680 -0.22800
O 	O 	0.74890 0.89240 0.07824 -0.47700
O 	O 	0.70874 0.98231 0.96625 -0.41600
O 	O 	0.95143 0.88099 0.98403 -0.44300
O 	O 	0.80203 0.97066 0.86960 -0.47600
O 	O 	0.97572 0.04885 0.81771 -0.41600
O 	O 	0.80863 0.04077 0.96555 -0.44300
O 	O 	0.05160 0.85892 0.15586 -0.47600
O 	O 	0.91320 0.83421 0.06995 -0.42700
O 	O 	0.91816 0.97158 0.12266 -0.43400
O 	O 	0.21954 0.60760 0.42176 -0.47700
O 	O 	0.15730 0.51769 0.53375 -0.41600
O 	O 	0.31645 0.61901 0.51597 -0.44400
O 	O 	0.14229 0.52934 0.63040 -0.47600
O 	O 	0.34228 0.45115 0.68229 -0.41600
O 	O 	0.31495 0.45923 0.53445 -0.44300
O 	O 	0.56638 0.64108 0.34414 -0.47600
O 	O 	0.31736 0.66579 0.43005 -0.42600
O 	O 	0.51240 0.52842 0.37734 -0.43400
O 	O 	0.82714 0.92176 0.39240 -0.47700
O 	O 	0.67499 0.03375 0.48231 -0.41600
O 	O 	0.93546 0.01597 0.38099 -0.44300
O 	O 	0.67163 0.13040 0.47066 -0.47600
O 	O 	0.79343 0.18229 0.54885 -0.41600
O 	O 	0.77418 0.03445 0.54077 -0.44300
O 	O 	0.20746 0.84414 0.35892 -0.47600
O 	O 	0.98315 0.93005 0.33421 -0.42700
O 	O 	0.04082 0.87734 0.47158 -0.43300
O 	O 	0.64130 0.57824 0.10760 -0.47700
O 	O 	0.69105 0.46625 0.01769 -0.41600
O 	O 	0.83242 0.48403 0.11901 -0.44400
O 	O 	0.77269 0.36960 0.02934 -0.47600
O 	O 	0.02457 0.31771 0.95115 -0.41700
O 	O 	0.84940 0.46555 0.95923 -0.44300
O 	O 	0.91052 0.65586 0.14108 -0.47600
O 	O 	0.74741 0.56995 0.16579 -0.42600
O 	O 	0.88974 0.62266 0.02842 -0.43400
O 	O 	0.25110 0.10760 0.92176 -0.47700
O 	O 	0.29126 0.01769 0.03375 -0.41600
O 	O 	0.04857 0.11901 0.01597 -0.44300
O 	O 	0.19797 0.02934 0.13040 -0.47600
O 	O 	0.02428 0.95115 0.18229 -0.41600
O 	O 	0.19137 0.95923 0.03445 -0.44300
O 	O 	0.94840 0.14108 0.84414 -0.47600
O 	O 	0.08680 0.16579 0.93005 -0.42700
O 	O 	0.08184 0.02842 0.87734 -0.43400
O 	O 	0.78046 0.39240 0.57824 -0.47700
O 	O 	0.84270 0.48231 0.46625 -0.41600
O 	O 	0.68355 0.38099 0.48403 -0.44400
O 	O 	0.85771 0.47066 0.36960 -0.47600
O 	O 	0.65772 0.54885 0.31771 -0.41600
O 	O 	0.68505 0.54077 0.46555 -0.44300
O 	O 	0.43362 0.35892 0.65586 -0.47600
O 	O 	0.68264 0.33421 0.56995 -0.42600
O 	O 	0.48760 0.47158 0.62266 -0.43400
O 	O 	0.17286 0.07824 0.60760 -0.47700
O 	O 	0.32501 0.96625 0.51769 -0.41600
O 	O 	0.06454 0.98403 0.61901 -0.44300
O 	O 	0.32837 0.86960 0.52934 -0.47600
O 	O 	0.20657 0.81771 0.45115 -0.41600
O 	O 	0.22582 0.96555 0.45923 -0.44300
O 	O 	0.79254 0.15586 0.64108 -0.47600
O 	O 	0.01685 0.06995 0.66579 -0.42700
O 	O 	0.95918 0.12266 0.52842 -0.43300
O 	O 	0.35870 0.42176 0.89240 -0.47700
O 	O 	0.30895 0.53375 0.98231 -0.41600
O 	O 	0.16758 0.51597 0.88099 -0.44400
O 	O 	0.22731 0.63040 0.97066 -0.47600
O 	O 	0.97543 0.68229 0.04885 -0.41700
O 	O 	0.15060 0.53445 0.04077 -0.44300
O 	O 	0.08948 0.34414 0.85892 -0.47600
O 	O 	0.25259 0.43005 0.83421 -0.42600
O 	O 	0.11026 0.37734 0.97158 -0.43400
