data_crystal

_cell_length_a 19.73000
_cell_length_b 24.65000
_cell_length_c 24.65000
_cell_angle_alpha 120.00000
_cell_angle_beta  90.00000
_cell_angle_gamma 90.00000

_symmetry_space_group_name_	'P 1'
_symmetry_space_group_name_H-M	'P 1'

loop_
_symmetry_equiv_pos_as_xyz
  x,y,z

loop_
_atom_site_label
_atom_site_type_symbol
_atom_site_fract_x
_atom_site_fract_y
_atom_site_fract_z
_atom_site_charge
Co	Co	0.05471 0.80365 0.96371 1.20300
Co	Co	0.21144 0.78602 0.89534 1.20800
Co	Co	0.11496 0.66793 0.91136 1.16500
Co	Co	0.72137 0.16006 0.19635 1.20500
Co	Co	0.87810 0.10932 0.21398 1.20900
Co	Co	0.78162 0.24343 0.33207 1.16500
Co	Co	0.38804 0.03629 0.83994 1.20500
Co	Co	0.54477 0.10466 0.89068 1.20700
Co	Co	0.44829 0.08864 0.75657 1.16400
Co	Co	0.55471 0.19635 0.03629 1.20400
Co	Co	0.71144 0.21398 0.10466 1.20800
Co	Co	0.61496 0.33207 0.08864 1.16400
Co	Co	0.22137 0.83994 0.80365 1.20400
Co	Co	0.37810 0.89068 0.78602 1.20700
Co	Co	0.28162 0.75657 0.66793 1.16400
Co	Co	0.88804 0.96371 0.16006 1.20400
Co	Co	0.04477 0.89534 0.10932 1.20400
Co	Co	0.94829 0.91136 0.24343 1.16700
H 	H 	0.10920 0.74390 0.87120 0.23200
H 	H 	0.18670 0.98220 0.08160 0.29500
H 	H 	0.24930 0.94580 0.09020 0.29400
H 	H 	0.17950 0.95250 0.12610 0.30600
H 	H 	0.92610 0.90730 0.94910 0.29600
H 	H 	0.85890 0.87460 0.95570 0.29200
H 	H 	0.92620 0.83400 0.92620 0.31300
H 	H 	0.08200 0.71560 0.11080 0.29800
H 	H 	0.12800 0.68310 0.04910 0.29800
H 	H 	0.04930 0.66580 0.04510 0.29100
H 	H 	0.94890 0.57100 0.78940 0.02000
H 	H 	0.86300 0.52770 0.71630 0.06500
H 	H 	0.79410 0.70020 0.76580 0.06800
H 	H 	0.87970 0.74300 0.84030 0.00400
H 	H 	0.81870 0.50260 0.62210 0.06600
H 	H 	0.63310 0.52070 0.56350 0.06400
H 	H 	0.53230 0.56490 0.61720 0.06100
H 	H 	0.43880 0.62890 0.63960 0.01500
H 	H 	0.55780 0.78170 0.73630 0.01000
H 	H 	0.65220 0.71740 0.71460 0.06500
H 	H 	0.84250 0.44550 0.52620 0.06400
H 	H 	0.85920 0.35020 0.43380 -0.00500
H 	H 	0.66280 0.32640 0.40800 0.00400
H 	H 	0.64070 0.41970 0.49810 0.06400
H 	H 	0.77587 0.12730 0.25610 0.23400
H 	H 	0.85337 0.09940 0.01780 0.29800
H 	H 	0.91597 0.14440 0.05420 0.29900
H 	H 	0.84617 0.17360 0.04750 0.30800
H 	H 	0.59277 0.04180 0.09270 0.29300
H 	H 	0.52557 0.08110 0.12540 0.29100
H 	H 	0.59287 0.09220 0.16600 0.31000
H 	H 	0.74867 0.39520 0.28440 0.30200
H 	H 	0.79467 0.36600 0.31690 0.30100
H 	H 	0.71597 0.37930 0.33420 0.29500
H 	H 	0.61557 0.21840 0.42900 0.01900
H 	H 	0.52967 0.18860 0.47230 0.06400
H 	H 	0.46077 0.06560 0.29980 0.06700
H 	H 	0.54637 0.09730 0.25700 0.00400
H 	H 	0.48537 0.11950 0.49740 0.06500
H 	H 	0.29977 0.04280 0.47930 0.06400
H 	H 	0.19897 0.05230 0.43510 0.06000
H 	H 	0.10547 0.01070 0.37110 0.01300
H 	H 	0.22447 0.95460 0.21830 0.01000
H 	H 	0.31887 0.99720 0.28260 0.06500
H 	H 	0.50917 0.08070 0.55450 0.06300
H 	H 	0.52587 0.08360 0.64980 -0.00600
H 	H 	0.32947 0.08160 0.67360 0.00400
H 	H 	0.30737 0.07840 0.58030 0.06300
H 	H 	0.44253 0.12880 0.87270 0.23400
H 	H 	0.52003 0.91840 0.90060 0.29600
H 	H 	0.58263 0.90980 0.85560 0.29500
H 	H 	0.51283 0.87390 0.82640 0.30700
H 	H 	0.25943 0.05090 0.95820 0.29200
H 	H 	0.19223 0.04430 0.91890 0.29000
H 	H 	0.25953 0.07380 0.90780 0.31000
H 	H 	0.41533 0.88920 0.60480 0.30100
H 	H 	0.46133 0.95090 0.63400 0.30000
H 	H 	0.38263 0.95490 0.62070 0.29400
H 	H 	0.28223 0.21060 0.78160 0.01900
H 	H 	0.19633 0.28370 0.81140 0.06200
H 	H 	0.12743 0.23420 0.93440 0.06500
H 	H 	0.21303 0.15970 0.90270 0.00400
H 	H 	0.15203 0.37790 0.88050 0.06800
H 	H 	0.96643 0.43650 0.95720 0.08300
H 	H 	0.86563 0.38280 0.94770 0.05800
H 	H 	0.77213 0.36040 0.98930 0.01800
H 	H 	0.89113 0.26370 0.04540 0.01300
H 	H 	0.98553 0.28540 0.00280 0.06400
H 	H 	0.17583 0.47380 0.91930 0.06100
H 	H 	0.19253 0.56620 0.91640 -0.00600
H 	H 	0.99613 0.59200 0.91840 0.01500
H 	H 	0.97403 0.50190 0.92160 0.07200
H 	H 	0.60920 0.25610 0.12880 0.23400
H 	H 	0.68670 0.01780 0.91840 0.29600
H 	H 	0.74930 0.05420 0.90980 0.29600
H 	H 	0.67950 0.04750 0.87390 0.30700
H 	H 	0.42610 0.09270 0.05090 0.29300
H 	H 	0.35890 0.12540 0.04430 0.29100
H 	H 	0.42620 0.16600 0.07380 0.31000
H 	H 	0.58200 0.28440 0.88920 0.30100
H 	H 	0.62800 0.31690 0.95090 0.30000
H 	H 	0.54930 0.33420 0.95490 0.29500
H 	H 	0.44890 0.42900 0.21060 0.01900
H 	H 	0.36300 0.47230 0.28370 0.06400
H 	H 	0.29410 0.29980 0.23420 0.06700
H 	H 	0.37970 0.25700 0.15970 0.00400
H 	H 	0.31870 0.49740 0.37790 0.06500
H 	H 	0.13310 0.47930 0.43650 0.06300
H 	H 	0.03230 0.43510 0.38280 0.06300
H 	H 	0.93880 0.37110 0.36040 0.01200
H 	H 	0.05780 0.21830 0.26370 0.01200
H 	H 	0.15220 0.28260 0.28540 0.06300
H 	H 	0.34250 0.55450 0.47380 0.06300
H 	H 	0.35920 0.64980 0.56620 -0.00600
H 	H 	0.16280 0.67360 0.59200 0.00400
H 	H 	0.14070 0.58030 0.50190 0.06300
H 	H 	0.27587 0.87270 0.74390 0.23400
H 	H 	0.35337 0.90060 0.98220 0.29600
H 	H 	0.41597 0.85560 0.94580 0.29500
H 	H 	0.34617 0.82640 0.95250 0.30700
H 	H 	0.09277 0.95820 0.90730 0.29100
H 	H 	0.02557 0.91890 0.87460 0.28800
H 	H 	0.09287 0.90780 0.83400 0.30900
H 	H 	0.24867 0.60480 0.71560 0.30000
H 	H 	0.29467 0.63400 0.68310 0.30000
H 	H 	0.21597 0.62070 0.66580 0.29400
H 	H 	0.11557 0.78160 0.57100 0.01700
H 	H 	0.02967 0.81140 0.52770 0.06400
H 	H 	0.96077 0.93440 0.70020 0.06500
H 	H 	0.04637 0.90270 0.74300 0.00700
H 	H 	0.98537 0.88050 0.50260 0.06900
H 	H 	0.79977 0.95720 0.52070 0.06500
H 	H 	0.69897 0.94770 0.56490 0.06100
H 	H 	0.60547 0.98930 0.62890 0.01500
H 	H 	0.72447 0.04540 0.78170 0.01000
H 	H 	0.81887 0.00280 0.71740 0.06500
H 	H 	0.00917 0.91930 0.44550 0.05000
H 	H 	0.02587 0.91640 0.35020 -0.01600
H 	H 	0.82947 0.91840 0.32640 0.00500
H 	H 	0.80737 0.92160 0.41970 0.06300
H 	H 	0.94253 0.87120 0.12730 0.23400
H 	H 	0.02003 0.08160 0.09940 0.28700
H 	H 	0.08263 0.09020 0.14440 0.28900
H 	H 	0.01283 0.12610 0.17360 0.29700
H 	H 	0.75943 0.94910 0.04180 0.29300
H 	H 	0.69223 0.95570 0.08110 0.29100
H 	H 	0.75953 0.92620 0.09220 0.31100
H 	H 	0.91533 0.11080 0.39520 0.30400
H 	H 	0.96133 0.04910 0.36600 0.30500
H 	H 	0.88263 0.04510 0.37930 0.29700
H 	H 	0.78223 0.78940 0.21840 0.01900
H 	H 	0.69633 0.71630 0.18860 0.06400
H 	H 	0.62743 0.76580 0.06560 0.06700
H 	H 	0.71303 0.84030 0.09730 0.00400
H 	H 	0.65203 0.62210 0.11950 0.06500
H 	H 	0.46643 0.56350 0.04280 0.06400
H 	H 	0.36563 0.61720 0.05230 0.06000
H 	H 	0.27213 0.63960 0.01070 0.01500
H 	H 	0.39113 0.73630 0.95460 0.01000
H 	H 	0.48553 0.71460 0.99720 0.06400
H 	H 	0.67583 0.52620 0.08070 0.06300
H 	H 	0.69253 0.43380 0.08360 -0.00600
H 	H 	0.49613 0.40800 0.08160 0.00400
H 	H 	0.47403 0.49810 0.07840 0.06400
C 	C 	0.17518 0.88677 0.03269 0.65600
C 	C 	0.19982 0.94707 0.08741 -0.96100
C 	C 	0.93083 0.88940 0.02206 0.65000
C 	C 	0.90853 0.87508 0.95761 -0.95500
C 	C 	0.06575 0.75192 0.05248 0.64300
C 	C 	0.08281 0.69948 0.06553 -0.94700
C 	C 	0.98134 0.68989 0.86693 0.40300
C 	C 	0.92380 0.66134 0.82118 -0.14600
C 	C 	0.91772 0.59761 0.78450 0.05800
C 	C 	0.86703 0.57196 0.74082 -0.11800
C 	C 	0.82156 0.60959 0.73178 0.04600
C 	C 	0.82598 0.67354 0.76991 -0.11700
C 	C 	0.87696 0.69884 0.81420 0.05800
C 	C 	0.76781 0.58252 0.68292 0.07000
C 	C 	0.77803 0.52550 0.62813 -0.12000
C 	C 	0.72789 0.50260 0.58240 0.04800
C 	C 	0.66905 0.53635 0.59312 -0.12000
C 	C 	0.66293 0.59459 0.64878 0.06900
C 	C 	0.60198 0.63429 0.66238 0.03800
C 	C 	0.53766 0.60906 0.64128 -0.10900
C 	C 	0.48212 0.64694 0.65473 0.04400
C 	C 	0.48885 0.71221 0.69066 -0.13400
C 	C 	0.55266 0.73748 0.71210 0.04400
C 	C 	0.60897 0.69938 0.69890 -0.10600
C 	C 	0.42694 0.75382 0.70616 0.39300
C 	C 	0.73945 0.44303 0.52349 0.04300
C 	C 	0.80456 0.42159 0.50275 -0.11800
C 	C 	0.81428 0.36464 0.44723 0.04900
C 	C 	0.69986 0.35103 0.43239 0.05600
C 	C 	0.68627 0.40648 0.48631 -0.12200
C 	C 	0.84185 0.14592 0.11323 0.65900
C 	C 	0.86649 0.14034 0.05293 -0.96500
C 	C 	0.59750 0.13266 0.11060 0.64800
C 	C 	0.57520 0.08253 0.12492 -0.95100
C 	C 	0.73242 0.30056 0.24808 0.64700
C 	C 	0.74948 0.36605 0.30052 -0.95300
C 	C 	0.64801 0.17704 0.31011 0.39100
C 	C 	0.59047 0.15984 0.33866 -0.14300
C 	C 	0.58439 0.18689 0.40239 0.05400
C 	C 	0.53370 0.16886 0.42804 -0.11700
C 	C 	0.48823 0.12219 0.39041 0.04500
C 	C 	0.49265 0.09637 0.32646 -0.11500
C 	C 	0.54363 0.11536 0.30116 0.05500
C 	C 	0.43448 0.10040 0.41748 0.07000
C 	C 	0.44470 0.10263 0.47450 -0.12100
C 	C 	0.39456 0.07980 0.49740 0.04700
C 	C 	0.33572 0.05677 0.46365 -0.12000
C 	C 	0.32960 0.05419 0.40541 0.06900
C 	C 	0.26865 0.02809 0.36571 0.03800
C 	C 	0.20433 0.03222 0.39094 -0.11000
C 	C 	0.14879 0.00779 0.35306 0.04500
C 	C 	0.15552 0.97845 0.28779 -0.13600
C 	C 	0.21933 0.97462 0.26252 0.04500
C 	C 	0.27564 0.99952 0.30062 -0.10700
C 	C 	0.09361 0.95234 0.24618 0.39400
C 	C 	0.40612 0.08046 0.55697 0.04200
C 	C 	0.47123 0.08116 0.57841 -0.11800
C 	C 	0.48095 0.08259 0.63536 0.04800
C 	C 	0.36653 0.08136 0.64897 0.05500
C 	C 	0.35294 0.07983 0.59352 -0.12300
C 	C 	0.50851 0.96731 0.85408 0.65800
C 	C 	0.53315 0.91259 0.85966 -0.96200
C 	C 	0.26416 0.97794 0.86734 0.64700
C 	C 	0.24186 0.04239 0.91747 -0.95000
C 	C 	0.39908 0.94752 0.69944 0.64600
C 	C 	0.41614 0.93447 0.63395 -0.95100
C 	C 	0.31467 0.13307 0.82296 0.39000
C 	C 	0.25713 0.17882 0.84016 -0.14200
C 	C 	0.25105 0.21550 0.81311 0.05200
C 	C 	0.20036 0.25918 0.83114 -0.11500
C 	C 	0.15489 0.26822 0.87781 0.04100
C 	C 	0.15931 0.23009 0.90363 -0.11300
C 	C 	0.21029 0.18580 0.88464 0.05200
C 	C 	0.10114 0.31708 0.89960 0.07500
C 	C 	0.11136 0.37187 0.89737 -0.13100
C 	C 	0.06122 0.41760 0.92020 0.06200
C 	C 	0.00238 0.40688 0.94323 -0.16000
C 	C 	0.99626 0.35122 0.94581 0.09800
C 	C 	0.93531 0.33762 0.97191 0.02500
C 	C 	0.87099 0.35872 0.96778 -0.09900
C 	C 	0.81545 0.34527 0.99221 0.03700
C 	C 	0.82218 0.30934 0.02155 -0.12900
C 	C 	0.88599 0.28790 0.02538 0.03800
C 	C 	0.94230 0.30110 0.00048 -0.09600
C 	C 	0.76027 0.29384 0.04766 0.39100
C 	C 	0.07278 0.47651 0.91954 0.03700
C 	C 	0.13789 0.49725 0.91884 -0.11500
C 	C 	0.14761 0.55277 0.91741 0.04600
C 	C 	0.03319 0.56761 0.91864 0.04400
C 	C 	0.01960 0.51369 0.92017 -0.12900
C 	C 	0.67518 0.11323 0.96731 0.65800
C 	C 	0.69982 0.05293 0.91259 -0.96200
C 	C 	0.43083 0.11060 0.97794 0.64800
C 	C 	0.40853 0.12492 0.04239 -0.95200
C 	C 	0.56575 0.24808 0.94752 0.64700
C 	C 	0.58281 0.30052 0.93447 -0.95200
C 	C 	0.48134 0.31011 0.13307 0.39100
C 	C 	0.42380 0.33866 0.17882 -0.14300
C 	C 	0.41772 0.40239 0.21550 0.05400
C 	C 	0.36703 0.42804 0.25918 -0.11700
C 	C 	0.32156 0.39041 0.26822 0.04400
C 	C 	0.32598 0.32646 0.23009 -0.11500
C 	C 	0.37696 0.30116 0.18580 0.05400
C 	C 	0.26781 0.41748 0.31708 0.06900
C 	C 	0.27803 0.47450 0.37187 -0.12000
C 	C 	0.22789 0.49740 0.41760 0.04700
C 	C 	0.16905 0.46365 0.40688 -0.11900
C 	C 	0.16293 0.40541 0.35122 0.06700
C 	C 	0.10198 0.36571 0.33762 0.04000
C 	C 	0.03766 0.39094 0.35872 -0.12600
C 	C 	0.98212 0.35306 0.34527 0.05800
C 	C 	0.98885 0.28779 0.30934 -0.12500
C 	C 	0.05266 0.26252 0.28790 0.03000
C 	C 	0.10897 0.30062 0.30110 -0.10400
C 	C 	0.92694 0.24618 0.29384 0.39100
C 	C 	0.23945 0.55697 0.47651 0.04200
C 	C 	0.30456 0.57841 0.49725 -0.11800
C 	C 	0.31428 0.63536 0.55277 0.04800
C 	C 	0.19986 0.64897 0.56761 0.05500
C 	C 	0.18627 0.59352 0.51369 -0.12300
C 	C 	0.34185 0.85408 0.88677 0.65800
C 	C 	0.36649 0.85966 0.94707 -0.96200
C 	C 	0.09750 0.86734 0.88940 0.64700
C 	C 	0.07520 0.91747 0.87508 -0.94800
C 	C 	0.23242 0.69944 0.75192 0.64600
C 	C 	0.24948 0.63395 0.69948 -0.95000
C 	C 	0.14801 0.82296 0.68989 0.38900
C 	C 	0.09047 0.84016 0.66134 -0.14100
C 	C 	0.08439 0.81311 0.59761 0.05600
C 	C 	0.03370 0.83114 0.57196 -0.12900
C 	C 	0.98823 0.87781 0.60959 0.05200
C 	C 	0.99265 0.90363 0.67354 -0.10200
C 	C 	0.04363 0.88464 0.69884 0.04000
C 	C 	0.93448 0.89960 0.58252 0.07100
C 	C 	0.94470 0.89737 0.52550 -0.12100
C 	C 	0.89456 0.92020 0.50260 0.05200
C 	C 	0.83572 0.94323 0.53635 -0.12200
C 	C 	0.82960 0.94581 0.59459 0.07100
C 	C 	0.76865 0.97191 0.63429 0.03700
C 	C 	0.70433 0.96778 0.60906 -0.10800
C 	C 	0.64879 0.99221 0.64694 0.04300
C 	C 	0.65552 0.02155 0.71221 -0.13400
C 	C 	0.71933 0.02538 0.73748 0.04400
C 	C 	0.77564 0.00048 0.69938 -0.10500
C 	C 	0.59361 0.04766 0.75382 0.39300
C 	C 	0.90612 0.91954 0.44303 0.03700
C 	C 	0.97123 0.91884 0.42159 -0.10300
C 	C 	0.98095 0.91741 0.36464 0.05900
C 	C 	0.86653 0.91864 0.35103 0.05400
C 	C 	0.85294 0.92017 0.40648 -0.11900
C 	C 	0.00851 0.03269 0.14592 0.63800
C 	C 	0.03315 0.08741 0.14034 -0.94300
C 	C 	0.76416 0.02206 0.13266 0.64900
C 	C 	0.74186 0.95761 0.08253 -0.95200
C 	C 	0.89908 0.05248 0.30056 0.65000
C 	C 	0.91614 0.06553 0.36605 -0.95700
C 	C 	0.81467 0.86693 0.17704 0.39100
C 	C 	0.75713 0.82118 0.15984 -0.14300
C 	C 	0.75105 0.78450 0.18689 0.05400
C 	C 	0.70036 0.74082 0.16886 -0.11700
C 	C 	0.65489 0.73178 0.12219 0.04500
C 	C 	0.65931 0.76991 0.09637 -0.11500
C 	C 	0.71029 0.81420 0.11536 0.05500
C 	C 	0.60114 0.68292 0.10040 0.07000
C 	C 	0.61136 0.62813 0.10263 -0.12100
C 	C 	0.56122 0.58240 0.07980 0.04800
C 	C 	0.50238 0.59312 0.05677 -0.12000
C 	C 	0.49626 0.64878 0.05419 0.07000
C 	C 	0.43531 0.66238 0.02809 0.03600
C 	C 	0.37099 0.64128 0.03222 -0.10800
C 	C 	0.31545 0.65473 0.00779 0.04200
C 	C 	0.32218 0.69066 0.97845 -0.13300
C 	C 	0.38599 0.71210 0.97462 0.04300
C 	C 	0.44230 0.69890 0.99952 -0.10500
C 	C 	0.26027 0.70616 0.95234 0.39300
C 	C 	0.57278 0.52349 0.08046 0.04200
C 	C 	0.63789 0.50275 0.08116 -0.11800
C 	C 	0.64761 0.44723 0.08259 0.04800
C 	C 	0.53319 0.43239 0.08136 0.05500
C 	C 	0.51960 0.48631 0.07983 -0.12200
N 	N 	0.71148 0.61633 0.69306 -0.13200
N 	N 	0.76253 0.33013 0.41270 -0.23900
N 	N 	0.37815 0.07673 0.38367 -0.13200
N 	N 	0.42920 0.08257 0.66987 -0.23900
N 	N 	0.04481 0.30694 0.92327 -0.14300
N 	N 	0.09586 0.58730 0.91743 -0.23700
N 	N 	0.21148 0.38367 0.30694 -0.13200
N 	N 	0.26253 0.66987 0.58730 -0.23900
N 	N 	0.87815 0.92327 0.61633 -0.13200
N 	N 	0.92920 0.91743 0.33013 -0.23900
N 	N 	0.54481 0.69306 0.07673 -0.13200
N 	N 	0.59586 0.41270 0.08257 -0.23900
O 	O 	0.12669 0.74566 0.90362 -0.75800
O 	O 	0.21006 0.86276 0.98412 -0.52600
O 	O 	0.11892 0.86507 0.03862 -0.60200
O 	O 	0.98330 0.86240 0.02776 -0.60600
O 	O 	0.89585 0.92833 0.06658 -0.53100
O 	O 	0.05362 0.80470 0.09825 -0.51800
O 	O 	0.06570 0.73913 0.99634 -0.60300
O 	O 	0.02427 0.65140 0.86636 -0.46600
O 	O 	0.98225 0.74792 0.90081 -0.45700
O 	O 	0.37143 0.72685 0.68416 -0.46200
O 	O 	0.43766 0.81151 0.73728 -0.43800
O 	O 	0.79336 0.15796 0.25434 -0.75800
O 	O 	0.87673 0.12136 0.13724 -0.52500
O 	O 	0.78559 0.17355 0.13493 -0.60100
O 	O 	0.64997 0.16536 0.13760 -0.61200
O 	O 	0.56252 0.13825 0.07167 -0.53200
O 	O 	0.72029 0.29355 0.19530 -0.51600
O 	O 	0.73237 0.25721 0.26087 -0.60300
O 	O 	0.69094 0.21496 0.34860 -0.45600
O 	O 	0.64892 0.15289 0.25208 -0.45800
O 	O 	0.03810 0.95731 0.27315 -0.46800
O 	O 	0.10433 0.92577 0.18849 -0.44000
O 	O 	0.46002 0.09638 0.84204 -0.75800
O 	O 	0.54339 0.01588 0.87864 -0.52700
O 	O 	0.45225 0.96138 0.82645 -0.60100
O 	O 	0.31663 0.97224 0.83464 -0.61200
O 	O 	0.22918 0.93342 0.86175 -0.53200
O 	O 	0.38695 0.90175 0.70645 -0.51600
O 	O 	0.39903 0.00366 0.74279 -0.60300
O 	O 	0.35760 0.13364 0.78504 -0.45600
O 	O 	0.31558 0.09919 0.84711 -0.45800
O 	O 	0.70476 0.31584 0.04269 -0.46100
O 	O 	0.77099 0.26272 0.07423 -0.43800
O 	O 	0.62669 0.25434 0.09638 -0.75800
O 	O 	0.71006 0.13724 0.01588 -0.52600
O 	O 	0.61892 0.13493 0.96138 -0.60100
O 	O 	0.48330 0.13760 0.97224 -0.61200
O 	O 	0.39585 0.07167 0.93342 -0.53200
O 	O 	0.55362 0.19530 0.90175 -0.51600
O 	O 	0.56570 0.26087 0.00366 -0.60300
O 	O 	0.52427 0.34860 0.13364 -0.45600
O 	O 	0.48225 0.25208 0.09919 -0.45800
O 	O 	0.87143 0.27315 0.31584 -0.46100
O 	O 	0.93766 0.18849 0.26272 -0.43400
O 	O 	0.29336 0.84204 0.74566 -0.75800
O 	O 	0.37673 0.87864 0.86276 -0.52700
O 	O 	0.28559 0.82645 0.86507 -0.60100
O 	O 	0.14997 0.83464 0.86240 -0.61200
O 	O 	0.06252 0.86175 0.92833 -0.53500
O 	O 	0.22029 0.70645 0.80470 -0.51600
O 	O 	0.23237 0.74279 0.73913 -0.60300
O 	O 	0.19094 0.78504 0.65140 -0.45600
O 	O 	0.14892 0.84711 0.74792 -0.45800
O 	O 	0.53810 0.04269 0.72685 -0.46200
O 	O 	0.60433 0.07423 0.81151 -0.43800
O 	O 	0.96002 0.90362 0.15796 -0.75300
O 	O 	0.04339 0.98412 0.12136 -0.52500
O 	O 	0.95225 0.03862 0.17355 -0.58900
O 	O 	0.81663 0.02776 0.16536 -0.61200
O 	O 	0.72918 0.06658 0.13825 -0.53200
O 	O 	0.88695 0.09825 0.29355 -0.51600
O 	O 	0.89903 0.99634 0.25721 -0.60300
O 	O 	0.85760 0.86636 0.21496 -0.45500
O 	O 	0.81558 0.90081 0.15289 -0.45800
O 	O 	0.20476 0.68416 0.95731 -0.46100
O 	O 	0.27099 0.73728 0.92577 -0.43800
