data_crystal

_cell_length_a 15.36610
_cell_length_b 15.36610
_cell_length_c 15.36610
_cell_angle_alpha 60.00000
_cell_angle_beta  60.00000
_cell_angle_gamma 60.00000

_symmetry_space_group_name_	'P 1'
_symmetry_space_group_name_H-M	'P 1'

loop_
_symmetry_equiv_pos_as_xyz
  x,y,z

loop_
_atom_site_label
_atom_site_type_symbol
_atom_site_fract_x
_atom_site_fract_y
_atom_site_fract_z
_atom_site_charge
Co	Co	0.02330 0.65890 0.65890 1.15800
Co	Co	0.65890 0.02330 0.65890 1.15800
Co	Co	0.65890 0.65890 0.02330 1.15800
Co	Co	0.65890 0.65890 0.65890 1.16000
Co	Co	0.34110 0.97670 0.34110 1.15800
Co	Co	0.97670 0.34110 0.34110 1.15800
Co	Co	0.34110 0.34110 0.97670 1.15900
Co	Co	0.34110 0.34110 0.34110 1.16100
H 	H 	0.16040 0.83960 0.50000 0.12900
H 	H 	0.83960 0.16040 0.50000 0.12900
H 	H 	0.50000 0.50000 0.16040 0.12500
H 	H 	0.50000 0.50000 0.83960 0.12500
H 	H 	0.16040 0.50000 0.50000 0.12500
H 	H 	0.83960 0.50000 0.50000 0.12500
H 	H 	0.50000 0.16040 0.83960 0.12900
H 	H 	0.50000 0.83960 0.16040 0.12900
H 	H 	0.16040 0.50000 0.83960 0.12900
H 	H 	0.83960 0.50000 0.16040 0.12900
H 	H 	0.50000 0.83960 0.50000 0.12500
H 	H 	0.50000 0.16040 0.50000 0.12500
C 	C 	0.99560 0.89920 0.55260 0.10000
C 	C 	0.89920 0.99560 0.55260 0.10000
C 	C 	0.55260 0.55260 0.99560 0.09300
C 	C 	0.55260 0.55260 0.89920 0.09200
C 	C 	0.99560 0.55260 0.55260 0.09300
C 	C 	0.89920 0.55260 0.55260 0.09200
C 	C 	0.55260 0.99560 0.89920 0.10000
C 	C 	0.55260 0.89920 0.99560 0.10000
C 	C 	0.99560 0.55260 0.89920 0.10000
C 	C 	0.89920 0.55260 0.99560 0.10000
C 	C 	0.55260 0.89920 0.55260 0.09200
C 	C 	0.55260 0.99560 0.55260 0.09300
C 	C 	0.10080 0.00440 0.44740 0.10000
C 	C 	0.00440 0.10080 0.44740 0.10000
C 	C 	0.44740 0.44740 0.00440 0.09300
C 	C 	0.44740 0.44740 0.10080 0.09200
C 	C 	0.44740 0.00440 0.44740 0.09300
C 	C 	0.44740 0.10080 0.44740 0.09200
C 	C 	0.00440 0.44740 0.10080 0.10000
C 	C 	0.10080 0.44740 0.00440 0.10000
C 	C 	0.44740 0.00440 0.10080 0.10000
C 	C 	0.44740 0.10080 0.00440 0.10000
C 	C 	0.10080 0.44740 0.44740 0.09200
C 	C 	0.00440 0.44740 0.44740 0.09300
C 	C 	0.09980 0.90020 0.50000 -0.21000
C 	C 	0.90020 0.09980 0.50000 -0.21000
C 	C 	0.50000 0.50000 0.09980 -0.19600
C 	C 	0.50000 0.50000 0.90020 -0.19600
C 	C 	0.09980 0.50000 0.50000 -0.19600
C 	C 	0.90020 0.50000 0.50000 -0.19600
C 	C 	0.50000 0.09980 0.90020 -0.21000
C 	C 	0.50000 0.90020 0.09980 -0.21000
C 	C 	0.09980 0.50000 0.90020 -0.21000
C 	C 	0.90020 0.50000 0.09980 -0.21000
C 	C 	0.50000 0.90020 0.50000 -0.19600
C 	C 	0.50000 0.09980 0.50000 -0.19600
N 	N 	0.96030 0.81510 0.61230 -0.22700
N 	N 	0.81510 0.96030 0.61230 -0.22700
N 	N 	0.61230 0.61230 0.96030 -0.22700
N 	N 	0.61230 0.61230 0.81510 -0.22800
N 	N 	0.96030 0.61230 0.61230 -0.22700
N 	N 	0.81510 0.61230 0.61230 -0.22800
N 	N 	0.61230 0.96030 0.81510 -0.22700
N 	N 	0.61230 0.81510 0.96030 -0.22700
N 	N 	0.96030 0.61230 0.81510 -0.22700
N 	N 	0.81510 0.61230 0.96030 -0.22700
N 	N 	0.61230 0.81510 0.61230 -0.22800
N 	N 	0.61230 0.96030 0.61230 -0.22700
N 	N 	0.18490 0.03970 0.38770 -0.22700
N 	N 	0.03970 0.18490 0.38770 -0.22700
N 	N 	0.38770 0.38770 0.03970 -0.22700
N 	N 	0.38770 0.38770 0.18490 -0.22800
N 	N 	0.38770 0.03970 0.38770 -0.22700
N 	N 	0.38770 0.18490 0.38770 -0.22800
N 	N 	0.03970 0.38770 0.18490 -0.22700
N 	N 	0.18490 0.38770 0.03970 -0.22700
N 	N 	0.38770 0.03970 0.18490 -0.22700
N 	N 	0.38770 0.18490 0.03970 -0.22700
N 	N 	0.18490 0.38770 0.38770 -0.22800
N 	N 	0.03970 0.38770 0.38770 -0.22700
N 	N 	0.85536 0.85536 0.64464 -0.08400
N 	N 	0.64464 0.64464 0.85536 -0.08400
N 	N 	0.85536 0.64464 0.64464 -0.08400
N 	N 	0.64464 0.85536 0.85536 -0.08400
N 	N 	0.85536 0.64464 0.85536 -0.08400
N 	N 	0.64464 0.85536 0.64464 -0.08400
N 	N 	0.14464 0.14464 0.35536 -0.08400
N 	N 	0.35536 0.35536 0.14464 -0.08400
N 	N 	0.35536 0.14464 0.35536 -0.08400
N 	N 	0.14464 0.35536 0.14464 -0.08400
N 	N 	0.35536 0.14464 0.14464 -0.08400
N 	N 	0.14464 0.35536 0.35536 -0.08400
Cl	Cl	0.18380 0.60540 0.60540 -0.52600
Cl	Cl	0.60540 0.18380 0.60540 -0.52600
Cl	Cl	0.60540 0.60540 0.18380 -0.52600
Cl	Cl	0.60540 0.60540 0.60540 -0.52500
Cl	Cl	0.39460 0.81620 0.39460 -0.52600
Cl	Cl	0.81620 0.39460 0.39460 -0.52600
Cl	Cl	0.39460 0.39460 0.81620 -0.52600
Cl	Cl	0.39460 0.39460 0.39460 -0.52500
