data_crystal

_cell_length_a 13.65800
_cell_length_b 48.51600
_cell_length_c 20.49700
_cell_angle_alpha 90.00000
_cell_angle_beta  99.78400
_cell_angle_gamma 90.00000

_symmetry_space_group_name_	'P 1'
_symmetry_space_group_name_H-M	'P 1'

loop_
_symmetry_equiv_pos_as_xyz
  x,y,z

loop_
_atom_site_label
_atom_site_type_symbol
_atom_site_fract_x
_atom_site_fract_y
_atom_site_fract_z
_atom_site_charge
Co	Co	0.17840 0.31037 0.39299 1.12700
Co	Co	0.78486 0.60968 0.31930 1.14600
O 	O 	0.94080 0.62623 0.30480 -0.50400
O 	O 	0.98370 0.34792 0.31540 -0.41300
O 	O 	0.85070 0.63961 0.37730 -0.45500
O 	O 	0.46910 0.78617 0.31440 -0.44700
O 	O 	0.96120 0.56258 0.30720 -0.42300
O 	O 	0.73880 0.61400 0.22480 -0.50800
O 	O 	0.23980 0.70680 0.48180 -0.37200
O 	O 	0.82790 0.57368 0.35370 -0.49400
O 	O 	0.08830 0.34163 0.40950 -0.45300
O 	O 	0.58360 0.77960 0.40430 -0.49800
O 	O 	0.90080 0.45492 0.47060 -0.30200
C 	C 	0.01160 0.65900 0.38520 -0.33200
O 	O 	0.59690 0.63140 0.92320 -0.39500
C 	C 	0.73770 0.61410 0.11190 -0.42800
C 	C 	0.89970 0.53110 0.37640 -0.21300
C 	C 	0.42950 0.75740 0.39810 -0.28900
C 	C 	0.02070 0.35470 0.37150 0.38300
C 	C 	0.09260 0.66520 0.35420 0.29200
H 	H 	0.09450 0.65800 0.31240 -0.06600
C 	C 	0.98760 0.38160 0.39890 -0.15000
C 	C 	0.16360 0.69240 0.44550 0.42800
C 	C 	0.33280 0.75540 0.37060 0.26200
H 	H 	0.31010 0.76550 0.33260 -0.05000
C 	C 	0.26550 0.73900 0.39630 -0.39000
H 	H 	0.19870 0.73870 0.37710 0.16800
C 	C 	0.90270 0.47950 0.43620 0.31300
C 	C 	0.16800 0.68130 0.38310 -0.42500
H 	H 	0.22180 0.68490 0.36200 0.17900
C 	C 	0.91560 0.39680 0.35930 0.14600
H 	H 	0.88590 0.39030 0.31790 -0.00100
C 	C 	0.01490 0.67070 0.44850 0.28000
H 	H 	0.96340 0.66680 0.47150 -0.04100
C 	C 	0.93120 0.43040 0.44360 0.29500
C 	C 	0.89930 0.55790 0.34230 0.43000
C 	C 	0.50030 0.77570 0.37030 0.45600
C 	C 	0.72990 0.65700 0.76500 -0.24800
C 	C 	0.46430 0.74180 0.45530 0.23100
H 	H 	0.52980 0.74320 0.47680 -0.05500
C 	C 	0.08790 0.68690 0.47670 -0.44900
H 	H 	0.08650 0.69440 0.51830 0.19800
C 	C 	0.60020 0.63130 0.03430 -0.51700
H 	H 	0.53760 0.63950 0.02700 0.21400
C 	C 	0.30010 0.72330 0.45050 0.39400
C 	C 	0.78400 0.60980 0.05920 0.40400
H 	H 	0.84780 0.60230 0.06630 -0.08400
C 	C 	0.76640 0.66860 0.82830 0.18100
H 	H 	0.81840 0.68120 0.83480 -0.01900
C 	C 	0.96520 0.48360 0.39250 -0.26300
H 	H 	0.00920 0.47000 0.38360 0.11600
C 	C 	0.73860 0.61610 0.99490 -0.54700
H 	H 	0.77340 0.61330 0.96020 0.23300
C 	C 	0.64580 0.63970 0.87060 0.33600
C 	C 	0.84250 0.49940 0.45340 -0.28400
H 	H 	0.80430 0.49610 0.48610 0.14700
C 	C 	0.02840 0.39090 0.46130 0.08800
H 	H 	0.07560 0.38040 0.48850 0.00900
C 	C 	0.88920 0.42160 0.38270 -0.29400
H 	H 	0.84200 0.43250 0.35660 0.14000
C 	C 	0.71800 0.65970 0.88120 -0.31800
H 	H 	0.73550 0.66750 0.92300 0.15900
C 	C 	0.64750 0.62620 0.98190 0.54100
C 	C 	0.96040 0.50950 0.36120 0.15600
H 	H 	0.99940 0.51250 0.32890 0.00300
C 	C 	0.83820 0.52570 0.42060 0.16400
H 	H 	0.79340 0.53910 0.42960 -0.01800
C 	C 	0.99950 0.41520 0.48220 -0.22300
H 	H 	0.02720 0.42160 0.52400 0.11300
C 	C 	0.65730 0.63770 0.75720 0.20100
H 	H 	0.63430 0.63100 0.71480 -0.02000
C 	C 	0.39710 0.72420 0.47880 -0.37100
H 	H 	0.41960 0.71280 0.51470 0.16600
C 	C 	0.64370 0.62480 0.09730 0.39700
H 	H 	0.60820 0.62760 0.13160 -0.10600
C 	C 	0.61520 0.62740 0.80970 -0.31600
H 	H 	0.56930 0.61300 0.80400 0.15200
O 	O 	0.86760 0.59645 0.18610 -0.47800
C 	C 	0.78720 0.60740 0.17730 0.53800
C 	C 	0.93410 0.64100 0.35240 0.45100
O 	O 	0.84150 0.68417 0.71410 -0.51500
C 	C 	0.76760 0.66800 0.70860 0.41600
O 	O 	0.72940 0.66170 0.65110 -0.42800
Co	Co	0.67840 0.81037 0.39299 1.12900
Co	Co	0.28486 0.10968 0.31930 1.14400
O 	O 	0.44080 0.12623 0.30480 -0.51000
O 	O 	0.48370 0.84792 0.31540 -0.45500
O 	O 	0.35070 0.13961 0.37730 -0.45900
O 	O 	0.96910 0.28617 0.31440 -0.42300
O 	O 	0.46120 0.06258 0.30720 -0.43500
O 	O 	0.23880 0.11400 0.22480 -0.51200
O 	O 	0.73980 0.20680 0.48180 -0.37900
O 	O 	0.32790 0.07368 0.35370 -0.49800
O 	O 	0.58830 0.84163 0.40950 -0.47100
O 	O 	0.08360 0.27960 0.40430 -0.49500
O 	O 	0.40080 0.95492 0.47060 -0.35000
C 	C 	0.51160 0.15900 0.38520 -0.33800
O 	O 	0.09690 0.13140 0.92320 -0.39900
C 	C 	0.23770 0.11410 0.11190 -0.43500
C 	C 	0.39970 0.03110 0.37640 -0.24500
C 	C 	0.92950 0.25740 0.39810 -0.28100
C 	C 	0.52070 0.85470 0.37150 0.47500
C 	C 	0.59260 0.16520 0.35420 0.30500
H 	H 	0.59450 0.15800 0.31240 -0.06700
C 	C 	0.48760 0.88160 0.39890 -0.31800
C 	C 	0.66360 0.19240 0.44550 0.44900
C 	C 	0.83280 0.25540 0.37060 0.26200
H 	H 	0.81010 0.26550 0.33260 -0.04700
C 	C 	0.76550 0.23900 0.39630 -0.39600
H 	H 	0.69870 0.23870 0.37710 0.17200
C 	C 	0.40270 0.97950 0.43620 0.36000
C 	C 	0.66800 0.18130 0.38310 -0.44100
H 	H 	0.72180 0.18490 0.36200 0.18600
C 	C 	0.41560 0.89680 0.35930 0.29500
H 	H 	0.38590 0.89030 0.31790 -0.05500
C 	C 	0.51490 0.17070 0.44850 0.33500
H 	H 	0.46340 0.16680 0.47150 -0.07400
C 	C 	0.43120 0.93040 0.44360 0.43800
C 	C 	0.39930 0.05790 0.34230 0.44400
C 	C 	0.00030 0.27570 0.37030 0.42100
C 	C 	0.22990 0.15700 0.76500 -0.25000
C 	C 	0.96430 0.24180 0.45530 0.26900
H 	H 	0.02980 0.24320 0.47680 -0.08100
C 	C 	0.58790 0.18690 0.47670 -0.48700
H 	H 	0.58650 0.19440 0.51830 0.21500
C 	C 	0.10020 0.13130 0.03430 -0.52000
H 	H 	0.03760 0.13950 0.02700 0.21200
C 	C 	0.80010 0.22330 0.45050 0.40600
C 	C 	0.28400 0.10980 0.05920 0.41100
H 	H 	0.34780 0.10230 0.06630 -0.08900
C 	C 	0.26640 0.16860 0.82830 0.18200
H 	H 	0.31840 0.18120 0.83480 -0.02100
C 	C 	0.46520 0.98360 0.39250 -0.34400
H 	H 	0.50920 0.97000 0.38360 0.15800
C 	C 	0.23860 0.11610 0.99490 -0.55400
H 	H 	0.27340 0.11330 0.96020 0.23400
C 	C 	0.14580 0.13970 0.87060 0.33600
C 	C 	0.34250 0.99940 0.45340 -0.32500
H 	H 	0.30430 0.99610 0.48610 0.15800
C 	C 	0.52840 0.89090 0.46130 0.32200
H 	H 	0.57560 0.88040 0.48850 -0.06800
C 	C 	0.38920 0.92160 0.38270 -0.44400
H 	H 	0.34200 0.93250 0.35660 0.18900
C 	C 	0.21800 0.15970 0.88120 -0.32100
H 	H 	0.23550 0.16750 0.92300 0.15800
C 	C 	0.14750 0.12620 0.98190 0.54300
C 	C 	0.46040 0.00950 0.36120 0.20200
H 	H 	0.49940 0.01250 0.32890 -0.01900
C 	C 	0.33820 0.02570 0.42060 0.19400
H 	H 	0.29340 0.03910 0.42960 -0.03000
C 	C 	0.49950 0.91520 0.48220 -0.46300
H 	H 	0.52720 0.92160 0.52400 0.20800
C 	C 	0.15730 0.13770 0.75720 0.20200
H 	H 	0.13430 0.13100 0.71480 -0.02400
C 	C 	0.89710 0.22420 0.47880 -0.39200
H 	H 	0.91960 0.21280 0.51470 0.17700
C 	C 	0.14370 0.12480 0.09730 0.40000
H 	H 	0.10820 0.12760 0.13160 -0.11000
C 	C 	0.11520 0.12740 0.80970 -0.31900
H 	H 	0.06930 0.11300 0.80400 0.14800
O 	O 	0.36760 0.09645 0.18610 -0.48700
C 	C 	0.28720 0.10740 0.17730 0.54100
C 	C 	0.43410 0.14100 0.35240 0.44200
O 	O 	0.34150 0.18417 0.71410 -0.52000
C 	C 	0.26760 0.16800 0.70860 0.41800
O 	O 	0.22940 0.16170 0.65110 -0.43300
Co	Co	0.82160 0.31037 0.10701 1.13100
Co	Co	0.21514 0.60968 0.18070 1.14500
O 	O 	0.05920 0.62623 0.19520 -0.51200
O 	O 	0.01630 0.34792 0.18460 -0.49200
O 	O 	0.14930 0.63961 0.12270 -0.45800
O 	O 	0.53090 0.78617 0.18560 -0.44700
O 	O 	0.03880 0.56258 0.19280 -0.44500
O 	O 	0.26120 0.61400 0.27520 -0.51000
O 	O 	0.76020 0.70680 0.01820 -0.37800
O 	O 	0.17210 0.57368 0.14630 -0.49900
O 	O 	0.91170 0.34163 0.09050 -0.48900
O 	O 	0.41640 0.77960 0.09570 -0.50000
O 	O 	0.09920 0.45492 0.02940 -0.39200
C 	C 	0.98840 0.65900 0.11480 -0.33200
O 	O 	0.40310 0.63140 0.57680 -0.39600
C 	C 	0.26230 0.61410 0.38810 -0.43600
C 	C 	0.10030 0.53110 0.12360 -0.27200
C 	C 	0.57050 0.75740 0.10190 -0.28800
C 	C 	0.97930 0.35470 0.12850 0.56100
C 	C 	0.90740 0.66520 0.14580 0.30800
H 	H 	0.90550 0.65800 0.18760 -0.06500
C 	C 	0.01240 0.38160 0.10110 -0.47000
C 	C 	0.83640 0.69240 0.05450 0.45800
C 	C 	0.66720 0.75540 0.12940 0.26200
H 	H 	0.68990 0.76550 0.16740 -0.04800
C 	C 	0.73450 0.73900 0.10370 -0.39000
H 	H 	0.80130 0.73870 0.12290 0.17100
C 	C 	0.09730 0.47950 0.06380 0.40400
C 	C 	0.83200 0.68130 0.11690 -0.44600
H 	H 	0.77820 0.68490 0.13800 0.18800
C 	C 	0.08440 0.39680 0.14070 0.43100
H 	H 	0.11410 0.39030 0.18210 -0.10400
C 	C 	0.98510 0.67070 0.05150 0.37400
H 	H 	0.03660 0.66680 0.02850 -0.09800
C 	C 	0.06880 0.43040 0.05640 0.56600
C 	C 	0.10070 0.55790 0.15770 0.45600
C 	C 	0.49970 0.77570 0.12970 0.45600
C 	C 	0.27010 0.65700 0.73500 -0.24900
C 	C 	0.53570 0.74180 0.04470 0.22800
H 	H 	0.47020 0.74320 0.02320 -0.05400
C 	C 	0.91210 0.68690 0.02330 -0.50600
H 	H 	0.91350 0.69440 0.98170 0.22400
C 	C 	0.39980 0.63130 0.46570 -0.52700
H 	H 	0.46240 0.63950 0.47300 0.21700
C 	C 	0.69990 0.72330 0.04950 0.39400
C 	C 	0.21600 0.60980 0.44080 0.40800
H 	H 	0.15220 0.60230 0.43370 -0.09100
C 	C 	0.23360 0.66860 0.67170 0.18400
H 	H 	0.18160 0.68120 0.66520 -0.02200
C 	C 	0.03480 0.48360 0.10750 -0.41900
H 	H 	0.99080 0.47000 0.11640 0.19600
C 	C 	0.26140 0.61610 0.50510 -0.55100
H 	H 	0.22660 0.61330 0.53980 0.23300
C 	C 	0.35420 0.63970 0.62940 0.33900
C 	C 	0.15750 0.49940 0.04660 -0.36000
H 	H 	0.19570 0.49610 0.01390 0.17200
C 	C 	0.97160 0.39090 0.03870 0.53400
H 	H 	0.92440 0.38040 0.01150 -0.13900
C 	C 	0.11080 0.42160 0.11730 -0.57900
H 	H 	0.15800 0.43250 0.14340 0.23500
C 	C 	0.28200 0.65970 0.61880 -0.32200
H 	H 	0.26450 0.66750 0.57700 0.15900
C 	C 	0.35250 0.62620 0.51810 0.54900
C 	C 	0.03960 0.50950 0.13880 0.24500
H 	H 	0.00060 0.51250 0.17110 -0.04000
C 	C 	0.16180 0.52570 0.07940 0.22300
H 	H 	0.20660 0.53910 0.07040 -0.03800
C 	C 	0.00050 0.41520 0.01780 -0.67700
H 	H 	0.97280 0.42160 0.97600 0.29100
C 	C 	0.34270 0.63770 0.74280 0.20400
H 	H 	0.36570 0.63100 0.78520 -0.02200
C 	C 	0.60290 0.72420 0.02120 -0.36400
H 	H 	0.58040 0.71280 0.98530 0.16100
C 	C 	0.35630 0.62480 0.40270 0.40400
H 	H 	0.39180 0.62760 0.36840 -0.10900
C 	C 	0.38480 0.62740 0.69030 -0.31900
H 	H 	0.43070 0.61300 0.69600 0.15300
O 	O 	0.13240 0.59645 0.31390 -0.49100
C 	C 	0.21280 0.60740 0.32270 0.54200
C 	C 	0.06590 0.64100 0.14760 0.42900
O 	O 	0.15850 0.68417 0.78590 -0.52100
C 	C 	0.23240 0.66800 0.79140 0.41900
O 	O 	0.27060 0.66170 0.84890 -0.43100
Co	Co	0.32160 0.81037 0.10701 1.12700
Co	Co	0.71514 0.10968 0.18070 1.14600
O 	O 	0.55920 0.12623 0.19520 -0.50800
O 	O 	0.51630 0.84792 0.18460 -0.45400
O 	O 	0.64930 0.13961 0.12270 -0.45400
O 	O 	0.03090 0.28617 0.18560 -0.46700
O 	O 	0.53880 0.06258 0.19280 -0.43500
O 	O 	0.76120 0.11400 0.27520 -0.50700
O 	O 	0.26020 0.20680 0.01820 -0.36900
O 	O 	0.67210 0.07368 0.14630 -0.49500
O 	O 	0.41170 0.84163 0.09050 -0.47100
O 	O 	0.91640 0.27960 0.09570 -0.50300
O 	O 	0.59920 0.95492 0.02940 -0.34700
C 	C 	0.48840 0.15900 0.11480 -0.32700
O 	O 	0.90310 0.13140 0.57680 -0.39200
C 	C 	0.76230 0.11410 0.38810 -0.43000
C 	C 	0.60030 0.03110 0.12360 -0.24300
C 	C 	0.07050 0.25740 0.10190 -0.29500
C 	C 	0.47930 0.85470 0.12850 0.47400
C 	C 	0.40740 0.16520 0.14580 0.29400
H 	H 	0.40550 0.15800 0.18760 -0.06400
C 	C 	0.51240 0.88160 0.10110 -0.31300
C 	C 	0.33640 0.19240 0.05450 0.43600
C 	C 	0.16720 0.25540 0.12940 0.26100
H 	H 	0.18990 0.26550 0.16740 -0.04900
C 	C 	0.23450 0.23900 0.10370 -0.38300
H 	H 	0.30130 0.23870 0.12290 0.16700
C 	C 	0.59730 0.97950 0.06380 0.36000
C 	C 	0.33200 0.18130 0.11690 -0.42900
H 	H 	0.27820 0.18490 0.13800 0.18100
C 	C 	0.58440 0.89680 0.14070 0.29000
H 	H 	0.61410 0.89030 0.18210 -0.05300
C 	C 	0.48510 0.17070 0.05150 0.32100
H 	H 	0.53660 0.16680 0.02850 -0.06700
C 	C 	0.56880 0.93040 0.05640 0.43100
C 	C 	0.60070 0.05790 0.15770 0.44300
C 	C 	0.99970 0.27570 0.12970 0.49000
C 	C 	0.77010 0.15700 0.73500 -0.24700
C 	C 	0.03570 0.24180 0.04470 0.19200
H 	H 	0.97020 0.24320 0.02320 -0.02900
C 	C 	0.41210 0.18690 0.02330 -0.46500
H 	H 	0.41350 0.19440 0.98170 0.20500
C 	C 	0.89980 0.13130 0.46570 -0.52200
H 	H 	0.96240 0.13950 0.47300 0.21900
C 	C 	0.19990 0.22330 0.04950 0.38100
C 	C 	0.71600 0.10980 0.44080 0.40400
H 	H 	0.65220 0.10230 0.43370 -0.08700
C 	C 	0.73360 0.16860 0.67170 0.18300
H 	H 	0.68160 0.18120 0.66520 -0.02100
C 	C 	0.53480 0.98360 0.10750 -0.34300
H 	H 	0.49080 0.97000 0.11640 0.15700
C 	C 	0.76140 0.11610 0.50510 -0.54600
H 	H 	0.72660 0.11330 0.53980 0.23200
C 	C 	0.85420 0.13970 0.62940 0.33900
C 	C 	0.65750 0.99940 0.04660 -0.32200
H 	H 	0.69570 0.99610 0.01390 0.16100
C 	C 	0.47160 0.89090 0.03870 0.31400
H 	H 	0.42440 0.88040 0.01150 -0.06500
C 	C 	0.61080 0.92160 0.11730 -0.43800
H 	H 	0.65800 0.93250 0.14340 0.18900
C 	C 	0.78200 0.15970 0.61880 -0.31900
H 	H 	0.76450 0.16750 0.57700 0.16000
C 	C 	0.85250 0.12620 0.51810 0.54700
C 	C 	0.53960 0.00950 0.13880 0.20200
H 	H 	0.50060 0.01250 0.17110 -0.01900
C 	C 	0.66180 0.02570 0.07940 0.19400
H 	H 	0.70660 0.03910 0.07040 -0.02600
C 	C 	0.50050 0.91520 0.01780 -0.45000
H 	H 	0.47280 0.92160 0.97600 0.20100
C 	C 	0.84270 0.13770 0.74280 0.20300
H 	H 	0.86570 0.13100 0.78520 -0.01700
C 	C 	0.10290 0.22420 0.02120 -0.34000
H 	H 	0.08040 0.21280 0.98530 0.14800
C 	C 	0.85630 0.12480 0.40270 0.40100
H 	H 	0.89180 0.12760 0.36840 -0.10500
C 	C 	0.88480 0.12740 0.69030 -0.31600
H 	H 	0.93070 0.11300 0.69600 0.15700
O 	O 	0.63240 0.09645 0.31390 -0.48600
C 	C 	0.71280 0.10740 0.32270 0.54000
C 	C 	0.56590 0.14100 0.14760 0.43800
O 	O 	0.65850 0.18417 0.78590 -0.51900
C 	C 	0.73240 0.16800 0.79140 0.41800
O 	O 	0.77060 0.16170 0.84890 -0.42600
Co	Co	0.82160 0.68963 0.60701 1.13100
Co	Co	0.21514 0.39032 0.68070 1.14500
O 	O 	0.05920 0.37377 0.69520 -0.51200
O 	O 	0.01630 0.65208 0.68460 -0.49500
O 	O 	0.14930 0.36039 0.62270 -0.45900
O 	O 	0.53090 0.21383 0.68560 -0.44700
O 	O 	0.03880 0.43742 0.69280 -0.44600
O 	O 	0.26120 0.38600 0.77520 -0.51000
O 	O 	0.76020 0.29320 0.51820 -0.38200
O 	O 	0.17210 0.42632 0.64630 -0.49900
O 	O 	0.91170 0.65837 0.59050 -0.49100
O 	O 	0.41640 0.22040 0.59570 -0.50100
O 	O 	0.09920 0.54508 0.52940 -0.39900
C 	C 	0.98840 0.34100 0.61480 -0.33700
O 	O 	0.40310 0.36860 0.07680 -0.39600
C 	C 	0.26230 0.38590 0.88810 -0.43400
C 	C 	0.10030 0.46890 0.62360 -0.27600
C 	C 	0.57050 0.24260 0.60190 -0.29300
C 	C 	0.97930 0.64530 0.62850 0.57000
C 	C 	0.90740 0.33480 0.64580 0.31400
H 	H 	0.90550 0.34200 0.68760 -0.06600
C 	C 	0.01240 0.61840 0.60110 -0.48800
C 	C 	0.83640 0.30760 0.55450 0.46600
C 	C 	0.66720 0.24460 0.62940 0.26700
H 	H 	0.68990 0.23450 0.66740 -0.05000
C 	C 	0.73450 0.26100 0.60370 -0.39600
H 	H 	0.80130 0.26130 0.62290 0.17300
C 	C 	0.09730 0.52050 0.56380 0.40900
C 	C 	0.83200 0.31870 0.61690 -0.45300
H 	H 	0.77820 0.31510 0.63800 0.19000
C 	C 	0.08440 0.60320 0.64070 0.44700
H 	H 	0.11410 0.60970 0.68210 -0.11000
C 	C 	0.98510 0.32930 0.55150 0.38700
H 	H 	0.03660 0.33320 0.52850 -0.10500
C 	C 	0.06880 0.56960 0.55640 0.58200
C 	C 	0.10070 0.44210 0.65770 0.45700
C 	C 	0.49970 0.22430 0.62970 0.45800
C 	C 	0.27010 0.34300 0.23500 -0.24900
C 	C 	0.53570 0.25820 0.54470 0.23500
H 	H 	0.47020 0.25680 0.52320 -0.05700
C 	C 	0.91210 0.31310 0.52330 -0.52000
H 	H 	0.91350 0.30560 0.48170 0.23100
C 	C 	0.39980 0.36870 0.96570 -0.53100
H 	H 	0.46240 0.36050 0.97300 0.21800
C 	C 	0.69990 0.27670 0.54950 0.40100
C 	C 	0.21600 0.39020 0.94080 0.40100
H 	H 	0.15220 0.39770 0.93370 -0.09000
C 	C 	0.23360 0.33140 0.17170 0.18400
H 	H 	0.18160 0.31880 0.16520 -0.02200
C 	C 	0.03480 0.51640 0.60750 -0.42700
H 	H 	0.99080 0.53000 0.61640 0.20000
C 	C 	0.26140 0.38390 0.00510 -0.54500
H 	H 	0.22660 0.38670 0.03980 0.23200
C 	C 	0.35420 0.36030 0.12940 0.33900
C 	C 	0.15750 0.50060 0.54660 -0.36400
H 	H 	0.19570 0.50390 0.51390 0.17300
C 	C 	0.97160 0.60910 0.53870 0.56000
H 	H 	0.92440 0.61960 0.51150 -0.14900
C 	C 	0.11080 0.57840 0.61730 -0.59700
H 	H 	0.15800 0.56750 0.64340 0.24000
C 	C 	0.28200 0.34030 0.11880 -0.32200
H 	H 	0.26450 0.33250 0.07700 0.16000
C 	C 	0.35250 0.37380 0.01810 0.55200
C 	C 	0.03960 0.49050 0.63880 0.25000
H 	H 	0.00060 0.48750 0.67110 -0.04200
C 	C 	0.16180 0.47430 0.57940 0.22500
H 	H 	0.20660 0.46090 0.57040 -0.03900
C 	C 	0.00050 0.58480 0.51780 -0.70600
H 	H 	0.97280 0.57840 0.47600 0.30400
C 	C 	0.34270 0.36230 0.24280 0.20400
H 	H 	0.36570 0.36900 0.28520 -0.02200
C 	C 	0.60290 0.27580 0.52120 -0.37600
H 	H 	0.58040 0.28720 0.48530 0.16800
C 	C 	0.35630 0.37520 0.90270 0.40500
H 	H 	0.39180 0.37240 0.86840 -0.10900
C 	C 	0.38480 0.37260 0.19030 -0.31900
H 	H 	0.43070 0.38700 0.19600 0.15300
O 	O 	0.13240 0.40355 0.81390 -0.49200
C 	C 	0.21280 0.39260 0.82270 0.54200
C 	C 	0.06590 0.35900 0.64760 0.43000
O 	O 	0.15850 0.31583 0.28590 -0.52100
C 	C 	0.23240 0.33200 0.29140 0.41900
O 	O 	0.27060 0.33830 0.34890 -0.43100
Co	Co	0.32160 0.18963 0.60701 1.12700
Co	Co	0.71514 0.89032 0.68070 1.14600
O 	O 	0.55920 0.87377 0.69520 -0.50900
O 	O 	0.51630 0.15208 0.68460 -0.45500
O 	O 	0.64930 0.86039 0.62270 -0.45500
O 	O 	0.03090 0.71383 0.68560 -0.47000
O 	O 	0.53880 0.93742 0.69280 -0.43500
O 	O 	0.76120 0.88600 0.77520 -0.50700
O 	O 	0.26020 0.79320 0.51820 -0.37500
O 	O 	0.67210 0.92632 0.64630 -0.49500
O 	O 	0.41170 0.15837 0.59050 -0.47300
O 	O 	0.91640 0.72040 0.59570 -0.50400
O 	O 	0.59920 0.04508 0.52940 -0.35000
C 	C 	0.48840 0.84100 0.61480 -0.33400
O 	O 	0.90310 0.86860 0.07680 -0.39200
C 	C 	0.76230 0.88590 0.88810 -0.42900
C 	C 	0.60030 0.96890 0.62360 -0.24300
C 	C 	0.07050 0.74260 0.60190 -0.30200
C 	C 	0.47930 0.14530 0.62850 0.47600
C 	C 	0.40740 0.83480 0.64580 0.30200
H 	H 	0.40550 0.84200 0.68760 -0.06700
C 	C 	0.51240 0.11840 0.60110 -0.31900
C 	C 	0.33640 0.80760 0.55450 0.44500
C 	C 	0.16720 0.74460 0.62940 0.26800
H 	H 	0.18990 0.73450 0.66740 -0.05200
C 	C 	0.23450 0.76100 0.60370 -0.39100
H 	H 	0.30130 0.76130 0.62290 0.17000
C 	C 	0.59730 0.02050 0.56380 0.36000
C 	C 	0.33200 0.81870 0.61690 -0.43800
H 	H 	0.27820 0.81510 0.63800 0.18300
C 	C 	0.58440 0.10320 0.64070 0.29700
H 	H 	0.61410 0.10970 0.68210 -0.05500
C 	C 	0.48510 0.82930 0.55150 0.33200
H 	H 	0.53660 0.83320 0.52850 -0.07200
C 	C 	0.56880 0.06960 0.55640 0.43900
C 	C 	0.60070 0.94210 0.65770 0.44300
C 	C 	0.99970 0.72430 0.62970 0.49500
C 	C 	0.77010 0.84300 0.23500 -0.24700
C 	C 	0.03570 0.75820 0.54470 0.19800
H 	H 	0.97020 0.75680 0.52320 -0.03200
C 	C 	0.41210 0.81310 0.52330 -0.48300
H 	H 	0.41350 0.80560 0.48170 0.21400
C 	C 	0.89980 0.86870 0.96570 -0.52400
H 	H 	0.96240 0.86050 0.97300 0.21900
C 	C 	0.19990 0.77670 0.54950 0.38900
C 	C 	0.71600 0.89020 0.94080 0.40000
H 	H 	0.65220 0.89770 0.93370 -0.08600
C 	C 	0.73360 0.83140 0.17170 0.18300
H 	H 	0.68160 0.81880 0.16520 -0.02100
C 	C 	0.53480 0.01640 0.60750 -0.34400
H 	H 	0.49080 0.03000 0.61640 0.15700
C 	C 	0.76140 0.88390 0.00510 -0.54200
H 	H 	0.72660 0.88670 0.03980 0.23100
C 	C 	0.85420 0.86030 0.12940 0.33900
C 	C 	0.65750 0.00060 0.54660 -0.32300
H 	H 	0.69570 0.00390 0.51390 0.16100
C 	C 	0.47160 0.10910 0.53870 0.32400
H 	H 	0.42440 0.11960 0.51150 -0.07000
C 	C 	0.61080 0.07840 0.61730 -0.44600
H 	H 	0.65800 0.06750 0.64340 0.19100
C 	C 	0.78200 0.84030 0.11880 -0.32000
H 	H 	0.76450 0.83250 0.07700 0.16000
C 	C 	0.85250 0.87380 0.01810 0.54800
C 	C 	0.53960 0.99050 0.63880 0.20200
H 	H 	0.50060 0.98750 0.67110 -0.01900
C 	C 	0.66180 0.97430 0.57940 0.19400
H 	H 	0.70660 0.96090 0.57040 -0.02700
C 	C 	0.50050 0.08480 0.51780 -0.46500
H 	H 	0.47280 0.07840 0.47600 0.20800
C 	C 	0.84270 0.86230 0.24280 0.20300
H 	H 	0.86570 0.86900 0.28520 -0.01700
C 	C 	0.10290 0.77580 0.52120 -0.35500
H 	H 	0.08040 0.78720 0.48530 0.15700
C 	C 	0.85630 0.87520 0.90270 0.40100
H 	H 	0.89180 0.87240 0.86840 -0.10500
C 	C 	0.88480 0.87260 0.19030 -0.31600
H 	H 	0.93070 0.88700 0.19600 0.15700
O 	O 	0.63240 0.90355 0.81390 -0.48500
C 	C 	0.71280 0.89260 0.82270 0.53900
C 	C 	0.56590 0.85900 0.64760 0.44100
O 	O 	0.65850 0.81583 0.28590 -0.51900
C 	C 	0.73240 0.83200 0.29140 0.41800
O 	O 	0.77060 0.83830 0.34890 -0.42600
Co	Co	0.17840 0.68963 0.89299 1.12500
Co	Co	0.78486 0.39032 0.81930 1.14500
O 	O 	0.94080 0.37377 0.80480 -0.50500
O 	O 	0.98370 0.65208 0.81540 -0.41100
O 	O 	0.85070 0.36039 0.87730 -0.45600
O 	O 	0.46910 0.21383 0.81440 -0.44700
O 	O 	0.96120 0.43742 0.80720 -0.42200
O 	O 	0.73880 0.38600 0.72480 -0.50800
O 	O 	0.23980 0.29320 0.98180 -0.37900
O 	O 	0.82790 0.42632 0.85370 -0.49400
O 	O 	0.08830 0.65837 0.90950 -0.45300
O 	O 	0.58360 0.22040 0.90430 -0.49900
O 	O 	0.90080 0.54508 0.97060 -0.30300
C 	C 	0.01160 0.34100 0.88520 -0.34200
O 	O 	0.59690 0.36860 0.42320 -0.39500
C 	C 	0.73770 0.38590 0.61190 -0.42700
C 	C 	0.89970 0.46890 0.87640 -0.21100
C 	C 	0.42950 0.24260 0.89810 -0.29400
C 	C 	0.02070 0.64530 0.87150 0.38000
C 	C 	0.09260 0.33480 0.85420 0.30100
H 	H 	0.09450 0.34200 0.81240 -0.07000
C 	C 	0.98760 0.61840 0.89890 -0.14900
C 	C 	0.16360 0.30760 0.94550 0.43900
C 	C 	0.33280 0.24460 0.87060 0.26800
H 	H 	0.31010 0.23450 0.83260 -0.05200
C 	C 	0.26550 0.26100 0.89630 -0.39700
H 	H 	0.19870 0.26130 0.87710 0.17000
C 	C 	0.90270 0.52050 0.93620 0.31000
C 	C 	0.16800 0.31870 0.88310 -0.43500
H 	H 	0.22180 0.31510 0.86200 0.18300
C 	C 	0.91560 0.60320 0.85930 0.14600
H 	H 	0.88590 0.60970 0.81790 -0.00100
C 	C 	0.01490 0.32930 0.94850 0.29100
H 	H 	0.96340 0.33320 0.97150 -0.04600
C 	C 	0.93120 0.56960 0.94360 0.29800
C 	C 	0.89930 0.44210 0.84230 0.42900
C 	C 	0.50030 0.22430 0.87030 0.45800
C 	C 	0.72990 0.34300 0.26500 -0.24800
C 	C 	0.46430 0.25820 0.95530 0.24000
H 	H 	0.52980 0.25680 0.97680 -0.05800
C 	C 	0.08790 0.31310 0.97670 -0.46900
H 	H 	0.08650 0.30560 0.01830 0.20700
C 	C 	0.60020 0.36870 0.53430 -0.52100
H 	H 	0.53760 0.36050 0.52700 0.21400
C 	C 	0.30010 0.27670 0.95050 0.40200
C 	C 	0.78400 0.39020 0.55920 0.40000
H 	H 	0.84780 0.39770 0.56630 -0.08300
C 	C 	0.76640 0.33140 0.32830 0.18100
H 	H 	0.81840 0.31880 0.33480 -0.02000
C 	C 	0.96520 0.51640 0.89250 -0.25900
H 	H 	0.00920 0.53000 0.88360 0.11300
C 	C 	0.73860 0.38390 0.49490 -0.54400
H 	H 	0.77340 0.38670 0.46020 0.23200
C 	C 	0.64580 0.36030 0.37060 0.33700
C 	C 	0.84250 0.50060 0.95340 -0.28300
H 	H 	0.80430 0.50390 0.98610 0.14600
C 	C 	0.02840 0.60910 0.96130 0.08900
H 	H 	0.07560 0.61960 0.98850 0.00700
C 	C 	0.88920 0.57840 0.88270 -0.29500
H 	H 	0.84200 0.56750 0.85660 0.14100
C 	C 	0.71800 0.34030 0.38120 -0.31900
H 	H 	0.73550 0.33250 0.42300 0.16000
C 	C 	0.64750 0.37380 0.48190 0.54400
C 	C 	0.96040 0.49050 0.86120 0.15300
H 	H 	0.99940 0.48750 0.82890 0.00500
C 	C 	0.83820 0.47430 0.92060 0.16200
H 	H 	0.79340 0.46090 0.92960 -0.01800
C 	C 	0.99950 0.58480 0.98220 -0.23000
H 	H 	0.02720 0.57840 0.02400 0.11800
C 	C 	0.65730 0.36230 0.25720 0.20100
H 	H 	0.63430 0.36900 0.21480 -0.02000
C 	C 	0.39710 0.27580 0.97880 -0.38500
H 	H 	0.41960 0.28720 0.01470 0.17300
C 	C 	0.64370 0.37520 0.59730 0.39700
H 	H 	0.60820 0.37240 0.63160 -0.10600
C 	C 	0.61520 0.37260 0.30970 -0.31600
H 	H 	0.56930 0.38700 0.30400 0.15200
O 	O 	0.86760 0.40355 0.68610 -0.47800
C 	C 	0.78720 0.39260 0.67730 0.53700
C 	C 	0.93410 0.35900 0.85240 0.45600
O 	O 	0.84150 0.31583 0.21410 -0.51600
C 	C 	0.76760 0.33200 0.20860 0.41600
O 	O 	0.72940 0.33830 0.15110 -0.42700
Co	Co	0.67840 0.18963 0.89299 1.12900
Co	Co	0.28486 0.89032 0.81930 1.14400
O 	O 	0.44080 0.87377 0.80480 -0.51100
O 	O 	0.48370 0.15208 0.81540 -0.45500
O 	O 	0.35070 0.86039 0.87730 -0.46000
O 	O 	0.96910 0.71383 0.81440 -0.42100
O 	O 	0.46120 0.93742 0.80720 -0.43500
O 	O 	0.23880 0.88600 0.72480 -0.51200
O 	O 	0.73980 0.79320 0.98180 -0.38400
O 	O 	0.32790 0.92632 0.85370 -0.49900
O 	O 	0.58830 0.15837 0.90950 -0.47200
O 	O 	0.08360 0.72040 0.90430 -0.49600
O 	O 	0.40080 0.04508 0.97060 -0.35300
C 	C 	0.51160 0.84100 0.88520 -0.34400
O 	O 	0.09690 0.86860 0.42320 -0.39900
C 	C 	0.23770 0.88590 0.61190 -0.43400
C 	C 	0.39970 0.96890 0.87640 -0.24500
C 	C 	0.92950 0.74260 0.89810 -0.28300
C 	C 	0.52070 0.14530 0.87150 0.47700
C 	C 	0.59260 0.83480 0.85420 0.31100
H 	H 	0.59450 0.84200 0.81240 -0.07000
C 	C 	0.48760 0.11840 0.89890 -0.32400
C 	C 	0.66360 0.80760 0.94550 0.45700
C 	C 	0.83280 0.74460 0.87060 0.26500
H 	H 	0.81010 0.73450 0.83260 -0.04900
C 	C 	0.76550 0.76100 0.89630 -0.40000
H 	H 	0.69870 0.76130 0.87710 0.17300
C 	C 	0.40270 0.02050 0.93620 0.36100
C 	C 	0.66800 0.81870 0.88310 -0.44900
H 	H 	0.72180 0.81510 0.86200 0.18900
C 	C 	0.41560 0.10320 0.85930 0.30100
H 	H 	0.38590 0.10970 0.81790 -0.05700
C 	C 	0.51490 0.82930 0.94850 0.34600
H 	H 	0.46340 0.83320 0.97150 -0.07900
C 	C 	0.43120 0.06960 0.94360 0.44500
C 	C 	0.39930 0.94210 0.84230 0.44400
C 	C 	0.00030 0.72430 0.87030 0.42000
C 	C 	0.22990 0.84300 0.26500 -0.25000
C 	C 	0.96430 0.75820 0.95530 0.27600
H 	H 	0.02980 0.75680 0.97680 -0.08500
C 	C 	0.58790 0.81310 0.97670 -0.50200
H 	H 	0.58650 0.80560 0.01830 0.22200
C 	C 	0.10020 0.86870 0.53430 -0.52600
H 	H 	0.03760 0.86050 0.52700 0.21300
C 	C 	0.80010 0.77670 0.95050 0.41100
C 	C 	0.28400 0.89020 0.55920 0.40500
H 	H 	0.34780 0.89770 0.56630 -0.08800
C 	C 	0.26640 0.83140 0.32830 0.18200
H 	H 	0.31840 0.81880 0.33480 -0.02100
C 	C 	0.46520 0.01640 0.89250 -0.34500
H 	H 	0.50920 0.03000 0.88360 0.15800
C 	C 	0.23860 0.88390 0.49490 -0.54900
H 	H 	0.27340 0.88670 0.46020 0.23300
C 	C 	0.14580 0.86030 0.37060 0.33700
C 	C 	0.34250 0.00060 0.95340 -0.32600
H 	H 	0.30430 0.00390 0.98610 0.15800
C 	C 	0.52840 0.10910 0.96130 0.33200
H 	H 	0.57560 0.11960 0.98850 -0.07300
C 	C 	0.38920 0.07840 0.88270 -0.45100
H 	H 	0.34200 0.06750 0.85660 0.19100
C 	C 	0.21800 0.84030 0.38120 -0.32100
H 	H 	0.23550 0.83250 0.42300 0.15900
C 	C 	0.14750 0.87380 0.48190 0.54700
C 	C 	0.46040 0.99050 0.86120 0.20300
H 	H 	0.49940 0.98750 0.82890 -0.01900
C 	C 	0.33820 0.97430 0.92060 0.19400
H 	H 	0.29340 0.96090 0.92960 -0.03100
C 	C 	0.49950 0.08480 0.98220 -0.47800
H 	H 	0.52720 0.07840 0.02400 0.21500
C 	C 	0.15730 0.86230 0.25720 0.20200
H 	H 	0.13430 0.86900 0.21480 -0.02400
C 	C 	0.89710 0.77580 0.97880 -0.40100
H 	H 	0.91960 0.78720 0.01470 0.18100
C 	C 	0.14370 0.87520 0.59730 0.40200
H 	H 	0.10820 0.87240 0.63160 -0.11100
C 	C 	0.11520 0.87260 0.30970 -0.31900
H 	H 	0.06930 0.88700 0.30400 0.14900
O 	O 	0.36760 0.90355 0.68610 -0.48700
C 	C 	0.28720 0.89260 0.67730 0.54100
C 	C 	0.43410 0.85900 0.85240 0.44500
O 	O 	0.34150 0.81583 0.21410 -0.52000
C 	C 	0.26760 0.83200 0.20860 0.41800
O 	O 	0.22940 0.83830 0.15110 -0.43200
Co	Co	0.00000 0.59458 0.25000 1.20700
Co	Co	0.00000 0.31674 0.25000 1.19600
Co	Co	0.50000 0.09458 0.25000 1.21500
Co	Co	0.50000 0.81674 0.25000 1.20400
Co	Co	0.00000 0.40542 0.75000 1.20600
Co	Co	0.00000 0.68326 0.75000 1.19600
Co	Co	0.50000 0.90542 0.75000 1.21500
Co	Co	0.50000 0.18326 0.75000 1.20400
