data_crystal

_cell_length_a 28.12950
_cell_length_b 15.23050
_cell_length_c 8.76070
_cell_angle_alpha 90.00000
_cell_angle_beta  98.83500
_cell_angle_gamma 90.00000

_symmetry_space_group_name_	'P 1'
_symmetry_space_group_name_H-M	'P 1'

loop_
_symmetry_equiv_pos_as_xyz
  x,y,z

loop_
_atom_site_label
_atom_site_type_symbol
_atom_site_fract_x
_atom_site_fract_y
_atom_site_fract_z
_atom_site_charge
La	La	0.16754 0.01363 0.64202 1.60600
O 	O 	0.28678 0.47302 0.60200 -0.53700
O 	O 	0.24528 0.42920 0.38280 -0.40300
O 	O 	0.11821 0.97340 0.38950 -0.52600
O 	O 	0.08153 0.93060 0.16290 -0.41700
O 	O 	0.16061 0.17468 0.53750 -0.38700
O 	O 	0.18060 0.16019 0.78810 -0.41600
C 	C 	0.13347 0.35470 0.56120 0.08500
C 	C 	0.01870 0.82230 0.31350 0.10300
C 	C 	0.08236 0.93780 0.30590 0.43600
C 	C 	0.15587 0.42670 0.51120 0.10100
C 	C 	0.24689 0.45200 0.51990 0.43100
C 	C 	0.16613 0.20670 0.67160 0.41300
C 	C 	0.04051 0.90550 0.38100 -0.43800
H 	H 	0.05150 0.89650 0.49040 0.14300
H 	H 	0.01590 0.95060 0.37120 0.16200
C 	C 	0.13230 0.47270 0.38420 -0.11200
H 	H 	0.14640 0.52350 0.35290 0.06300
C 	C 	0.20156 0.46460 0.59260 -0.43000
H 	H 	0.20740 0.43960 0.69570 0.14100
H 	H 	0.19670 0.52710 0.60400 0.15900
C 	C 	0.15390 0.30070 0.70180 -0.39700
H 	H 	0.18280 0.32950 0.75260 0.13700
H 	H 	0.13080 0.30110 0.77340 0.14700
C 	C 	0.08975 0.32900 0.48300 -0.11200
H 	H 	0.07460 0.28000 0.51680 0.07900
C 	C 	0.01660 0.66560 0.31210 -0.01800
H 	H 	0.02720 0.61250 0.35740 0.03100
C 	C 	0.06780 0.37410 0.35560 -0.01800
H 	H 	0.03820 0.35540 0.30440 0.02900
C 	C 	0.03570 0.74220 0.37510 -0.12600
H 	H 	0.06010 0.74080 0.45970 0.06200
C 	C 	0.08910 0.44600 0.30380 -0.02400
H 	H 	0.07480 0.47600 0.21630 0.03400
La	La	0.66754 0.51363 0.64202 1.60600
O 	O 	0.78678 0.97302 0.60200 -0.53600
O 	O 	0.74528 0.92920 0.38280 -0.40300
O 	O 	0.61821 0.47340 0.38950 -0.52600
O 	O 	0.58153 0.43060 0.16290 -0.41700
O 	O 	0.66061 0.67468 0.53750 -0.38800
O 	O 	0.68060 0.66019 0.78810 -0.41500
C 	C 	0.63347 0.85470 0.56120 0.08500
C 	C 	0.51870 0.32230 0.31350 0.10300
C 	C 	0.58236 0.43780 0.30590 0.43600
C 	C 	0.65587 0.92670 0.51120 0.10100
C 	C 	0.74689 0.95200 0.51990 0.43100
C 	C 	0.66613 0.70670 0.67160 0.41300
C 	C 	0.54051 0.40550 0.38100 -0.43700
H 	H 	0.55150 0.39650 0.49040 0.14300
H 	H 	0.51590 0.45060 0.37120 0.16200
C 	C 	0.63230 0.97270 0.38420 -0.11400
H 	H 	0.64640 0.02350 0.35290 0.06400
C 	C 	0.70156 0.96460 0.59260 -0.43000
H 	H 	0.70740 0.93960 0.69570 0.14100
H 	H 	0.69670 0.02710 0.60400 0.15900
C 	C 	0.65390 0.80070 0.70180 -0.39700
H 	H 	0.68280 0.82950 0.75260 0.13700
H 	H 	0.63080 0.80110 0.77340 0.14700
C 	C 	0.58975 0.82900 0.48300 -0.11100
H 	H 	0.57460 0.78000 0.51680 0.07900
C 	C 	0.51660 0.16560 0.31210 -0.01800
H 	H 	0.52720 0.11250 0.35740 0.03100
C 	C 	0.56780 0.87410 0.35560 -0.01900
H 	H 	0.53820 0.85540 0.30440 0.02900
C 	C 	0.53570 0.24220 0.37510 -0.12600
H 	H 	0.56010 0.24080 0.45970 0.06200
C 	C 	0.58910 0.94600 0.30380 -0.02300
H 	H 	0.57480 0.97600 0.21630 0.03300
La	La	0.83246 0.01363 0.85798 1.60500
O 	O 	0.71322 0.47302 0.89800 -0.53700
O 	O 	0.75472 0.42920 0.11720 -0.40300
O 	O 	0.88179 0.97340 0.11050 -0.52600
O 	O 	0.91847 0.93060 0.33710 -0.41700
O 	O 	0.83939 0.17468 0.96250 -0.38800
O 	O 	0.81940 0.16019 0.71190 -0.41500
C 	C 	0.86653 0.35470 0.93880 0.08100
C 	C 	0.98130 0.82230 0.18650 0.10300
C 	C 	0.91764 0.93780 0.19410 0.43600
C 	C 	0.84413 0.42670 0.98880 0.10200
C 	C 	0.75311 0.45200 0.98010 0.43000
C 	C 	0.83387 0.20670 0.82840 0.41200
C 	C 	0.95949 0.90550 0.11900 -0.43700
H 	H 	0.94850 0.89650 0.00960 0.14300
H 	H 	0.98410 0.95060 0.12880 0.16200
C 	C 	0.86770 0.47270 0.11580 -0.11500
H 	H 	0.85360 0.52350 0.14710 0.06400
C 	C 	0.79844 0.46460 0.90740 -0.43100
H 	H 	0.79260 0.43960 0.80430 0.14100
H 	H 	0.80330 0.52710 0.89600 0.15900
C 	C 	0.84610 0.30070 0.79820 -0.39500
H 	H 	0.81720 0.32950 0.74740 0.13600
H 	H 	0.86920 0.30110 0.72660 0.14600
C 	C 	0.91025 0.32900 0.01700 -0.10600
H 	H 	0.92540 0.28000 0.98320 0.07600
C 	C 	0.98340 0.66560 0.18790 -0.01800
H 	H 	0.97280 0.61250 0.14260 0.03100
C 	C 	0.93220 0.37410 0.14440 -0.02300
H 	H 	0.96180 0.35540 0.19560 0.03100
C 	C 	0.96430 0.74220 0.12490 -0.12600
H 	H 	0.93990 0.74080 0.04030 0.06200
C 	C 	0.91090 0.44600 0.19620 -0.02000
H 	H 	0.92520 0.47600 0.28370 0.03200
La	La	0.33246 0.51363 0.85798 1.60500
O 	O 	0.21322 0.97302 0.89800 -0.53600
O 	O 	0.25472 0.92920 0.11720 -0.40400
O 	O 	0.38179 0.47340 0.11050 -0.52600
O 	O 	0.41847 0.43060 0.33710 -0.41700
O 	O 	0.33939 0.67468 0.96250 -0.38800
O 	O 	0.31940 0.66019 0.71190 -0.41500
C 	C 	0.36653 0.85470 0.93880 0.08800
C 	C 	0.48130 0.32230 0.18650 0.10300
C 	C 	0.41764 0.43780 0.19410 0.43600
C 	C 	0.34413 0.92670 0.98880 0.10200
C 	C 	0.25311 0.95200 0.98010 0.43200
C 	C 	0.33387 0.70670 0.82840 0.41300
C 	C 	0.45949 0.40550 0.11900 -0.43700
H 	H 	0.44850 0.39650 0.00960 0.14300
H 	H 	0.48410 0.45060 0.12880 0.16200
C 	C 	0.36770 0.97270 0.11580 -0.11700
H 	H 	0.35360 0.02350 0.14710 0.06600
C 	C 	0.29844 0.96460 0.90740 -0.42800
H 	H 	0.29260 0.93960 0.80430 0.14000
H 	H 	0.30330 0.02710 0.89600 0.15700
C 	C 	0.34610 0.80070 0.79820 -0.39900
H 	H 	0.31720 0.82950 0.74740 0.13800
H 	H 	0.36920 0.80110 0.72660 0.14700
C 	C 	0.41025 0.82900 0.01700 -0.11700
H 	H 	0.42540 0.78000 0.98320 0.08200
C 	C 	0.48340 0.16560 0.18790 -0.01800
H 	H 	0.47280 0.11250 0.14260 0.03100
C 	C 	0.43220 0.87410 0.14440 -0.01600
H 	H 	0.46180 0.85540 0.19560 0.02800
C 	C 	0.46430 0.24220 0.12490 -0.12600
H 	H 	0.43990 0.24080 0.04030 0.06300
C 	C 	0.41090 0.94600 0.19620 -0.02300
H 	H 	0.42520 0.97600 0.28370 0.03300
La	La	0.83246 0.98637 0.35798 1.60600
O 	O 	0.71322 0.52698 0.39800 -0.53700
O 	O 	0.75472 0.57080 0.61720 -0.40300
O 	O 	0.88179 0.02660 0.61050 -0.52600
O 	O 	0.91847 0.06940 0.83710 -0.41700
O 	O 	0.83939 0.82532 0.46250 -0.38700
O 	O 	0.81940 0.83981 0.21190 -0.41600
C 	C 	0.86653 0.64530 0.43880 0.08500
C 	C 	0.98130 0.17770 0.68650 0.10300
C 	C 	0.91764 0.06220 0.69410 0.43600
C 	C 	0.84413 0.57330 0.48880 0.10100
C 	C 	0.75311 0.54800 0.48010 0.43100
C 	C 	0.83387 0.79330 0.32840 0.41300
C 	C 	0.95949 0.09450 0.61900 -0.43800
H 	H 	0.94850 0.10350 0.50960 0.14300
H 	H 	0.98410 0.04940 0.62880 0.16200
C 	C 	0.86770 0.52730 0.61580 -0.11200
H 	H 	0.85360 0.47650 0.64710 0.06300
C 	C 	0.79844 0.53540 0.40740 -0.43000
H 	H 	0.79260 0.56040 0.30430 0.14100
H 	H 	0.80330 0.47290 0.39600 0.15900
C 	C 	0.84610 0.69930 0.29820 -0.39700
H 	H 	0.81720 0.67050 0.24740 0.13700
H 	H 	0.86920 0.69890 0.22660 0.14700
C 	C 	0.91025 0.67100 0.51700 -0.11200
H 	H 	0.92540 0.72000 0.48320 0.07900
C 	C 	0.98340 0.33440 0.68790 -0.01800
H 	H 	0.97280 0.38750 0.64260 0.03100
C 	C 	0.93220 0.62590 0.64440 -0.01800
H 	H 	0.96180 0.64460 0.69560 0.02900
C 	C 	0.96430 0.25780 0.62490 -0.12600
H 	H 	0.93990 0.25920 0.54030 0.06200
C 	C 	0.91090 0.55400 0.69620 -0.02400
H 	H 	0.92520 0.52400 0.78370 0.03400
La	La	0.33246 0.48637 0.35798 1.60600
O 	O 	0.21322 0.02698 0.39800 -0.53600
O 	O 	0.25472 0.07080 0.61720 -0.40300
O 	O 	0.38179 0.52660 0.61050 -0.52600
O 	O 	0.41847 0.56940 0.83710 -0.41700
O 	O 	0.33939 0.32532 0.46250 -0.38800
O 	O 	0.31940 0.33981 0.21190 -0.41500
C 	C 	0.36653 0.14530 0.43880 0.08500
C 	C 	0.48130 0.67770 0.68650 0.10300
C 	C 	0.41764 0.56220 0.69410 0.43600
C 	C 	0.34413 0.07330 0.48880 0.10100
C 	C 	0.25311 0.04800 0.48010 0.43100
C 	C 	0.33387 0.29330 0.32840 0.41300
C 	C 	0.45949 0.59450 0.61900 -0.43700
H 	H 	0.44850 0.60350 0.50960 0.14300
H 	H 	0.48410 0.54940 0.62880 0.16200
C 	C 	0.36770 0.02730 0.61580 -0.11400
H 	H 	0.35360 0.97650 0.64710 0.06400
C 	C 	0.29844 0.03540 0.40740 -0.43000
H 	H 	0.29260 0.06040 0.30430 0.14100
H 	H 	0.30330 0.97290 0.39600 0.15900
C 	C 	0.34610 0.19930 0.29820 -0.39700
H 	H 	0.31720 0.17050 0.24740 0.13700
H 	H 	0.36920 0.19890 0.22660 0.14700
C 	C 	0.41025 0.17100 0.51700 -0.11100
H 	H 	0.42540 0.22000 0.48320 0.07900
C 	C 	0.48340 0.83440 0.68790 -0.01800
H 	H 	0.47280 0.88750 0.64260 0.03100
C 	C 	0.43220 0.12590 0.64440 -0.01900
H 	H 	0.46180 0.14460 0.69560 0.02900
C 	C 	0.46430 0.75780 0.62490 -0.12600
H 	H 	0.43990 0.75920 0.54030 0.06200
C 	C 	0.41090 0.05400 0.69620 -0.02300
H 	H 	0.42520 0.02400 0.78370 0.03300
La	La	0.16754 0.98637 0.14202 1.60500
O 	O 	0.28678 0.52698 0.10200 -0.53700
O 	O 	0.24528 0.57080 0.88280 -0.40300
O 	O 	0.11821 0.02660 0.88950 -0.52600
O 	O 	0.08153 0.06940 0.66290 -0.41700
O 	O 	0.16061 0.82532 0.03750 -0.38800
O 	O 	0.18060 0.83981 0.28810 -0.41500
C 	C 	0.13347 0.64530 0.06120 0.08100
C 	C 	0.01870 0.17770 0.81350 0.10300
C 	C 	0.08236 0.06220 0.80590 0.43600
C 	C 	0.15587 0.57330 0.01120 0.10200
C 	C 	0.24689 0.54800 0.01990 0.43000
C 	C 	0.16613 0.79330 0.17160 0.41200
C 	C 	0.04051 0.09450 0.88100 -0.43700
H 	H 	0.05150 0.10350 0.99040 0.14300
H 	H 	0.01590 0.04940 0.87120 0.16200
C 	C 	0.13230 0.52730 0.88420 -0.11500
H 	H 	0.14640 0.47650 0.85290 0.06400
C 	C 	0.20156 0.53540 0.09260 -0.43100
H 	H 	0.20740 0.56040 0.19570 0.14100
H 	H 	0.19670 0.47290 0.10400 0.15900
C 	C 	0.15390 0.69930 0.20180 -0.39500
H 	H 	0.18280 0.67050 0.25260 0.13600
H 	H 	0.13080 0.69890 0.27340 0.14600
C 	C 	0.08975 0.67100 0.98300 -0.10600
H 	H 	0.07460 0.72000 0.01680 0.07600
C 	C 	0.01660 0.33440 0.81210 -0.01800
H 	H 	0.02720 0.38750 0.85740 0.03100
C 	C 	0.06780 0.62590 0.85560 -0.02300
H 	H 	0.03820 0.64460 0.80440 0.03100
C 	C 	0.03570 0.25780 0.87510 -0.12600
H 	H 	0.06010 0.25920 0.95970 0.06200
C 	C 	0.08910 0.55400 0.80380 -0.02000
H 	H 	0.07480 0.52400 0.71630 0.03200
La	La	0.66754 0.48637 0.14202 1.60500
O 	O 	0.78678 0.02698 0.10200 -0.53600
O 	O 	0.74528 0.07080 0.88280 -0.40400
O 	O 	0.61821 0.52660 0.88950 -0.52600
O 	O 	0.58153 0.56940 0.66290 -0.41700
O 	O 	0.66061 0.32532 0.03750 -0.38800
O 	O 	0.68060 0.33981 0.28810 -0.41500
C 	C 	0.63347 0.14530 0.06120 0.08800
C 	C 	0.51870 0.67770 0.81350 0.10300
C 	C 	0.58236 0.56220 0.80590 0.43600
C 	C 	0.65587 0.07330 0.01120 0.10200
C 	C 	0.74689 0.04800 0.01990 0.43200
C 	C 	0.66613 0.29330 0.17160 0.41300
C 	C 	0.54051 0.59450 0.88100 -0.43700
H 	H 	0.55150 0.60350 0.99040 0.14300
H 	H 	0.51590 0.54940 0.87120 0.16200
C 	C 	0.63230 0.02730 0.88420 -0.11700
H 	H 	0.64640 0.97650 0.85290 0.06600
C 	C 	0.70156 0.03540 0.09260 -0.42800
H 	H 	0.70740 0.06040 0.19570 0.14000
H 	H 	0.69670 0.97290 0.10400 0.15700
C 	C 	0.65390 0.19930 0.20180 -0.39900
H 	H 	0.68280 0.17050 0.25260 0.13800
H 	H 	0.63080 0.19890 0.27340 0.14700
C 	C 	0.58975 0.17100 0.98300 -0.11700
H 	H 	0.57460 0.22000 0.01680 0.08200
C 	C 	0.51660 0.83440 0.81210 -0.01800
H 	H 	0.52720 0.88750 0.85740 0.03100
C 	C 	0.56780 0.12590 0.85560 -0.01600
H 	H 	0.53820 0.14460 0.80440 0.02800
C 	C 	0.53570 0.75780 0.87510 -0.12600
H 	H 	0.56010 0.75920 0.95970 0.06300
C 	C 	0.58910 0.05400 0.80380 -0.02300
H 	H 	0.57480 0.02400 0.71630 0.03300
