data_crystal

_cell_length_a 29.66880
_cell_length_b 29.66880
_cell_length_c 72.71250
_cell_angle_alpha 90.00000
_cell_angle_beta  90.00000
_cell_angle_gamma 120.00000

_symmetry_space_group_name_	'P 1'
_symmetry_space_group_name_H-M	'P 1'

loop_
_symmetry_equiv_pos_as_xyz
  x,y,z

loop_
_atom_site_label
_atom_site_type_symbol
_atom_site_fract_x
_atom_site_fract_y
_atom_site_fract_z
_atom_site_charge
C 	C 	0.41170 0.58280 0.33361 -0.10600
C 	C 	0.46140 0.60890 0.34110 0.08900
C 	C 	0.47810 0.58280 0.35260 -0.14300
C 	C 	0.44510 0.53040 0.35660 0.19500
C 	C 	0.39540 0.50430 0.34910 -0.07200
C 	C 	0.37870 0.53050 0.33760 0.07200
C 	C 	0.39280 0.61160 0.32070 0.28400
C 	C 	0.58180 0.41000 0.41834 -0.09800
C 	C 	0.60840 0.45960 0.41080 0.08900
C 	C 	0.58230 0.47710 0.39960 -0.12600
C 	C 	0.52960 0.44490 0.39600 0.18600
C 	C 	0.50300 0.39530 0.40350 -0.06700
C 	C 	0.52910 0.37780 0.41470 0.07600
C 	C 	0.35570 0.44650 0.35340 0.02600
C 	C 	0.82990 0.91630 0.16530 -0.11000
C 	C 	0.82990 0.92340 0.18420 0.08400
C 	C 	0.78310 0.90510 0.19350 -0.12300
C 	C 	0.73630 0.87980 0.18400 0.13800
C 	C 	0.73620 0.87260 0.16510 -0.04500
C 	C 	0.78300 0.89090 0.15570 0.06600
C 	C 	0.37600 0.41510 0.34880 0.02300
C 	C 	0.49310 0.74890 0.25090 -0.11600
C 	C 	0.54450 0.77250 0.25680 0.08700
C 	C 	0.58480 0.79630 0.24420 -0.12000
C 	C 	0.57380 0.79670 0.22560 0.15500
C 	C 	0.52240 0.77310 0.21970 -0.05700
C 	C 	0.48200 0.74920 0.23240 0.07100
C 	C 	0.30900 0.43500 0.34430 -0.00400
C 	C 	0.34300 0.44060 0.37210 0.01100
C 	C 	0.52910 0.61580 0.35900 0.10000
C 	C 	0.61260 0.39230 0.43080 0.29100
C 	C 	0.44370 0.36020 0.39890 0.01700
C 	C 	0.42370 0.31140 0.40770 0.00300
C 	C 	0.43780 0.35360 0.37990 0.03500
C 	C 	0.41650 0.38460 0.40430 0.01500
C 	C 	0.61630 0.52830 0.39340 0.11000
C 	C 	0.60760 0.63170 0.37330 0.05500
C 	C 	0.63910 0.69240 0.37220 -0.00700
C 	C 	0.68580 0.72200 0.38340 0.00800
C 	C 	0.70390 0.69250 0.39370 0.01000
C 	C 	0.69180 0.63870 0.38730 0.01400
C 	C 	0.63610 0.60640 0.37550 0.01500
C 	C 	0.88130 0.93640 0.15460 0.29900
C 	C 	0.68440 0.84290 0.15390 0.00800
C 	C 	0.64330 0.85100 0.15800 0.03100
C 	C 	0.66400 0.78900 0.15440 0.04800
C 	C 	0.69600 0.85600 0.13500 0.00400
C 	C 	0.78830 0.91330 0.21270 0.06500
C 	C 	0.44690 0.72200 0.26430 0.32700
C 	C 	0.50400 0.77030 0.19930 0.01500
C 	C 	0.50900 0.81900 0.19460 0.00900
C 	C 	0.45000 0.73330 0.19740 0.00100
C 	C 	0.53030 0.75600 0.18660 0.03800
C 	C 	0.63520 0.81760 0.25210 0.07400
C 	C 	0.76500 0.87220 0.24270 0.02900
C 	C 	0.82000 0.88010 0.24960 -0.00000
C 	C 	0.82050 0.84910 0.26570 0.01100
C 	C 	0.78000 0.83630 0.27910 0.00100
C 	C 	0.72700 0.83090 0.27390 0.00200
C 	C 	0.72310 0.82930 0.25120 0.01200
Cl	Cl	0.54330 0.48440 0.34430 -0.48600
Cl	Cl	0.67090 0.74700 0.20850 -0.43600
Mn	Mn	0.53270 0.52240 0.36888 1.37700
Mn	Mn	0.68210 0.82500 0.21518 1.36300
N 	N 	0.56130 0.59940 0.36480 -0.23300
N 	N 	0.60160 0.55370 0.38190 -0.22400
N 	N 	0.75680 0.87260 0.22410 -0.24700
N 	N 	0.67340 0.81450 0.24320 -0.23600
O 	O 	0.42530 0.66080 0.31470 -0.45500
O 	O 	0.34130 0.58370 0.31600 -0.45400
O 	O 	0.45900 0.49990 0.36870 -0.45500
O 	O 	0.65880 0.42400 0.43730 -0.46400
O 	O 	0.58080 0.34030 0.43250 -0.45500
O 	O 	0.50020 0.46140 0.38370 -0.40700
O 	O 	0.92940 0.95960 0.16230 -0.44300
O 	O 	0.87930 0.93070 0.13610 -0.44200
O 	O 	0.68590 0.85990 0.19300 -0.35900
O 	O 	0.45430 0.72470 0.28220 -0.48400
O 	O 	0.40130 0.69630 0.25580 -0.47800
O 	O 	0.61690 0.82150 0.21240 -0.35000
Zn	Zn	0.40473 0.69958 0.30052 1.21800
Zn	Zn	0.92915 0.96542 0.11603 1.20900
C 	C 	0.86910 0.67250 0.53590 0.13500
C 	C 	0.51230 0.53380 0.38680 -0.54400
C 	C 	0.81780 0.68090 0.53170 -0.28600
C 	C 	0.48000 0.49610 0.38200 0.40100
C 	C 	0.07837 0.91613 0.66694 -0.10700
C 	C 	0.12807 0.94223 0.67443 0.08900
C 	C 	0.14477 0.91613 0.68593 -0.14400
C 	C 	0.11177 0.86373 0.68993 0.19400
C 	C 	0.06207 0.83763 0.68243 -0.07300
C 	C 	0.04537 0.86383 0.67093 0.07000
C 	C 	0.05947 0.94493 0.65403 0.28300
C 	C 	0.24847 0.74333 0.75167 -0.09900
C 	C 	0.27507 0.79293 0.74413 0.08800
C 	C 	0.24897 0.81043 0.73293 -0.12700
C 	C 	0.19627 0.77823 0.72933 0.18500
C 	C 	0.16967 0.72863 0.73683 -0.06800
C 	C 	0.19577 0.71113 0.74803 0.07500
C 	C 	0.02237 0.77983 0.68673 0.02300
C 	C 	0.49657 0.24963 0.49863 -0.11200
C 	C 	0.49657 0.25673 0.51753 0.08200
C 	C 	0.44977 0.23843 0.52683 -0.12400
C 	C 	0.40297 0.21313 0.51733 0.13700
C 	C 	0.40287 0.20593 0.49843 -0.04600
C 	C 	0.44967 0.22423 0.48903 0.06500
C 	C 	0.04267 0.74843 0.68213 0.02200
C 	C 	0.15977 0.08223 0.58423 -0.11700
C 	C 	0.21117 0.10583 0.59013 0.08500
C 	C 	0.25147 0.12963 0.57753 -0.12100
C 	C 	0.24047 0.13003 0.55893 0.15400
C 	C 	0.18907 0.10643 0.55303 -0.05900
C 	C 	0.14867 0.08253 0.56573 0.07100
C 	C 	0.97567 0.76833 0.67763 -0.00200
C 	C 	0.00967 0.77393 0.70543 0.01000
C 	C 	0.19577 0.94913 0.69233 0.10100
C 	C 	0.27927 0.72563 0.76413 0.29100
C 	C 	0.11037 0.69353 0.73223 0.01700
C 	C 	0.09037 0.64473 0.74103 0.00300
C 	C 	0.10447 0.68693 0.71323 0.03400
C 	C 	0.08317 0.71793 0.73763 0.01500
C 	C 	0.28297 0.86163 0.72673 0.11000
C 	C 	0.27427 0.96503 0.70663 0.05800
C 	C 	0.30577 0.02573 0.70553 -0.01100
C 	C 	0.35247 0.05533 0.71673 0.00900
C 	C 	0.37057 0.02583 0.72703 0.00600
C 	C 	0.35847 0.97203 0.72063 0.01800
C 	C 	0.30277 0.93973 0.70883 0.01400
C 	C 	0.54797 0.26973 0.48793 0.29900
C 	C 	0.35107 0.17623 0.48723 0.00900
C 	C 	0.30997 0.18433 0.49133 0.03000
C 	C 	0.33067 0.12233 0.48773 0.04700
C 	C 	0.36267 0.18933 0.46833 0.00400
C 	C 	0.45497 0.24663 0.54603 0.06400
C 	C 	0.11357 0.05533 0.59763 0.32700
C 	C 	0.17067 0.10363 0.53263 0.01600
C 	C 	0.17567 0.15233 0.52793 0.00800
C 	C 	0.11667 0.06663 0.53073 -0.00100
C 	C 	0.19697 0.08933 0.51993 0.03700
C 	C 	0.30187 0.15093 0.58543 0.07300
C 	C 	0.43167 0.20553 0.57603 0.02900
C 	C 	0.48667 0.21343 0.58293 -0.00100
C 	C 	0.48717 0.18243 0.59903 0.01000
C 	C 	0.44667 0.16963 0.61243 0.00100
C 	C 	0.39367 0.16423 0.60723 0.00200
C 	C 	0.38977 0.16263 0.58453 0.01200
Cl	Cl	0.20997 0.81773 0.67763 -0.48600
Cl	Cl	0.33757 0.08033 0.54183 -0.43700
Mn	Mn	0.19937 0.85573 0.70221 1.37700
Mn	Mn	0.34877 0.15833 0.54851 1.36300
N 	N 	0.22797 0.93273 0.69813 -0.23300
N 	N 	0.26827 0.88703 0.71523 -0.22400
N 	N 	0.42347 0.20593 0.55743 -0.24700
N 	N 	0.34007 0.14783 0.57653 -0.23600
O 	O 	0.09197 0.99413 0.64803 -0.45400
O 	O 	0.00797 0.91703 0.64933 -0.45400
O 	O 	0.12567 0.83323 0.70203 -0.45400
O 	O 	0.32547 0.75733 0.77063 -0.46400
O 	O 	0.24747 0.67363 0.76583 -0.45500
O 	O 	0.16687 0.79473 0.71703 -0.40700
O 	O 	0.59607 0.29293 0.49563 -0.44500
O 	O 	0.54597 0.26403 0.46943 -0.44300
O 	O 	0.35257 0.19323 0.52633 -0.35800
O 	O 	0.12097 0.05803 0.61553 -0.48500
O 	O 	0.06797 0.02963 0.58913 -0.47900
O 	O 	0.28357 0.15483 0.54573 -0.35000
Zn	Zn	0.07140 0.03291 0.63385 1.21700
Zn	Zn	0.59582 0.29875 0.44936 1.20800
C 	C 	0.53577 0.00583 0.86923 0.13000
C 	C 	0.17897 0.86713 0.72013 -0.54400
C 	C 	0.48447 0.01423 0.86503 -0.28900
C 	C 	0.14667 0.82943 0.71533 0.40000
C 	C 	0.74503 0.24947 0.00028 -0.10700
C 	C 	0.79473 0.27557 0.00777 0.08800
C 	C 	0.81143 0.24947 0.01927 -0.14400
C 	C 	0.77843 0.19707 0.02327 0.19400
C 	C 	0.72873 0.17097 0.01577 -0.07300
C 	C 	0.71203 0.19717 0.00427 0.07100
C 	C 	0.72613 0.27827 0.98737 0.28300
C 	C 	0.91513 0.07667 0.08501 -0.09800
C 	C 	0.94173 0.12627 0.07747 0.08800
C 	C 	0.91563 0.14377 0.06627 -0.12700
C 	C 	0.86293 0.11157 0.06267 0.18500
C 	C 	0.83633 0.06197 0.07017 -0.06700
C 	C 	0.86243 0.04447 0.08137 0.07400
C 	C 	0.68903 0.11317 0.02007 0.02500
C 	C 	0.16323 0.58297 0.83197 -0.11200
C 	C 	0.16323 0.59007 0.85087 0.08200
C 	C 	0.11643 0.57177 0.86017 -0.12400
C 	C 	0.06963 0.54647 0.85067 0.13700
C 	C 	0.06953 0.53927 0.83177 -0.04600
C 	C 	0.11633 0.55757 0.82237 0.06400
C 	C 	0.70933 0.08177 0.01547 0.02100
C 	C 	0.82643 0.41557 0.91757 -0.11700
C 	C 	0.87783 0.43917 0.92347 0.08600
C 	C 	0.91813 0.46297 0.91087 -0.12100
C 	C 	0.90713 0.46337 0.89227 0.15500
C 	C 	0.85573 0.43977 0.88637 -0.05900
C 	C 	0.81533 0.41587 0.89907 0.07200
C 	C 	0.64233 0.10167 0.01097 -0.00500
C 	C 	0.67633 0.10727 0.03877 0.01000
C 	C 	0.86243 0.28247 0.02567 0.10000
C 	C 	0.94593 0.05897 0.09747 0.29100
C 	C 	0.77703 0.02687 0.06557 0.01500
C 	C 	0.75703 0.97807 0.07437 0.00600
C 	C 	0.77113 0.02027 0.04657 0.03400
C 	C 	0.74983 0.05127 0.07097 0.01500
C 	C 	0.94963 0.19497 0.06007 0.11100
C 	C 	0.94093 0.29837 0.03997 0.05400
C 	C 	0.97243 0.35907 0.03887 -0.00400
C 	C 	0.01913 0.38867 0.05007 0.00500
C 	C 	0.03723 0.35917 0.06037 0.01000
C 	C 	0.02513 0.30537 0.05397 0.01100
C 	C 	0.96943 0.27307 0.04217 0.01700
C 	C 	0.21463 0.60307 0.82127 0.29900
C 	C 	0.01773 0.50957 0.82057 0.00400
C 	C 	0.97663 0.51767 0.82467 0.03300
C 	C 	0.99733 0.45567 0.82107 0.05100
C 	C 	0.02933 0.52267 0.80167 0.00400
C 	C 	0.12163 0.57997 0.87937 0.06400
C 	C 	0.78023 0.38867 0.93097 0.32700
C 	C 	0.83733 0.43697 0.86597 0.01500
C 	C 	0.84233 0.48567 0.86127 0.00900
C 	C 	0.78333 0.39997 0.86407 0.00100
C 	C 	0.86363 0.42267 0.85327 0.03800
C 	C 	0.96853 0.48427 0.91877 0.07600
C 	C 	0.09833 0.53887 0.90937 0.02900
C 	C 	0.15333 0.54677 0.91627 -0.00100
C 	C 	0.15383 0.51577 0.93237 0.01000
C 	C 	0.11333 0.50297 0.94577 0.00100
C 	C 	0.06033 0.49757 0.94057 0.00100
C 	C 	0.05643 0.49597 0.91787 0.01200
Cl	Cl	0.87663 0.15107 0.01097 -0.48500
Cl	Cl	0.00423 0.41367 0.87517 -0.43800
Mn	Mn	0.86603 0.18907 0.03555 1.37700
Mn	Mn	0.01543 0.49167 0.88185 1.36200
N 	N 	0.89463 0.26607 0.03147 -0.23300
N 	N 	0.93493 0.22037 0.04857 -0.22400
N 	N 	0.09013 0.53927 0.89077 -0.24700
N 	N 	0.00673 0.48117 0.90987 -0.23700
O 	O 	0.75863 0.32747 0.98137 -0.45500
O 	O 	0.67463 0.25037 0.98267 -0.45400
O 	O 	0.79233 0.16657 0.03537 -0.45500
O 	O 	0.99213 0.09067 0.10397 -0.46200
O 	O 	0.91413 0.00697 0.09917 -0.45500
O 	O 	0.83353 0.12807 0.05037 -0.40700
O 	O 	0.26273 0.62627 0.82897 -0.44500
O 	O 	0.21263 0.59737 0.80277 -0.44300
O 	O 	0.01923 0.52657 0.85967 -0.36300
O 	O 	0.78763 0.39137 0.94887 -0.48400
O 	O 	0.73463 0.36297 0.92247 -0.47800
O 	O 	0.95023 0.48817 0.87907 -0.35100
Zn	Zn	0.73806 0.36625 0.96719 1.21800
Zn	Zn	0.26248 0.63209 0.78270 1.20800
C 	C 	0.20243 0.33917 0.20257 0.13500
C 	C 	0.84563 0.20047 0.05347 -0.54400
C 	C 	0.15113 0.34757 0.19837 -0.28600
C 	C 	0.81333 0.16277 0.04867 0.40100
C 	C 	0.41720 0.82890 0.33361 -0.10700
C 	C 	0.39110 0.85250 0.34110 0.08800
C 	C 	0.41720 0.89530 0.35260 -0.14400
C 	C 	0.46960 0.91470 0.35660 0.19400
C 	C 	0.49570 0.89110 0.34910 -0.07300
C 	C 	0.46950 0.84820 0.33760 0.07100
C 	C 	0.38840 0.78120 0.32070 0.28300
C 	C 	0.59000 0.17180 0.41834 -0.09900
C 	C 	0.54040 0.14880 0.41080 0.08700
C 	C 	0.52290 0.10520 0.39960 -0.12700
C 	C 	0.55510 0.08470 0.39600 0.18500
C 	C 	0.60470 0.10770 0.40350 -0.06800
C 	C 	0.62220 0.15130 0.41470 0.07500
C 	C 	0.55350 0.90920 0.35340 0.02400
C 	C 	0.08370 0.91360 0.16530 -0.11100
C 	C 	0.07660 0.90650 0.18420 0.08200
C 	C 	0.09490 0.87800 0.19350 -0.12400
C 	C 	0.12020 0.85650 0.18400 0.13600
C 	C 	0.12740 0.86360 0.16510 -0.04600
C 	C 	0.10910 0.89210 0.15570 0.06500
C 	C 	0.58490 0.96090 0.34880 0.02300
C 	C 	0.25110 0.74420 0.25090 -0.11700
C 	C 	0.22750 0.77200 0.25680 0.08500
C 	C 	0.20370 0.78850 0.24420 -0.12100
C 	C 	0.20330 0.77710 0.22560 0.15400
C 	C 	0.22690 0.74930 0.21970 -0.05800
C 	C 	0.25080 0.73280 0.23240 0.07100
C 	C 	0.56500 0.87400 0.34430 -0.00400
C 	C 	0.55940 0.90240 0.37210 0.01200
C 	C 	0.38420 0.91330 0.35900 0.10000
C 	C 	0.60770 0.22030 0.43080 0.29100
C 	C 	0.63980 0.08350 0.39890 0.01700
C 	C 	0.68860 0.11230 0.40770 0.00300
C 	C 	0.64640 0.08420 0.37990 0.03400
C 	C 	0.61540 0.03190 0.40430 0.01400
C 	C 	0.47170 0.08800 0.39340 0.11000
C 	C 	0.36830 0.97590 0.37330 0.05800
C 	C 	0.30760 0.94670 0.37220 -0.00800
C 	C 	0.27800 0.96380 0.38340 0.01100
C 	C 	0.30750 0.01140 0.39370 0.00700
C 	C 	0.36130 0.05310 0.38730 0.01400
C 	C 	0.39360 0.02970 0.37550 0.01200
C 	C 	0.06360 0.94490 0.15460 0.29900
C 	C 	0.15710 0.84150 0.15390 0.00800
C 	C 	0.14900 0.79230 0.15800 0.03000
C 	C 	0.21100 0.87500 0.15440 0.04900
C 	C 	0.14400 0.84000 0.13500 0.00400
C 	C 	0.08670 0.87500 0.21270 0.06400
C 	C 	0.27800 0.72490 0.26430 0.32700
C 	C 	0.22970 0.73370 0.19930 0.01500
C 	C 	0.18100 0.69000 0.19460 0.00800
C 	C 	0.26670 0.71670 0.19740 0.00100
C 	C 	0.24400 0.77430 0.18660 0.03800
C 	C 	0.18240 0.81760 0.25210 0.07300
C 	C 	0.12780 0.89280 0.24270 0.02900
C 	C 	0.11990 0.93990 0.24960 -0.00100
C 	C 	0.15090 0.97140 0.26570 0.01100
C 	C 	0.16370 0.94370 0.27910 0.00100
C 	C 	0.16910 0.89610 0.27390 0.00200
C 	C 	0.17070 0.89380 0.25120 0.01300
Cl	Cl	0.51560 0.05890 0.34430 -0.48700
Cl	Cl	0.25300 0.92390 0.20850 -0.43500
Mn	Mn	0.47760 0.01030 0.36888 1.37600
Mn	Mn	0.17500 0.85710 0.21518 1.36300
N 	N 	0.40060 0.96190 0.36480 -0.23300
N 	N 	0.44630 0.04790 0.38190 -0.22400
N 	N 	0.12740 0.88420 0.22410 -0.24700
N 	N 	0.18550 0.85890 0.24320 -0.23600
O 	O 	0.33920 0.76450 0.31470 -0.45500
O 	O 	0.41630 0.75760 0.31600 -0.45400
O 	O 	0.50010 0.95910 0.36870 -0.45500
O 	O 	0.57600 0.23480 0.43730 -0.46400
O 	O 	0.65970 0.24050 0.43250 -0.45500
O 	O 	0.53860 0.03880 0.38370 -0.40800
O 	O 	0.04040 0.96980 0.16230 -0.44500
O 	O 	0.06930 0.94860 0.13610 -0.44300
O 	O 	0.14010 0.82600 0.19300 -0.35800
O 	O 	0.27530 0.72960 0.28220 -0.48400
O 	O 	0.30370 0.70500 0.25580 -0.47800
O 	O 	0.17850 0.79540 0.21240 -0.35000
Zn	Zn	0.30042 0.70515 0.30052 1.21800
Zn	Zn	0.03458 0.96373 0.11603 1.20800
C 	C 	0.32750 0.19660 0.53590 0.13500
C 	C 	0.46620 0.97850 0.38680 -0.54300
C 	C 	0.31910 0.13690 0.53170 -0.28600
C 	C 	0.50390 0.98390 0.38200 0.40300
C 	C 	0.08387 0.16223 0.66694 -0.10700
C 	C 	0.05777 0.18583 0.67443 0.08700
C 	C 	0.08387 0.22863 0.68593 -0.14400
C 	C 	0.13627 0.24803 0.68993 0.19300
C 	C 	0.16237 0.22443 0.68243 -0.07300
C 	C 	0.13617 0.18153 0.67093 0.07100
C 	C 	0.05507 0.11453 0.65403 0.28200
C 	C 	0.25667 0.50513 0.75167 -0.09900
C 	C 	0.20707 0.48213 0.74413 0.08700
C 	C 	0.18957 0.43853 0.73293 -0.12600
C 	C 	0.22177 0.41803 0.72933 0.18500
C 	C 	0.27137 0.44103 0.73683 -0.06800
C 	C 	0.28887 0.48463 0.74803 0.07500
C 	C 	0.22017 0.24253 0.68673 0.02500
C 	C 	0.75037 0.24693 0.49863 -0.11200
C 	C 	0.74327 0.23983 0.51753 0.08200
C 	C 	0.76157 0.21133 0.52683 -0.12400
C 	C 	0.78687 0.18983 0.51733 0.13600
C 	C 	0.79407 0.19693 0.49843 -0.04600
C 	C 	0.77577 0.22543 0.48903 0.06500
C 	C 	0.25157 0.29423 0.68213 0.02200
C 	C 	0.91777 0.07753 0.58423 -0.11700
C 	C 	0.89417 0.10533 0.59013 0.08500
C 	C 	0.87037 0.12183 0.57753 -0.12100
C 	C 	0.86997 0.11043 0.55893 0.15400
C 	C 	0.89357 0.08263 0.55303 -0.05800
C 	C 	0.91747 0.06613 0.56573 0.07100
C 	C 	0.23167 0.20733 0.67763 -0.00500
C 	C 	0.22607 0.23573 0.70543 0.01100
C 	C 	0.05087 0.24663 0.69233 0.09900
C 	C 	0.27437 0.55363 0.76413 0.29100
C 	C 	0.30647 0.41683 0.73223 0.01700
C 	C 	0.35527 0.44563 0.74103 0.00300
C 	C 	0.31307 0.41753 0.71323 0.03500
C 	C 	0.28207 0.36523 0.73763 0.01500
C 	C 	0.13837 0.42133 0.72673 0.11000
C 	C 	0.03497 0.30923 0.70663 0.05300
C 	C 	0.97427 0.28003 0.70553 -0.00500
C 	C 	0.94467 0.29713 0.71673 0.00700
C 	C 	0.97417 0.34473 0.72703 0.01200
C 	C 	0.02797 0.38643 0.72063 0.01200
C 	C 	0.06027 0.36303 0.70883 0.01500
C 	C 	0.73027 0.27823 0.48793 0.29900
C 	C 	0.82377 0.17483 0.48723 0.00800
C 	C 	0.81567 0.12563 0.49133 0.03000
C 	C 	0.87767 0.20833 0.48773 0.04900
C 	C 	0.81067 0.17333 0.46833 0.00400
C 	C 	0.75337 0.20833 0.54603 0.06400
C 	C 	0.94467 0.05823 0.59763 0.32700
C 	C 	0.89637 0.06703 0.53263 0.01500
C 	C 	0.84767 0.02333 0.52793 0.00700
C 	C 	0.93337 0.05003 0.53073 0.00100
C 	C 	0.91067 0.10763 0.51993 0.03900
C 	C 	0.84907 0.15093 0.58543 0.07400
C 	C 	0.79447 0.22613 0.57603 0.02900
C 	C 	0.78657 0.27323 0.58293 -0.00100
C 	C 	0.81757 0.30473 0.59903 0.01000
C 	C 	0.83037 0.27703 0.61243 0.00100
C 	C 	0.83577 0.22943 0.60723 0.00200
C 	C 	0.83737 0.22713 0.58453 0.01200
Cl	Cl	0.18227 0.39223 0.67763 -0.48600
Cl	Cl	0.91967 0.25723 0.54183 -0.43500
Mn	Mn	0.14427 0.34363 0.70221 1.37700
Mn	Mn	0.84167 0.19043 0.54851 1.36300
N 	N 	0.06727 0.29523 0.69813 -0.23300
N 	N 	0.11297 0.38123 0.71523 -0.22400
N 	N 	0.79407 0.21753 0.55743 -0.24700
N 	N 	0.85217 0.19223 0.57653 -0.23600
O 	O 	0.00587 0.09783 0.64803 -0.45700
O 	O 	0.08297 0.09093 0.64933 -0.45500
O 	O 	0.16677 0.29243 0.70203 -0.45500
O 	O 	0.24267 0.56813 0.77063 -0.46400
O 	O 	0.32637 0.57383 0.76583 -0.45500
O 	O 	0.20527 0.37213 0.71703 -0.40700
O 	O 	0.70707 0.30313 0.49563 -0.44500
O 	O 	0.73597 0.28193 0.46943 -0.44300
O 	O 	0.80677 0.15933 0.52633 -0.35800
O 	O 	0.94197 0.06293 0.61553 -0.48400
O 	O 	0.97037 0.03833 0.58913 -0.47700
O 	O 	0.84517 0.12873 0.54573 -0.35000
Zn	Zn	0.96709 0.03848 0.63385 1.21800
Zn	Zn	0.70125 0.29706 0.44936 1.20800
C 	C 	0.99417 0.52993 0.86923 0.13900
C 	C 	0.13287 0.31183 0.72013 -0.54500
C 	C 	0.98577 0.47023 0.86503 -0.28300
C 	C 	0.17057 0.31723 0.71533 0.40100
C 	C 	0.75053 0.49557 0.00028 -0.10700
C 	C 	0.72443 0.51917 0.00777 0.08800
C 	C 	0.75053 0.56197 0.01927 -0.14400
C 	C 	0.80293 0.58137 0.02327 0.19400
C 	C 	0.82903 0.55777 0.01577 -0.07300
C 	C 	0.80283 0.51487 0.00427 0.07100
C 	C 	0.72173 0.44787 0.98737 0.28300
C 	C 	0.92333 0.83847 0.08501 -0.09900
C 	C 	0.87373 0.81547 0.07747 0.08800
C 	C 	0.85623 0.77187 0.06627 -0.12700
C 	C 	0.88843 0.75137 0.06267 0.18500
C 	C 	0.93803 0.77437 0.07017 -0.06800
C 	C 	0.95553 0.81797 0.08137 0.07600
C 	C 	0.88683 0.57587 0.02007 0.02400
C 	C 	0.41703 0.58027 0.83197 -0.11200
C 	C 	0.40993 0.57317 0.85087 0.08200
C 	C 	0.42823 0.54467 0.86017 -0.12400
C 	C 	0.45353 0.52317 0.85067 0.13700
C 	C 	0.46073 0.53027 0.83177 -0.04600
C 	C 	0.44243 0.55877 0.82237 0.06500
C 	C 	0.91823 0.62757 0.01547 0.02300
C 	C 	0.58443 0.41087 0.91757 -0.11700
C 	C 	0.56083 0.43867 0.92347 0.08500
C 	C 	0.53703 0.45517 0.91087 -0.12100
C 	C 	0.53663 0.44377 0.89227 0.15400
C 	C 	0.56023 0.41597 0.88637 -0.05800
C 	C 	0.58413 0.39947 0.89907 0.07100
C 	C 	0.89833 0.54067 0.01097 -0.00400
C 	C 	0.89273 0.56907 0.03877 0.01100
C 	C 	0.71753 0.57997 0.02567 0.10000
C 	C 	0.94103 0.88697 0.09747 0.29200
C 	C 	0.97313 0.75017 0.06557 0.01900
C 	C 	0.02193 0.77897 0.07437 0.00000
C 	C 	0.97973 0.75087 0.04657 0.03500
C 	C 	0.94873 0.69857 0.07097 0.01600
C 	C 	0.80503 0.75467 0.06007 0.11000
C 	C 	0.70163 0.64257 0.03997 0.05500
C 	C 	0.64093 0.61337 0.03887 -0.00700
C 	C 	0.61133 0.63047 0.05007 0.00800
C 	C 	0.64083 0.67807 0.06037 0.01000
C 	C 	0.69463 0.71977 0.05397 0.01400
C 	C 	0.72693 0.69637 0.04217 0.01500
C 	C 	0.39693 0.61157 0.82127 0.29900
C 	C 	0.49043 0.50817 0.82057 0.00800
C 	C 	0.48233 0.45897 0.82467 0.03000
C 	C 	0.54433 0.54167 0.82107 0.04800
C 	C 	0.47733 0.50667 0.80167 0.00400
C 	C 	0.42003 0.54167 0.87937 0.06400
C 	C 	0.61133 0.39157 0.93097 0.32700
C 	C 	0.56303 0.40037 0.86597 0.01500
C 	C 	0.51433 0.35667 0.86127 0.00800
C 	C 	0.60003 0.38337 0.86407 0.00100
C 	C 	0.57733 0.44097 0.85327 0.03800
C 	C 	0.51573 0.48427 0.91877 0.07400
C 	C 	0.46113 0.55947 0.90937 0.02900
C 	C 	0.45323 0.60657 0.91627 -0.00100
C 	C 	0.48423 0.63807 0.93237 0.01000
C 	C 	0.49703 0.61037 0.94577 0.00100
C 	C 	0.50243 0.56277 0.94057 0.00200
C 	C 	0.50403 0.56047 0.91787 0.01200
Cl	Cl	0.84893 0.72557 0.01097 -0.48500
Cl	Cl	0.58633 0.59057 0.87517 -0.43600
Mn	Mn	0.81093 0.67697 0.03555 1.37700
Mn	Mn	0.50833 0.52377 0.88185 1.36300
N 	N 	0.73393 0.62857 0.03147 -0.23300
N 	N 	0.77963 0.71457 0.04857 -0.22400
N 	N 	0.46073 0.55087 0.89077 -0.24700
N 	N 	0.51883 0.52557 0.90987 -0.23600
O 	O 	0.67253 0.43117 0.98137 -0.45500
O 	O 	0.74963 0.42427 0.98267 -0.45400
O 	O 	0.83343 0.62577 0.03537 -0.45400
O 	O 	0.90933 0.90147 0.10397 -0.46300
O 	O 	0.99303 0.90717 0.09917 -0.45300
O 	O 	0.87193 0.70547 0.05037 -0.40700
O 	O 	0.37373 0.63647 0.82897 -0.44500
O 	O 	0.40263 0.61527 0.80277 -0.44300
O 	O 	0.47343 0.49267 0.85967 -0.35900
O 	O 	0.60863 0.39627 0.94887 -0.48400
O 	O 	0.63703 0.37167 0.92247 -0.47800
O 	O 	0.51183 0.46207 0.87907 -0.35100
Zn	Zn	0.63375 0.37182 0.96719 1.21800
Zn	Zn	0.36791 0.63040 0.78270 1.20800
C 	C 	0.66083 0.86327 0.20257 0.13500
C 	C 	0.79953 0.64517 0.05347 -0.54400
C 	C 	0.65243 0.80357 0.19837 -0.28600
C 	C 	0.83723 0.65057 0.04867 0.40100
C 	C 	0.17110 0.58830 0.33361 -0.10700
C 	C 	0.14750 0.53860 0.34110 0.08700
C 	C 	0.10470 0.52190 0.35260 -0.14400
C 	C 	0.08530 0.55490 0.35660 0.19300
C 	C 	0.10890 0.60460 0.34910 -0.07400
C 	C 	0.15180 0.62130 0.33760 0.07100
C 	C 	0.21880 0.60720 0.32070 0.28300
C 	C 	0.82820 0.41820 0.41834 -0.09800
C 	C 	0.85120 0.39160 0.41080 0.08800
C 	C 	0.89480 0.41770 0.39960 -0.12600
C 	C 	0.91530 0.47040 0.39600 0.18500
C 	C 	0.89230 0.49700 0.40350 -0.06700
C 	C 	0.84870 0.47090 0.41470 0.07500
C 	C 	0.09080 0.64430 0.35340 0.02600
C 	C 	0.08640 0.17010 0.16530 -0.11200
C 	C 	0.09350 0.17010 0.18420 0.08100
C 	C 	0.12200 0.21690 0.19350 -0.12400
C 	C 	0.14350 0.26370 0.18400 0.13600
C 	C 	0.13640 0.26380 0.16510 -0.04600
C 	C 	0.10790 0.21700 0.15570 0.06400
C 	C 	0.03910 0.62400 0.34880 0.02000
C 	C 	0.25580 0.50690 0.25090 -0.11700
C 	C 	0.22800 0.45550 0.25680 0.08500
C 	C 	0.21150 0.41520 0.24420 -0.12100
C 	C 	0.22290 0.42620 0.22560 0.15400
C 	C 	0.25070 0.47760 0.21970 -0.05800
C 	C 	0.26720 0.51800 0.23240 0.07100
C 	C 	0.12600 0.69100 0.34430 -0.00500
C 	C 	0.09760 0.65700 0.37210 0.01000
C 	C 	0.08670 0.47090 0.35900 0.09900
C 	C 	0.77970 0.38740 0.43080 0.29100
C 	C 	0.91650 0.55630 0.39890 0.01600
C 	C 	0.88770 0.57630 0.40770 0.00400
C 	C 	0.91580 0.56220 0.37990 0.03600
C 	C 	0.96810 0.58350 0.40430 0.01700
C 	C 	0.91200 0.38370 0.39340 0.11000
C 	C 	0.02410 0.39240 0.37330 0.05100
C 	C 	0.05330 0.36090 0.37220 -0.00600
C 	C 	0.03620 0.31420 0.38340 0.00400
C 	C 	0.98860 0.29610 0.39370 0.01400
C 	C 	0.94690 0.30820 0.38730 0.01300
C 	C 	0.97030 0.36390 0.37550 0.01900
C 	C 	0.05510 0.11870 0.15460 0.29900
C 	C 	0.15850 0.31560 0.15390 0.00800
C 	C 	0.20770 0.35670 0.15800 0.03000
C 	C 	0.12500 0.33600 0.15440 0.04800
C 	C 	0.16000 0.30400 0.13500 0.00300
C 	C 	0.12500 0.21170 0.21270 0.06400
C 	C 	0.27510 0.55310 0.26430 0.32700
C 	C 	0.26630 0.49600 0.19930 0.01500
C 	C 	0.31000 0.49100 0.19460 0.00800
C 	C 	0.28330 0.55000 0.19740 0.00100
C 	C 	0.22570 0.46970 0.18660 0.03800
C 	C 	0.18240 0.36480 0.25210 0.07400
C 	C 	0.10720 0.23500 0.24270 0.02900
C 	C 	0.06010 0.18000 0.24960 -0.00200
C 	C 	0.02860 0.17950 0.26570 0.00900
C 	C 	0.05630 0.22000 0.27910 -0.00000
C 	C 	0.10390 0.27300 0.27390 0.00200
C 	C 	0.10620 0.27690 0.25120 0.01200
Cl	Cl	0.94110 0.45670 0.34430 -0.48400
Cl	Cl	0.07610 0.32910 0.20850 -0.43700
Mn	Mn	0.98970 0.46730 0.36888 1.37800
Mn	Mn	0.14290 0.31790 0.21518 1.36300
N 	N 	0.03810 0.43870 0.36480 -0.23300
N 	N 	0.95210 0.39840 0.38190 -0.22400
N 	N 	0.11580 0.24320 0.22410 -0.24700
N 	N 	0.14110 0.32660 0.24320 -0.23600
O 	O 	0.23550 0.57470 0.31470 -0.45600
O 	O 	0.24240 0.65870 0.31600 -0.45400
O 	O 	0.04090 0.54100 0.36870 -0.45400
O 	O 	0.76520 0.34120 0.43730 -0.46400
O 	O 	0.75950 0.41920 0.43250 -0.45500
O 	O 	0.96120 0.49980 0.38370 -0.40400
O 	O 	0.03020 0.07060 0.16230 -0.44600
O 	O 	0.05140 0.12070 0.13610 -0.44400
O 	O 	0.17400 0.31410 0.19300 -0.35800
O 	O 	0.27040 0.54570 0.28220 -0.48400
O 	O 	0.29500 0.59870 0.25580 -0.47800
O 	O 	0.20460 0.38310 0.21240 -0.35000
Zn	Zn	0.29485 0.59527 0.30052 1.21800
Zn	Zn	0.03627 0.07085 0.11603 1.20800
C 	C 	0.80340 0.13090 0.53590 0.13400
C 	C 	0.02150 0.48770 0.38680 -0.54500
C 	C 	0.86310 0.18220 0.53170 -0.28600
C 	C 	0.01610 0.52000 0.38200 0.39800
C 	C 	0.83777 0.92163 0.66694 -0.10700
C 	C 	0.81417 0.87193 0.67443 0.08800
C 	C 	0.77137 0.85523 0.68593 -0.14400
C 	C 	0.75197 0.88823 0.68993 0.19400
C 	C 	0.77557 0.93793 0.68243 -0.07400
C 	C 	0.81847 0.95463 0.67093 0.07300
C 	C 	0.88547 0.94053 0.65403 0.28300
C 	C 	0.49487 0.75153 0.75167 -0.09900
C 	C 	0.51787 0.72493 0.74413 0.08800
C 	C 	0.56147 0.75103 0.73293 -0.12600
C 	C 	0.58197 0.80373 0.72933 0.18500
C 	C 	0.55897 0.83033 0.73683 -0.06700
C 	C 	0.51537 0.80423 0.74803 0.07500
C 	C 	0.75747 0.97763 0.68673 0.02800
C 	C 	0.75307 0.50343 0.49863 -0.11200
C 	C 	0.76017 0.50343 0.51753 0.08200
C 	C 	0.78867 0.55023 0.52683 -0.12400
C 	C 	0.81017 0.59703 0.51733 0.13700
C 	C 	0.80307 0.59713 0.49843 -0.04600
C 	C 	0.77457 0.55033 0.48903 0.06500
C 	C 	0.70577 0.95733 0.68213 0.02300
C 	C 	0.92247 0.84023 0.58423 -0.11700
C 	C 	0.89467 0.78883 0.59013 0.08600
C 	C 	0.87817 0.74853 0.57753 -0.12100
C 	C 	0.88957 0.75953 0.55893 0.15400
C 	C 	0.91737 0.81093 0.55303 -0.05800
C 	C 	0.93387 0.85133 0.56573 0.07200
C 	C 	0.79267 0.02433 0.67763 -0.00800
C 	C 	0.76427 0.99033 0.70543 0.01200
C 	C 	0.75337 0.80423 0.69233 0.10000
C 	C 	0.44637 0.72073 0.76413 0.29100
C 	C 	0.58317 0.88963 0.73223 0.01600
C 	C 	0.55437 0.90963 0.74103 0.00400
C 	C 	0.58247 0.89553 0.71323 0.03500
C 	C 	0.63477 0.91683 0.73763 0.01600
C 	C 	0.57867 0.71703 0.72673 0.11000
C 	C 	0.69077 0.72573 0.70663 0.05500
C 	C 	0.71997 0.69423 0.70553 -0.00700
C 	C 	0.70287 0.64753 0.71673 0.00800
C 	C 	0.65527 0.62943 0.72703 0.01000
C 	C 	0.61357 0.64153 0.72063 0.01400
C 	C 	0.63697 0.69723 0.70883 0.01500
C 	C 	0.72177 0.45203 0.48793 0.29900
C 	C 	0.82517 0.64893 0.48723 0.00800
C 	C 	0.87437 0.69003 0.49133 0.03100
C 	C 	0.79167 0.66933 0.48773 0.04800
C 	C 	0.82667 0.63733 0.46833 0.00400
C 	C 	0.79167 0.54503 0.54603 0.06500
C 	C 	0.94177 0.88643 0.59763 0.32700
C 	C 	0.93297 0.82933 0.53263 0.01400
C 	C 	0.97667 0.82433 0.52793 0.01000
C 	C 	0.94997 0.88333 0.53073 0.00300
C 	C 	0.89237 0.80303 0.51993 0.03900
C 	C 	0.84907 0.69813 0.58543 0.07400
C 	C 	0.77387 0.56833 0.57603 0.02900
C 	C 	0.72677 0.51333 0.58293 -0.00100
C 	C 	0.69527 0.51283 0.59903 0.01000
C 	C 	0.72297 0.55333 0.61243 0.00100
C 	C 	0.77057 0.60633 0.60723 0.00200
C 	C 	0.77287 0.61023 0.58453 0.01200
Cl	Cl	0.60777 0.79003 0.67763 -0.48500
Cl	Cl	0.74277 0.66243 0.54183 -0.43600
Mn	Mn	0.65637 0.80063 0.70221 1.37700
Mn	Mn	0.80957 0.65123 0.54851 1.36300
N 	N 	0.70477 0.77203 0.69813 -0.23300
N 	N 	0.61877 0.73173 0.71523 -0.22400
N 	N 	0.78247 0.57653 0.55743 -0.24700
N 	N 	0.80777 0.65993 0.57653 -0.23600
O 	O 	0.90217 0.90803 0.64803 -0.45500
O 	O 	0.90907 0.99203 0.64933 -0.45100
O 	O 	0.70757 0.87433 0.70203 -0.45500
O 	O 	0.43187 0.67453 0.77063 -0.46400
O 	O 	0.42617 0.75253 0.76583 -0.45500
O 	O 	0.62787 0.83313 0.71703 -0.40700
O 	O 	0.69687 0.40393 0.49563 -0.44500
O 	O 	0.71807 0.45403 0.46943 -0.44300
O 	O 	0.84067 0.64743 0.52633 -0.35900
O 	O 	0.93707 0.87903 0.61553 -0.48300
O 	O 	0.96167 0.93203 0.58913 -0.47500
O 	O 	0.87127 0.71643 0.54573 -0.35000
Zn	Zn	0.96152 0.92860 0.63385 1.21900
Zn	Zn	0.70294 0.40418 0.44936 1.20800
C 	C 	0.47007 0.46423 0.86923 0.13500
C 	C 	0.68817 0.82103 0.72013 -0.54400
C 	C 	0.52977 0.51553 0.86503 -0.28500
C 	C 	0.68277 0.85333 0.71533 0.40100
C 	C 	0.50443 0.25497 0.00028 -0.10700
C 	C 	0.48083 0.20527 0.00777 0.08700
C 	C 	0.43803 0.18857 0.01927 -0.14400
C 	C 	0.41863 0.22157 0.02327 0.19400
C 	C 	0.44223 0.27127 0.01577 -0.07300
C 	C 	0.48513 0.28797 0.00427 0.07100
C 	C 	0.55213 0.27387 0.98737 0.28300
C 	C 	0.16153 0.08487 0.08501 -0.09900
C 	C 	0.18453 0.05827 0.07747 0.08700
C 	C 	0.22813 0.08437 0.06627 -0.12600
C 	C 	0.24863 0.13707 0.06267 0.18500
C 	C 	0.22563 0.16367 0.07017 -0.06800
C 	C 	0.18203 0.13757 0.08137 0.07500
C 	C 	0.42413 0.31097 0.02007 0.02500
C 	C 	0.41973 0.83677 0.83197 -0.11200
C 	C 	0.42683 0.83677 0.85087 0.08200
C 	C 	0.45533 0.88357 0.86017 -0.12300
C 	C 	0.47683 0.93037 0.85067 0.13600
C 	C 	0.46973 0.93047 0.83177 -0.04600
C 	C 	0.44123 0.88367 0.82237 0.06500
C 	C 	0.37243 0.29067 0.01547 0.02200
C 	C 	0.58913 0.17357 0.91757 -0.11700
C 	C 	0.56133 0.12217 0.92347 0.08500
C 	C 	0.54483 0.08187 0.91087 -0.12000
C 	C 	0.55623 0.09287 0.89227 0.15300
C 	C 	0.58403 0.14427 0.88637 -0.05800
C 	C 	0.60053 0.18467 0.89907 0.07100
C 	C 	0.45933 0.35767 0.01097 -0.00400
C 	C 	0.43093 0.32367 0.03877 0.01100
C 	C 	0.42003 0.13757 0.02567 0.10000
C 	C 	0.11303 0.05407 0.09747 0.29100
C 	C 	0.24983 0.22297 0.06557 0.01700
C 	C 	0.22103 0.24297 0.07437 0.00300
C 	C 	0.24913 0.22887 0.04657 0.03400
C 	C 	0.30143 0.25017 0.07097 0.01500
C 	C 	0.24533 0.05037 0.06007 0.10900
C 	C 	0.35743 0.05907 0.03997 0.05600
C 	C 	0.38663 0.02757 0.03887 -0.01000
C 	C 	0.36953 0.98087 0.05007 0.01100
C 	C 	0.32193 0.96277 0.06037 0.01000
C 	C 	0.28023 0.97487 0.05397 0.01600
C 	C 	0.30363 0.03057 0.04217 0.01300
C 	C 	0.38843 0.78537 0.82127 0.29900
C 	C 	0.49183 0.98227 0.82057 0.01400
C 	C 	0.54103 0.02337 0.82467 0.02600
C 	C 	0.45833 0.00267 0.82107 0.04400
C 	C 	0.49333 0.97067 0.80167 0.00500
C 	C 	0.45833 0.87837 0.87937 0.06500
C 	C 	0.60843 0.21977 0.93097 0.32700
C 	C 	0.59963 0.16267 0.86597 0.01500
C 	C 	0.64333 0.15767 0.86127 0.00800
C 	C 	0.61663 0.21667 0.86407 0.00100
C 	C 	0.55903 0.13637 0.85327 0.03800
C 	C 	0.51573 0.03147 0.91877 0.07100
C 	C 	0.44053 0.90167 0.90937 0.02900
C 	C 	0.39343 0.84667 0.91627 -0.00100
C 	C 	0.36193 0.84617 0.93237 0.01000
C 	C 	0.38963 0.88667 0.94577 0.00100
C 	C 	0.43723 0.93967 0.94057 0.00300
C 	C 	0.43953 0.94357 0.91787 0.01300
Cl	Cl	0.27443 0.12337 0.01097 -0.48600
Cl	Cl	0.40943 0.99577 0.87517 -0.43300
Mn	Mn	0.32303 0.13397 0.03555 1.37700
Mn	Mn	0.47623 0.98457 0.88185 1.36400
N 	N 	0.37143 0.10537 0.03147 -0.23300
N 	N 	0.28543 0.06507 0.04857 -0.22400
N 	N 	0.44913 0.90987 0.89077 -0.24700
N 	N 	0.47443 0.99327 0.90987 -0.23400
O 	O 	0.56883 0.24137 0.98137 -0.45600
O 	O 	0.57573 0.32537 0.98267 -0.45400
O 	O 	0.37423 0.20767 0.03537 -0.45500
O 	O 	0.09853 0.00787 0.10397 -0.46500
O 	O 	0.09283 0.08587 0.09917 -0.45600
O 	O 	0.29453 0.16647 0.05037 -0.40700
O 	O 	0.36353 0.73727 0.82897 -0.44500
O 	O 	0.38473 0.78737 0.80277 -0.44300
O 	O 	0.50733 0.98077 0.85967 -0.35300
O 	O 	0.60373 0.21237 0.94887 -0.48400
O 	O 	0.62833 0.26537 0.92247 -0.47800
O 	O 	0.53793 0.04977 0.87907 -0.35000
Zn	Zn	0.62818 0.26194 0.96719 1.21800
Zn	Zn	0.36960 0.73752 0.78270 1.20800
C 	C 	0.13673 0.79757 0.20257 0.13400
C 	C 	0.35483 0.15437 0.05347 -0.54400
C 	C 	0.19643 0.84887 0.19837 -0.28600
C 	C 	0.34943 0.18667 0.04867 0.40100
Zn	Zn	-0.00000 -0.00000 0.15177 1.20100
O 	O 	-0.00000 -0.00000 0.12490 -0.97800
Zn	Zn	0.66667 0.33333 0.48510 1.20200
O 	O 	0.66667 0.33333 0.45823 -0.97600
Zn	Zn	0.33333 0.66667 0.81844 1.20200
O 	O 	0.33333 0.66667 0.79157 -0.97600
Zn	Zn	0.33333 0.66667 0.26516 1.22800
O 	O 	0.33333 0.66667 0.29080 -0.95800
Zn	Zn	-0.00000 -0.00000 0.59849 1.22700
O 	O 	-0.00000 -0.00000 0.62413 -0.96100
Zn	Zn	0.66667 0.33333 0.93183 1.22800
O 	O 	0.66667 0.33333 0.95747 -0.95800
C 	C 	0.58280 0.41170 0.66639 -0.10700
C 	C 	0.60890 0.46140 0.65890 0.08800
C 	C 	0.58280 0.47810 0.64740 -0.14400
C 	C 	0.53040 0.44510 0.64340 0.19400
C 	C 	0.50430 0.39540 0.65090 -0.07300
C 	C 	0.53050 0.37870 0.66240 0.07100
C 	C 	0.61160 0.39280 0.67930 0.28300
C 	C 	0.41000 0.58180 0.58166 -0.09900
C 	C 	0.45960 0.60840 0.58920 0.08800
C 	C 	0.47710 0.58230 0.60040 -0.12700
C 	C 	0.44490 0.52960 0.60400 0.18500
C 	C 	0.39530 0.50300 0.59650 -0.06800
C 	C 	0.37780 0.52910 0.58530 0.07500
C 	C 	0.44650 0.35570 0.64660 0.02500
C 	C 	0.91630 0.82990 0.83470 -0.11100
C 	C 	0.92340 0.82990 0.81580 0.08300
C 	C 	0.90510 0.78310 0.80650 -0.12400
C 	C 	0.87980 0.73630 0.81600 0.13700
C 	C 	0.87260 0.73620 0.83490 -0.04600
C 	C 	0.89090 0.78300 0.84430 0.06500
C 	C 	0.41510 0.37600 0.65120 0.02200
C 	C 	0.74890 0.49310 0.74910 -0.11700
C 	C 	0.77250 0.54450 0.74320 0.08600
C 	C 	0.79630 0.58480 0.75580 -0.12100
C 	C 	0.79670 0.57380 0.77440 0.15400
C 	C 	0.77310 0.52240 0.78030 -0.05800
C 	C 	0.74920 0.48200 0.76760 0.07100
C 	C 	0.43500 0.30900 0.65570 -0.00400
C 	C 	0.44060 0.34300 0.62790 0.01100
C 	C 	0.61580 0.52910 0.64100 0.10000
C 	C 	0.39230 0.61260 0.56920 0.29100
C 	C 	0.36020 0.44370 0.60110 0.01700
C 	C 	0.31140 0.42370 0.59230 0.00300
C 	C 	0.35360 0.43780 0.62010 0.03500
C 	C 	0.38460 0.41650 0.59570 0.01500
C 	C 	0.52830 0.61630 0.60660 0.11000
C 	C 	0.63170 0.60760 0.62670 0.05500
C 	C 	0.69240 0.63910 0.62780 -0.00700
C 	C 	0.72200 0.68580 0.61660 0.00800
C 	C 	0.69250 0.70390 0.60630 0.01000
C 	C 	0.63870 0.69180 0.61270 0.01400
C 	C 	0.60640 0.63610 0.62450 0.01500
C 	C 	0.93640 0.88130 0.84540 0.29900
C 	C 	0.84290 0.68440 0.84610 0.00800
C 	C 	0.85100 0.64330 0.84200 0.03100
C 	C 	0.78900 0.66400 0.84560 0.04800
C 	C 	0.85600 0.69600 0.86500 0.00400
C 	C 	0.91330 0.78830 0.78730 0.06500
C 	C 	0.72200 0.44690 0.73570 0.32700
C 	C 	0.77030 0.50400 0.80070 0.01500
C 	C 	0.81900 0.50900 0.80540 0.00900
C 	C 	0.73330 0.45000 0.80260 0.00100
C 	C 	0.75600 0.53030 0.81340 0.03800
C 	C 	0.81760 0.63520 0.74790 0.07400
C 	C 	0.87220 0.76500 0.75730 0.02900
C 	C 	0.88010 0.82000 0.75040 -0.00000
C 	C 	0.84910 0.82050 0.73430 0.01100
C 	C 	0.83630 0.78000 0.72090 0.00100
C 	C 	0.83090 0.72700 0.72610 0.00200
C 	C 	0.82930 0.72310 0.74880 0.01200
Cl	Cl	0.48440 0.54330 0.65570 -0.48600
Cl	Cl	0.74700 0.67090 0.79150 -0.43600
Mn	Mn	0.52240 0.53270 0.63112 1.37700
Mn	Mn	0.82500 0.68210 0.78482 1.36300
N 	N 	0.59940 0.56130 0.63520 -0.23300
N 	N 	0.55370 0.60160 0.61810 -0.22400
N 	N 	0.87260 0.75680 0.77590 -0.24700
N 	N 	0.81450 0.67340 0.75680 -0.23600
O 	O 	0.66080 0.42530 0.68530 -0.45500
O 	O 	0.58370 0.34130 0.68400 -0.45400
O 	O 	0.49990 0.45900 0.63130 -0.45500
O 	O 	0.42400 0.65880 0.56270 -0.46400
O 	O 	0.34030 0.58080 0.56750 -0.45500
O 	O 	0.46140 0.50020 0.61630 -0.40700
O 	O 	0.95960 0.92940 0.83770 -0.44300
O 	O 	0.93070 0.87930 0.86390 -0.44200
O 	O 	0.85990 0.68590 0.80700 -0.35900
O 	O 	0.72470 0.45430 0.71780 -0.48400
O 	O 	0.69630 0.40130 0.74420 -0.47800
O 	O 	0.82150 0.61690 0.78760 -0.35000
Zn	Zn	0.69958 0.40473 0.69948 1.21800
Zn	Zn	0.96542 0.92915 0.88397 1.20900
C 	C 	0.67250 0.86910 0.46410 0.13500
C 	C 	0.53380 0.51230 0.61320 -0.54400
C 	C 	0.68090 0.81780 0.46830 -0.28600
C 	C 	0.49610 0.48000 0.61800 0.40100
C 	C 	0.24947 0.74503 0.99972 -0.10700
C 	C 	0.27557 0.79473 0.99223 0.08800
C 	C 	0.24947 0.81143 0.98073 -0.14400
C 	C 	0.19707 0.77843 0.97673 0.19400
C 	C 	0.17097 0.72873 0.98423 -0.07300
C 	C 	0.19717 0.71203 0.99573 0.07100
C 	C 	0.27827 0.72613 0.01263 0.28300
C 	C 	0.07667 0.91513 0.91499 -0.09800
C 	C 	0.12627 0.94173 0.92253 0.08800
C 	C 	0.14377 0.91563 0.93373 -0.12700
C 	C 	0.11157 0.86293 0.93733 0.18500
C 	C 	0.06197 0.83633 0.92983 -0.06700
C 	C 	0.04447 0.86243 0.91863 0.07400
C 	C 	0.11317 0.68903 0.97993 0.02500
C 	C 	0.58297 0.16323 0.16803 -0.11200
C 	C 	0.59007 0.16323 0.14913 0.08200
C 	C 	0.57177 0.11643 0.13983 -0.12400
C 	C 	0.54647 0.06963 0.14933 0.13700
C 	C 	0.53927 0.06953 0.16823 -0.04600
C 	C 	0.55757 0.11633 0.17763 0.06400
C 	C 	0.08177 0.70933 0.98453 0.02100
C 	C 	0.41557 0.82643 0.08243 -0.11700
C 	C 	0.43917 0.87783 0.07653 0.08600
C 	C 	0.46297 0.91813 0.08913 -0.12100
C 	C 	0.46337 0.90713 0.10773 0.15500
C 	C 	0.43977 0.85573 0.11363 -0.05900
C 	C 	0.41587 0.81533 0.10093 0.07200
C 	C 	0.10167 0.64233 0.98903 -0.00500
C 	C 	0.10727 0.67633 0.96123 0.01000
C 	C 	0.28247 0.86243 0.97433 0.10000
C 	C 	0.05897 0.94593 0.90253 0.29100
C 	C 	0.02687 0.77703 0.93443 0.01500
C 	C 	0.97807 0.75703 0.92563 0.00600
C 	C 	0.02027 0.77113 0.95343 0.03400
C 	C 	0.05127 0.74983 0.92903 0.01500
C 	C 	0.19497 0.94963 0.93993 0.11100
C 	C 	0.29837 0.94093 0.96003 0.05400
C 	C 	0.35907 0.97243 0.96113 -0.00400
C 	C 	0.38867 0.01913 0.94993 0.00500
C 	C 	0.35917 0.03723 0.93963 0.01000
C 	C 	0.30537 0.02513 0.94603 0.01100
C 	C 	0.27307 0.96943 0.95783 0.01700
C 	C 	0.60307 0.21463 0.17873 0.29900
C 	C 	0.50957 0.01773 0.17943 0.00400
C 	C 	0.51767 0.97663 0.17533 0.03300
C 	C 	0.45567 0.99733 0.17893 0.05100
C 	C 	0.52267 0.02933 0.19833 0.00400
C 	C 	0.57997 0.12163 0.12063 0.06400
C 	C 	0.38867 0.78023 0.06903 0.32700
C 	C 	0.43697 0.83733 0.13403 0.01500
C 	C 	0.48567 0.84233 0.13873 0.00900
C 	C 	0.39997 0.78333 0.13593 0.00100
C 	C 	0.42267 0.86363 0.14673 0.03800
C 	C 	0.48427 0.96853 0.08123 0.07600
C 	C 	0.53887 0.09833 0.09063 0.02900
C 	C 	0.54677 0.15333 0.08373 -0.00100
C 	C 	0.51577 0.15383 0.06763 0.01000
C 	C 	0.50297 0.11333 0.05423 0.00100
C 	C 	0.49757 0.06033 0.05943 0.00100
C 	C 	0.49597 0.05643 0.08213 0.01200
Cl	Cl	0.15107 0.87663 0.98903 -0.48500
Cl	Cl	0.41367 0.00423 0.12483 -0.43800
Mn	Mn	0.18907 0.86603 0.96445 1.37700
Mn	Mn	0.49167 0.01543 0.11815 1.36200
N 	N 	0.26607 0.89463 0.96853 -0.23300
N 	N 	0.22037 0.93493 0.95143 -0.22400
N 	N 	0.53927 0.09013 0.10923 -0.24700
N 	N 	0.48117 0.00673 0.09013 -0.23700
O 	O 	0.32747 0.75863 0.01863 -0.45500
O 	O 	0.25037 0.67463 0.01733 -0.45400
O 	O 	0.16657 0.79233 0.96463 -0.45500
O 	O 	0.09067 0.99213 0.89603 -0.46200
O 	O 	0.00697 0.91413 0.90083 -0.45500
O 	O 	0.12807 0.83353 0.94963 -0.40700
O 	O 	0.62627 0.26273 0.17103 -0.44500
O 	O 	0.59737 0.21263 0.19723 -0.44300
O 	O 	0.52657 0.01923 0.14033 -0.36300
O 	O 	0.39137 0.78763 0.05113 -0.48400
O 	O 	0.36297 0.73463 0.07753 -0.47800
O 	O 	0.48817 0.95023 0.12093 -0.35100
Zn	Zn	0.36625 0.73806 0.03281 1.21800
Zn	Zn	0.63209 0.26248 0.21730 1.20800
C 	C 	0.33917 0.20243 0.79743 0.13500
C 	C 	0.20047 0.84563 0.94653 -0.54400
C 	C 	0.34757 0.15113 0.80163 -0.28600
C 	C 	0.16277 0.81333 0.95133 0.40100
C 	C 	0.91613 0.07837 0.33306 -0.10700
C 	C 	0.94223 0.12807 0.32557 0.08900
C 	C 	0.91613 0.14477 0.31407 -0.14400
C 	C 	0.86373 0.11177 0.31007 0.19400
C 	C 	0.83763 0.06207 0.31757 -0.07300
C 	C 	0.86383 0.04537 0.32907 0.07000
C 	C 	0.94493 0.05947 0.34597 0.28300
C 	C 	0.74333 0.24847 0.24833 -0.09900
C 	C 	0.79293 0.27507 0.25587 0.08800
C 	C 	0.81043 0.24897 0.26707 -0.12700
C 	C 	0.77823 0.19627 0.27067 0.18500
C 	C 	0.72863 0.16967 0.26317 -0.06800
C 	C 	0.71113 0.19577 0.25197 0.07500
C 	C 	0.77983 0.02237 0.31327 0.02300
C 	C 	0.24963 0.49657 0.50137 -0.11200
C 	C 	0.25673 0.49657 0.48247 0.08200
C 	C 	0.23843 0.44977 0.47317 -0.12400
C 	C 	0.21313 0.40297 0.48267 0.13700
C 	C 	0.20593 0.40287 0.50157 -0.04600
C 	C 	0.22423 0.44967 0.51097 0.06500
C 	C 	0.74843 0.04267 0.31787 0.02200
C 	C 	0.08223 0.15977 0.41577 -0.11700
C 	C 	0.10583 0.21117 0.40987 0.08500
C 	C 	0.12963 0.25147 0.42247 -0.12100
C 	C 	0.13003 0.24047 0.44107 0.15400
C 	C 	0.10643 0.18907 0.44697 -0.05900
C 	C 	0.08253 0.14867 0.43427 0.07100
C 	C 	0.76833 0.97567 0.32237 -0.00200
C 	C 	0.77393 0.00967 0.29457 0.01000
C 	C 	0.94913 0.19577 0.30767 0.10100
C 	C 	0.72563 0.27927 0.23587 0.29100
C 	C 	0.69353 0.11037 0.26777 0.01700
C 	C 	0.64473 0.09037 0.25897 0.00300
C 	C 	0.68693 0.10447 0.28677 0.03400
C 	C 	0.71793 0.08317 0.26237 0.01500
C 	C 	0.86163 0.28297 0.27327 0.11000
C 	C 	0.96503 0.27427 0.29337 0.05800
C 	C 	0.02573 0.30577 0.29447 -0.01100
C 	C 	0.05533 0.35247 0.28327 0.00900
C 	C 	0.02583 0.37057 0.27297 0.00600
C 	C 	0.97203 0.35847 0.27937 0.01800
C 	C 	0.93973 0.30277 0.29117 0.01400
C 	C 	0.26973 0.54797 0.51207 0.29900
C 	C 	0.17623 0.35107 0.51277 0.00900
C 	C 	0.18433 0.30997 0.50867 0.03000
C 	C 	0.12233 0.33067 0.51227 0.04700
C 	C 	0.18933 0.36267 0.53167 0.00400
C 	C 	0.24663 0.45497 0.45397 0.06400
C 	C 	0.05533 0.11357 0.40237 0.32700
C 	C 	0.10363 0.17067 0.46737 0.01600
C 	C 	0.15233 0.17567 0.47207 0.00800
C 	C 	0.06663 0.11667 0.46927 -0.00100
C 	C 	0.08933 0.19697 0.48007 0.03700
C 	C 	0.15093 0.30187 0.41457 0.07300
C 	C 	0.20553 0.43167 0.42397 0.02900
C 	C 	0.21343 0.48667 0.41707 -0.00100
C 	C 	0.18243 0.48717 0.40097 0.01000
C 	C 	0.16963 0.44667 0.38757 0.00100
C 	C 	0.16423 0.39367 0.39277 0.00200
C 	C 	0.16263 0.38977 0.41547 0.01200
Cl	Cl	0.81773 0.20997 0.32237 -0.48600
Cl	Cl	0.08033 0.33757 0.45817 -0.43700
Mn	Mn	0.85573 0.19937 0.29779 1.37700
Mn	Mn	0.15833 0.34877 0.45149 1.36300
N 	N 	0.93273 0.22797 0.30187 -0.23300
N 	N 	0.88703 0.26827 0.28477 -0.22400
N 	N 	0.20593 0.42347 0.44257 -0.24700
N 	N 	0.14783 0.34007 0.42347 -0.23600
O 	O 	0.99413 0.09197 0.35197 -0.45400
O 	O 	0.91703 0.00797 0.35067 -0.45400
O 	O 	0.83323 0.12567 0.29797 -0.45400
O 	O 	0.75733 0.32547 0.22937 -0.46400
O 	O 	0.67363 0.24747 0.23417 -0.45500
O 	O 	0.79473 0.16687 0.28297 -0.40700
O 	O 	0.29293 0.59607 0.50437 -0.44500
O 	O 	0.26403 0.54597 0.53057 -0.44300
O 	O 	0.19323 0.35257 0.47367 -0.35800
O 	O 	0.05803 0.12097 0.38447 -0.48500
O 	O 	0.02963 0.06797 0.41087 -0.47900
O 	O 	0.15483 0.28357 0.45427 -0.35000
Zn	Zn	0.03291 0.07140 0.36615 1.21700
Zn	Zn	0.29875 0.59582 0.55064 1.20800
C 	C 	0.00583 0.53577 0.13077 0.13000
C 	C 	0.86713 0.17897 0.27987 -0.54400
C 	C 	0.01423 0.48447 0.13497 -0.28900
C 	C 	0.82943 0.14667 0.28467 0.40000
C 	C 	0.82890 0.41720 0.66639 -0.10700
C 	C 	0.85250 0.39110 0.65890 0.08800
C 	C 	0.89530 0.41720 0.64740 -0.14400
C 	C 	0.91470 0.46960 0.64340 0.19400
C 	C 	0.89110 0.49570 0.65090 -0.07300
C 	C 	0.84820 0.46950 0.66240 0.07100
C 	C 	0.78120 0.38840 0.67930 0.28300
C 	C 	0.17180 0.59000 0.58166 -0.09900
C 	C 	0.14880 0.54040 0.58920 0.08700
C 	C 	0.10520 0.52290 0.60040 -0.12700
C 	C 	0.08470 0.55510 0.60400 0.18500
C 	C 	0.10770 0.60470 0.59650 -0.06800
C 	C 	0.15130 0.62220 0.58530 0.07500
C 	C 	0.90920 0.55350 0.64660 0.02400
C 	C 	0.91360 0.08370 0.83470 -0.11100
C 	C 	0.90650 0.07660 0.81580 0.08200
C 	C 	0.87800 0.09490 0.80650 -0.12400
C 	C 	0.85650 0.12020 0.81600 0.13600
C 	C 	0.86360 0.12740 0.83490 -0.04600
C 	C 	0.89210 0.10910 0.84430 0.06500
C 	C 	0.96090 0.58490 0.65120 0.02300
C 	C 	0.74420 0.25110 0.74910 -0.11700
C 	C 	0.77200 0.22750 0.74320 0.08500
C 	C 	0.78850 0.20370 0.75580 -0.12100
C 	C 	0.77710 0.20330 0.77440 0.15400
C 	C 	0.74930 0.22690 0.78030 -0.05800
C 	C 	0.73280 0.25080 0.76760 0.07100
C 	C 	0.87400 0.56500 0.65570 -0.00400
C 	C 	0.90240 0.55940 0.62790 0.01200
C 	C 	0.91330 0.38420 0.64100 0.10000
C 	C 	0.22030 0.60770 0.56920 0.29100
C 	C 	0.08350 0.63980 0.60110 0.01700
C 	C 	0.11230 0.68860 0.59230 0.00300
C 	C 	0.08420 0.64640 0.62010 0.03400
C 	C 	0.03190 0.61540 0.59570 0.01400
C 	C 	0.08800 0.47170 0.60660 0.11000
C 	C 	0.97590 0.36830 0.62670 0.05800
C 	C 	0.94670 0.30760 0.62780 -0.00800
C 	C 	0.96380 0.27800 0.61660 0.01100
C 	C 	0.01140 0.30750 0.60630 0.00700
C 	C 	0.05310 0.36130 0.61270 0.01400
C 	C 	0.02970 0.39360 0.62450 0.01200
C 	C 	0.94490 0.06360 0.84540 0.29900
C 	C 	0.84150 0.15710 0.84610 0.00800
C 	C 	0.79230 0.14900 0.84200 0.03000
C 	C 	0.87500 0.21100 0.84560 0.04900
C 	C 	0.84000 0.14400 0.86500 0.00400
C 	C 	0.87500 0.08670 0.78730 0.06400
C 	C 	0.72490 0.27800 0.73570 0.32700
C 	C 	0.73370 0.22970 0.80070 0.01500
C 	C 	0.69000 0.18100 0.80540 0.00800
C 	C 	0.71670 0.26670 0.80260 0.00100
C 	C 	0.77430 0.24400 0.81340 0.03800
C 	C 	0.81760 0.18240 0.74790 0.07300
C 	C 	0.89280 0.12780 0.75730 0.02900
C 	C 	0.93990 0.11990 0.75040 -0.00100
C 	C 	0.97140 0.15090 0.73430 0.01100
C 	C 	0.94370 0.16370 0.72090 0.00100
C 	C 	0.89610 0.16910 0.72610 0.00200
C 	C 	0.89380 0.17070 0.74880 0.01300
Cl	Cl	0.05890 0.51560 0.65570 -0.48700
Cl	Cl	0.92390 0.25300 0.79150 -0.43500
Mn	Mn	0.01030 0.47760 0.63112 1.37600
Mn	Mn	0.85710 0.17500 0.78482 1.36300
N 	N 	0.96190 0.40060 0.63520 -0.23300
N 	N 	0.04790 0.44630 0.61810 -0.22400
N 	N 	0.88420 0.12740 0.77590 -0.24700
N 	N 	0.85890 0.18550 0.75680 -0.23600
O 	O 	0.76450 0.33920 0.68530 -0.45500
O 	O 	0.75760 0.41630 0.68400 -0.45400
O 	O 	0.95910 0.50010 0.63130 -0.45500
O 	O 	0.23480 0.57600 0.56270 -0.46400
O 	O 	0.24050 0.65970 0.56750 -0.45500
O 	O 	0.03880 0.53860 0.61630 -0.40800
O 	O 	0.96980 0.04040 0.83770 -0.44500
O 	O 	0.94860 0.06930 0.86390 -0.44300
O 	O 	0.82600 0.14010 0.80700 -0.35800
O 	O 	0.72960 0.27530 0.71780 -0.48400
O 	O 	0.70500 0.30370 0.74420 -0.47800
O 	O 	0.79540 0.17850 0.78760 -0.35000
Zn	Zn	0.70515 0.30042 0.69948 1.21800
Zn	Zn	0.96373 0.03458 0.88397 1.20800
C 	C 	0.19660 0.32750 0.46410 0.13500
C 	C 	0.97850 0.46620 0.61320 -0.54300
C 	C 	0.13690 0.31910 0.46830 -0.28600
C 	C 	0.98390 0.50390 0.61800 0.40300
C 	C 	0.49557 0.75053 0.99972 -0.10700
C 	C 	0.51917 0.72443 0.99223 0.08800
C 	C 	0.56197 0.75053 0.98073 -0.14400
C 	C 	0.58137 0.80293 0.97673 0.19400
C 	C 	0.55777 0.82903 0.98423 -0.07300
C 	C 	0.51487 0.80283 0.99573 0.07100
C 	C 	0.44787 0.72173 0.01263 0.28300
C 	C 	0.83847 0.92333 0.91499 -0.09900
C 	C 	0.81547 0.87373 0.92253 0.08800
C 	C 	0.77187 0.85623 0.93373 -0.12700
C 	C 	0.75137 0.88843 0.93733 0.18500
C 	C 	0.77437 0.93803 0.92983 -0.06800
C 	C 	0.81797 0.95553 0.91863 0.07600
C 	C 	0.57587 0.88683 0.97993 0.02400
C 	C 	0.58027 0.41703 0.16803 -0.11200
C 	C 	0.57317 0.40993 0.14913 0.08200
C 	C 	0.54467 0.42823 0.13983 -0.12400
C 	C 	0.52317 0.45353 0.14933 0.13700
C 	C 	0.53027 0.46073 0.16823 -0.04600
C 	C 	0.55877 0.44243 0.17763 0.06500
C 	C 	0.62757 0.91823 0.98453 0.02300
C 	C 	0.41087 0.58443 0.08243 -0.11700
C 	C 	0.43867 0.56083 0.07653 0.08500
C 	C 	0.45517 0.53703 0.08913 -0.12100
C 	C 	0.44377 0.53663 0.10773 0.15400
C 	C 	0.41597 0.56023 0.11363 -0.05800
C 	C 	0.39947 0.58413 0.10093 0.07100
C 	C 	0.54067 0.89833 0.98903 -0.00400
C 	C 	0.56907 0.89273 0.96123 0.01100
C 	C 	0.57997 0.71753 0.97433 0.10000
C 	C 	0.88697 0.94103 0.90253 0.29200
C 	C 	0.75017 0.97313 0.93443 0.01900
C 	C 	0.77897 0.02193 0.92563 0.00000
C 	C 	0.75087 0.97973 0.95343 0.03500
C 	C 	0.69857 0.94873 0.92903 0.01600
C 	C 	0.75467 0.80503 0.93993 0.11000
C 	C 	0.64257 0.70163 0.96003 0.05500
C 	C 	0.61337 0.64093 0.96113 -0.00700
C 	C 	0.63047 0.61133 0.94993 0.00800
C 	C 	0.67807 0.64083 0.93963 0.01000
C 	C 	0.71977 0.69463 0.94603 0.01400
C 	C 	0.69637 0.72693 0.95783 0.01500
C 	C 	0.61157 0.39693 0.17873 0.29900
C 	C 	0.50817 0.49043 0.17943 0.00800
C 	C 	0.45897 0.48233 0.17533 0.03000
C 	C 	0.54167 0.54433 0.17893 0.04800
C 	C 	0.50667 0.47733 0.19833 0.00400
C 	C 	0.54167 0.42003 0.12063 0.06400
C 	C 	0.39157 0.61133 0.06903 0.32700
C 	C 	0.40037 0.56303 0.13403 0.01500
C 	C 	0.35667 0.51433 0.13873 0.00800
C 	C 	0.38337 0.60003 0.13593 0.00100
C 	C 	0.44097 0.57733 0.14673 0.03800
C 	C 	0.48427 0.51573 0.08123 0.07400
C 	C 	0.55947 0.46113 0.09063 0.02900
C 	C 	0.60657 0.45323 0.08373 -0.00100
C 	C 	0.63807 0.48423 0.06763 0.01000
C 	C 	0.61037 0.49703 0.05423 0.00100
C 	C 	0.56277 0.50243 0.05943 0.00200
C 	C 	0.56047 0.50403 0.08213 0.01200
Cl	Cl	0.72557 0.84893 0.98903 -0.48500
Cl	Cl	0.59057 0.58633 0.12483 -0.43600
Mn	Mn	0.67697 0.81093 0.96445 1.37700
Mn	Mn	0.52377 0.50833 0.11815 1.36300
N 	N 	0.62857 0.73393 0.96853 -0.23300
N 	N 	0.71457 0.77963 0.95143 -0.22400
N 	N 	0.55087 0.46073 0.10923 -0.24700
N 	N 	0.52557 0.51883 0.09013 -0.23600
O 	O 	0.43117 0.67253 0.01863 -0.45500
O 	O 	0.42427 0.74963 0.01733 -0.45400
O 	O 	0.62577 0.83343 0.96463 -0.45400
O 	O 	0.90147 0.90933 0.89603 -0.46300
O 	O 	0.90717 0.99303 0.90083 -0.45300
O 	O 	0.70547 0.87193 0.94963 -0.40700
O 	O 	0.63647 0.37373 0.17103 -0.44500
O 	O 	0.61527 0.40263 0.19723 -0.44300
O 	O 	0.49267 0.47343 0.14033 -0.35900
O 	O 	0.39627 0.60863 0.05113 -0.48400
O 	O 	0.37167 0.63703 0.07753 -0.47800
O 	O 	0.46207 0.51183 0.12093 -0.35100
Zn	Zn	0.37182 0.63375 0.03281 1.21800
Zn	Zn	0.63040 0.36791 0.21730 1.20800
C 	C 	0.86327 0.66083 0.79743 0.13500
C 	C 	0.64517 0.79953 0.94653 -0.54400
C 	C 	0.80357 0.65243 0.80163 -0.28600
C 	C 	0.65057 0.83723 0.95133 0.40100
C 	C 	0.16223 0.08387 0.33306 -0.10700
C 	C 	0.18583 0.05777 0.32557 0.08700
C 	C 	0.22863 0.08387 0.31407 -0.14400
C 	C 	0.24803 0.13627 0.31007 0.19300
C 	C 	0.22443 0.16237 0.31757 -0.07300
C 	C 	0.18153 0.13617 0.32907 0.07100
C 	C 	0.11453 0.05507 0.34597 0.28200
C 	C 	0.50513 0.25667 0.24833 -0.09900
C 	C 	0.48213 0.20707 0.25587 0.08700
C 	C 	0.43853 0.18957 0.26707 -0.12600
C 	C 	0.41803 0.22177 0.27067 0.18500
C 	C 	0.44103 0.27137 0.26317 -0.06800
C 	C 	0.48463 0.28887 0.25197 0.07500
C 	C 	0.24253 0.22017 0.31327 0.02500
C 	C 	0.24693 0.75037 0.50137 -0.11200
C 	C 	0.23983 0.74327 0.48247 0.08200
C 	C 	0.21133 0.76157 0.47317 -0.12400
C 	C 	0.18983 0.78687 0.48267 0.13600
C 	C 	0.19693 0.79407 0.50157 -0.04600
C 	C 	0.22543 0.77577 0.51097 0.06500
C 	C 	0.29423 0.25157 0.31787 0.02200
C 	C 	0.07753 0.91777 0.41577 -0.11700
C 	C 	0.10533 0.89417 0.40987 0.08500
C 	C 	0.12183 0.87037 0.42247 -0.12100
C 	C 	0.11043 0.86997 0.44107 0.15400
C 	C 	0.08263 0.89357 0.44697 -0.05800
C 	C 	0.06613 0.91747 0.43427 0.07100
C 	C 	0.20733 0.23167 0.32237 -0.00500
C 	C 	0.23573 0.22607 0.29457 0.01100
C 	C 	0.24663 0.05087 0.30767 0.09900
C 	C 	0.55363 0.27437 0.23587 0.29100
C 	C 	0.41683 0.30647 0.26777 0.01700
C 	C 	0.44563 0.35527 0.25897 0.00300
C 	C 	0.41753 0.31307 0.28677 0.03500
C 	C 	0.36523 0.28207 0.26237 0.01500
C 	C 	0.42133 0.13837 0.27327 0.11000
C 	C 	0.30923 0.03497 0.29337 0.05300
C 	C 	0.28003 0.97427 0.29447 -0.00500
C 	C 	0.29713 0.94467 0.28327 0.00700
C 	C 	0.34473 0.97417 0.27297 0.01200
C 	C 	0.38643 0.02797 0.27937 0.01200
C 	C 	0.36303 0.06027 0.29117 0.01500
C 	C 	0.27823 0.73027 0.51207 0.29900
C 	C 	0.17483 0.82377 0.51277 0.00800
C 	C 	0.12563 0.81567 0.50867 0.03000
C 	C 	0.20833 0.87767 0.51227 0.04900
C 	C 	0.17333 0.81067 0.53167 0.00400
C 	C 	0.20833 0.75337 0.45397 0.06400
C 	C 	0.05823 0.94467 0.40237 0.32700
C 	C 	0.06703 0.89637 0.46737 0.01500
C 	C 	0.02333 0.84767 0.47207 0.00700
C 	C 	0.05003 0.93337 0.46927 0.00100
C 	C 	0.10763 0.91067 0.48007 0.03900
C 	C 	0.15093 0.84907 0.41457 0.07400
C 	C 	0.22613 0.79447 0.42397 0.02900
C 	C 	0.27323 0.78657 0.41707 -0.00100
C 	C 	0.30473 0.81757 0.40097 0.01000
C 	C 	0.27703 0.83037 0.38757 0.00100
C 	C 	0.22943 0.83577 0.39277 0.00200
C 	C 	0.22713 0.83737 0.41547 0.01200
Cl	Cl	0.39223 0.18227 0.32237 -0.48600
Cl	Cl	0.25723 0.91967 0.45817 -0.43500
Mn	Mn	0.34363 0.14427 0.29779 1.37700
Mn	Mn	0.19043 0.84167 0.45149 1.36300
N 	N 	0.29523 0.06727 0.30187 -0.23300
N 	N 	0.38123 0.11297 0.28477 -0.22400
N 	N 	0.21753 0.79407 0.44257 -0.24700
N 	N 	0.19223 0.85217 0.42347 -0.23600
O 	O 	0.09783 0.00587 0.35197 -0.45700
O 	O 	0.09093 0.08297 0.35067 -0.45500
O 	O 	0.29243 0.16677 0.29797 -0.45500
O 	O 	0.56813 0.24267 0.22937 -0.46400
O 	O 	0.57383 0.32637 0.23417 -0.45500
O 	O 	0.37213 0.20527 0.28297 -0.40700
O 	O 	0.30313 0.70707 0.50437 -0.44500
O 	O 	0.28193 0.73597 0.53057 -0.44300
O 	O 	0.15933 0.80677 0.47367 -0.35800
O 	O 	0.06293 0.94197 0.38447 -0.48400
O 	O 	0.03833 0.97037 0.41087 -0.47700
O 	O 	0.12873 0.84517 0.45427 -0.35000
Zn	Zn	0.03848 0.96709 0.36615 1.21800
Zn	Zn	0.29706 0.70125 0.55064 1.20800
C 	C 	0.52993 0.99417 0.13077 0.13900
C 	C 	0.31183 0.13287 0.27987 -0.54500
C 	C 	0.47023 0.98577 0.13497 -0.28300
C 	C 	0.31723 0.17057 0.28467 0.40100
C 	C 	0.58830 0.17110 0.66639 -0.10700
C 	C 	0.53860 0.14750 0.65890 0.08700
C 	C 	0.52190 0.10470 0.64740 -0.14400
C 	C 	0.55490 0.08530 0.64340 0.19300
C 	C 	0.60460 0.10890 0.65090 -0.07400
C 	C 	0.62130 0.15180 0.66240 0.07100
C 	C 	0.60720 0.21880 0.67930 0.28300
C 	C 	0.41820 0.82820 0.58166 -0.09800
C 	C 	0.39160 0.85120 0.58920 0.08800
C 	C 	0.41770 0.89480 0.60040 -0.12600
C 	C 	0.47040 0.91530 0.60400 0.18500
C 	C 	0.49700 0.89230 0.59650 -0.06700
C 	C 	0.47090 0.84870 0.58530 0.07500
C 	C 	0.64430 0.09080 0.64660 0.02600
C 	C 	0.17010 0.08640 0.83470 -0.11200
C 	C 	0.17010 0.09350 0.81580 0.08100
C 	C 	0.21690 0.12200 0.80650 -0.12400
C 	C 	0.26370 0.14350 0.81600 0.13600
C 	C 	0.26380 0.13640 0.83490 -0.04600
C 	C 	0.21700 0.10790 0.84430 0.06400
C 	C 	0.62400 0.03910 0.65120 0.02000
C 	C 	0.50690 0.25580 0.74910 -0.11700
C 	C 	0.45550 0.22800 0.74320 0.08500
C 	C 	0.41520 0.21150 0.75580 -0.12100
C 	C 	0.42620 0.22290 0.77440 0.15400
C 	C 	0.47760 0.25070 0.78030 -0.05800
C 	C 	0.51800 0.26720 0.76760 0.07100
C 	C 	0.69100 0.12600 0.65570 -0.00500
C 	C 	0.65700 0.09760 0.62790 0.01000
C 	C 	0.47090 0.08670 0.64100 0.09900
C 	C 	0.38740 0.77970 0.56920 0.29100
C 	C 	0.55630 0.91650 0.60110 0.01600
C 	C 	0.57630 0.88770 0.59230 0.00400
C 	C 	0.56220 0.91580 0.62010 0.03600
C 	C 	0.58350 0.96810 0.59570 0.01700
C 	C 	0.38370 0.91200 0.60660 0.11000
C 	C 	0.39240 0.02410 0.62670 0.05100
C 	C 	0.36090 0.05330 0.62780 -0.00600
C 	C 	0.31420 0.03620 0.61660 0.00400
C 	C 	0.29610 0.98860 0.60630 0.01400
C 	C 	0.30820 0.94690 0.61270 0.01300
C 	C 	0.36390 0.97030 0.62450 0.01900
C 	C 	0.11870 0.05510 0.84540 0.29900
C 	C 	0.31560 0.15850 0.84610 0.00800
C 	C 	0.35670 0.20770 0.84200 0.03000
C 	C 	0.33600 0.12500 0.84560 0.04800
C 	C 	0.30400 0.16000 0.86500 0.00300
C 	C 	0.21170 0.12500 0.78730 0.06400
C 	C 	0.55310 0.27510 0.73570 0.32700
C 	C 	0.49600 0.26630 0.80070 0.01500
C 	C 	0.49100 0.31000 0.80540 0.00800
C 	C 	0.55000 0.28330 0.80260 0.00100
C 	C 	0.46970 0.22570 0.81340 0.03800
C 	C 	0.36480 0.18240 0.74790 0.07400
C 	C 	0.23500 0.10720 0.75730 0.02900
C 	C 	0.18000 0.06010 0.75040 -0.00200
C 	C 	0.17950 0.02860 0.73430 0.00900
C 	C 	0.22000 0.05630 0.72090 -0.00000
C 	C 	0.27300 0.10390 0.72610 0.00200
C 	C 	0.27690 0.10620 0.74880 0.01200
Cl	Cl	0.45670 0.94110 0.65570 -0.48400
Cl	Cl	0.32910 0.07610 0.79150 -0.43700
Mn	Mn	0.46730 0.98970 0.63112 1.37800
Mn	Mn	0.31790 0.14290 0.78482 1.36300
N 	N 	0.43870 0.03810 0.63520 -0.23300
N 	N 	0.39840 0.95210 0.61810 -0.22400
N 	N 	0.24320 0.11580 0.77590 -0.24700
N 	N 	0.32660 0.14110 0.75680 -0.23600
O 	O 	0.57470 0.23550 0.68530 -0.45600
O 	O 	0.65870 0.24240 0.68400 -0.45400
O 	O 	0.54100 0.04090 0.63130 -0.45400
O 	O 	0.34120 0.76520 0.56270 -0.46400
O 	O 	0.41920 0.75950 0.56750 -0.45500
O 	O 	0.49980 0.96120 0.61630 -0.40400
O 	O 	0.07060 0.03020 0.83770 -0.44600
O 	O 	0.12070 0.05140 0.86390 -0.44400
O 	O 	0.31410 0.17400 0.80700 -0.35800
O 	O 	0.54570 0.27040 0.71780 -0.48400
O 	O 	0.59870 0.29500 0.74420 -0.47800
O 	O 	0.38310 0.20460 0.78760 -0.35000
Zn	Zn	0.59527 0.29485 0.69948 1.21800
Zn	Zn	0.07085 0.03627 0.88397 1.20800
C 	C 	0.13090 0.80340 0.46410 0.13400
C 	C 	0.48770 0.02150 0.61320 -0.54500
C 	C 	0.18220 0.86310 0.46830 -0.28600
C 	C 	0.52000 0.01610 0.61800 0.39800
C 	C 	0.25497 0.50443 0.99972 -0.10700
C 	C 	0.20527 0.48083 0.99223 0.08700
C 	C 	0.18857 0.43803 0.98073 -0.14400
C 	C 	0.22157 0.41863 0.97673 0.19400
C 	C 	0.27127 0.44223 0.98423 -0.07300
C 	C 	0.28797 0.48513 0.99573 0.07100
C 	C 	0.27387 0.55213 0.01263 0.28300
C 	C 	0.08487 0.16153 0.91499 -0.09900
C 	C 	0.05827 0.18453 0.92253 0.08700
C 	C 	0.08437 0.22813 0.93373 -0.12600
C 	C 	0.13707 0.24863 0.93733 0.18500
C 	C 	0.16367 0.22563 0.92983 -0.06800
C 	C 	0.13757 0.18203 0.91863 0.07500
C 	C 	0.31097 0.42413 0.97993 0.02500
C 	C 	0.83677 0.41973 0.16803 -0.11200
C 	C 	0.83677 0.42683 0.14913 0.08200
C 	C 	0.88357 0.45533 0.13983 -0.12300
C 	C 	0.93037 0.47683 0.14933 0.13600
C 	C 	0.93047 0.46973 0.16823 -0.04600
C 	C 	0.88367 0.44123 0.17763 0.06500
C 	C 	0.29067 0.37243 0.98453 0.02200
C 	C 	0.17357 0.58913 0.08243 -0.11700
C 	C 	0.12217 0.56133 0.07653 0.08500
C 	C 	0.08187 0.54483 0.08913 -0.12000
C 	C 	0.09287 0.55623 0.10773 0.15300
C 	C 	0.14427 0.58403 0.11363 -0.05800
C 	C 	0.18467 0.60053 0.10093 0.07100
C 	C 	0.35767 0.45933 0.98903 -0.00400
C 	C 	0.32367 0.43093 0.96123 0.01100
C 	C 	0.13757 0.42003 0.97433 0.10000
C 	C 	0.05407 0.11303 0.90253 0.29100
C 	C 	0.22297 0.24983 0.93443 0.01700
C 	C 	0.24297 0.22103 0.92563 0.00300
C 	C 	0.22887 0.24913 0.95343 0.03400
C 	C 	0.25017 0.30143 0.92903 0.01500
C 	C 	0.05037 0.24533 0.93993 0.10900
C 	C 	0.05907 0.35743 0.96003 0.05600
C 	C 	0.02757 0.38663 0.96113 -0.01000
C 	C 	0.98087 0.36953 0.94993 0.01100
C 	C 	0.96277 0.32193 0.93963 0.01000
C 	C 	0.97487 0.28023 0.94603 0.01600
C 	C 	0.03057 0.30363 0.95783 0.01300
C 	C 	0.78537 0.38843 0.17873 0.29900
C 	C 	0.98227 0.49183 0.17943 0.01400
C 	C 	0.02337 0.54103 0.17533 0.02600
C 	C 	0.00267 0.45833 0.17893 0.04400
C 	C 	0.97067 0.49333 0.19833 0.00500
C 	C 	0.87837 0.45833 0.12063 0.06500
C 	C 	0.21977 0.60843 0.06903 0.32700
C 	C 	0.16267 0.59963 0.13403 0.01500
C 	C 	0.15767 0.64333 0.13873 0.00800
C 	C 	0.21667 0.61663 0.13593 0.00100
C 	C 	0.13637 0.55903 0.14673 0.03800
C 	C 	0.03147 0.51573 0.08123 0.07100
C 	C 	0.90167 0.44053 0.09063 0.02900
C 	C 	0.84667 0.39343 0.08373 -0.00100
C 	C 	0.84617 0.36193 0.06763 0.01000
C 	C 	0.88667 0.38963 0.05423 0.00100
C 	C 	0.93967 0.43723 0.05943 0.00300
C 	C 	0.94357 0.43953 0.08213 0.01300
Cl	Cl	0.12337 0.27443 0.98903 -0.48600
Cl	Cl	0.99577 0.40943 0.12483 -0.43300
Mn	Mn	0.13397 0.32303 0.96445 1.37700
Mn	Mn	0.98457 0.47623 0.11815 1.36400
N 	N 	0.10537 0.37143 0.96853 -0.23300
N 	N 	0.06507 0.28543 0.95143 -0.22400
N 	N 	0.90987 0.44913 0.10923 -0.24700
N 	N 	0.99327 0.47443 0.09013 -0.23400
O 	O 	0.24137 0.56883 0.01863 -0.45600
O 	O 	0.32537 0.57573 0.01733 -0.45400
O 	O 	0.20767 0.37423 0.96463 -0.45500
O 	O 	0.00787 0.09853 0.89603 -0.46500
O 	O 	0.08587 0.09283 0.90083 -0.45600
O 	O 	0.16647 0.29453 0.94963 -0.40700
O 	O 	0.73727 0.36353 0.17103 -0.44500
O 	O 	0.78737 0.38473 0.19723 -0.44300
O 	O 	0.98077 0.50733 0.14033 -0.35300
O 	O 	0.21237 0.60373 0.05113 -0.48400
O 	O 	0.26537 0.62833 0.07753 -0.47800
O 	O 	0.04977 0.53793 0.12093 -0.35000
Zn	Zn	0.26194 0.62818 0.03281 1.21800
Zn	Zn	0.73752 0.36960 0.21730 1.20800
C 	C 	0.79757 0.13673 0.79743 0.13400
C 	C 	0.15437 0.35483 0.94653 -0.54400
C 	C 	0.84887 0.19643 0.80163 -0.28600
C 	C 	0.18667 0.34943 0.95133 0.40100
C 	C 	0.92163 0.83777 0.33306 -0.10700
C 	C 	0.87193 0.81417 0.32557 0.08800
C 	C 	0.85523 0.77137 0.31407 -0.14400
C 	C 	0.88823 0.75197 0.31007 0.19400
C 	C 	0.93793 0.77557 0.31757 -0.07400
C 	C 	0.95463 0.81847 0.32907 0.07300
C 	C 	0.94053 0.88547 0.34597 0.28300
C 	C 	0.75153 0.49487 0.24833 -0.09900
C 	C 	0.72493 0.51787 0.25587 0.08800
C 	C 	0.75103 0.56147 0.26707 -0.12600
C 	C 	0.80373 0.58197 0.27067 0.18500
C 	C 	0.83033 0.55897 0.26317 -0.06700
C 	C 	0.80423 0.51537 0.25197 0.07500
C 	C 	0.97763 0.75747 0.31327 0.02800
C 	C 	0.50343 0.75307 0.50137 -0.11200
C 	C 	0.50343 0.76017 0.48247 0.08200
C 	C 	0.55023 0.78867 0.47317 -0.12400
C 	C 	0.59703 0.81017 0.48267 0.13700
C 	C 	0.59713 0.80307 0.50157 -0.04600
C 	C 	0.55033 0.77457 0.51097 0.06500
C 	C 	0.95733 0.70577 0.31787 0.02300
C 	C 	0.84023 0.92247 0.41577 -0.11700
C 	C 	0.78883 0.89467 0.40987 0.08600
C 	C 	0.74853 0.87817 0.42247 -0.12100
C 	C 	0.75953 0.88957 0.44107 0.15400
C 	C 	0.81093 0.91737 0.44697 -0.05800
C 	C 	0.85133 0.93387 0.43427 0.07200
C 	C 	0.02433 0.79267 0.32237 -0.00800
C 	C 	0.99033 0.76427 0.29457 0.01200
C 	C 	0.80423 0.75337 0.30767 0.10000
C 	C 	0.72073 0.44637 0.23587 0.29100
C 	C 	0.88963 0.58317 0.26777 0.01600
C 	C 	0.90963 0.55437 0.25897 0.00400
C 	C 	0.89553 0.58247 0.28677 0.03500
C 	C 	0.91683 0.63477 0.26237 0.01600
C 	C 	0.71703 0.57867 0.27327 0.11000
C 	C 	0.72573 0.69077 0.29337 0.05500
C 	C 	0.69423 0.71997 0.29447 -0.00700
C 	C 	0.64753 0.70287 0.28327 0.00800
C 	C 	0.62943 0.65527 0.27297 0.01000
C 	C 	0.64153 0.61357 0.27937 0.01400
C 	C 	0.69723 0.63697 0.29117 0.01500
C 	C 	0.45203 0.72177 0.51207 0.29900
C 	C 	0.64893 0.82517 0.51277 0.00800
C 	C 	0.69003 0.87437 0.50867 0.03100
C 	C 	0.66933 0.79167 0.51227 0.04800
C 	C 	0.63733 0.82667 0.53167 0.00400
C 	C 	0.54503 0.79167 0.45397 0.06500
C 	C 	0.88643 0.94177 0.40237 0.32700
C 	C 	0.82933 0.93297 0.46737 0.01400
C 	C 	0.82433 0.97667 0.47207 0.01000
C 	C 	0.88333 0.94997 0.46927 0.00300
C 	C 	0.80303 0.89237 0.48007 0.03900
C 	C 	0.69813 0.84907 0.41457 0.07400
C 	C 	0.56833 0.77387 0.42397 0.02900
C 	C 	0.51333 0.72677 0.41707 -0.00100
C 	C 	0.51283 0.69527 0.40097 0.01000
C 	C 	0.55333 0.72297 0.38757 0.00100
C 	C 	0.60633 0.77057 0.39277 0.00200
C 	C 	0.61023 0.77287 0.41547 0.01200
Cl	Cl	0.79003 0.60777 0.32237 -0.48500
Cl	Cl	0.66243 0.74277 0.45817 -0.43600
Mn	Mn	0.80063 0.65637 0.29779 1.37700
Mn	Mn	0.65123 0.80957 0.45149 1.36300
N 	N 	0.77203 0.70477 0.30187 -0.23300
N 	N 	0.73173 0.61877 0.28477 -0.22400
N 	N 	0.57653 0.78247 0.44257 -0.24700
N 	N 	0.65993 0.80777 0.42347 -0.23600
O 	O 	0.90803 0.90217 0.35197 -0.45500
O 	O 	0.99203 0.90907 0.35067 -0.45100
O 	O 	0.87433 0.70757 0.29797 -0.45500
O 	O 	0.67453 0.43187 0.22937 -0.46400
O 	O 	0.75253 0.42617 0.23417 -0.45500
O 	O 	0.83313 0.62787 0.28297 -0.40700
O 	O 	0.40393 0.69687 0.50437 -0.44500
O 	O 	0.45403 0.71807 0.53057 -0.44300
O 	O 	0.64743 0.84067 0.47367 -0.35900
O 	O 	0.87903 0.93707 0.38447 -0.48300
O 	O 	0.93203 0.96167 0.41087 -0.47500
O 	O 	0.71643 0.87127 0.45427 -0.35000
Zn	Zn	0.92860 0.96152 0.36615 1.21900
Zn	Zn	0.40418 0.70294 0.55064 1.20800
C 	C 	0.46423 0.47007 0.13077 0.13500
C 	C 	0.82103 0.68817 0.27987 -0.54400
C 	C 	0.51553 0.52977 0.13497 -0.28500
C 	C 	0.85333 0.68277 0.28467 0.40100
Zn	Zn	-0.00000 -0.00000 0.84823 1.20100
O 	O 	0.00000 0.00000 0.87510 -0.97800
Zn	Zn	0.66667 0.33333 0.18156 1.20200
O 	O 	0.66667 0.33333 0.20843 -0.97600
Zn	Zn	0.33333 0.66667 0.51490 1.20200
O 	O 	0.33333 0.66667 0.54177 -0.97600
Zn	Zn	0.66667 0.33333 0.73484 1.22800
O 	O 	0.66667 0.33333 0.70920 -0.95800
Zn	Zn	0.33333 0.66667 0.06817 1.22800
O 	O 	0.33333 0.66667 0.04253 -0.95800
Zn	Zn	-0.00000 -0.00000 0.40151 1.22700
O 	O 	-0.00000 -0.00000 0.37587 -0.96100
