data_crystal

_cell_length_a 19.08600
_cell_length_b 19.06000
_cell_length_c 25.90420
_cell_angle_alpha 90.00000
_cell_angle_beta  90.00000
_cell_angle_gamma 90.00000

_symmetry_space_group_name_	'P 1'
_symmetry_space_group_name_H-M	'P 1'

loop_
_symmetry_equiv_pos_as_xyz
  x,y,z

loop_
_atom_site_label
_atom_site_type_symbol
_atom_site_fract_x
_atom_site_fract_y
_atom_site_fract_z
_atom_site_charge
Ag	Ag	0.60262 0.38474 0.38379 0.50600
Ag	Ag	0.63477 0.14741 0.36625 0.50600
S 	S 	0.70342 0.41530 0.44736 -0.11100
S 	S 	0.67671 0.27078 0.38979 -0.24300
S 	S 	0.69986 0.12554 0.45319 -0.11800
S 	S 	0.33469 0.45356 0.30260 -0.11300
S 	S 	0.47923 0.42679 0.36030 -0.24500
S 	S 	0.62450 0.44987 0.29680 -0.11800
C 	C 	0.73100 0.33530 0.47650 -0.00800
C 	C 	0.71570 0.27100 0.45240 -0.00100
C 	C 	0.73250 0.20710 0.47580 -0.00600
C 	C 	0.65660 0.46040 0.49690 0.06700
C 	C 	0.66100 0.53360 0.49650 -0.12200
C 	C 	0.62130 0.56980 0.53110 0.03500
C 	C 	0.58220 0.53820 0.56670 -0.10100
C 	C 	0.57560 0.46490 0.56800 0.01900
C 	C 	0.61480 0.42630 0.53170 -0.11800
C 	C 	0.74810 0.29560 0.34840 0.07900
C 	C 	0.81360 0.31140 0.36570 -0.12200
C 	C 	0.86310 0.33330 0.32820 0.02700
C 	C 	0.84330 0.33530 0.27700 -0.11200
C 	C 	0.77970 0.31740 0.26130 0.04400
C 	C 	0.72920 0.29660 0.29590 -0.14000
C 	C 	0.77290 0.08150 0.42620 0.06200
C 	C 	0.82740 0.11500 0.40160 -0.11500
C 	C 	0.88020 0.07520 0.37810 0.01300
C 	C 	0.87440 0.00210 0.37840 -0.09000
C 	C 	0.82050 0.97030 0.40300 0.02100
C 	C 	0.76850 0.00860 0.42670 -0.10900
C 	C 	0.41500 0.48130 0.27370 -0.00800
C 	C 	0.47860 0.46550 0.29720 -0.00200
C 	C 	0.28930 0.59390 0.24670 0.07100
C 	C 	0.21670 0.58930 0.24670 -0.12900
C 	C 	0.18040 0.62800 0.28160 0.04800
C 	C 	0.21110 0.66770 0.31590 -0.11300
C 	C 	0.28520 0.67450 0.31710 0.02800
C 	C 	0.32380 0.63580 0.28150 -0.12400
C 	C 	0.45450 0.49770 0.40180 0.08300
C 	C 	0.45300 0.47930 0.45400 -0.14400
C 	C 	0.43180 0.53110 0.48810 0.05100
C 	C 	0.41540 0.59450 0.47300 -0.12100
C 	C 	0.41790 0.61180 0.41980 0.03800
C 	C 	0.43930 0.56390 0.38450 -0.13200
C 	C 	0.54320 0.48270 0.27450 -0.00600
C 	C 	0.66850 0.52230 0.32320 0.06100
C 	C 	0.74110 0.51920 0.32390 -0.10500
C 	C 	0.78070 0.57060 0.34740 0.01600
C 	C 	0.74820 0.62490 0.37150 -0.08500
C 	C 	0.67610 0.62960 0.37280 0.01000
C 	C 	0.63520 0.57710 0.34810 -0.11300
H 	H 	0.69130 0.55740 0.47270 0.07300
H 	H 	0.62160 0.61980 0.52950 0.01100
H 	H 	0.55770 0.56590 0.59130 0.05600
H 	H 	0.54610 0.44140 0.59250 0.01600
H 	H 	0.61090 0.37640 0.53100 0.05700
H 	H 	0.82620 0.30690 0.40210 0.06900
H 	H 	0.90900 0.34660 0.33800 0.01400
H 	H 	0.87650 0.34980 0.25190 0.06100
H 	H 	0.76800 0.31990 0.22530 0.01600
H 	H 	0.68350 0.28350 0.28490 0.05300
H 	H 	0.82890 0.16560 0.40140 0.06400
H 	H 	0.91990 0.09930 0.36120 0.01700
H 	H 	0.91050 0.97540 0.36090 0.05100
H 	H 	0.81910 0.92010 0.40400 0.01900
H 	H 	0.72900 0.98530 0.44340 0.06700
H 	H 	0.19280 0.55880 0.22290 0.07500
H 	H 	0.13080 0.62710 0.28100 0.00700
H 	H 	0.18310 0.69250 0.33990 0.06000
H 	H 	0.30840 0.70420 0.34170 0.01400
H 	H 	0.37380 0.63860 0.28120 0.05900
H 	H 	0.46640 0.43340 0.46540 0.05400
H 	H 	0.42770 0.51920 0.52410 0.01400
H 	H 	0.40220 0.62890 0.49780 0.06400
H 	H 	0.40570 0.65790 0.40850 0.01000
H 	H 	0.44450 0.57630 0.34820 0.07200
H 	H 	0.76480 0.47970 0.30740 0.06600
H 	H 	0.83060 0.56760 0.34640 0.02000
H 	H 	0.77530 0.66190 0.38780 0.04900
H 	H 	0.65300 0.66850 0.39120 0.01900
H 	H 	0.58490 0.57990 0.34790 0.06400
Ag	Ag	0.10262 0.88474 0.88379 0.50500
Ag	Ag	0.13477 0.64741 0.86625 0.50500
S 	S 	0.20342 0.91530 0.94736 -0.11200
S 	S 	0.17671 0.77078 0.88979 -0.24400
S 	S 	0.19986 0.62554 0.95319 -0.11800
S 	S 	0.83469 0.95356 0.80260 -0.11300
S 	S 	0.97923 0.92679 0.86030 -0.24500
S 	S 	0.12450 0.94987 0.79680 -0.11800
C 	C 	0.23100 0.83530 0.97650 -0.00800
C 	C 	0.21570 0.77100 0.95240 -0.00100
C 	C 	0.23250 0.70710 0.97580 -0.00600
C 	C 	0.15660 0.96040 0.99690 0.06700
C 	C 	0.16100 0.03360 0.99650 -0.12200
C 	C 	0.12130 0.06980 0.03110 0.03500
C 	C 	0.08220 0.03820 0.06670 -0.10100
C 	C 	0.07560 0.96490 0.06800 0.01900
C 	C 	0.11480 0.92630 0.03170 -0.11800
C 	C 	0.24810 0.79560 0.84840 0.07900
C 	C 	0.31360 0.81140 0.86570 -0.12200
C 	C 	0.36310 0.83330 0.82820 0.02700
C 	C 	0.34330 0.83530 0.77700 -0.11200
C 	C 	0.27970 0.81740 0.76130 0.04400
C 	C 	0.22920 0.79660 0.79590 -0.14000
C 	C 	0.27290 0.58150 0.92620 0.06200
C 	C 	0.32740 0.61500 0.90160 -0.11500
C 	C 	0.38020 0.57520 0.87810 0.01300
C 	C 	0.37440 0.50210 0.87840 -0.08900
C 	C 	0.32050 0.47030 0.90300 0.02000
C 	C 	0.26850 0.50860 0.92670 -0.10800
C 	C 	0.91500 0.98130 0.77370 -0.00800
C 	C 	0.97860 0.96550 0.79720 -0.00200
C 	C 	0.78930 0.09390 0.74670 0.07100
C 	C 	0.71670 0.08930 0.74670 -0.12900
C 	C 	0.68040 0.12800 0.78160 0.04800
C 	C 	0.71110 0.16770 0.81590 -0.11300
C 	C 	0.78520 0.17450 0.81710 0.02800
C 	C 	0.82380 0.13580 0.78150 -0.12400
C 	C 	0.95450 0.99770 0.90180 0.08300
C 	C 	0.95300 0.97930 0.95400 -0.14400
C 	C 	0.93180 0.03110 0.98810 0.05100
C 	C 	0.91540 0.09450 0.97300 -0.12100
C 	C 	0.91790 0.11180 0.91980 0.03800
C 	C 	0.93930 0.06390 0.88450 -0.13200
C 	C 	0.04320 0.98270 0.77450 -0.00600
C 	C 	0.16850 0.02230 0.82320 0.06100
C 	C 	0.24110 0.01920 0.82390 -0.10600
C 	C 	0.28070 0.07060 0.84740 0.01600
C 	C 	0.24820 0.12490 0.87150 -0.08500
C 	C 	0.17610 0.12960 0.87280 0.01000
C 	C 	0.13520 0.07710 0.84810 -0.11300
H 	H 	0.19130 0.05740 0.97270 0.07300
H 	H 	0.12160 0.11980 0.02950 0.01100
H 	H 	0.05770 0.06590 0.09130 0.05600
H 	H 	0.04610 0.94140 0.09250 0.01600
H 	H 	0.11090 0.87640 0.03100 0.05700
H 	H 	0.32620 0.80690 0.90210 0.06900
H 	H 	0.40900 0.84660 0.83800 0.01400
H 	H 	0.37650 0.84980 0.75190 0.06100
H 	H 	0.26800 0.81990 0.72530 0.01600
H 	H 	0.18350 0.78350 0.78490 0.05300
H 	H 	0.32890 0.66560 0.90140 0.06400
H 	H 	0.41990 0.59930 0.86120 0.01700
H 	H 	0.41050 0.47540 0.86090 0.05100
H 	H 	0.31910 0.42010 0.90400 0.01900
H 	H 	0.22900 0.48530 0.94340 0.06700
H 	H 	0.69280 0.05880 0.72290 0.07500
H 	H 	0.63080 0.12710 0.78100 0.00700
H 	H 	0.68310 0.19250 0.83990 0.06000
H 	H 	0.80840 0.20420 0.84170 0.01400
H 	H 	0.87380 0.13860 0.78120 0.05900
H 	H 	0.96640 0.93340 0.96540 0.05400
H 	H 	0.92770 0.01920 0.02410 0.01400
H 	H 	0.90220 0.12890 0.99780 0.06400
H 	H 	0.90570 0.15790 0.90850 0.01100
H 	H 	0.94450 0.07630 0.84820 0.07200
H 	H 	0.26480 0.97970 0.80740 0.06600
H 	H 	0.33060 0.06760 0.84640 0.02000
H 	H 	0.27530 0.16190 0.88780 0.04900
H 	H 	0.15300 0.16850 0.89120 0.01900
H 	H 	0.08490 0.07990 0.84790 0.06400
Ag	Ag	0.89738 0.61526 0.88379 0.50500
Ag	Ag	0.86523 0.85259 0.86625 0.50500
S 	S 	0.79658 0.58470 0.94736 -0.11200
S 	S 	0.82329 0.72922 0.88979 -0.24400
S 	S 	0.80014 0.87446 0.95319 -0.11800
S 	S 	0.16531 0.54644 0.80260 -0.11300
S 	S 	0.02077 0.57321 0.86030 -0.24500
S 	S 	0.87550 0.55013 0.79680 -0.11800
C 	C 	0.76900 0.66470 0.97650 -0.00800
C 	C 	0.78430 0.72900 0.95240 -0.00100
C 	C 	0.76750 0.79290 0.97580 -0.00600
C 	C 	0.84340 0.53960 0.99690 0.06700
C 	C 	0.83900 0.46640 0.99650 -0.12200
C 	C 	0.87870 0.43020 0.03110 0.03500
C 	C 	0.91780 0.46180 0.06670 -0.10100
C 	C 	0.92440 0.53510 0.06800 0.01900
C 	C 	0.88520 0.57370 0.03170 -0.11800
C 	C 	0.75190 0.70440 0.84840 0.07900
C 	C 	0.68640 0.68860 0.86570 -0.12200
C 	C 	0.63690 0.66670 0.82820 0.02700
C 	C 	0.65670 0.66470 0.77700 -0.11200
C 	C 	0.72030 0.68260 0.76130 0.04400
C 	C 	0.77080 0.70340 0.79590 -0.14000
C 	C 	0.72710 0.91850 0.92620 0.06200
C 	C 	0.67260 0.88500 0.90160 -0.11500
C 	C 	0.61980 0.92480 0.87810 0.01300
C 	C 	0.62560 0.99790 0.87840 -0.09000
C 	C 	0.67950 0.02970 0.90300 0.02100
C 	C 	0.73150 0.99140 0.92670 -0.10900
C 	C 	0.08500 0.51870 0.77370 -0.00800
C 	C 	0.02140 0.53450 0.79720 -0.00200
C 	C 	0.21070 0.40610 0.74670 0.07100
C 	C 	0.28330 0.41070 0.74670 -0.12900
C 	C 	0.31960 0.37200 0.78160 0.04800
C 	C 	0.28890 0.33230 0.81590 -0.11300
C 	C 	0.21480 0.32550 0.81710 0.02800
C 	C 	0.17620 0.36420 0.78150 -0.12400
C 	C 	0.04550 0.50230 0.90180 0.08300
C 	C 	0.04700 0.52070 0.95400 -0.14400
C 	C 	0.06820 0.46890 0.98810 0.05100
C 	C 	0.08460 0.40550 0.97300 -0.12100
C 	C 	0.08210 0.38820 0.91980 0.03800
C 	C 	0.06070 0.43610 0.88450 -0.13200
C 	C 	0.95680 0.51730 0.77450 -0.00600
C 	C 	0.83150 0.47770 0.82320 0.06100
C 	C 	0.75890 0.48080 0.82390 -0.10500
C 	C 	0.71930 0.42940 0.84740 0.01600
C 	C 	0.75180 0.37510 0.87150 -0.08500
C 	C 	0.82390 0.37040 0.87280 0.01000
C 	C 	0.86480 0.42290 0.84810 -0.11300
H 	H 	0.80870 0.44260 0.97270 0.07300
H 	H 	0.87840 0.38020 0.02950 0.01100
H 	H 	0.94230 0.43410 0.09130 0.05600
H 	H 	0.95390 0.55860 0.09250 0.01600
H 	H 	0.88910 0.62360 0.03100 0.05700
H 	H 	0.67380 0.69310 0.90210 0.06900
H 	H 	0.59100 0.65340 0.83800 0.01400
H 	H 	0.62350 0.65020 0.75190 0.06100
H 	H 	0.73200 0.68010 0.72530 0.01600
H 	H 	0.81650 0.71650 0.78490 0.05300
H 	H 	0.67110 0.83440 0.90140 0.06500
H 	H 	0.58010 0.90070 0.86120 0.01700
H 	H 	0.58950 0.02460 0.86090 0.05100
H 	H 	0.68090 0.07990 0.90400 0.01900
H 	H 	0.77100 0.01470 0.94340 0.06800
H 	H 	0.30720 0.44120 0.72290 0.07500
H 	H 	0.36920 0.37290 0.78100 0.00700
H 	H 	0.31690 0.30750 0.83990 0.06000
H 	H 	0.19160 0.29580 0.84170 0.01400
H 	H 	0.12620 0.36140 0.78120 0.05900
H 	H 	0.03360 0.56660 0.96540 0.05400
H 	H 	0.07230 0.48080 0.02410 0.01400
H 	H 	0.09780 0.37110 0.99780 0.06400
H 	H 	0.09430 0.34210 0.90850 0.01100
H 	H 	0.05550 0.42370 0.84820 0.07200
H 	H 	0.73520 0.52030 0.80740 0.06600
H 	H 	0.66940 0.43240 0.84640 0.02000
H 	H 	0.72470 0.33810 0.88780 0.04900
H 	H 	0.84700 0.33150 0.89120 0.01900
H 	H 	0.91510 0.42010 0.84790 0.06400
Ag	Ag	0.39738 0.11526 0.38379 0.50500
Ag	Ag	0.36523 0.35259 0.36625 0.50500
S 	S 	0.29658 0.08470 0.44736 -0.11200
S 	S 	0.32329 0.22922 0.38979 -0.24400
S 	S 	0.30014 0.37446 0.45319 -0.11800
S 	S 	0.66531 0.04644 0.30260 -0.11300
S 	S 	0.52077 0.07321 0.36030 -0.24500
S 	S 	0.37550 0.05013 0.29680 -0.11800
C 	C 	0.26900 0.16470 0.47650 -0.00800
C 	C 	0.28430 0.22900 0.45240 -0.00100
C 	C 	0.26750 0.29290 0.47580 -0.00600
C 	C 	0.34340 0.03960 0.49690 0.06700
C 	C 	0.33900 0.96640 0.49650 -0.12200
C 	C 	0.37870 0.93020 0.53110 0.03500
C 	C 	0.41780 0.96180 0.56670 -0.10100
C 	C 	0.42440 0.03510 0.56800 0.01900
C 	C 	0.38520 0.07370 0.53170 -0.11800
C 	C 	0.25190 0.20440 0.34840 0.07900
C 	C 	0.18640 0.18860 0.36570 -0.12200
C 	C 	0.13690 0.16670 0.32820 0.02700
C 	C 	0.15670 0.16470 0.27700 -0.11200
C 	C 	0.22030 0.18260 0.26130 0.04400
C 	C 	0.27080 0.20340 0.29590 -0.14000
C 	C 	0.22710 0.41850 0.42620 0.06200
C 	C 	0.17260 0.38500 0.40160 -0.11500
C 	C 	0.11980 0.42480 0.37810 0.01300
C 	C 	0.12560 0.49790 0.37840 -0.08900
C 	C 	0.17950 0.52970 0.40300 0.02000
C 	C 	0.23150 0.49140 0.42670 -0.10800
C 	C 	0.58500 0.01870 0.27370 -0.00800
C 	C 	0.52140 0.03450 0.29720 -0.00200
C 	C 	0.71070 0.90610 0.24670 0.07100
C 	C 	0.78330 0.91070 0.24670 -0.12900
C 	C 	0.81960 0.87200 0.28160 0.04800
C 	C 	0.78890 0.83230 0.31590 -0.11300
C 	C 	0.71480 0.82550 0.31710 0.02800
C 	C 	0.67620 0.86420 0.28150 -0.12400
C 	C 	0.54550 0.00230 0.40180 0.08300
C 	C 	0.54700 0.02070 0.45400 -0.14400
C 	C 	0.56820 0.96890 0.48810 0.05100
C 	C 	0.58460 0.90550 0.47300 -0.12100
C 	C 	0.58210 0.88820 0.41980 0.03800
C 	C 	0.56070 0.93610 0.38450 -0.13200
C 	C 	0.45680 0.01730 0.27450 -0.00600
C 	C 	0.33150 0.97770 0.32320 0.06100
C 	C 	0.25890 0.98080 0.32390 -0.10600
C 	C 	0.21930 0.92940 0.34740 0.01600
C 	C 	0.25180 0.87510 0.37150 -0.08500
C 	C 	0.32390 0.87040 0.37280 0.01000
C 	C 	0.36480 0.92290 0.34810 -0.11300
H 	H 	0.30870 0.94260 0.47270 0.07300
H 	H 	0.37840 0.88020 0.52950 0.01100
H 	H 	0.44230 0.93410 0.59130 0.05600
H 	H 	0.45390 0.05860 0.59250 0.01600
H 	H 	0.38910 0.12360 0.53100 0.05700
H 	H 	0.17380 0.19310 0.40210 0.06900
H 	H 	0.09100 0.15340 0.33800 0.01400
H 	H 	0.12350 0.15020 0.25190 0.06100
H 	H 	0.23200 0.18010 0.22530 0.01600
H 	H 	0.31650 0.21650 0.28490 0.05300
H 	H 	0.17110 0.33440 0.40140 0.06400
H 	H 	0.08010 0.40070 0.36120 0.01800
H 	H 	0.08950 0.52460 0.36090 0.05100
H 	H 	0.18090 0.57990 0.40400 0.01900
H 	H 	0.27100 0.51470 0.44340 0.06700
H 	H 	0.80720 0.94120 0.22290 0.07500
H 	H 	0.86920 0.87290 0.28100 0.00700
H 	H 	0.81690 0.80750 0.33990 0.06000
H 	H 	0.69160 0.79580 0.34170 0.01400
H 	H 	0.62620 0.86140 0.28120 0.05900
H 	H 	0.53360 0.06660 0.46540 0.05400
H 	H 	0.57230 0.98080 0.52410 0.01400
H 	H 	0.59780 0.87110 0.49780 0.06400
H 	H 	0.59430 0.84210 0.40850 0.01100
H 	H 	0.55550 0.92370 0.34820 0.07200
H 	H 	0.23520 0.02030 0.30740 0.06600
H 	H 	0.16940 0.93240 0.34640 0.02000
H 	H 	0.22470 0.83810 0.38780 0.04900
H 	H 	0.34700 0.83150 0.39120 0.01900
H 	H 	0.41510 0.92010 0.34790 0.06400
Ag	Ag	0.39738 0.88474 0.11621 0.50500
Ag	Ag	0.36523 0.64741 0.13375 0.50500
S 	S 	0.29658 0.91530 0.05264 -0.11200
S 	S 	0.32329 0.77078 0.11021 -0.24400
S 	S 	0.30014 0.62554 0.04681 -0.11800
S 	S 	0.66531 0.95356 0.19740 -0.11300
S 	S 	0.52077 0.92679 0.13970 -0.24500
S 	S 	0.37550 0.94987 0.20320 -0.11800
C 	C 	0.26900 0.83530 0.02350 -0.00800
C 	C 	0.28430 0.77100 0.04760 -0.00100
C 	C 	0.26750 0.70710 0.02420 -0.00600
C 	C 	0.34340 0.96040 0.00310 0.06700
C 	C 	0.33900 0.03360 0.00350 -0.12200
C 	C 	0.37870 0.06980 0.96890 0.03500
C 	C 	0.41780 0.03820 0.93330 -0.10100
C 	C 	0.42440 0.96490 0.93200 0.01900
C 	C 	0.38520 0.92630 0.96830 -0.11800
C 	C 	0.25190 0.79560 0.15160 0.07900
C 	C 	0.18640 0.81140 0.13430 -0.12200
C 	C 	0.13690 0.83330 0.17180 0.02700
C 	C 	0.15670 0.83530 0.22300 -0.11200
C 	C 	0.22030 0.81740 0.23870 0.04400
C 	C 	0.27080 0.79660 0.20410 -0.14000
C 	C 	0.22710 0.58150 0.07380 0.06200
C 	C 	0.17260 0.61500 0.09840 -0.11500
C 	C 	0.11980 0.57520 0.12190 0.01300
C 	C 	0.12560 0.50210 0.12160 -0.08900
C 	C 	0.17950 0.47030 0.09700 0.02000
C 	C 	0.23150 0.50860 0.07330 -0.10800
C 	C 	0.58500 0.98130 0.22630 -0.00800
C 	C 	0.52140 0.96550 0.20280 -0.00200
C 	C 	0.71070 0.09390 0.25330 0.07100
C 	C 	0.78330 0.08930 0.25330 -0.12900
C 	C 	0.81960 0.12800 0.21840 0.04800
C 	C 	0.78890 0.16770 0.18410 -0.11300
C 	C 	0.71480 0.17450 0.18290 0.02800
C 	C 	0.67620 0.13580 0.21850 -0.12400
C 	C 	0.54550 0.99770 0.09820 0.08300
C 	C 	0.54700 0.97930 0.04600 -0.14400
C 	C 	0.56820 0.03110 0.01190 0.05100
C 	C 	0.58460 0.09450 0.02700 -0.12100
C 	C 	0.58210 0.11180 0.08020 0.03800
C 	C 	0.56070 0.06390 0.11550 -0.13200
C 	C 	0.45680 0.98270 0.22550 -0.00600
C 	C 	0.33150 0.02230 0.17680 0.06100
C 	C 	0.25890 0.01920 0.17610 -0.10600
C 	C 	0.21930 0.07060 0.15260 0.01600
C 	C 	0.25180 0.12490 0.12850 -0.08500
C 	C 	0.32390 0.12960 0.12720 0.01000
C 	C 	0.36480 0.07710 0.15190 -0.11300
H 	H 	0.30870 0.05740 0.02730 0.07300
H 	H 	0.37840 0.11980 0.97050 0.01100
H 	H 	0.44230 0.06590 0.90870 0.05600
H 	H 	0.45390 0.94140 0.90750 0.01600
H 	H 	0.38910 0.87640 0.96900 0.05700
H 	H 	0.17380 0.80690 0.09790 0.06900
H 	H 	0.09100 0.84660 0.16200 0.01400
H 	H 	0.12350 0.84980 0.24810 0.06100
H 	H 	0.23200 0.81990 0.27470 0.01600
H 	H 	0.31650 0.78350 0.21510 0.05300
H 	H 	0.17110 0.66560 0.09860 0.06400
H 	H 	0.08010 0.59930 0.13880 0.01800
H 	H 	0.08950 0.47540 0.13910 0.05100
H 	H 	0.18090 0.42010 0.09600 0.01900
H 	H 	0.27100 0.48530 0.05660 0.06700
H 	H 	0.80720 0.05880 0.27710 0.07500
H 	H 	0.86920 0.12710 0.21900 0.00700
H 	H 	0.81690 0.19250 0.16010 0.06000
H 	H 	0.69160 0.20420 0.15830 0.01400
H 	H 	0.62620 0.13860 0.21880 0.05900
H 	H 	0.53360 0.93340 0.03460 0.05400
H 	H 	0.57230 0.01920 0.97590 0.01400
H 	H 	0.59780 0.12890 0.00220 0.06300
H 	H 	0.59430 0.15790 0.09150 0.01100
H 	H 	0.55550 0.07630 0.15180 0.07200
H 	H 	0.23520 0.97970 0.19260 0.06600
H 	H 	0.16940 0.06760 0.15360 0.02000
H 	H 	0.22470 0.16190 0.11220 0.04900
H 	H 	0.34700 0.16850 0.10880 0.01900
H 	H 	0.41510 0.07990 0.15210 0.06400
Ag	Ag	0.89738 0.38474 0.61621 0.50500
Ag	Ag	0.86523 0.14741 0.63375 0.50500
S 	S 	0.79658 0.41530 0.55264 -0.11200
S 	S 	0.82329 0.27078 0.61021 -0.24400
S 	S 	0.80014 0.12554 0.54681 -0.11800
S 	S 	0.16531 0.45356 0.69740 -0.11300
S 	S 	0.02077 0.42679 0.63970 -0.24500
S 	S 	0.87550 0.44987 0.70320 -0.11800
C 	C 	0.76900 0.33530 0.52350 -0.00800
C 	C 	0.78430 0.27100 0.54760 -0.00100
C 	C 	0.76750 0.20710 0.52420 -0.00600
C 	C 	0.84340 0.46040 0.50310 0.06700
C 	C 	0.83900 0.53360 0.50350 -0.12200
C 	C 	0.87870 0.56980 0.46890 0.03500
C 	C 	0.91780 0.53820 0.43330 -0.10100
C 	C 	0.92440 0.46490 0.43200 0.01900
C 	C 	0.88520 0.42630 0.46830 -0.11800
C 	C 	0.75190 0.29560 0.65160 0.07900
C 	C 	0.68640 0.31140 0.63430 -0.12200
C 	C 	0.63690 0.33330 0.67180 0.02700
C 	C 	0.65670 0.33530 0.72300 -0.11200
C 	C 	0.72030 0.31740 0.73870 0.04400
C 	C 	0.77080 0.29660 0.70410 -0.14000
C 	C 	0.72710 0.08150 0.57380 0.06200
C 	C 	0.67260 0.11500 0.59840 -0.11500
C 	C 	0.61980 0.07520 0.62190 0.01300
C 	C 	0.62560 0.00210 0.62160 -0.09000
C 	C 	0.67950 0.97030 0.59700 0.02100
C 	C 	0.73150 0.00860 0.57330 -0.10900
C 	C 	0.08500 0.48130 0.72630 -0.00800
C 	C 	0.02140 0.46550 0.70280 -0.00200
C 	C 	0.21070 0.59390 0.75330 0.07100
C 	C 	0.28330 0.58930 0.75330 -0.12900
C 	C 	0.31960 0.62800 0.71840 0.04800
C 	C 	0.28890 0.66770 0.68410 -0.11300
C 	C 	0.21480 0.67450 0.68290 0.02800
C 	C 	0.17620 0.63580 0.71850 -0.12400
C 	C 	0.04550 0.49770 0.59820 0.08300
C 	C 	0.04700 0.47930 0.54600 -0.14400
C 	C 	0.06820 0.53110 0.51190 0.05100
C 	C 	0.08460 0.59450 0.52700 -0.12100
C 	C 	0.08210 0.61180 0.58020 0.03800
C 	C 	0.06070 0.56390 0.61550 -0.13200
C 	C 	0.95680 0.48270 0.72550 -0.00600
C 	C 	0.83150 0.52230 0.67680 0.06100
C 	C 	0.75890 0.51920 0.67610 -0.10500
C 	C 	0.71930 0.57060 0.65260 0.01600
C 	C 	0.75180 0.62490 0.62850 -0.08500
C 	C 	0.82390 0.62960 0.62720 0.01000
C 	C 	0.86480 0.57710 0.65190 -0.11300
H 	H 	0.80870 0.55740 0.52730 0.07300
H 	H 	0.87840 0.61980 0.47050 0.01100
H 	H 	0.94230 0.56590 0.40870 0.05600
H 	H 	0.95390 0.44140 0.40750 0.01600
H 	H 	0.88910 0.37640 0.46900 0.05700
H 	H 	0.67380 0.30690 0.59790 0.06900
H 	H 	0.59100 0.34660 0.66200 0.01400
H 	H 	0.62350 0.34980 0.74810 0.06100
H 	H 	0.73200 0.31990 0.77470 0.01600
H 	H 	0.81650 0.28350 0.71510 0.05300
H 	H 	0.67110 0.16560 0.59860 0.06400
H 	H 	0.58010 0.09930 0.63880 0.01700
H 	H 	0.58950 0.97540 0.63910 0.05100
H 	H 	0.68090 0.92010 0.59600 0.01900
H 	H 	0.77100 0.98530 0.55660 0.06700
H 	H 	0.30720 0.55880 0.77710 0.07500
H 	H 	0.36920 0.62710 0.71900 0.00700
H 	H 	0.31690 0.69250 0.66010 0.06000
H 	H 	0.19160 0.70420 0.65830 0.01400
H 	H 	0.12620 0.63860 0.71880 0.05900
H 	H 	0.03360 0.43340 0.53460 0.05400
H 	H 	0.07230 0.51920 0.47590 0.01400
H 	H 	0.09780 0.62890 0.50220 0.06400
H 	H 	0.09430 0.65790 0.59150 0.01100
H 	H 	0.05550 0.57630 0.65180 0.07200
H 	H 	0.73520 0.47970 0.69260 0.06600
H 	H 	0.66940 0.56760 0.65360 0.02000
H 	H 	0.72470 0.66190 0.61220 0.04900
H 	H 	0.84700 0.66850 0.60880 0.01900
H 	H 	0.91510 0.57990 0.65210 0.06400
Ag	Ag	0.10262 0.11526 0.61621 0.50500
Ag	Ag	0.13477 0.35259 0.63375 0.50500
S 	S 	0.20342 0.08470 0.55264 -0.11200
S 	S 	0.17671 0.22922 0.61021 -0.24400
S 	S 	0.19986 0.37446 0.54681 -0.11800
S 	S 	0.83469 0.04644 0.69740 -0.11300
S 	S 	0.97923 0.07321 0.63970 -0.24500
S 	S 	0.12450 0.05013 0.70320 -0.11800
C 	C 	0.23100 0.16470 0.52350 -0.00800
C 	C 	0.21570 0.22900 0.54760 -0.00100
C 	C 	0.23250 0.29290 0.52420 -0.00600
C 	C 	0.15660 0.03960 0.50310 0.06700
C 	C 	0.16100 0.96640 0.50350 -0.12200
C 	C 	0.12130 0.93020 0.46890 0.03500
C 	C 	0.08220 0.96180 0.43330 -0.10100
C 	C 	0.07560 0.03510 0.43200 0.01900
C 	C 	0.11480 0.07370 0.46830 -0.11800
C 	C 	0.24810 0.20440 0.65160 0.07900
C 	C 	0.31360 0.18860 0.63430 -0.12200
C 	C 	0.36310 0.16670 0.67180 0.02700
C 	C 	0.34330 0.16470 0.72300 -0.11200
C 	C 	0.27970 0.18260 0.73870 0.04400
C 	C 	0.22920 0.20340 0.70410 -0.14000
C 	C 	0.27290 0.41850 0.57380 0.06200
C 	C 	0.32740 0.38500 0.59840 -0.11500
C 	C 	0.38020 0.42480 0.62190 0.01300
C 	C 	0.37440 0.49790 0.62160 -0.08900
C 	C 	0.32050 0.52970 0.59700 0.02000
C 	C 	0.26850 0.49140 0.57330 -0.10800
C 	C 	0.91500 0.01870 0.72630 -0.00800
C 	C 	0.97860 0.03450 0.70280 -0.00200
C 	C 	0.78930 0.90610 0.75330 0.07100
C 	C 	0.71670 0.91070 0.75330 -0.12900
C 	C 	0.68040 0.87200 0.71840 0.04800
C 	C 	0.71110 0.83230 0.68410 -0.11300
C 	C 	0.78520 0.82550 0.68290 0.02800
C 	C 	0.82380 0.86420 0.71850 -0.12400
C 	C 	0.95450 0.00230 0.59820 0.08300
C 	C 	0.95300 0.02070 0.54600 -0.14400
C 	C 	0.93180 0.96890 0.51190 0.05100
C 	C 	0.91540 0.90550 0.52700 -0.12100
C 	C 	0.91790 0.88820 0.58020 0.03800
C 	C 	0.93930 0.93610 0.61550 -0.13200
C 	C 	0.04320 0.01730 0.72550 -0.00600
C 	C 	0.16850 0.97770 0.67680 0.06100
C 	C 	0.24110 0.98080 0.67610 -0.10600
C 	C 	0.28070 0.92940 0.65260 0.01600
C 	C 	0.24820 0.87510 0.62850 -0.08500
C 	C 	0.17610 0.87040 0.62720 0.01000
C 	C 	0.13520 0.92290 0.65190 -0.11300
H 	H 	0.19130 0.94260 0.52730 0.07300
H 	H 	0.12160 0.88020 0.47050 0.01100
H 	H 	0.05770 0.93410 0.40870 0.05600
H 	H 	0.04610 0.05860 0.40750 0.01600
H 	H 	0.11090 0.12360 0.46900 0.05700
H 	H 	0.32620 0.19310 0.59790 0.06900
H 	H 	0.40900 0.15340 0.66200 0.01400
H 	H 	0.37650 0.15020 0.74810 0.06100
H 	H 	0.26800 0.18010 0.77470 0.01600
H 	H 	0.18350 0.21650 0.71510 0.05300
H 	H 	0.32890 0.33440 0.59860 0.06400
H 	H 	0.41990 0.40070 0.63880 0.01700
H 	H 	0.41050 0.52460 0.63910 0.05100
H 	H 	0.31910 0.57990 0.59600 0.01900
H 	H 	0.22900 0.51470 0.55660 0.06700
H 	H 	0.69280 0.94120 0.77710 0.07500
H 	H 	0.63080 0.87290 0.71900 0.00700
H 	H 	0.68310 0.80750 0.66010 0.06000
H 	H 	0.80840 0.79580 0.65830 0.01400
H 	H 	0.87380 0.86140 0.71880 0.05900
H 	H 	0.96640 0.06660 0.53460 0.05400
H 	H 	0.92770 0.98080 0.47590 0.01400
H 	H 	0.90220 0.87110 0.50220 0.06400
H 	H 	0.90570 0.84210 0.59150 0.01100
H 	H 	0.94450 0.92370 0.65180 0.07200
H 	H 	0.26480 0.02030 0.69260 0.06600
H 	H 	0.33060 0.93240 0.65360 0.02000
H 	H 	0.27530 0.83810 0.61220 0.04900
H 	H 	0.15300 0.83150 0.60880 0.01900
H 	H 	0.08490 0.92010 0.65210 0.06400
Ag	Ag	0.60262 0.61526 0.11621 0.50500
Ag	Ag	0.63477 0.85259 0.13375 0.50500
S 	S 	0.70342 0.58470 0.05264 -0.11200
S 	S 	0.67671 0.72922 0.11021 -0.24400
S 	S 	0.69986 0.87446 0.04681 -0.11800
S 	S 	0.33469 0.54644 0.19740 -0.11300
S 	S 	0.47923 0.57321 0.13970 -0.24500
S 	S 	0.62450 0.55013 0.20320 -0.11800
C 	C 	0.73100 0.66470 0.02350 -0.00800
C 	C 	0.71570 0.72900 0.04760 -0.00100
C 	C 	0.73250 0.79290 0.02420 -0.00600
C 	C 	0.65660 0.53960 0.00310 0.06700
C 	C 	0.66100 0.46640 0.00350 -0.12200
C 	C 	0.62130 0.43020 0.96890 0.03500
C 	C 	0.58220 0.46180 0.93330 -0.10100
C 	C 	0.57560 0.53510 0.93200 0.01900
C 	C 	0.61480 0.57370 0.96830 -0.11800
C 	C 	0.74810 0.70440 0.15160 0.07900
C 	C 	0.81360 0.68860 0.13430 -0.12200
C 	C 	0.86310 0.66670 0.17180 0.02700
C 	C 	0.84330 0.66470 0.22300 -0.11200
C 	C 	0.77970 0.68260 0.23870 0.04400
C 	C 	0.72920 0.70340 0.20410 -0.14000
C 	C 	0.77290 0.91850 0.07380 0.06200
C 	C 	0.82740 0.88500 0.09840 -0.11500
C 	C 	0.88020 0.92480 0.12190 0.01300
C 	C 	0.87440 0.99790 0.12160 -0.09000
C 	C 	0.82050 0.02970 0.09700 0.02100
C 	C 	0.76850 0.99140 0.07330 -0.10900
C 	C 	0.41500 0.51870 0.22630 -0.00800
C 	C 	0.47860 0.53450 0.20280 -0.00200
C 	C 	0.28930 0.40610 0.25330 0.07100
C 	C 	0.21670 0.41070 0.25330 -0.12900
C 	C 	0.18040 0.37200 0.21840 0.04800
C 	C 	0.21110 0.33230 0.18410 -0.11300
C 	C 	0.28520 0.32550 0.18290 0.02800
C 	C 	0.32380 0.36420 0.21850 -0.12400
C 	C 	0.45450 0.50230 0.09820 0.08300
C 	C 	0.45300 0.52070 0.04600 -0.14400
C 	C 	0.43180 0.46890 0.01190 0.05100
C 	C 	0.41540 0.40550 0.02700 -0.12100
C 	C 	0.41790 0.38820 0.08020 0.03800
C 	C 	0.43930 0.43610 0.11550 -0.13200
C 	C 	0.54320 0.51730 0.22550 -0.00600
C 	C 	0.66850 0.47770 0.17680 0.06100
C 	C 	0.74110 0.48080 0.17610 -0.10500
C 	C 	0.78070 0.42940 0.15260 0.01600
C 	C 	0.74820 0.37510 0.12850 -0.08500
C 	C 	0.67610 0.37040 0.12720 0.01000
C 	C 	0.63520 0.42290 0.15190 -0.11300
H 	H 	0.69130 0.44260 0.02730 0.07300
H 	H 	0.62160 0.38020 0.97050 0.01100
H 	H 	0.55770 0.43410 0.90870 0.05600
H 	H 	0.54610 0.55860 0.90750 0.01600
H 	H 	0.61090 0.62360 0.96900 0.05700
H 	H 	0.82620 0.69310 0.09790 0.06900
H 	H 	0.90900 0.65340 0.16200 0.01400
H 	H 	0.87650 0.65020 0.24810 0.06100
H 	H 	0.76800 0.68010 0.27470 0.01600
H 	H 	0.68350 0.71650 0.21510 0.05300
H 	H 	0.82890 0.83440 0.09860 0.06500
H 	H 	0.91990 0.90070 0.13880 0.01700
H 	H 	0.91050 0.02460 0.13910 0.05100
H 	H 	0.81910 0.07990 0.09600 0.01900
H 	H 	0.72900 0.01470 0.05660 0.06800
H 	H 	0.19280 0.44120 0.27710 0.07500
H 	H 	0.13080 0.37290 0.21900 0.00700
H 	H 	0.18310 0.30750 0.16010 0.06000
H 	H 	0.30840 0.29580 0.15830 0.01400
H 	H 	0.37380 0.36140 0.21880 0.05900
H 	H 	0.46640 0.56660 0.03460 0.05400
H 	H 	0.42770 0.48080 0.97590 0.01400
H 	H 	0.40220 0.37110 0.00220 0.06400
H 	H 	0.40570 0.34210 0.09150 0.01100
H 	H 	0.44450 0.42370 0.15180 0.07200
H 	H 	0.76480 0.52030 0.19260 0.06600
H 	H 	0.83060 0.43240 0.15360 0.02000
H 	H 	0.77530 0.33810 0.11220 0.04900
H 	H 	0.65300 0.33150 0.10880 0.01900
H 	H 	0.58490 0.42010 0.15210 0.06400
