data_crystal

_cell_length_a 27.64790
_cell_length_b 13.75000
_cell_length_c 45.71400
_cell_angle_alpha 90.00000
_cell_angle_beta  90.00000
_cell_angle_gamma 90.00000

_symmetry_space_group_name_	'P 1'
_symmetry_space_group_name_H-M	'P 1'

loop_
_symmetry_equiv_pos_as_xyz
  x,y,z

loop_
_atom_site_label
_atom_site_type_symbol
_atom_site_fract_x
_atom_site_fract_y
_atom_site_fract_z
_atom_site_charge
C 	C 	0.05100 0.01640 0.53183 0.06800
H 	H 	0.03330 0.04890 0.54670 -0.00700
C 	C 	0.06470 0.06740 0.50718 -0.12000
H 	H 	0.05610 0.13400 0.50530 0.08800
C 	C 	0.09061 0.02250 0.48539 0.05000
C 	C 	0.10050 0.92340 0.48824 -0.11000
H 	H 	0.11690 0.88900 0.47320 0.07600
C 	C 	0.08580 0.87660 0.51346 0.06200
H 	H 	0.09280 0.80930 0.51550 -0.00400
C 	C 	0.10658 0.07700 0.45899 0.10000
C 	C 	0.10837 0.21520 0.43260 0.09400
C 	C 	0.14236 0.07900 0.41476 0.11000
C 	C 	0.09309 0.31810 0.42854 0.05300
C 	C 	0.07390 0.37040 0.45147 -0.12000
H 	H 	0.07190 0.34270 0.47050 0.08500
C 	C 	0.05730 0.46430 0.44635 0.06900
H 	H 	0.04430 0.50050 0.46220 -0.00400
C 	C 	0.07740 0.45370 0.39750 0.06800
H 	H 	0.07850 0.48200 0.37860 -0.00800
C 	C 	0.09490 0.36010 0.40132 -0.12400
H 	H 	0.10810 0.32530 0.38520 0.09300
C 	C 	0.16649 0.02660 0.39059 0.05400
C 	C 	0.18680 0.07530 0.36703 -0.11500
H 	H 	0.18550 0.14420 0.36600 0.07600
C 	C 	0.20910 0.02220 0.34505 0.06900
H 	H 	0.22390 0.05610 0.32930 -0.01400
C 	C 	0.18970 0.87760 0.36743 0.06400
H 	H 	0.19030 0.80850 0.36740 -0.00900
C 	C 	0.16740 0.92520 0.39052 -0.10600
H 	H 	0.15300 0.88930 0.40600 0.07900
C 	C 	0.30718 0.05730 0.76514 0.06300
H 	H 	0.33460 0.07240 0.77680 -0.00900
C 	C 	0.31474 0.02210 0.73700 -0.11300
H 	H 	0.34660 0.01270 0.72970 0.07900
C 	C 	0.27458 0.00100 0.71977 0.04800
C 	C 	0.22890 0.01100 0.73183 -0.11000
H 	H 	0.20090 0.99450 0.72090 0.08000
C 	C 	0.22482 0.04550 0.76017 0.06000
H 	H 	0.19350 0.05150 0.76850 0.00100
C 	C 	0.27964 0.97280 0.68852 0.10300
C 	C 	0.32544 0.94190 0.64874 0.10300
C 	C 	0.24375 0.93970 0.64528 0.10300
C 	C 	0.37322 0.93030 0.63476 0.04700
C 	C 	0.41571 0.93140 0.65125 -0.10900
H 	H 	0.41480 0.94250 0.67180 0.07800
C 	C 	0.45930 0.91590 0.63698 0.06200
H 	H 	0.48820 0.91540 0.64830 -0.00500
C 	C 	0.42190 0.90330 0.59228 0.06500
H 	H 	0.42400 0.89500 0.57170 -0.00600
C 	C 	0.37683 0.91680 0.60462 -0.10800
H 	H 	0.34860 0.91690 0.59270 0.07800
C 	C 	0.19948 0.92620 0.62799 0.04700
C 	C 	0.20094 0.89820 0.59871 -0.11500
H 	H 	0.23110 0.89000 0.58910 0.07800
C 	C 	0.15841 0.88260 0.58387 0.06700
H 	H 	0.16000 0.86260 0.56400 -0.01300
C 	C 	0.11311 0.92390 0.62438 0.05500
H 	H 	0.08240 0.93480 0.63310 -0.00800
C 	C 	0.15405 0.93880 0.64098 -0.10900
H 	H 	0.15150 0.95730 0.66090 0.07800
I 	I 	0.98393 0.94744 0.60185 -0.36400
I 	I 	0.05634 0.67242 0.56806 -0.38100
I 	I 	0.19528 0.69144 0.30583 -0.36700
I 	I 	0.33578 0.83316 0.32434 -0.37400
I 	I 	0.07449 0.72536 0.37142 -0.36600
I 	I 	0.00895 0.71687 0.46084 -0.38700
N 	N 	0.06200 0.92220 0.53528 -0.27000
N 	N 	0.09495 0.17070 0.45738 -0.14400
N 	N 	0.13324 0.17290 0.41083 -0.13500
N 	N 	0.13053 0.02710 0.43844 -0.13700
N 	N 	0.05902 0.50550 0.41973 -0.27200
N 	N 	0.21045 0.92500 0.34516 -0.27300
N 	N 	0.26309 0.07100 0.77646 -0.27200
N 	N 	0.32414 0.96430 0.67740 -0.13900
N 	N 	0.28647 0.92890 0.63190 -0.13900
N 	N 	0.23836 0.96140 0.67367 -0.14000
N 	N 	0.46275 0.90140 0.60797 -0.26700
N 	N 	0.11465 0.89460 0.59627 -0.26900
Zn	Zn	0.05075 0.85570 0.57533 1.16200
Zn	Zn	0.24547 0.84635 0.31345 1.16400
Zn	Zn	0.02768 0.63847 0.41131 1.16300
C 	C 	0.44900 0.98360 0.03183 0.06600
H 	H 	0.46670 0.95110 0.04670 -0.00800
C 	C 	0.43530 0.93260 0.00718 -0.11900
H 	H 	0.44390 0.86600 0.00530 0.08800
C 	C 	0.40939 0.97750 0.98539 0.04800
C 	C 	0.39950 0.07660 0.98824 -0.10900
H 	H 	0.38310 0.11100 0.97320 0.07600
C 	C 	0.41420 0.12340 0.01346 0.06100
H 	H 	0.40720 0.19070 0.01550 -0.00400
C 	C 	0.39342 0.92300 0.95899 0.10000
C 	C 	0.39163 0.78480 0.93260 0.09400
C 	C 	0.35764 0.92100 0.91476 0.11000
C 	C 	0.40691 0.68190 0.92854 0.05300
C 	C 	0.42610 0.62960 0.95147 -0.12000
H 	H 	0.42810 0.65730 0.97050 0.08500
C 	C 	0.44270 0.53570 0.94635 0.06900
H 	H 	0.45570 0.49950 0.96220 -0.00400
C 	C 	0.42260 0.54630 0.89750 0.06800
H 	H 	0.42150 0.51800 0.87860 -0.00800
C 	C 	0.40510 0.63990 0.90132 -0.12400
H 	H 	0.39190 0.67470 0.88520 0.09300
C 	C 	0.33351 0.97340 0.89059 0.05300
C 	C 	0.31320 0.92470 0.86703 -0.11400
H 	H 	0.31450 0.85580 0.86600 0.07600
C 	C 	0.29090 0.97780 0.84505 0.06800
H 	H 	0.27610 0.94390 0.82930 -0.01300
C 	C 	0.31030 0.12240 0.86743 0.06400
H 	H 	0.30970 0.19150 0.86740 -0.00800
C 	C 	0.33260 0.07480 0.89052 -0.10400
H 	H 	0.34700 0.11070 0.90600 0.07900
C 	C 	0.19282 0.94270 0.26514 0.06300
H 	H 	0.16540 0.92760 0.27680 -0.00900
C 	C 	0.18526 0.97790 0.23700 -0.11300
H 	H 	0.15340 0.98730 0.22970 0.07900
C 	C 	0.22542 0.99900 0.21977 0.04800
C 	C 	0.27110 0.98900 0.23183 -0.11100
H 	H 	0.29910 0.00550 0.22090 0.08100
C 	C 	0.27518 0.95450 0.26017 0.06000
H 	H 	0.30650 0.94850 0.26850 0.00000
C 	C 	0.22036 0.02720 0.18852 0.10400
C 	C 	0.17456 0.05810 0.14874 0.10300
C 	C 	0.25625 0.06030 0.14528 0.10300
C 	C 	0.12678 0.06970 0.13476 0.04700
C 	C 	0.08429 0.06860 0.15125 -0.10900
H 	H 	0.08520 0.05750 0.17180 0.07800
C 	C 	0.04070 0.08410 0.13698 0.06200
H 	H 	0.01180 0.08460 0.14830 -0.00500
C 	C 	0.07810 0.09670 0.09228 0.06600
H 	H 	0.07600 0.10500 0.07170 -0.00600
C 	C 	0.12317 0.08320 0.10462 -0.10800
H 	H 	0.15140 0.08310 0.09270 0.07800
C 	C 	0.30052 0.07380 0.12799 0.04700
C 	C 	0.29906 0.10180 0.09871 -0.11500
H 	H 	0.26890 0.11000 0.08910 0.07800
C 	C 	0.34159 0.11740 0.08387 0.06700
H 	H 	0.34000 0.13740 0.06400 -0.01300
C 	C 	0.38689 0.07610 0.12438 0.05500
H 	H 	0.41760 0.06520 0.13310 -0.00800
C 	C 	0.34595 0.06120 0.14098 -0.10900
H 	H 	0.34850 0.04270 0.16090 0.07800
I 	I 	0.51607 0.05256 0.10185 -0.36400
I 	I 	0.44366 0.32758 0.06806 -0.38100
I 	I 	0.30472 0.30856 0.80583 -0.36700
I 	I 	0.16422 0.16684 0.82434 -0.37400
I 	I 	0.42551 0.27464 0.87142 -0.36500
I 	I 	0.49105 0.28313 0.96084 -0.38700
N 	N 	0.43800 0.07780 0.03528 -0.26900
N 	N 	0.40505 0.82930 0.95738 -0.14400
N 	N 	0.36676 0.82710 0.91083 -0.13500
N 	N 	0.36947 0.97290 0.93844 -0.13800
N 	N 	0.44098 0.49450 0.91973 -0.27200
N 	N 	0.28955 0.07500 0.84516 -0.27300
N 	N 	0.23691 0.92900 0.27646 -0.27200
N 	N 	0.17586 0.03570 0.17740 -0.13900
N 	N 	0.21353 0.07110 0.13190 -0.13900
N 	N 	0.26164 0.03860 0.17367 -0.14000
N 	N 	0.03725 0.09860 0.10797 -0.26700
N 	N 	0.38535 0.10540 0.09627 -0.26800
Zn	Zn	0.44925 0.14430 0.07533 1.16200
Zn	Zn	0.25453 0.15365 0.81345 1.16400
Zn	Zn	0.47232 0.36153 0.91131 1.16300
C 	C 	0.94900 0.51640 0.96817 0.06600
H 	H 	0.96670 0.54890 0.95330 -0.00800
C 	C 	0.93530 0.56740 0.99282 -0.12000
H 	H 	0.94390 0.63400 0.99470 0.08800
C 	C 	0.90939 0.52250 0.01461 0.04900
C 	C 	0.89950 0.42340 0.01176 -0.10900
H 	H 	0.88310 0.38900 0.02680 0.07600
C 	C 	0.91420 0.37660 0.98654 0.06200
H 	H 	0.90720 0.30930 0.98450 -0.00400
C 	C 	0.89342 0.57700 0.04101 0.10000
C 	C 	0.89163 0.71520 0.06740 0.09300
C 	C 	0.85764 0.57900 0.08524 0.11000
C 	C 	0.90691 0.81810 0.07146 0.05400
C 	C 	0.92610 0.87040 0.04853 -0.12100
H 	H 	0.92810 0.84270 0.02950 0.08500
C 	C 	0.94270 0.96430 0.05365 0.07100
H 	H 	0.95570 0.00050 0.03780 -0.00500
C 	C 	0.92260 0.95370 0.10250 0.06900
H 	H 	0.92150 0.98200 0.12140 -0.00800
C 	C 	0.90510 0.86010 0.09868 -0.12400
H 	H 	0.89190 0.82530 0.11480 0.09400
C 	C 	0.83351 0.52660 0.10941 0.05300
C 	C 	0.81320 0.57530 0.13297 -0.11500
H 	H 	0.81450 0.64420 0.13400 0.07600
C 	C 	0.79090 0.52220 0.15495 0.06900
H 	H 	0.77610 0.55610 0.17070 -0.01300
C 	C 	0.81030 0.37760 0.13257 0.06400
H 	H 	0.80970 0.30850 0.13260 -0.00900
C 	C 	0.83260 0.42520 0.10948 -0.10500
H 	H 	0.84700 0.38930 0.09400 0.07900
C 	C 	0.69282 0.55730 0.73486 0.06300
H 	H 	0.66540 0.57240 0.72320 -0.00900
C 	C 	0.68526 0.52210 0.76300 -0.11300
H 	H 	0.65340 0.51270 0.77030 0.07900
C 	C 	0.72542 0.50100 0.78023 0.04800
C 	C 	0.77110 0.51100 0.76817 -0.11000
H 	H 	0.79910 0.49450 0.77910 0.08000
C 	C 	0.77518 0.54550 0.73983 0.06000
H 	H 	0.80650 0.55150 0.73150 0.00000
C 	C 	0.72036 0.47280 0.81148 0.10300
C 	C 	0.67456 0.44190 0.85126 0.10300
C 	C 	0.75625 0.43970 0.85472 0.10300
C 	C 	0.62678 0.43030 0.86524 0.04700
C 	C 	0.58429 0.43140 0.84875 -0.10900
H 	H 	0.58520 0.44250 0.82820 0.07800
C 	C 	0.54070 0.41590 0.86302 0.06200
H 	H 	0.51180 0.41540 0.85170 -0.00500
C 	C 	0.57810 0.40330 0.90772 0.06600
H 	H 	0.57600 0.39500 0.92830 -0.00600
C 	C 	0.62317 0.41680 0.89538 -0.10800
H 	H 	0.65140 0.41690 0.90730 0.07800
C 	C 	0.80052 0.42620 0.87201 0.04700
C 	C 	0.79906 0.39820 0.90129 -0.11500
H 	H 	0.76890 0.39000 0.91090 0.07800
C 	C 	0.84159 0.38260 0.91613 0.06700
H 	H 	0.84000 0.36260 0.93600 -0.01300
C 	C 	0.88689 0.42390 0.87562 0.05500
H 	H 	0.91760 0.43480 0.86690 -0.00800
C 	C 	0.84595 0.43880 0.85902 -0.10900
H 	H 	0.84850 0.45730 0.83910 0.07800
I 	I 	0.01607 0.44744 0.89815 -0.36400
I 	I 	0.94366 0.17242 0.93194 -0.38200
I 	I 	0.80472 0.19144 0.19417 -0.36700
I 	I 	0.66422 0.33316 0.17566 -0.37400
I 	I 	0.92551 0.22536 0.12858 -0.36600
I 	I 	0.99105 0.21687 0.03916 -0.38700
N 	N 	0.93800 0.42220 0.96472 -0.27000
N 	N 	0.90505 0.67070 0.04262 -0.14400
N 	N 	0.86676 0.67290 0.08917 -0.13500
N 	N 	0.86947 0.52710 0.06156 -0.13700
N 	N 	0.94098 0.00550 0.08027 -0.27300
N 	N 	0.78955 0.42500 0.15484 -0.27300
N 	N 	0.73691 0.57100 0.72354 -0.27200
N 	N 	0.67586 0.46430 0.82260 -0.13900
N 	N 	0.71353 0.42890 0.86810 -0.13900
N 	N 	0.76164 0.46140 0.82633 -0.14000
N 	N 	0.53725 0.40140 0.89203 -0.26700
N 	N 	0.88535 0.39460 0.90373 -0.26800
Zn	Zn	0.94925 0.35570 0.92467 1.16200
Zn	Zn	0.75453 0.34635 0.18655 1.16400
Zn	Zn	0.97232 0.13847 0.08869 1.16300
C 	C 	0.55100 0.48360 0.46817 0.06600
H 	H 	0.53330 0.45110 0.45330 -0.00800
C 	C 	0.56470 0.43260 0.49282 -0.12000
H 	H 	0.55610 0.36600 0.49470 0.08800
C 	C 	0.59061 0.47750 0.51461 0.04900
C 	C 	0.60050 0.57660 0.51176 -0.10900
H 	H 	0.61690 0.61100 0.52680 0.07600
C 	C 	0.58580 0.62340 0.48654 0.06200
H 	H 	0.59280 0.69070 0.48450 -0.00400
C 	C 	0.60658 0.42300 0.54101 0.10000
C 	C 	0.60837 0.28480 0.56740 0.09400
C 	C 	0.64236 0.42100 0.58524 0.11000
C 	C 	0.59309 0.18190 0.57146 0.05300
C 	C 	0.57390 0.12960 0.54853 -0.12000
H 	H 	0.57190 0.15730 0.52950 0.08500
C 	C 	0.55730 0.03570 0.55365 0.06900
H 	H 	0.54430 0.99950 0.53780 -0.00400
C 	C 	0.57740 0.04630 0.60250 0.06800
H 	H 	0.57850 0.01800 0.62140 -0.00800
C 	C 	0.59490 0.13990 0.59868 -0.12400
H 	H 	0.60810 0.17470 0.61480 0.09300
C 	C 	0.66649 0.47340 0.60941 0.05300
C 	C 	0.68680 0.42470 0.63297 -0.11500
H 	H 	0.68550 0.35580 0.63400 0.07600
C 	C 	0.70910 0.47780 0.65495 0.06900
H 	H 	0.72390 0.44390 0.67070 -0.01300
C 	C 	0.68970 0.62240 0.63257 0.06400
H 	H 	0.69030 0.69150 0.63260 -0.00900
C 	C 	0.66740 0.57480 0.60948 -0.10500
H 	H 	0.65300 0.61070 0.59400 0.07900
C 	C 	0.80718 0.44270 0.23486 0.06300
H 	H 	0.83460 0.42760 0.22320 -0.00900
C 	C 	0.81474 0.47790 0.26300 -0.11300
H 	H 	0.84660 0.48730 0.27030 0.07900
C 	C 	0.77458 0.49900 0.28023 0.04800
C 	C 	0.72890 0.48900 0.26817 -0.11000
H 	H 	0.70090 0.50550 0.27910 0.08000
C 	C 	0.72482 0.45450 0.23983 0.06000
H 	H 	0.69350 0.44850 0.23150 0.00000
C 	C 	0.77964 0.52720 0.31148 0.10300
C 	C 	0.82544 0.55810 0.35126 0.10300
C 	C 	0.74375 0.56030 0.35472 0.10300
C 	C 	0.87322 0.56970 0.36524 0.04700
C 	C 	0.91571 0.56860 0.34875 -0.10900
H 	H 	0.91480 0.55750 0.32820 0.07800
C 	C 	0.95930 0.58410 0.36302 0.06200
H 	H 	0.98820 0.58460 0.35170 -0.00500
C 	C 	0.92190 0.59670 0.40772 0.06600
H 	H 	0.92400 0.60500 0.42830 -0.00600
C 	C 	0.87683 0.58320 0.39538 -0.10800
H 	H 	0.84860 0.58310 0.40730 0.07800
C 	C 	0.69948 0.57380 0.37201 0.04700
C 	C 	0.70094 0.60180 0.40129 -0.11500
H 	H 	0.73110 0.61000 0.41090 0.07800
C 	C 	0.65841 0.61740 0.41613 0.06700
H 	H 	0.66000 0.63740 0.43600 -0.01300
C 	C 	0.61311 0.57610 0.37562 0.05500
H 	H 	0.58240 0.56520 0.36690 -0.00800
C 	C 	0.65405 0.56120 0.35902 -0.10900
H 	H 	0.65150 0.54270 0.33910 0.07800
I 	I 	0.48393 0.55256 0.39815 -0.36400
I 	I 	0.55634 0.82758 0.43194 -0.38100
I 	I 	0.69528 0.80856 0.69417 -0.36700
I 	I 	0.83578 0.66684 0.67566 -0.37400
I 	I 	0.57449 0.77464 0.62858 -0.36500
I 	I 	0.50895 0.78313 0.53916 -0.38700
N 	N 	0.56200 0.57780 0.46472 -0.27000
N 	N 	0.59495 0.32930 0.54262 -0.14400
N 	N 	0.63324 0.32710 0.58917 -0.13500
N 	N 	0.63053 0.47290 0.56156 -0.13700
N 	N 	0.55902 0.99450 0.58027 -0.27200
N 	N 	0.71045 0.57500 0.65484 -0.27300
N 	N 	0.76309 0.42900 0.22354 -0.27200
N 	N 	0.82414 0.53570 0.32260 -0.13900
N 	N 	0.78647 0.57110 0.36810 -0.13900
N 	N 	0.73836 0.53860 0.32633 -0.14000
N 	N 	0.96275 0.59860 0.39203 -0.26700
N 	N 	0.61465 0.60540 0.40373 -0.26800
Zn	Zn	0.55075 0.64430 0.42467 1.16200
Zn	Zn	0.74547 0.65365 0.68655 1.16400
Zn	Zn	0.52768 0.86153 0.58869 1.16300
C 	C 	0.94900 0.98360 0.46817 0.06700
H 	H 	0.96670 0.95110 0.45330 -0.00800
C 	C 	0.93530 0.93260 0.49282 -0.12000
H 	H 	0.94390 0.86600 0.49470 0.08800
C 	C 	0.90939 0.97750 0.51461 0.05000
C 	C 	0.89950 0.07660 0.51176 -0.11000
H 	H 	0.88310 0.11100 0.52680 0.07600
C 	C 	0.91420 0.12340 0.48654 0.06200
H 	H 	0.90720 0.19070 0.48450 -0.00400
C 	C 	0.89342 0.92300 0.54101 0.10000
C 	C 	0.89163 0.78480 0.56740 0.09400
C 	C 	0.85764 0.92100 0.58524 0.11000
C 	C 	0.90691 0.68190 0.57146 0.05300
C 	C 	0.92610 0.62960 0.54853 -0.12000
H 	H 	0.92810 0.65730 0.52950 0.08500
C 	C 	0.94270 0.53570 0.55365 0.06900
H 	H 	0.95570 0.49950 0.53780 -0.00400
C 	C 	0.92260 0.54630 0.60250 0.06800
H 	H 	0.92150 0.51800 0.62140 -0.00800
C 	C 	0.90510 0.63990 0.59868 -0.12400
H 	H 	0.89190 0.67470 0.61480 0.09300
C 	C 	0.83351 0.97340 0.60941 0.05400
C 	C 	0.81320 0.92470 0.63297 -0.11500
H 	H 	0.81450 0.85580 0.63400 0.07600
C 	C 	0.79090 0.97780 0.65495 0.06900
H 	H 	0.77610 0.94390 0.67070 -0.01400
C 	C 	0.81030 0.12240 0.63257 0.06400
H 	H 	0.80970 0.19150 0.63260 -0.00900
C 	C 	0.83260 0.07480 0.60948 -0.10600
H 	H 	0.84700 0.11070 0.59400 0.07900
C 	C 	0.69282 0.94270 0.23486 0.06300
H 	H 	0.66540 0.92760 0.22320 -0.00900
C 	C 	0.68526 0.97790 0.26300 -0.11300
H 	H 	0.65340 0.98730 0.27030 0.07900
C 	C 	0.72542 0.99900 0.28023 0.04800
C 	C 	0.77110 0.98900 0.26817 -0.11000
H 	H 	0.79910 0.00550 0.27910 0.08000
C 	C 	0.77518 0.95450 0.23983 0.06000
H 	H 	0.80650 0.94850 0.23150 0.00100
C 	C 	0.72036 0.02720 0.31148 0.10300
C 	C 	0.67456 0.05810 0.35126 0.10300
C 	C 	0.75625 0.06030 0.35472 0.10300
C 	C 	0.62678 0.06970 0.36524 0.04700
C 	C 	0.58429 0.06860 0.34875 -0.10900
H 	H 	0.58520 0.05750 0.32820 0.07800
C 	C 	0.54070 0.08410 0.36302 0.06200
H 	H 	0.51180 0.08460 0.35170 -0.00500
C 	C 	0.57810 0.09670 0.40772 0.06500
H 	H 	0.57600 0.10500 0.42830 -0.00600
C 	C 	0.62317 0.08320 0.39538 -0.10800
H 	H 	0.65140 0.08310 0.40730 0.07800
C 	C 	0.80052 0.07380 0.37201 0.04700
C 	C 	0.79906 0.10180 0.40129 -0.11500
H 	H 	0.76890 0.11000 0.41090 0.07800
C 	C 	0.84159 0.11740 0.41613 0.06700
H 	H 	0.84000 0.13740 0.43600 -0.01300
C 	C 	0.88689 0.07610 0.37562 0.05500
H 	H 	0.91760 0.06520 0.36690 -0.00800
C 	C 	0.84595 0.06120 0.35902 -0.10900
H 	H 	0.84850 0.04270 0.33910 0.07800
I 	I 	0.01607 0.05256 0.39815 -0.36400
I 	I 	0.94366 0.32758 0.43194 -0.38100
I 	I 	0.80472 0.30856 0.69417 -0.36700
I 	I 	0.66422 0.16684 0.67566 -0.37400
I 	I 	0.92551 0.27464 0.62858 -0.36600
I 	I 	0.99105 0.28313 0.53916 -0.38700
N 	N 	0.93800 0.07780 0.46472 -0.27000
N 	N 	0.90505 0.82930 0.54262 -0.14400
N 	N 	0.86676 0.82710 0.58917 -0.13500
N 	N 	0.86947 0.97290 0.56156 -0.13700
N 	N 	0.94098 0.49450 0.58027 -0.27200
N 	N 	0.78955 0.07500 0.65484 -0.27300
N 	N 	0.73691 0.92900 0.22354 -0.27200
N 	N 	0.67586 0.03570 0.32260 -0.13900
N 	N 	0.71353 0.07110 0.36810 -0.13900
N 	N 	0.76164 0.03860 0.32633 -0.14000
N 	N 	0.53725 0.09860 0.39203 -0.26700
N 	N 	0.88535 0.10540 0.40373 -0.26900
Zn	Zn	0.94925 0.14430 0.42467 1.16200
Zn	Zn	0.75453 0.15365 0.68655 1.16400
Zn	Zn	0.97232 0.36153 0.58869 1.16300
C 	C 	0.55100 0.01640 0.96817 0.06600
H 	H 	0.53330 0.04890 0.95330 -0.00800
C 	C 	0.56470 0.06740 0.99282 -0.11900
H 	H 	0.55610 0.13400 0.99470 0.08800
C 	C 	0.59061 0.02250 0.01461 0.04800
C 	C 	0.60050 0.92340 0.01176 -0.10900
H 	H 	0.61690 0.88900 0.02680 0.07600
C 	C 	0.58580 0.87660 0.98654 0.06100
H 	H 	0.59280 0.80930 0.98450 -0.00400
C 	C 	0.60658 0.07700 0.04101 0.10000
C 	C 	0.60837 0.21520 0.06740 0.09400
C 	C 	0.64236 0.07900 0.08524 0.11000
C 	C 	0.59309 0.31810 0.07146 0.05300
C 	C 	0.57390 0.37040 0.04853 -0.12000
H 	H 	0.57190 0.34270 0.02950 0.08500
C 	C 	0.55730 0.46430 0.05365 0.06900
H 	H 	0.54430 0.50050 0.03780 -0.00400
C 	C 	0.57740 0.45370 0.10250 0.06800
H 	H 	0.57850 0.48200 0.12140 -0.00800
C 	C 	0.59490 0.36010 0.09868 -0.12400
H 	H 	0.60810 0.32530 0.11480 0.09300
C 	C 	0.66649 0.02660 0.10941 0.05300
C 	C 	0.68680 0.07530 0.13297 -0.11400
H 	H 	0.68550 0.14420 0.13400 0.07600
C 	C 	0.70910 0.02220 0.15495 0.06800
H 	H 	0.72390 0.05610 0.17070 -0.01300
C 	C 	0.68970 0.87760 0.13257 0.06400
H 	H 	0.69030 0.80850 0.13260 -0.00800
C 	C 	0.66740 0.92520 0.10948 -0.10400
H 	H 	0.65300 0.88930 0.09400 0.07900
C 	C 	0.80718 0.05730 0.73486 0.06300
H 	H 	0.83460 0.07240 0.72320 -0.00900
C 	C 	0.81474 0.02210 0.76300 -0.11300
H 	H 	0.84660 0.01270 0.77030 0.07900
C 	C 	0.77458 0.00100 0.78023 0.04800
C 	C 	0.72890 0.01100 0.76817 -0.11100
H 	H 	0.70090 0.99450 0.77910 0.08100
C 	C 	0.72482 0.04550 0.73983 0.06000
H 	H 	0.69350 0.05150 0.73150 0.00000
C 	C 	0.77964 0.97280 0.81148 0.10400
C 	C 	0.82544 0.94190 0.85126 0.10300
C 	C 	0.74375 0.93970 0.85472 0.10300
C 	C 	0.87322 0.93030 0.86524 0.04700
C 	C 	0.91571 0.93140 0.84875 -0.10900
H 	H 	0.91480 0.94250 0.82820 0.07800
C 	C 	0.95930 0.91590 0.86302 0.06200
H 	H 	0.98820 0.91540 0.85170 -0.00500
C 	C 	0.92190 0.90330 0.90772 0.06600
H 	H 	0.92400 0.89500 0.92830 -0.00600
C 	C 	0.87683 0.91680 0.89538 -0.10800
H 	H 	0.84860 0.91690 0.90730 0.07800
C 	C 	0.69948 0.92620 0.87201 0.04700
C 	C 	0.70094 0.89820 0.90129 -0.11500
H 	H 	0.73110 0.89000 0.91090 0.07800
C 	C 	0.65841 0.88260 0.91613 0.06700
H 	H 	0.66000 0.86260 0.93600 -0.01300
C 	C 	0.61311 0.92390 0.87562 0.05500
H 	H 	0.58240 0.93480 0.86690 -0.00800
C 	C 	0.65405 0.93880 0.85902 -0.10900
H 	H 	0.65150 0.95730 0.83910 0.07800
I 	I 	0.48393 0.94744 0.89815 -0.36400
I 	I 	0.55634 0.67242 0.93194 -0.38100
I 	I 	0.69528 0.69144 0.19417 -0.36700
I 	I 	0.83578 0.83316 0.17566 -0.37400
I 	I 	0.57449 0.72536 0.12858 -0.36500
I 	I 	0.50895 0.71687 0.03916 -0.38700
N 	N 	0.56200 0.92220 0.96472 -0.26900
N 	N 	0.59495 0.17070 0.04262 -0.14400
N 	N 	0.63324 0.17290 0.08917 -0.13500
N 	N 	0.63053 0.02710 0.06156 -0.13800
N 	N 	0.55902 0.50550 0.08027 -0.27200
N 	N 	0.71045 0.92500 0.15484 -0.27300
N 	N 	0.76309 0.07100 0.72354 -0.27200
N 	N 	0.82414 0.96430 0.82260 -0.13900
N 	N 	0.78647 0.92890 0.86810 -0.13900
N 	N 	0.73836 0.96140 0.82633 -0.14000
N 	N 	0.96275 0.90140 0.89203 -0.26700
N 	N 	0.61465 0.89460 0.90373 -0.26800
Zn	Zn	0.55075 0.85570 0.92467 1.16200
Zn	Zn	0.74547 0.84635 0.18655 1.16400
Zn	Zn	0.52768 0.63847 0.08869 1.16300
C 	C 	0.05100 0.48360 0.03183 0.06600
H 	H 	0.03330 0.45110 0.04670 -0.00800
C 	C 	0.06470 0.43260 0.00718 -0.12000
H 	H 	0.05610 0.36600 0.00530 0.08800
C 	C 	0.09061 0.47750 0.98539 0.04900
C 	C 	0.10050 0.57660 0.98824 -0.10900
H 	H 	0.11690 0.61100 0.97320 0.07600
C 	C 	0.08580 0.62340 0.01346 0.06200
H 	H 	0.09280 0.69070 0.01550 -0.00400
C 	C 	0.10658 0.42300 0.95899 0.10000
C 	C 	0.10837 0.28480 0.93260 0.09300
C 	C 	0.14236 0.42100 0.91476 0.11000
C 	C 	0.09309 0.18190 0.92854 0.05400
C 	C 	0.07390 0.12960 0.95147 -0.12100
H 	H 	0.07190 0.15730 0.97050 0.08500
C 	C 	0.05730 0.03570 0.94635 0.07100
H 	H 	0.04430 0.99950 0.96220 -0.00500
C 	C 	0.07740 0.04630 0.89750 0.06900
H 	H 	0.07850 0.01800 0.87860 -0.00800
C 	C 	0.09490 0.13990 0.90132 -0.12400
H 	H 	0.10810 0.17470 0.88520 0.09400
C 	C 	0.16649 0.47340 0.89059 0.05300
C 	C 	0.18680 0.42470 0.86703 -0.11500
H 	H 	0.18550 0.35580 0.86600 0.07600
C 	C 	0.20910 0.47780 0.84505 0.06900
H 	H 	0.22390 0.44390 0.82930 -0.01300
C 	C 	0.18970 0.62240 0.86743 0.06400
H 	H 	0.19030 0.69150 0.86740 -0.00900
C 	C 	0.16740 0.57480 0.89052 -0.10500
H 	H 	0.15300 0.61070 0.90600 0.07900
C 	C 	0.30718 0.44270 0.26514 0.06300
H 	H 	0.33460 0.42760 0.27680 -0.00900
C 	C 	0.31474 0.47790 0.23700 -0.11300
H 	H 	0.34660 0.48730 0.22970 0.07900
C 	C 	0.27458 0.49900 0.21977 0.04800
C 	C 	0.22890 0.48900 0.23183 -0.11000
H 	H 	0.20090 0.50550 0.22090 0.08000
C 	C 	0.22482 0.45450 0.26017 0.06000
H 	H 	0.19350 0.44850 0.26850 0.00000
C 	C 	0.27964 0.52720 0.18852 0.10300
C 	C 	0.32544 0.55810 0.14874 0.10300
C 	C 	0.24375 0.56030 0.14528 0.10300
C 	C 	0.37322 0.56970 0.13476 0.04700
C 	C 	0.41571 0.56860 0.15125 -0.10900
H 	H 	0.41480 0.55750 0.17180 0.07800
C 	C 	0.45930 0.58410 0.13698 0.06200
H 	H 	0.48820 0.58460 0.14830 -0.00500
C 	C 	0.42190 0.59670 0.09228 0.06600
H 	H 	0.42400 0.60500 0.07170 -0.00600
C 	C 	0.37683 0.58320 0.10462 -0.10800
H 	H 	0.34860 0.58310 0.09270 0.07800
C 	C 	0.19948 0.57380 0.12799 0.04700
C 	C 	0.20094 0.60180 0.09871 -0.11500
H 	H 	0.23110 0.61000 0.08910 0.07800
C 	C 	0.15841 0.61740 0.08387 0.06700
H 	H 	0.16000 0.63740 0.06400 -0.01300
C 	C 	0.11311 0.57610 0.12438 0.05500
H 	H 	0.08240 0.56520 0.13310 -0.00800
C 	C 	0.15405 0.56120 0.14098 -0.10900
H 	H 	0.15150 0.54270 0.16090 0.07800
I 	I 	0.98393 0.55256 0.10185 -0.36400
I 	I 	0.05634 0.82758 0.06806 -0.38200
I 	I 	0.19528 0.80856 0.80583 -0.36700
I 	I 	0.33578 0.66684 0.82434 -0.37400
I 	I 	0.07449 0.77464 0.87142 -0.36600
I 	I 	0.00895 0.78313 0.96084 -0.38700
N 	N 	0.06200 0.57780 0.03528 -0.27000
N 	N 	0.09495 0.32930 0.95738 -0.14400
N 	N 	0.13324 0.32710 0.91083 -0.13500
N 	N 	0.13053 0.47290 0.93844 -0.13700
N 	N 	0.05902 0.99450 0.91973 -0.27300
N 	N 	0.21045 0.57500 0.84516 -0.27300
N 	N 	0.26309 0.42900 0.27646 -0.27200
N 	N 	0.32414 0.53570 0.17740 -0.13900
N 	N 	0.28647 0.57110 0.13190 -0.13900
N 	N 	0.23836 0.53860 0.17367 -0.14000
N 	N 	0.46275 0.59860 0.10797 -0.26700
N 	N 	0.11465 0.60540 0.09627 -0.26800
Zn	Zn	0.05075 0.64430 0.07533 1.16200
Zn	Zn	0.24547 0.65365 0.81345 1.16400
Zn	Zn	0.02768 0.86153 0.91131 1.16300
C 	C 	0.44900 0.51640 0.53183 0.06600
H 	H 	0.46670 0.54890 0.54670 -0.00800
C 	C 	0.43530 0.56740 0.50718 -0.12000
H 	H 	0.44390 0.63400 0.50530 0.08800
C 	C 	0.40939 0.52250 0.48539 0.04900
C 	C 	0.39950 0.42340 0.48824 -0.10900
H 	H 	0.38310 0.38900 0.47320 0.07600
C 	C 	0.41420 0.37660 0.51346 0.06200
H 	H 	0.40720 0.30930 0.51550 -0.00400
C 	C 	0.39342 0.57700 0.45899 0.10000
C 	C 	0.39163 0.71520 0.43260 0.09400
C 	C 	0.35764 0.57900 0.41476 0.11000
C 	C 	0.40691 0.81810 0.42854 0.05300
C 	C 	0.42610 0.87040 0.45147 -0.12000
H 	H 	0.42810 0.84270 0.47050 0.08500
C 	C 	0.44270 0.96430 0.44635 0.06900
H 	H 	0.45570 0.00050 0.46220 -0.00400
C 	C 	0.42260 0.95370 0.39750 0.06800
H 	H 	0.42150 0.98200 0.37860 -0.00800
C 	C 	0.40510 0.86010 0.40132 -0.12400
H 	H 	0.39190 0.82530 0.38520 0.09300
C 	C 	0.33351 0.52660 0.39059 0.05300
C 	C 	0.31320 0.57530 0.36703 -0.11500
H 	H 	0.31450 0.64420 0.36600 0.07600
C 	C 	0.29090 0.52220 0.34505 0.06900
H 	H 	0.27610 0.55610 0.32930 -0.01300
C 	C 	0.31030 0.37760 0.36743 0.06400
H 	H 	0.30970 0.30850 0.36740 -0.00900
C 	C 	0.33260 0.42520 0.39052 -0.10500
H 	H 	0.34700 0.38930 0.40600 0.07900
C 	C 	0.19282 0.55730 0.76514 0.06300
H 	H 	0.16540 0.57240 0.77680 -0.00900
C 	C 	0.18526 0.52210 0.73700 -0.11300
H 	H 	0.15340 0.51270 0.72970 0.07900
C 	C 	0.22542 0.50100 0.71977 0.04800
C 	C 	0.27110 0.51100 0.73183 -0.11000
H 	H 	0.29910 0.49450 0.72090 0.08000
C 	C 	0.27518 0.54550 0.76017 0.06000
H 	H 	0.30650 0.55150 0.76850 0.00000
C 	C 	0.22036 0.47280 0.68852 0.10300
C 	C 	0.17456 0.44190 0.64874 0.10300
C 	C 	0.25625 0.43970 0.64528 0.10300
C 	C 	0.12678 0.43030 0.63476 0.04700
C 	C 	0.08429 0.43140 0.65125 -0.10900
H 	H 	0.08520 0.44250 0.67180 0.07800
C 	C 	0.04070 0.41590 0.63698 0.06200
H 	H 	0.01180 0.41540 0.64830 -0.00500
C 	C 	0.07810 0.40330 0.59228 0.06600
H 	H 	0.07600 0.39500 0.57170 -0.00600
C 	C 	0.12317 0.41680 0.60462 -0.10800
H 	H 	0.15140 0.41690 0.59270 0.07800
C 	C 	0.30052 0.42620 0.62799 0.04700
C 	C 	0.29906 0.39820 0.59871 -0.11500
H 	H 	0.26890 0.39000 0.58910 0.07800
C 	C 	0.34159 0.38260 0.58387 0.06700
H 	H 	0.34000 0.36260 0.56400 -0.01300
C 	C 	0.38689 0.42390 0.62438 0.05500
H 	H 	0.41760 0.43480 0.63310 -0.00800
C 	C 	0.34595 0.43880 0.64098 -0.10900
H 	H 	0.34850 0.45730 0.66090 0.07800
I 	I 	0.51607 0.44744 0.60185 -0.36400
I 	I 	0.44366 0.17242 0.56806 -0.38100
I 	I 	0.30472 0.19144 0.30583 -0.36700
I 	I 	0.16422 0.33316 0.32434 -0.37400
I 	I 	0.42551 0.22536 0.37142 -0.36500
I 	I 	0.49105 0.21687 0.46084 -0.38700
N 	N 	0.43800 0.42220 0.53528 -0.27000
N 	N 	0.40505 0.67070 0.45738 -0.14400
N 	N 	0.36676 0.67290 0.41083 -0.13500
N 	N 	0.36947 0.52710 0.43844 -0.13700
N 	N 	0.44098 0.00550 0.41973 -0.27200
N 	N 	0.28955 0.42500 0.34516 -0.27300
N 	N 	0.23691 0.57100 0.77646 -0.27200
N 	N 	0.17586 0.46430 0.67740 -0.13900
N 	N 	0.21353 0.42890 0.63190 -0.13900
N 	N 	0.26164 0.46140 0.67367 -0.14000
N 	N 	0.03725 0.40140 0.60797 -0.26700
N 	N 	0.38535 0.39460 0.59627 -0.26800
Zn	Zn	0.44925 0.35570 0.57533 1.16200
Zn	Zn	0.25453 0.34635 0.31345 1.16400
Zn	Zn	0.47232 0.13847 0.41131 1.16300
