data_crystal

_cell_length_a 27.26800
_cell_length_b 13.69920
_cell_length_c 45.88800
_cell_angle_alpha 90.00000
_cell_angle_beta  90.00000
_cell_angle_gamma 90.00000

_symmetry_space_group_name_	'P 1'
_symmetry_space_group_name_H-M	'P 1'

loop_
_symmetry_equiv_pos_as_xyz
  x,y,z

loop_
_atom_site_label
_atom_site_type_symbol
_atom_site_fract_x
_atom_site_fract_y
_atom_site_fract_z
_atom_site_charge
C 	C 	0.05200 0.02390 0.52785 0.07100
H 	H 	0.03140 0.05570 0.54160 -0.00400
C 	C 	0.06800 0.07480 0.50434 -0.12400
H 	H 	0.05930 0.14150 0.50210 0.08700
C 	C 	0.09720 0.02980 0.48356 0.05300
C 	C 	0.10910 0.93170 0.48752 -0.11400
H 	H 	0.12870 0.89780 0.47370 0.08000
C 	C 	0.09160 0.88570 0.51207 0.06900
H 	H 	0.09950 0.81870 0.51480 -0.00700
C 	C 	0.11390 0.08240 0.45695 0.09900
C 	C 	0.11390 0.21870 0.42961 0.09400
C 	C 	0.14810 0.08070 0.41272 0.10700
C 	C 	0.09810 0.32130 0.42458 0.05900
C 	C 	0.08860 0.38190 0.44770 -0.12200
H 	H 	0.09390 0.35980 0.46710 0.08500
C 	C 	0.07100 0.47630 0.44262 0.07900
H 	H 	0.06550 0.51840 0.45870 -0.00900
C 	C 	0.07200 0.44920 0.39360 0.07800
H 	H 	0.06680 0.47320 0.37440 -0.01100
C 	C 	0.08950 0.35570 0.39684 -0.13000
H 	H 	0.09550 0.31570 0.38030 0.09700
C 	C 	0.17080 0.02650 0.38839 0.06000
C 	C 	0.19250 0.07380 0.36545 -0.11500
H 	H 	0.19340 0.14310 0.36480 0.07500
C 	C 	0.21310 0.01940 0.34317 0.06700
H 	H 	0.22820 0.05260 0.32740 -0.01100
C 	C 	0.19080 0.87580 0.36550 0.07000
H 	H 	0.18980 0.80640 0.36560 -0.00700
C 	C 	0.17000 0.92540 0.38836 -0.11100
H 	H 	0.15530 0.89080 0.40400 0.08300
C 	C 	0.30560 0.06900 0.76170 0.06600
H 	H 	0.33350 0.08880 0.77260 -0.01000
C 	C 	0.31280 0.03300 0.73347 -0.11300
H 	H 	0.34480 0.02820 0.72540 0.08100
C 	C 	0.27210 0.00470 0.71780 0.04900
C 	C 	0.22570 0.00810 0.73093 -0.10900
H 	H 	0.19730 0.98650 0.72080 0.08000
C 	C 	0.22260 0.04360 0.75879 0.05900
H 	H 	0.19130 0.04500 0.76790 0.00300
C 	C 	0.27740 0.97430 0.68658 0.10500
C 	C 	0.32360 0.94060 0.64792 0.10300
C 	C 	0.24160 0.93870 0.64388 0.10400
C 	C 	0.37240 0.92880 0.63459 0.04900
C 	C 	0.41470 0.92960 0.65117 -0.11400
H 	H 	0.41270 0.94220 0.67150 0.08000
C 	C 	0.45940 0.91220 0.63852 0.06700
H 	H 	0.48780 0.91160 0.65050 -0.00600
C 	C 	0.42410 0.89870 0.59314 0.06200
H 	H 	0.42740 0.88960 0.57270 -0.00700
C 	C 	0.37790 0.91440 0.60483 -0.10800
H 	H 	0.35000 0.91530 0.59240 0.07700
C 	C 	0.19650 0.92360 0.62635 0.05100
C 	C 	0.19870 0.89680 0.59744 -0.11900
H 	H 	0.22960 0.88920 0.58820 0.07900
C 	C 	0.15640 0.88110 0.58200 0.06800
H 	H 	0.15870 0.86210 0.56210 -0.01500
C 	C 	0.10960 0.91920 0.62226 0.05900
H 	H 	0.07830 0.92830 0.63100 -0.00800
C 	C 	0.15050 0.93470 0.63888 -0.11400
H 	H 	0.14750 0.95290 0.65880 0.07900
I 	I 	0.98193 0.95865 0.59731 -0.36600
I 	I 	0.04743 0.67698 0.56354 -0.37800
I 	I 	0.19445 0.68838 0.30358 -0.36800
I 	I 	0.33753 0.82723 0.32224 -0.37400
I 	I 	0.07766 0.72526 0.36767 -0.36500
I 	I 	0.01664 0.72364 0.45771 -0.38500
N 	N 	0.06410 0.92990 0.53240 -0.27200
N 	N 	0.10250 0.17830 0.45522 -0.14300
N 	N 	0.13660 0.17340 0.40756 -0.13400
N 	N 	0.13770 0.03050 0.43707 -0.13600
N 	N 	0.06210 0.50830 0.41615 -0.27700
N 	N 	0.21250 0.92090 0.34303 -0.27400
N 	N 	0.26170 0.07660 0.77390 -0.27200
N 	N 	0.32220 0.96550 0.67606 -0.14100
N 	N 	0.28460 0.92770 0.63065 -0.14100
N 	N 	0.23540 0.96120 0.67184 -0.14100
N 	N 	0.46430 0.89610 0.60989 -0.26700
N 	N 	0.11150 0.89160 0.59402 -0.27200
Zn	Zn	0.04807 0.86079 0.57140 1.16300
Zn	Zn	0.24641 0.84181 0.31108 1.16400
Zn	Zn	0.03116 0.64266 0.40852 1.16400
C 	C 	0.44800 0.97610 0.02785 0.06800
H 	H 	0.46860 0.94430 0.04160 -0.00400
C 	C 	0.43200 0.92520 0.00434 -0.12400
H 	H 	0.44070 0.85850 0.00210 0.08600
C 	C 	0.40280 0.97020 0.98356 0.05000
C 	C 	0.39090 0.06830 0.98752 -0.11300
H 	H 	0.37130 0.10220 0.97370 0.07800
C 	C 	0.40840 0.11430 0.01207 0.06700
H 	H 	0.40050 0.18130 0.01480 -0.00800
C 	C 	0.38610 0.91760 0.95695 0.09800
C 	C 	0.38610 0.78130 0.92961 0.09300
C 	C 	0.35190 0.91930 0.91272 0.10700
C 	C 	0.40190 0.67870 0.92458 0.05800
C 	C 	0.41140 0.61810 0.94770 -0.12300
H 	H 	0.40610 0.64020 0.96710 0.08400
C 	C 	0.42900 0.52370 0.94262 0.07800
H 	H 	0.43450 0.48160 0.95870 -0.01000
C 	C 	0.42800 0.55080 0.89360 0.07700
H 	H 	0.43320 0.52680 0.87440 -0.01200
C 	C 	0.41050 0.64430 0.89684 -0.13100
H 	H 	0.40450 0.68430 0.88030 0.09600
C 	C 	0.32920 0.97350 0.88839 0.05800
C 	C 	0.30750 0.92620 0.86545 -0.11500
H 	H 	0.30660 0.85690 0.86480 0.07400
C 	C 	0.28690 0.98060 0.84317 0.06400
H 	H 	0.27180 0.94740 0.82740 -0.01200
C 	C 	0.30920 0.12420 0.86550 0.06900
H 	H 	0.31020 0.19360 0.86560 -0.00700
C 	C 	0.33000 0.07460 0.88836 -0.11100
H 	H 	0.34470 0.10920 0.90400 0.08100
C 	C 	0.19440 0.93100 0.26170 0.06500
H 	H 	0.16650 0.91120 0.27260 -0.01100
C 	C 	0.18720 0.96700 0.23347 -0.11400
H 	H 	0.15520 0.97180 0.22540 0.08000
C 	C 	0.22790 0.99530 0.21780 0.04800
C 	C 	0.27430 0.99190 0.23093 -0.11100
H 	H 	0.30270 0.01350 0.22080 0.08000
C 	C 	0.27740 0.95640 0.25879 0.06000
H 	H 	0.30870 0.95500 0.26790 0.00300
C 	C 	0.22260 0.02570 0.18658 0.10500
C 	C 	0.17640 0.05940 0.14792 0.10300
C 	C 	0.25840 0.06130 0.14388 0.10400
C 	C 	0.12760 0.07120 0.13459 0.04900
C 	C 	0.08530 0.07040 0.15117 -0.11400
H 	H 	0.08730 0.05780 0.17150 0.08000
C 	C 	0.04060 0.08780 0.13852 0.06700
H 	H 	0.01220 0.08840 0.15050 -0.00600
C 	C 	0.07590 0.10130 0.09314 0.06200
H 	H 	0.07260 0.11040 0.07270 -0.00700
C 	C 	0.12210 0.08560 0.10483 -0.10800
H 	H 	0.15000 0.08470 0.09240 0.07700
C 	C 	0.30350 0.07640 0.12635 0.05100
C 	C 	0.30130 0.10320 0.09744 -0.11900
H 	H 	0.27040 0.11080 0.08820 0.07900
C 	C 	0.34360 0.11890 0.08200 0.06800
H 	H 	0.34130 0.13790 0.06210 -0.01500
C 	C 	0.39040 0.08080 0.12226 0.05900
H 	H 	0.42170 0.07170 0.13100 -0.00800
C 	C 	0.34950 0.06530 0.13888 -0.11400
H 	H 	0.35250 0.04710 0.15880 0.07900
I 	I 	0.51807 0.04135 0.09731 -0.36700
I 	I 	0.45257 0.32302 0.06354 -0.37800
I 	I 	0.30555 0.31162 0.80358 -0.36800
I 	I 	0.16247 0.17277 0.82224 -0.37400
I 	I 	0.42234 0.27474 0.86767 -0.36500
I 	I 	0.48336 0.27636 0.95771 -0.38500
N 	N 	0.43590 0.07010 0.03240 -0.27100
N 	N 	0.39750 0.82170 0.95522 -0.14300
N 	N 	0.36340 0.82660 0.90756 -0.13400
N 	N 	0.36230 0.96950 0.93707 -0.13600
N 	N 	0.43790 0.49170 0.91615 -0.27700
N 	N 	0.28750 0.07910 0.84303 -0.27400
N 	N 	0.23830 0.92340 0.27390 -0.27200
N 	N 	0.17780 0.03450 0.17606 -0.14100
N 	N 	0.21540 0.07230 0.13065 -0.14100
N 	N 	0.26460 0.03880 0.17184 -0.14100
N 	N 	0.03570 0.10390 0.10989 -0.26700
N 	N 	0.38850 0.10840 0.09402 -0.27200
Zn	Zn	0.45193 0.13921 0.07140 1.16300
Zn	Zn	0.25359 0.15819 0.81108 1.16400
Zn	Zn	0.46884 0.35734 0.90852 1.16400
C 	C 	0.94800 0.52390 0.97215 0.06900
H 	H 	0.96860 0.55570 0.95840 -0.00400
C 	C 	0.93200 0.57480 0.99566 -0.12400
H 	H 	0.94070 0.64150 0.99790 0.08600
C 	C 	0.90280 0.52980 0.01644 0.05100
C 	C 	0.89090 0.43170 0.01248 -0.11300
H 	H 	0.87130 0.39780 0.02630 0.07800
C 	C 	0.90840 0.38570 0.98793 0.06800
H 	H 	0.90050 0.31870 0.98520 -0.00800
C 	C 	0.88610 0.58240 0.04305 0.09800
C 	C 	0.88610 0.71870 0.07039 0.09200
C 	C 	0.85190 0.58070 0.08728 0.10600
C 	C 	0.90190 0.82130 0.07542 0.05900
C 	C 	0.91140 0.88190 0.05230 -0.12400
H 	H 	0.90610 0.85980 0.03290 0.08400
C 	C 	0.92900 0.97630 0.05738 0.08000
H 	H 	0.93450 0.01840 0.04130 -0.01100
C 	C 	0.92800 0.94920 0.10640 0.07800
H 	H 	0.93320 0.97320 0.12560 -0.01200
C 	C 	0.91050 0.85570 0.10316 -0.13100
H 	H 	0.90450 0.81570 0.11970 0.09600
C 	C 	0.82920 0.52650 0.11161 0.05800
C 	C 	0.80750 0.57380 0.13455 -0.11500
H 	H 	0.80660 0.64310 0.13520 0.07400
C 	C 	0.78690 0.51940 0.15683 0.06500
H 	H 	0.77180 0.55260 0.17260 -0.01200
C 	C 	0.80920 0.37580 0.13450 0.06900
H 	H 	0.81020 0.30640 0.13440 -0.00700
C 	C 	0.83000 0.42540 0.11164 -0.11100
H 	H 	0.84470 0.39080 0.09600 0.08100
C 	C 	0.69440 0.56900 0.73830 0.06500
H 	H 	0.66650 0.58880 0.72740 -0.01100
C 	C 	0.68720 0.53300 0.76653 -0.11500
H 	H 	0.65520 0.52820 0.77460 0.08000
C 	C 	0.72790 0.50470 0.78220 0.04800
C 	C 	0.77430 0.50810 0.76907 -0.11000
H 	H 	0.80270 0.48650 0.77920 0.08000
C 	C 	0.77740 0.54360 0.74121 0.06000
H 	H 	0.80870 0.54500 0.73210 0.00300
C 	C 	0.72260 0.47430 0.81342 0.10500
C 	C 	0.67640 0.44060 0.85208 0.10300
C 	C 	0.75840 0.43870 0.85612 0.10400
C 	C 	0.62760 0.42880 0.86541 0.04900
C 	C 	0.58530 0.42960 0.84883 -0.11400
H 	H 	0.58730 0.44220 0.82850 0.08000
C 	C 	0.54060 0.41220 0.86148 0.06700
H 	H 	0.51220 0.41160 0.84950 -0.00600
C 	C 	0.57590 0.39870 0.90686 0.06200
H 	H 	0.57260 0.38960 0.92730 -0.00700
C 	C 	0.62210 0.41440 0.89517 -0.10800
H 	H 	0.65000 0.41530 0.90760 0.07700
C 	C 	0.80350 0.42360 0.87365 0.05100
C 	C 	0.80130 0.39680 0.90256 -0.11900
H 	H 	0.77040 0.38920 0.91180 0.07900
C 	C 	0.84360 0.38110 0.91800 0.06800
H 	H 	0.84130 0.36210 0.93790 -0.01500
C 	C 	0.89040 0.41920 0.87774 0.05900
H 	H 	0.92170 0.42830 0.86900 -0.00800
C 	C 	0.84950 0.43470 0.86112 -0.11400
H 	H 	0.85250 0.45290 0.84120 0.07900
I 	I 	0.01807 0.45865 0.90269 -0.36700
I 	I 	0.95257 0.17698 0.93646 -0.37900
I 	I 	0.80555 0.18838 0.19642 -0.36800
I 	I 	0.66247 0.32723 0.17776 -0.37400
I 	I 	0.92234 0.22526 0.13233 -0.36500
I 	I 	0.98336 0.22364 0.04229 -0.38500
N 	N 	0.93590 0.42990 0.96760 -0.27100
N 	N 	0.89750 0.67830 0.04478 -0.14300
N 	N 	0.86340 0.67340 0.09244 -0.13400
N 	N 	0.86230 0.53050 0.06293 -0.13600
N 	N 	0.93790 0.00830 0.08385 -0.27700
N 	N 	0.78750 0.42090 0.15697 -0.27400
N 	N 	0.73830 0.57660 0.72610 -0.27200
N 	N 	0.67780 0.46550 0.82394 -0.14100
N 	N 	0.71540 0.42770 0.86935 -0.14100
N 	N 	0.76460 0.46120 0.82816 -0.14100
N 	N 	0.53570 0.39610 0.89011 -0.26700
N 	N 	0.88850 0.39160 0.90598 -0.27200
Zn	Zn	0.95193 0.36079 0.92860 1.16300
Zn	Zn	0.75359 0.34181 0.18892 1.16400
Zn	Zn	0.96884 0.14266 0.09148 1.16400
C 	C 	0.55200 0.47610 0.47215 0.06900
H 	H 	0.53140 0.44430 0.45840 -0.00400
C 	C 	0.56800 0.42520 0.49566 -0.12400
H 	H 	0.55930 0.35850 0.49790 0.08600
C 	C 	0.59720 0.47020 0.51644 0.05100
C 	C 	0.60910 0.56830 0.51248 -0.11300
H 	H 	0.62870 0.60220 0.52630 0.07800
C 	C 	0.59160 0.61430 0.48793 0.06800
H 	H 	0.59950 0.68130 0.48520 -0.00800
C 	C 	0.61390 0.41760 0.54305 0.09800
C 	C 	0.61390 0.28130 0.57039 0.09300
C 	C 	0.64810 0.41930 0.58728 0.10600
C 	C 	0.59810 0.17870 0.57542 0.05800
C 	C 	0.58860 0.11810 0.55230 -0.12300
H 	H 	0.59390 0.14020 0.53290 0.08300
C 	C 	0.57100 0.02370 0.55738 0.07800
H 	H 	0.56550 0.98160 0.54130 -0.00900
C 	C 	0.57200 0.05080 0.60640 0.07700
H 	H 	0.56680 0.02680 0.62560 -0.01200
C 	C 	0.58950 0.14430 0.60316 -0.13000
H 	H 	0.59550 0.18430 0.61970 0.09600
C 	C 	0.67080 0.47350 0.61161 0.05800
C 	C 	0.69250 0.42620 0.63455 -0.11500
H 	H 	0.69340 0.35690 0.63520 0.07400
C 	C 	0.71310 0.48060 0.65683 0.06500
H 	H 	0.72820 0.44740 0.67260 -0.01200
C 	C 	0.69080 0.62420 0.63450 0.06900
H 	H 	0.68980 0.69360 0.63440 -0.00700
C 	C 	0.67000 0.57460 0.61164 -0.11100
H 	H 	0.65530 0.60920 0.59600 0.08100
C 	C 	0.80560 0.43100 0.23830 0.06500
H 	H 	0.83350 0.41120 0.22740 -0.01100
C 	C 	0.81280 0.46700 0.26653 -0.11500
H 	H 	0.84480 0.47180 0.27460 0.08000
C 	C 	0.77210 0.49530 0.28220 0.04800
C 	C 	0.72570 0.49190 0.26907 -0.11000
H 	H 	0.69730 0.51350 0.27920 0.08000
C 	C 	0.72260 0.45640 0.24121 0.06000
H 	H 	0.69130 0.45500 0.23210 0.00300
C 	C 	0.77740 0.52570 0.31342 0.10500
C 	C 	0.82360 0.55940 0.35208 0.10300
C 	C 	0.74160 0.56130 0.35612 0.10400
C 	C 	0.87240 0.57120 0.36541 0.04900
C 	C 	0.91470 0.57040 0.34883 -0.11400
H 	H 	0.91270 0.55780 0.32850 0.08000
C 	C 	0.95940 0.58780 0.36148 0.06700
H 	H 	0.98780 0.58840 0.34950 -0.00600
C 	C 	0.92410 0.60130 0.40686 0.06200
H 	H 	0.92740 0.61040 0.42730 -0.00700
C 	C 	0.87790 0.58560 0.39517 -0.10800
H 	H 	0.85000 0.58470 0.40760 0.07700
C 	C 	0.69650 0.57640 0.37365 0.05100
C 	C 	0.69870 0.60320 0.40256 -0.11900
H 	H 	0.72960 0.61080 0.41180 0.07900
C 	C 	0.65640 0.61890 0.41800 0.06800
H 	H 	0.65870 0.63790 0.43790 -0.01500
C 	C 	0.60960 0.58080 0.37774 0.05900
H 	H 	0.57830 0.57170 0.36900 -0.00800
C 	C 	0.65050 0.56530 0.36112 -0.11400
H 	H 	0.64750 0.54710 0.34120 0.07900
I 	I 	0.48193 0.54135 0.40269 -0.36700
I 	I 	0.54743 0.82302 0.43646 -0.37800
I 	I 	0.69445 0.81162 0.69642 -0.36800
I 	I 	0.83753 0.67277 0.67776 -0.37400
I 	I 	0.57766 0.77474 0.63233 -0.36500
I 	I 	0.51664 0.77636 0.54229 -0.38500
N 	N 	0.56410 0.57010 0.46760 -0.27100
N 	N 	0.60250 0.32170 0.54478 -0.14300
N 	N 	0.63660 0.32660 0.59244 -0.13400
N 	N 	0.63770 0.46950 0.56293 -0.13600
N 	N 	0.56210 0.99170 0.58385 -0.27600
N 	N 	0.71250 0.57910 0.65697 -0.27400
N 	N 	0.76170 0.42340 0.22610 -0.27200
N 	N 	0.82220 0.53450 0.32394 -0.14100
N 	N 	0.78460 0.57230 0.36935 -0.14100
N 	N 	0.73540 0.53880 0.32816 -0.14100
N 	N 	0.96430 0.60390 0.39011 -0.26700
N 	N 	0.61150 0.60840 0.40598 -0.27200
Zn	Zn	0.54807 0.63921 0.42860 1.16300
Zn	Zn	0.74641 0.65819 0.68892 1.16400
Zn	Zn	0.53116 0.85734 0.59148 1.16400
C 	C 	0.94800 0.97610 0.47215 0.07000
H 	H 	0.96860 0.94430 0.45840 -0.00500
C 	C 	0.93200 0.92520 0.49566 -0.12500
H 	H 	0.94070 0.85850 0.49790 0.08600
C 	C 	0.90280 0.97020 0.51644 0.05200
C 	C 	0.89090 0.06830 0.51248 -0.11500
H 	H 	0.87130 0.10220 0.52630 0.07900
C 	C 	0.90840 0.11430 0.48793 0.06800
H 	H 	0.90050 0.18130 0.48520 -0.00800
C 	C 	0.88610 0.91760 0.54305 0.09800
C 	C 	0.88610 0.78130 0.57039 0.09300
C 	C 	0.85190 0.91930 0.58728 0.10600
C 	C 	0.90190 0.67870 0.57542 0.05800
C 	C 	0.91140 0.61810 0.55230 -0.12300
H 	H 	0.90610 0.64020 0.53290 0.08400
C 	C 	0.92900 0.52370 0.55738 0.07800
H 	H 	0.93450 0.48160 0.54130 -0.01000
C 	C 	0.92800 0.55080 0.60640 0.07700
H 	H 	0.93320 0.52680 0.62560 -0.01200
C 	C 	0.91050 0.64430 0.60316 -0.13100
H 	H 	0.90450 0.68430 0.61970 0.09600
C 	C 	0.82920 0.97350 0.61161 0.05900
C 	C 	0.80750 0.92620 0.63455 -0.11600
H 	H 	0.80660 0.85690 0.63520 0.07400
C 	C 	0.78690 0.98060 0.65683 0.06600
H 	H 	0.77180 0.94740 0.67260 -0.01200
C 	C 	0.80920 0.12420 0.63450 0.06900
H 	H 	0.81020 0.19360 0.63440 -0.00800
C 	C 	0.83000 0.07460 0.61164 -0.11200
H 	H 	0.84470 0.10920 0.59600 0.08200
C 	C 	0.69440 0.93100 0.23830 0.06500
H 	H 	0.66650 0.91120 0.22740 -0.01100
C 	C 	0.68720 0.96700 0.26653 -0.11400
H 	H 	0.65520 0.97180 0.27460 0.08000
C 	C 	0.72790 0.99530 0.28220 0.04800
C 	C 	0.77430 0.99190 0.26907 -0.11000
H 	H 	0.80270 0.01350 0.27920 0.08000
C 	C 	0.77740 0.95640 0.24121 0.05900
H 	H 	0.80870 0.95500 0.23210 0.00300
C 	C 	0.72260 0.02570 0.31342 0.10500
C 	C 	0.67640 0.05940 0.35208 0.10300
C 	C 	0.75840 0.06130 0.35612 0.10400
C 	C 	0.62760 0.07120 0.36541 0.04900
C 	C 	0.58530 0.07040 0.34883 -0.11400
H 	H 	0.58730 0.05780 0.32850 0.08000
C 	C 	0.54060 0.08780 0.36148 0.06700
H 	H 	0.51220 0.08840 0.34950 -0.00600
C 	C 	0.57590 0.10130 0.40686 0.06200
H 	H 	0.57260 0.11040 0.42730 -0.00700
C 	C 	0.62210 0.08560 0.39517 -0.10800
H 	H 	0.65000 0.08470 0.40760 0.07700
C 	C 	0.80350 0.07640 0.37365 0.05100
C 	C 	0.80130 0.10320 0.40256 -0.11900
H 	H 	0.77040 0.11080 0.41180 0.07900
C 	C 	0.84360 0.11890 0.41800 0.06800
H 	H 	0.84130 0.13790 0.43790 -0.01500
C 	C 	0.89040 0.08080 0.37774 0.05900
H 	H 	0.92170 0.07170 0.36900 -0.00800
C 	C 	0.84950 0.06530 0.36112 -0.11400
H 	H 	0.85250 0.04710 0.34120 0.07900
I 	I 	0.01807 0.04135 0.40269 -0.36600
I 	I 	0.95257 0.32302 0.43646 -0.37800
I 	I 	0.80555 0.31162 0.69642 -0.36800
I 	I 	0.66247 0.17277 0.67776 -0.37400
I 	I 	0.92234 0.27474 0.63233 -0.36500
I 	I 	0.98336 0.27636 0.54229 -0.38500
N 	N 	0.93590 0.07010 0.46760 -0.27200
N 	N 	0.89750 0.82170 0.54478 -0.14300
N 	N 	0.86340 0.82660 0.59244 -0.13400
N 	N 	0.86230 0.96950 0.56293 -0.13600
N 	N 	0.93790 0.49170 0.58385 -0.27700
N 	N 	0.78750 0.07910 0.65697 -0.27400
N 	N 	0.73830 0.92340 0.22610 -0.27200
N 	N 	0.67780 0.03450 0.32394 -0.14100
N 	N 	0.71540 0.07230 0.36935 -0.14100
N 	N 	0.76460 0.03880 0.32816 -0.14100
N 	N 	0.53570 0.10390 0.39011 -0.26700
N 	N 	0.88850 0.10840 0.40598 -0.27200
Zn	Zn	0.95193 0.13921 0.42860 1.16300
Zn	Zn	0.75359 0.15819 0.68892 1.16400
Zn	Zn	0.96884 0.35734 0.59148 1.16400
C 	C 	0.55200 0.02390 0.97215 0.06800
H 	H 	0.53140 0.05570 0.95840 -0.00400
C 	C 	0.56800 0.07480 0.99566 -0.12400
H 	H 	0.55930 0.14150 0.99790 0.08600
C 	C 	0.59720 0.02980 0.01644 0.05000
C 	C 	0.60910 0.93170 0.01248 -0.11300
H 	H 	0.62870 0.89780 0.02630 0.07800
C 	C 	0.59160 0.88570 0.98793 0.06700
H 	H 	0.59950 0.81870 0.98520 -0.00800
C 	C 	0.61390 0.08240 0.04305 0.09800
C 	C 	0.61390 0.21870 0.07039 0.09300
C 	C 	0.64810 0.08070 0.08728 0.10700
C 	C 	0.59810 0.32130 0.07542 0.05800
C 	C 	0.58860 0.38190 0.05230 -0.12300
H 	H 	0.59390 0.35980 0.03290 0.08400
C 	C 	0.57100 0.47630 0.05738 0.07800
H 	H 	0.56550 0.51840 0.04130 -0.01000
C 	C 	0.57200 0.44920 0.10640 0.07700
H 	H 	0.56680 0.47320 0.12560 -0.01200
C 	C 	0.58950 0.35570 0.10316 -0.13100
H 	H 	0.59550 0.31570 0.11970 0.09600
C 	C 	0.67080 0.02650 0.11161 0.05800
C 	C 	0.69250 0.07380 0.13455 -0.11500
H 	H 	0.69340 0.14310 0.13520 0.07400
C 	C 	0.71310 0.01940 0.15683 0.06400
H 	H 	0.72820 0.05260 0.17260 -0.01200
C 	C 	0.69080 0.87580 0.13450 0.06900
H 	H 	0.68980 0.80640 0.13440 -0.00700
C 	C 	0.67000 0.92540 0.11164 -0.11100
H 	H 	0.65530 0.89080 0.09600 0.08100
C 	C 	0.80560 0.06900 0.73830 0.06500
H 	H 	0.83350 0.08880 0.72740 -0.01100
C 	C 	0.81280 0.03300 0.76653 -0.11400
H 	H 	0.84480 0.02820 0.77460 0.08000
C 	C 	0.77210 0.00470 0.78220 0.04800
C 	C 	0.72570 0.00810 0.76907 -0.11100
H 	H 	0.69730 0.98650 0.77920 0.08000
C 	C 	0.72260 0.04360 0.74121 0.06000
H 	H 	0.69130 0.04500 0.73210 0.00300
C 	C 	0.77740 0.97430 0.81342 0.10500
C 	C 	0.82360 0.94060 0.85208 0.10300
C 	C 	0.74160 0.93870 0.85612 0.10400
C 	C 	0.87240 0.92880 0.86541 0.04900
C 	C 	0.91470 0.92960 0.84883 -0.11400
H 	H 	0.91270 0.94220 0.82850 0.08000
C 	C 	0.95940 0.91220 0.86148 0.06700
H 	H 	0.98780 0.91160 0.84950 -0.00600
C 	C 	0.92410 0.89870 0.90686 0.06200
H 	H 	0.92740 0.88960 0.92730 -0.00700
C 	C 	0.87790 0.91440 0.89517 -0.10800
H 	H 	0.85000 0.91530 0.90760 0.07700
C 	C 	0.69650 0.92360 0.87365 0.05100
C 	C 	0.69870 0.89680 0.90256 -0.11900
H 	H 	0.72960 0.88920 0.91180 0.07900
C 	C 	0.65640 0.88110 0.91800 0.06800
H 	H 	0.65870 0.86210 0.93790 -0.01500
C 	C 	0.60960 0.91920 0.87774 0.05900
H 	H 	0.57830 0.92830 0.86900 -0.00800
C 	C 	0.65050 0.93470 0.86112 -0.11400
H 	H 	0.64750 0.95290 0.84120 0.07900
I 	I 	0.48193 0.95865 0.90269 -0.36700
I 	I 	0.54743 0.67698 0.93646 -0.37800
I 	I 	0.69445 0.68838 0.19642 -0.36800
I 	I 	0.83753 0.82723 0.17776 -0.37400
I 	I 	0.57766 0.72526 0.13233 -0.36500
I 	I 	0.51664 0.72364 0.04229 -0.38500
N 	N 	0.56410 0.92990 0.96760 -0.27100
N 	N 	0.60250 0.17830 0.04478 -0.14300
N 	N 	0.63660 0.17340 0.09244 -0.13400
N 	N 	0.63770 0.03050 0.06293 -0.13600
N 	N 	0.56210 0.50830 0.08385 -0.27700
N 	N 	0.71250 0.92090 0.15697 -0.27400
N 	N 	0.76170 0.07660 0.72610 -0.27200
N 	N 	0.82220 0.96550 0.82394 -0.14100
N 	N 	0.78460 0.92770 0.86935 -0.14100
N 	N 	0.73540 0.96120 0.82816 -0.14100
N 	N 	0.96430 0.89610 0.89011 -0.26700
N 	N 	0.61150 0.89160 0.90598 -0.27200
Zn	Zn	0.54807 0.86079 0.92860 1.16300
Zn	Zn	0.74641 0.84181 0.18892 1.16400
Zn	Zn	0.53116 0.64266 0.09148 1.16400
C 	C 	0.05200 0.47610 0.02785 0.06900
H 	H 	0.03140 0.44430 0.04160 -0.00400
C 	C 	0.06800 0.42520 0.00434 -0.12400
H 	H 	0.05930 0.35850 0.00210 0.08600
C 	C 	0.09720 0.47020 0.98356 0.05100
C 	C 	0.10910 0.56830 0.98752 -0.11300
H 	H 	0.12870 0.60220 0.97370 0.07800
C 	C 	0.09160 0.61430 0.01207 0.06800
H 	H 	0.09950 0.68130 0.01480 -0.00800
C 	C 	0.11390 0.41760 0.95695 0.09800
C 	C 	0.11390 0.28130 0.92961 0.09200
C 	C 	0.14810 0.41930 0.91272 0.10600
C 	C 	0.09810 0.17870 0.92458 0.05900
C 	C 	0.08860 0.11810 0.94770 -0.12400
H 	H 	0.09390 0.14020 0.96710 0.08400
C 	C 	0.07100 0.02370 0.94262 0.08000
H 	H 	0.06550 0.98160 0.95870 -0.01100
C 	C 	0.07200 0.05080 0.89360 0.07800
H 	H 	0.06680 0.02680 0.87440 -0.01200
C 	C 	0.08950 0.14430 0.89684 -0.13100
H 	H 	0.09550 0.18430 0.88030 0.09600
C 	C 	0.17080 0.47350 0.88839 0.05800
C 	C 	0.19250 0.42620 0.86545 -0.11500
H 	H 	0.19340 0.35690 0.86480 0.07400
C 	C 	0.21310 0.48060 0.84317 0.06500
H 	H 	0.22820 0.44740 0.82740 -0.01200
C 	C 	0.19080 0.62420 0.86550 0.06900
H 	H 	0.18980 0.69360 0.86560 -0.00700
C 	C 	0.17000 0.57460 0.88836 -0.11100
H 	H 	0.15530 0.60920 0.90400 0.08100
C 	C 	0.30560 0.43100 0.26170 0.06500
H 	H 	0.33350 0.41120 0.27260 -0.01100
C 	C 	0.31280 0.46700 0.23347 -0.11500
H 	H 	0.34480 0.47180 0.22540 0.08000
C 	C 	0.27210 0.49530 0.21780 0.04800
C 	C 	0.22570 0.49190 0.23093 -0.11000
H 	H 	0.19730 0.51350 0.22080 0.08000
C 	C 	0.22260 0.45640 0.25879 0.06000
H 	H 	0.19130 0.45500 0.26790 0.00300
C 	C 	0.27740 0.52570 0.18658 0.10500
C 	C 	0.32360 0.55940 0.14792 0.10300
C 	C 	0.24160 0.56130 0.14388 0.10400
C 	C 	0.37240 0.57120 0.13459 0.04900
C 	C 	0.41470 0.57040 0.15117 -0.11400
H 	H 	0.41270 0.55780 0.17150 0.08000
C 	C 	0.45940 0.58780 0.13852 0.06700
H 	H 	0.48780 0.58840 0.15050 -0.00600
C 	C 	0.42410 0.60130 0.09314 0.06200
H 	H 	0.42740 0.61040 0.07270 -0.00700
C 	C 	0.37790 0.58560 0.10483 -0.10800
H 	H 	0.35000 0.58470 0.09240 0.07700
C 	C 	0.19650 0.57640 0.12635 0.05100
C 	C 	0.19870 0.60320 0.09744 -0.11900
H 	H 	0.22960 0.61080 0.08820 0.07900
C 	C 	0.15640 0.61890 0.08200 0.06800
H 	H 	0.15870 0.63790 0.06210 -0.01500
C 	C 	0.10960 0.58080 0.12226 0.05900
H 	H 	0.07830 0.57170 0.13100 -0.00800
C 	C 	0.15050 0.56530 0.13888 -0.11400
H 	H 	0.14750 0.54710 0.15880 0.07900
I 	I 	0.98193 0.54135 0.09731 -0.36700
I 	I 	0.04743 0.82302 0.06354 -0.37900
I 	I 	0.19445 0.81162 0.80358 -0.36800
I 	I 	0.33753 0.67277 0.82224 -0.37400
I 	I 	0.07766 0.77474 0.86767 -0.36500
I 	I 	0.01664 0.77636 0.95771 -0.38500
N 	N 	0.06410 0.57010 0.03240 -0.27100
N 	N 	0.10250 0.32170 0.95522 -0.14300
N 	N 	0.13660 0.32660 0.90756 -0.13400
N 	N 	0.13770 0.46950 0.93707 -0.13600
N 	N 	0.06210 0.99170 0.91615 -0.27700
N 	N 	0.21250 0.57910 0.84303 -0.27400
N 	N 	0.26170 0.42340 0.27390 -0.27200
N 	N 	0.32220 0.53450 0.17606 -0.14100
N 	N 	0.28460 0.57230 0.13065 -0.14100
N 	N 	0.23540 0.53880 0.17184 -0.14100
N 	N 	0.46430 0.60390 0.10989 -0.26700
N 	N 	0.11150 0.60840 0.09402 -0.27200
Zn	Zn	0.04807 0.63921 0.07140 1.16300
Zn	Zn	0.24641 0.65819 0.81108 1.16400
Zn	Zn	0.03116 0.85734 0.90852 1.16400
C 	C 	0.44800 0.52390 0.52785 0.06900
H 	H 	0.46860 0.55570 0.54160 -0.00400
C 	C 	0.43200 0.57480 0.50434 -0.12400
H 	H 	0.44070 0.64150 0.50210 0.08600
C 	C 	0.40280 0.52980 0.48356 0.05100
C 	C 	0.39090 0.43170 0.48752 -0.11300
H 	H 	0.37130 0.39780 0.47370 0.07800
C 	C 	0.40840 0.38570 0.51207 0.06800
H 	H 	0.40050 0.31870 0.51480 -0.00800
C 	C 	0.38610 0.58240 0.45695 0.09800
C 	C 	0.38610 0.71870 0.42961 0.09300
C 	C 	0.35190 0.58070 0.41272 0.10600
C 	C 	0.40190 0.82130 0.42458 0.05800
C 	C 	0.41140 0.88190 0.44770 -0.12300
H 	H 	0.40610 0.85980 0.46710 0.08300
C 	C 	0.42900 0.97630 0.44262 0.07800
H 	H 	0.43450 0.01840 0.45870 -0.00900
C 	C 	0.42800 0.94920 0.39360 0.07700
H 	H 	0.43320 0.97320 0.37440 -0.01200
C 	C 	0.41050 0.85570 0.39684 -0.13000
H 	H 	0.40450 0.81570 0.38030 0.09600
C 	C 	0.32920 0.52650 0.38839 0.05800
C 	C 	0.30750 0.57380 0.36545 -0.11500
H 	H 	0.30660 0.64310 0.36480 0.07400
C 	C 	0.28690 0.51940 0.34317 0.06500
H 	H 	0.27180 0.55260 0.32740 -0.01200
C 	C 	0.30920 0.37580 0.36550 0.06900
H 	H 	0.31020 0.30640 0.36560 -0.00700
C 	C 	0.33000 0.42540 0.38836 -0.11100
H 	H 	0.34470 0.39080 0.40400 0.08100
C 	C 	0.19440 0.56900 0.76170 0.06500
H 	H 	0.16650 0.58880 0.77260 -0.01100
C 	C 	0.18720 0.53300 0.73347 -0.11500
H 	H 	0.15520 0.52820 0.72540 0.08000
C 	C 	0.22790 0.50470 0.71780 0.04800
C 	C 	0.27430 0.50810 0.73093 -0.11000
H 	H 	0.30270 0.48650 0.72080 0.08000
C 	C 	0.27740 0.54360 0.75879 0.06000
H 	H 	0.30870 0.54500 0.76790 0.00300
C 	C 	0.22260 0.47430 0.68658 0.10500
C 	C 	0.17640 0.44060 0.64792 0.10300
C 	C 	0.25840 0.43870 0.64388 0.10400
C 	C 	0.12760 0.42880 0.63459 0.04900
C 	C 	0.08530 0.42960 0.65117 -0.11400
H 	H 	0.08730 0.44220 0.67150 0.08000
C 	C 	0.04060 0.41220 0.63852 0.06700
H 	H 	0.01220 0.41160 0.65050 -0.00600
C 	C 	0.07590 0.39870 0.59314 0.06200
H 	H 	0.07260 0.38960 0.57270 -0.00700
C 	C 	0.12210 0.41440 0.60483 -0.10800
H 	H 	0.15000 0.41530 0.59240 0.07700
C 	C 	0.30350 0.42360 0.62635 0.05100
C 	C 	0.30130 0.39680 0.59744 -0.11900
H 	H 	0.27040 0.38920 0.58820 0.07900
C 	C 	0.34360 0.38110 0.58200 0.06800
H 	H 	0.34130 0.36210 0.56210 -0.01500
C 	C 	0.39040 0.41920 0.62226 0.05900
H 	H 	0.42170 0.42830 0.63100 -0.00800
C 	C 	0.34950 0.43470 0.63888 -0.11400
H 	H 	0.35250 0.45290 0.65880 0.07900
I 	I 	0.51807 0.45865 0.59731 -0.36700
I 	I 	0.45257 0.17698 0.56354 -0.37800
I 	I 	0.30555 0.18838 0.30358 -0.36800
I 	I 	0.16247 0.32723 0.32224 -0.37400
I 	I 	0.42234 0.22526 0.36767 -0.36500
I 	I 	0.48336 0.22364 0.45771 -0.38500
N 	N 	0.43590 0.42990 0.53240 -0.27100
N 	N 	0.39750 0.67830 0.45522 -0.14300
N 	N 	0.36340 0.67340 0.40756 -0.13400
N 	N 	0.36230 0.53050 0.43707 -0.13600
N 	N 	0.43790 0.00830 0.41615 -0.27600
N 	N 	0.28750 0.42090 0.34303 -0.27400
N 	N 	0.23830 0.57660 0.77390 -0.27200
N 	N 	0.17780 0.46550 0.67606 -0.14100
N 	N 	0.21540 0.42770 0.63065 -0.14100
N 	N 	0.26460 0.46120 0.67184 -0.14100
N 	N 	0.03570 0.39610 0.60989 -0.26700
N 	N 	0.38850 0.39160 0.59402 -0.27200
Zn	Zn	0.45193 0.36079 0.57140 1.16300
Zn	Zn	0.25359 0.34181 0.31108 1.16400
Zn	Zn	0.46884 0.14266 0.40852 1.16400
