data_crystal

_cell_length_a 27.56800
_cell_length_b 13.72850
_cell_length_c 45.83600
_cell_angle_alpha 90.00000
_cell_angle_beta  90.00000
_cell_angle_gamma 90.00000

_symmetry_space_group_name_	'P 1'
_symmetry_space_group_name_H-M	'P 1'

loop_
_symmetry_equiv_pos_as_xyz
  x,y,z

loop_
_atom_site_label
_atom_site_type_symbol
_atom_site_fract_x
_atom_site_fract_y
_atom_site_fract_z
_atom_site_charge
C 	C 	0.72250 0.54630 0.25920 0.05900
H 	H 	0.69110 0.55110 0.26760 0.00100
C 	C 	0.72640 0.51080 0.23122 -0.11200
H 	H 	0.69840 0.49160 0.22060 0.07900
C 	C 	0.77230 0.50390 0.21892 0.04800
C 	C 	0.81270 0.52700 0.23540 -0.11300
H 	H 	0.84450 0.51940 0.22770 0.07800
C 	C 	0.80530 0.56180 0.26364 0.05900
H 	H 	0.83280 0.57730 0.27520 -0.00900
C 	C 	0.77810 0.47630 0.18762 0.10200
C 	C 	0.74260 0.44090 0.14457 0.10300
C 	C 	0.82430 0.44340 0.14855 0.10000
C 	C 	0.69800 0.42670 0.12682 0.04800
C 	C 	0.65240 0.43950 0.13995 -0.11200
H 	H 	0.64980 0.45850 0.15980 0.07800
C 	C 	0.61160 0.42360 0.12320 0.05700
H 	H 	0.58070 0.43350 0.13190 -0.01000
C 	C 	0.65770 0.38420 0.08267 0.06400
H 	H 	0.65950 0.36520 0.06280 -0.01400
C 	C 	0.70000 0.39980 0.09780 -0.11700
H 	H 	0.73040 0.39220 0.08840 0.07700
C 	C 	0.87260 0.43210 0.13502 0.04800
C 	C 	0.87750 0.41710 0.10531 -0.10800
H 	H 	0.84980 0.41630 0.09300 0.07600
C 	C 	0.92360 0.40320 0.09385 0.05800
H 	H 	0.92690 0.39530 0.07330 -0.00500
C 	C 	0.95910 0.41630 0.13911 0.06600
H 	H 	0.98730 0.41650 0.15100 -0.00500
C 	C 	0.91430 0.43270 0.15208 -0.11200
H 	H 	0.91210 0.44420 0.17250 0.07900
C 	C 	0.81020 0.62660 0.36603 0.06300
H 	H 	0.81130 0.69580 0.36570 -0.00600
C 	C 	0.83180 0.57700 0.38889 -0.10800
H 	H 	0.84760 0.61220 0.40400 0.07900
C 	C 	0.83050 0.47710 0.38972 0.05600
C 	C 	0.80740 0.42820 0.36750 -0.11400
H 	H 	0.80560 0.35910 0.36750 0.07400
C 	C 	0.78660 0.48170 0.34494 0.06500
H 	H 	0.77110 0.44790 0.32940 -0.01300
C 	C 	0.85460 0.42350 0.41370 0.10700
C 	C 	0.88980 0.42240 0.45789 0.10000
C 	C 	0.88880 0.28530 0.43045 0.09400
C 	C 	0.94970 0.48080 0.52937 0.06800
H 	H 	0.96940 0.44910 0.54350 -0.00600
C 	C 	0.93520 0.42960 0.50550 -0.12300
H 	H 	0.94450 0.36340 0.50310 0.08600
C 	C 	0.90680 0.47520 0.48457 0.05000
C 	C 	0.89490 0.57270 0.48838 -0.11400
H 	H 	0.87600 0.60640 0.47430 0.07900
C 	C 	0.91130 0.61930 0.51314 0.06700
H 	H 	0.90370 0.68630 0.51570 -0.00700
C 	C 	0.93280 0.02940 0.44310 0.07400
H 	H 	0.93910 0.98770 0.45920 -0.00800
C 	C 	0.91600 0.12370 0.44830 -0.12000
H 	H 	0.91190 0.14630 0.46770 0.08300
C 	C 	0.90530 0.18400 0.42506 0.05400
C 	C 	0.91210 0.14860 0.39690 -0.12700
H 	H 	0.90540 0.18810 0.38040 0.09600
C 	C 	0.92880 0.05490 0.39370 0.07500
H 	H 	0.93240 0.03000 0.37450 -0.01100
I 	I 	0.80479 0.81030 0.30392 -0.36700
I 	I 	0.66305 0.67193 0.32371 -0.37300
I 	I 	0.07666 0.28118 0.13319 -0.36400
I 	I 	0.01521 0.27862 0.04296 -0.38500
I 	I 	0.48303 0.45231 0.10041 -0.36500
I 	I 	0.55086 0.17495 0.06648 -0.37900
N 	N 	0.76100 0.57440 0.27529 -0.27100
N 	N 	0.73680 0.46380 0.17245 -0.14000
N 	N 	0.78550 0.43010 0.13105 -0.13900
N 	N 	0.82270 0.46650 0.17689 -0.14000
N 	N 	0.61360 0.39500 0.09530 -0.26800
N 	N 	0.96410 0.40030 0.11056 -0.26700
N 	N 	0.78760 0.57940 0.34430 -0.27200
N 	N 	0.86590 0.47300 0.43781 -0.13700
N 	N 	0.90170 0.32800 0.45566 -0.14300
N 	N 	0.86490 0.32930 0.40881 -0.13300
N 	N 	0.93730 0.57430 0.53376 -0.27000
N 	N 	0.94010 0.99640 0.41620 -0.27400
Zn	Zn	0.75324 0.65755 0.31220 1.16400
Zn	Zn	0.02980 0.36176 0.09205 1.16300
Zn	Zn	0.54954 0.35904 0.07372 1.16200
C 	C 	0.77750 0.45370 0.75920 0.06000
H 	H 	0.80890 0.44890 0.76760 0.00200
C 	C 	0.77360 0.48920 0.73122 -0.11100
H 	H 	0.80160 0.50840 0.72060 0.08000
C 	C 	0.72770 0.49610 0.71892 0.04900
C 	C 	0.68730 0.47300 0.73540 -0.11200
H 	H 	0.65550 0.48060 0.72770 0.07900
C 	C 	0.69470 0.43820 0.76364 0.06000
H 	H 	0.66720 0.42270 0.77520 -0.00800
C 	C 	0.72190 0.52370 0.68762 0.10300
C 	C 	0.75740 0.55910 0.64457 0.10400
C 	C 	0.67570 0.55660 0.64855 0.10100
C 	C 	0.80200 0.57330 0.62682 0.04900
C 	C 	0.84760 0.56050 0.63995 -0.11100
H 	H 	0.85020 0.54150 0.65980 0.07900
C 	C 	0.88840 0.57640 0.62320 0.05800
H 	H 	0.91930 0.56650 0.63190 -0.00900
C 	C 	0.84230 0.61580 0.58267 0.06500
H 	H 	0.84050 0.63480 0.56280 -0.01300
C 	C 	0.80000 0.60020 0.59780 -0.11600
H 	H 	0.76960 0.60780 0.58840 0.07800
C 	C 	0.62740 0.56790 0.63502 0.04900
C 	C 	0.62250 0.58290 0.60531 -0.10700
H 	H 	0.65020 0.58370 0.59300 0.07700
C 	C 	0.57640 0.59680 0.59385 0.05900
H 	H 	0.57310 0.60470 0.57330 -0.00500
C 	C 	0.54090 0.58370 0.63911 0.06600
H 	H 	0.51270 0.58350 0.65100 -0.00600
C 	C 	0.58570 0.56730 0.65208 -0.11200
H 	H 	0.58790 0.55580 0.67250 0.07900
C 	C 	0.68980 0.37340 0.86603 0.06300
H 	H 	0.68870 0.30420 0.86570 -0.00600
C 	C 	0.66820 0.42300 0.88889 -0.10800
H 	H 	0.65240 0.38780 0.90400 0.07900
C 	C 	0.66950 0.52290 0.88972 0.05600
C 	C 	0.69260 0.57180 0.86750 -0.11400
H 	H 	0.69440 0.64090 0.86750 0.07300
C 	C 	0.71340 0.51830 0.84494 0.06500
H 	H 	0.72890 0.55210 0.82940 -0.01300
C 	C 	0.64540 0.57650 0.91370 0.10700
C 	C 	0.61020 0.57760 0.95789 0.10000
C 	C 	0.61120 0.71470 0.93045 0.09400
C 	C 	0.55030 0.51920 0.02937 0.06800
H 	H 	0.53060 0.55090 0.04350 -0.00600
C 	C 	0.56480 0.57040 0.00550 -0.12300
H 	H 	0.55550 0.63660 0.00310 0.08600
C 	C 	0.59320 0.52480 0.98457 0.05000
C 	C 	0.60510 0.42730 0.98838 -0.11400
H 	H 	0.62400 0.39360 0.97430 0.07900
C 	C 	0.58870 0.38070 0.01314 0.06700
H 	H 	0.59630 0.31370 0.01570 -0.00700
C 	C 	0.56720 0.97060 0.94310 0.07200
H 	H 	0.56090 0.01230 0.95920 -0.00700
C 	C 	0.58400 0.87630 0.94830 -0.11900
H 	H 	0.58810 0.85370 0.96770 0.08200
C 	C 	0.59470 0.81600 0.92506 0.05300
C 	C 	0.58790 0.85140 0.89690 -0.12700
H 	H 	0.59460 0.81190 0.88040 0.09600
C 	C 	0.57120 0.94510 0.89370 0.07400
H 	H 	0.56760 0.97000 0.87450 -0.01000
I 	I 	0.69521 0.18970 0.80392 -0.36700
I 	I 	0.83695 0.32807 0.82371 -0.37300
I 	I 	0.42334 0.71882 0.63319 -0.36400
I 	I 	0.48479 0.72138 0.54296 -0.38500
I 	I 	0.01697 0.54769 0.60041 -0.36500
I 	I 	0.94914 0.82505 0.56648 -0.38000
N 	N 	0.73900 0.42560 0.77529 -0.27100
N 	N 	0.76320 0.53620 0.67245 -0.14000
N 	N 	0.71450 0.56990 0.63105 -0.13900
N 	N 	0.67730 0.53350 0.67689 -0.14000
N 	N 	0.88640 0.60500 0.59530 -0.26800
N 	N 	0.53590 0.59970 0.61056 -0.26700
N 	N 	0.71240 0.42060 0.84430 -0.27200
N 	N 	0.63410 0.52700 0.93781 -0.13700
N 	N 	0.59830 0.67200 0.95566 -0.14300
N 	N 	0.63510 0.67070 0.90881 -0.13300
N 	N 	0.56270 0.42570 0.03376 -0.27000
N 	N 	0.55990 0.00360 0.91620 -0.27300
Zn	Zn	0.74676 0.34245 0.81220 1.16400
Zn	Zn	0.47020 0.63824 0.59205 1.16400
Zn	Zn	0.95046 0.64096 0.57372 1.16200
C 	C 	0.27750 0.04630 0.24080 0.06000
H 	H 	0.30890 0.05110 0.23240 0.00200
C 	C 	0.27360 0.01080 0.26878 -0.11100
H 	H 	0.30160 0.99160 0.27940 0.08000
C 	C 	0.22770 0.00390 0.28108 0.04800
C 	C 	0.18730 0.02700 0.26460 -0.11200
H 	H 	0.15550 0.01940 0.27230 0.07900
C 	C 	0.19470 0.06180 0.23636 0.06000
H 	H 	0.16720 0.07730 0.22480 -0.00800
C 	C 	0.22190 0.97630 0.31238 0.10300
C 	C 	0.25740 0.94090 0.35543 0.10400
C 	C 	0.17570 0.94340 0.35145 0.10100
C 	C 	0.30200 0.92670 0.37318 0.04900
C 	C 	0.34760 0.93950 0.36005 -0.11100
H 	H 	0.35020 0.95850 0.34020 0.07900
C 	C 	0.38840 0.92360 0.37680 0.05800
H 	H 	0.41930 0.93350 0.36810 -0.00900
C 	C 	0.34230 0.88420 0.41733 0.06500
H 	H 	0.34050 0.86520 0.43720 -0.01300
C 	C 	0.30000 0.89980 0.40220 -0.11600
H 	H 	0.26960 0.89220 0.41160 0.07800
C 	C 	0.12740 0.93210 0.36498 0.04900
C 	C 	0.12250 0.91710 0.39469 -0.10700
H 	H 	0.15020 0.91630 0.40700 0.07700
C 	C 	0.07640 0.90320 0.40615 0.05900
H 	H 	0.07310 0.89530 0.42670 -0.00400
C 	C 	0.04090 0.91630 0.36089 0.06600
H 	H 	0.01270 0.91650 0.34900 -0.00500
C 	C 	0.08570 0.93270 0.34792 -0.11200
H 	H 	0.08790 0.94420 0.32750 0.07900
C 	C 	0.18980 0.12660 0.13397 0.06400
H 	H 	0.18870 0.19580 0.13430 -0.00600
C 	C 	0.16820 0.07700 0.11111 -0.10900
H 	H 	0.15240 0.11220 0.09600 0.08000
C 	C 	0.16950 0.97710 0.11028 0.05700
C 	C 	0.19260 0.92820 0.13250 -0.11400
H 	H 	0.19440 0.85910 0.13250 0.07400
C 	C 	0.21340 0.98170 0.15506 0.06600
H 	H 	0.22890 0.94790 0.17060 -0.01300
C 	C 	0.14540 0.92350 0.08630 0.10700
C 	C 	0.11020 0.92240 0.04211 0.10000
C 	C 	0.11120 0.78530 0.06955 0.09400
C 	C 	0.05030 0.98080 0.97063 0.06900
H 	H 	0.03060 0.94910 0.95650 -0.00600
C 	C 	0.06480 0.92960 0.99450 -0.12300
H 	H 	0.05550 0.86340 0.99690 0.08600
C 	C 	0.09320 0.97520 0.01543 0.05100
C 	C 	0.10510 0.07270 0.01162 -0.11500
H 	H 	0.12400 0.10640 0.02570 0.07900
C 	C 	0.08870 0.11930 0.98686 0.06800
H 	H 	0.09630 0.18630 0.98430 -0.00800
C 	C 	0.06720 0.52940 0.05690 0.07200
H 	H 	0.06090 0.48770 0.04080 -0.00700
C 	C 	0.08400 0.62370 0.05170 -0.11900
H 	H 	0.08810 0.64630 0.03230 0.08200
C 	C 	0.09470 0.68400 0.07494 0.05300
C 	C 	0.08790 0.64860 0.10310 -0.12700
H 	H 	0.09460 0.68810 0.11960 0.09600
C 	C 	0.07120 0.55490 0.10630 0.07400
H 	H 	0.06760 0.53000 0.12550 -0.01000
I 	I 	0.19521 0.31030 0.19608 -0.36700
I 	I 	0.33695 0.17193 0.17628 -0.37300
I 	I 	0.92334 0.78118 0.36681 -0.36400
I 	I 	0.98479 0.77862 0.45704 -0.38500
I 	I 	0.51697 0.95231 0.39959 -0.36500
I 	I 	0.44914 0.67495 0.43352 -0.37900
N 	N 	0.23900 0.07440 0.22471 -0.27100
N 	N 	0.26320 0.96380 0.32755 -0.14000
N 	N 	0.21450 0.93010 0.36895 -0.13900
N 	N 	0.17730 0.96650 0.32311 -0.14000
N 	N 	0.38640 0.89500 0.40470 -0.26800
N 	N 	0.03590 0.90030 0.38944 -0.26700
N 	N 	0.21240 0.07940 0.15570 -0.27200
N 	N 	0.13410 0.97300 0.06219 -0.13700
N 	N 	0.09830 0.82800 0.04434 -0.14300
N 	N 	0.13510 0.82930 0.09119 -0.13300
N 	N 	0.06270 0.07430 0.96624 -0.27100
N 	N 	0.05990 0.49640 0.08380 -0.27300
Zn	Zn	0.24676 0.15755 0.18780 1.16400
Zn	Zn	0.97020 0.86176 0.40795 1.16300
Zn	Zn	0.45046 0.85904 0.42628 1.16200
C 	C 	0.22250 0.95370 0.74080 0.06000
H 	H 	0.19110 0.94890 0.73240 0.00200
C 	C 	0.22640 0.98920 0.76878 -0.11000
H 	H 	0.19840 0.00840 0.77940 0.08000
C 	C 	0.27230 0.99610 0.78108 0.04900
C 	C 	0.31270 0.97300 0.76460 -0.11200
H 	H 	0.34450 0.98060 0.77230 0.07900
C 	C 	0.30530 0.93820 0.73636 0.06000
H 	H 	0.33280 0.92270 0.72480 -0.00800
C 	C 	0.27810 0.02370 0.81238 0.10300
C 	C 	0.24260 0.05910 0.85543 0.10400
C 	C 	0.32430 0.05660 0.85145 0.10100
C 	C 	0.19800 0.07330 0.87318 0.04900
C 	C 	0.15240 0.06050 0.86005 -0.11100
H 	H 	0.14980 0.04150 0.84020 0.07800
C 	C 	0.11160 0.07640 0.87680 0.05800
H 	H 	0.08070 0.06650 0.86810 -0.00900
C 	C 	0.15770 0.11580 0.91733 0.06500
H 	H 	0.15950 0.13480 0.93720 -0.01300
C 	C 	0.20000 0.10020 0.90220 -0.11600
H 	H 	0.23040 0.10780 0.91160 0.07800
C 	C 	0.37260 0.06790 0.86498 0.04900
C 	C 	0.37750 0.08290 0.89469 -0.10700
H 	H 	0.34980 0.08370 0.90700 0.07700
C 	C 	0.42360 0.09680 0.90615 0.05900
H 	H 	0.42690 0.10470 0.92670 -0.00500
C 	C 	0.45910 0.08370 0.86089 0.06600
H 	H 	0.48730 0.08350 0.84900 -0.00600
C 	C 	0.41430 0.06730 0.84792 -0.11200
H 	H 	0.41210 0.05580 0.82750 0.07900
C 	C 	0.31020 0.87340 0.63397 0.06300
H 	H 	0.31130 0.80420 0.63430 -0.00600
C 	C 	0.33180 0.92300 0.61111 -0.10700
H 	H 	0.34760 0.88780 0.59600 0.07900
C 	C 	0.33050 0.02290 0.61028 0.05600
C 	C 	0.30740 0.07180 0.63250 -0.11300
H 	H 	0.30560 0.14090 0.63250 0.07300
C 	C 	0.28660 0.01830 0.65506 0.06500
H 	H 	0.27110 0.05210 0.67060 -0.01200
C 	C 	0.35460 0.07650 0.58630 0.10700
C 	C 	0.38980 0.07760 0.54211 0.10000
C 	C 	0.38880 0.21470 0.56955 0.09400
C 	C 	0.44970 0.01920 0.47063 0.06800
H 	H 	0.46940 0.05090 0.45650 -0.00600
C 	C 	0.43520 0.07040 0.49450 -0.12200
H 	H 	0.44450 0.13660 0.49690 0.08600
C 	C 	0.40680 0.02480 0.51543 0.05000
C 	C 	0.39490 0.92730 0.51162 -0.11300
H 	H 	0.37600 0.89360 0.52570 0.07800
C 	C 	0.41130 0.88070 0.48686 0.06700
H 	H 	0.40370 0.81370 0.48430 -0.00700
C 	C 	0.43280 0.47060 0.55690 0.07200
H 	H 	0.43910 0.51230 0.54080 -0.00700
C 	C 	0.41600 0.37630 0.55170 -0.11900
H 	H 	0.41190 0.35370 0.53230 0.08200
C 	C 	0.40530 0.31600 0.57494 0.05300
C 	C 	0.41210 0.35140 0.60310 -0.12700
H 	H 	0.40540 0.31190 0.61960 0.09600
C 	C 	0.42880 0.44510 0.60630 0.07400
H 	H 	0.43240 0.47000 0.62550 -0.01000
I 	I 	0.30479 0.68970 0.69608 -0.36700
I 	I 	0.16305 0.82807 0.67629 -0.37300
I 	I 	0.57666 0.21882 0.86681 -0.36400
I 	I 	0.51521 0.22138 0.95704 -0.38500
I 	I 	0.98303 0.04769 0.89959 -0.36500
I 	I 	0.05086 0.32505 0.93352 -0.38000
N 	N 	0.26100 0.92560 0.72471 -0.27000
N 	N 	0.23680 0.03620 0.82755 -0.14000
N 	N 	0.28550 0.06990 0.86895 -0.13900
N 	N 	0.32270 0.03350 0.82311 -0.14000
N 	N 	0.11360 0.10500 0.90470 -0.26800
N 	N 	0.46410 0.09970 0.88944 -0.26700
N 	N 	0.28760 0.92060 0.65570 -0.27200
N 	N 	0.36590 0.02700 0.56219 -0.13800
N 	N 	0.40170 0.17200 0.54434 -0.14300
N 	N 	0.36490 0.17070 0.59119 -0.13300
N 	N 	0.43730 0.92570 0.46624 -0.27000
N 	N 	0.44010 0.50360 0.58380 -0.27300
Zn	Zn	0.25324 0.84245 0.68780 1.16400
Zn	Zn	0.52980 0.13824 0.90795 1.16400
Zn	Zn	0.04954 0.14096 0.92628 1.16200
C 	C 	0.27750 0.45370 0.74080 0.06000
H 	H 	0.30890 0.44890 0.73240 0.00200
C 	C 	0.27360 0.48920 0.76878 -0.11100
H 	H 	0.30160 0.50840 0.77940 0.08000
C 	C 	0.22770 0.49610 0.78108 0.04900
C 	C 	0.18730 0.47300 0.76460 -0.11200
H 	H 	0.15550 0.48060 0.77230 0.07900
C 	C 	0.19470 0.43820 0.73636 0.06000
H 	H 	0.16720 0.42270 0.72480 -0.00800
C 	C 	0.22190 0.52370 0.81238 0.10300
C 	C 	0.25740 0.55910 0.85543 0.10400
C 	C 	0.17570 0.55660 0.85145 0.10100
C 	C 	0.30200 0.57330 0.87318 0.04900
C 	C 	0.34760 0.56050 0.86005 -0.11100
H 	H 	0.35020 0.54150 0.84020 0.07900
C 	C 	0.38840 0.57640 0.87680 0.05800
H 	H 	0.41930 0.56650 0.86810 -0.00900
C 	C 	0.34230 0.61580 0.91733 0.06500
H 	H 	0.34050 0.63480 0.93720 -0.01300
C 	C 	0.30000 0.60020 0.90220 -0.11600
H 	H 	0.26960 0.60780 0.91160 0.07800
C 	C 	0.12740 0.56790 0.86498 0.04900
C 	C 	0.12250 0.58290 0.89469 -0.10700
H 	H 	0.15020 0.58370 0.90700 0.07700
C 	C 	0.07640 0.59680 0.90615 0.05900
H 	H 	0.07310 0.60470 0.92670 -0.00500
C 	C 	0.04090 0.58370 0.86089 0.06600
H 	H 	0.01270 0.58350 0.84900 -0.00500
C 	C 	0.08570 0.56730 0.84792 -0.11200
H 	H 	0.08790 0.55580 0.82750 0.07900
C 	C 	0.18980 0.37340 0.63397 0.06300
H 	H 	0.18870 0.30420 0.63430 -0.00600
C 	C 	0.16820 0.42300 0.61111 -0.10800
H 	H 	0.15240 0.38780 0.59600 0.07900
C 	C 	0.16950 0.52290 0.61028 0.05600
C 	C 	0.19260 0.57180 0.63250 -0.11400
H 	H 	0.19440 0.64090 0.63250 0.07400
C 	C 	0.21340 0.51830 0.65506 0.06500
H 	H 	0.22890 0.55210 0.67060 -0.01300
C 	C 	0.14540 0.57650 0.58630 0.10700
C 	C 	0.11020 0.57760 0.54211 0.10000
C 	C 	0.11120 0.71470 0.56955 0.09400
C 	C 	0.05030 0.51920 0.47063 0.06800
H 	H 	0.03060 0.55090 0.45650 -0.00600
C 	C 	0.06480 0.57040 0.49450 -0.12300
H 	H 	0.05550 0.63660 0.49690 0.08600
C 	C 	0.09320 0.52480 0.51543 0.05000
C 	C 	0.10510 0.42730 0.51162 -0.11400
H 	H 	0.12400 0.39360 0.52570 0.07900
C 	C 	0.08870 0.38070 0.48686 0.06700
H 	H 	0.09630 0.31370 0.48430 -0.00700
C 	C 	0.06720 0.97060 0.55690 0.07400
H 	H 	0.06090 0.01230 0.54080 -0.00800
C 	C 	0.08400 0.87630 0.55170 -0.12000
H 	H 	0.08810 0.85370 0.53230 0.08300
C 	C 	0.09470 0.81600 0.57494 0.05400
C 	C 	0.08790 0.85140 0.60310 -0.12700
H 	H 	0.09460 0.81190 0.61960 0.09600
C 	C 	0.07120 0.94510 0.60630 0.07500
H 	H 	0.06760 0.97000 0.62550 -0.01100
I 	I 	0.19521 0.18970 0.69608 -0.36700
I 	I 	0.33695 0.32807 0.67629 -0.37300
I 	I 	0.92334 0.71882 0.86681 -0.36400
I 	I 	0.98479 0.72138 0.95704 -0.38500
I 	I 	0.51697 0.54769 0.89959 -0.36500
I 	I 	0.44914 0.82505 0.93352 -0.37900
N 	N 	0.23900 0.42560 0.72471 -0.27100
N 	N 	0.26320 0.53620 0.82755 -0.14000
N 	N 	0.21450 0.56990 0.86895 -0.13900
N 	N 	0.17730 0.53350 0.82311 -0.14000
N 	N 	0.38640 0.60500 0.90470 -0.26800
N 	N 	0.03590 0.59970 0.88944 -0.26700
N 	N 	0.21240 0.42060 0.65570 -0.27200
N 	N 	0.13410 0.52700 0.56219 -0.13700
N 	N 	0.09830 0.67200 0.54434 -0.14300
N 	N 	0.13510 0.67070 0.59119 -0.13300
N 	N 	0.06270 0.42570 0.46624 -0.27000
N 	N 	0.05990 0.00360 0.58380 -0.27400
Zn	Zn	0.24676 0.34245 0.68780 1.16400
Zn	Zn	0.97020 0.63824 0.90795 1.16300
Zn	Zn	0.45046 0.64096 0.92628 1.16200
C 	C 	0.22250 0.54630 0.24080 0.06000
H 	H 	0.19110 0.55110 0.23240 0.00200
C 	C 	0.22640 0.51080 0.26878 -0.11100
H 	H 	0.19840 0.49160 0.27940 0.08000
C 	C 	0.27230 0.50390 0.28108 0.04900
C 	C 	0.31270 0.52700 0.26460 -0.11200
H 	H 	0.34450 0.51940 0.27230 0.07900
C 	C 	0.30530 0.56180 0.23636 0.06000
H 	H 	0.33280 0.57730 0.22480 -0.00800
C 	C 	0.27810 0.47630 0.31238 0.10300
C 	C 	0.24260 0.44090 0.35543 0.10400
C 	C 	0.32430 0.44340 0.35145 0.10100
C 	C 	0.19800 0.42670 0.37318 0.04900
C 	C 	0.15240 0.43950 0.36005 -0.11100
H 	H 	0.14980 0.45850 0.34020 0.07900
C 	C 	0.11160 0.42360 0.37680 0.05800
H 	H 	0.08070 0.43350 0.36810 -0.00900
C 	C 	0.15770 0.38420 0.41733 0.06500
H 	H 	0.15950 0.36520 0.43720 -0.01300
C 	C 	0.20000 0.39980 0.40220 -0.11600
H 	H 	0.23040 0.39220 0.41160 0.07800
C 	C 	0.37260 0.43210 0.36498 0.04900
C 	C 	0.37750 0.41710 0.39469 -0.10700
H 	H 	0.34980 0.41630 0.40700 0.07700
C 	C 	0.42360 0.40320 0.40615 0.05900
H 	H 	0.42690 0.39530 0.42670 -0.00500
C 	C 	0.45910 0.41630 0.36089 0.06600
H 	H 	0.48730 0.41650 0.34900 -0.00600
C 	C 	0.41430 0.43270 0.34792 -0.11200
H 	H 	0.41210 0.44420 0.32750 0.07900
C 	C 	0.31020 0.62660 0.13397 0.06300
H 	H 	0.31130 0.69580 0.13430 -0.00600
C 	C 	0.33180 0.57700 0.11111 -0.10800
H 	H 	0.34760 0.61220 0.09600 0.07900
C 	C 	0.33050 0.47710 0.11028 0.05600
C 	C 	0.30740 0.42820 0.13250 -0.11400
H 	H 	0.30560 0.35910 0.13250 0.07400
C 	C 	0.28660 0.48170 0.15506 0.06500
H 	H 	0.27110 0.44790 0.17060 -0.01300
C 	C 	0.35460 0.42350 0.08630 0.10700
C 	C 	0.38980 0.42240 0.04211 0.10000
C 	C 	0.38880 0.28530 0.06955 0.09400
C 	C 	0.44970 0.48080 0.97063 0.06800
H 	H 	0.46940 0.44910 0.95650 -0.00600
C 	C 	0.43520 0.42960 0.99450 -0.12300
H 	H 	0.44450 0.36340 0.99690 0.08600
C 	C 	0.40680 0.47520 0.01543 0.05000
C 	C 	0.39490 0.57270 0.01162 -0.11400
H 	H 	0.37600 0.60640 0.02570 0.07900
C 	C 	0.41130 0.61930 0.98686 0.06700
H 	H 	0.40370 0.68630 0.98430 -0.00700
C 	C 	0.43280 0.02940 0.05690 0.07200
H 	H 	0.43910 0.98770 0.04080 -0.00700
C 	C 	0.41600 0.12370 0.05170 -0.11900
H 	H 	0.41190 0.14630 0.03230 0.08200
C 	C 	0.40530 0.18400 0.07494 0.05300
C 	C 	0.41210 0.14860 0.10310 -0.12700
H 	H 	0.40540 0.18810 0.11960 0.09600
C 	C 	0.42880 0.05490 0.10630 0.07400
H 	H 	0.43240 0.03000 0.12550 -0.01000
I 	I 	0.30479 0.81030 0.19608 -0.36700
I 	I 	0.16305 0.67193 0.17628 -0.37300
I 	I 	0.57666 0.28118 0.36681 -0.36400
I 	I 	0.51521 0.27862 0.45704 -0.38500
I 	I 	0.98303 0.45231 0.39959 -0.36500
I 	I 	0.05086 0.17495 0.43352 -0.38000
N 	N 	0.26100 0.57440 0.22471 -0.27100
N 	N 	0.23680 0.46380 0.32755 -0.14000
N 	N 	0.28550 0.43010 0.36895 -0.13900
N 	N 	0.32270 0.46650 0.32311 -0.14000
N 	N 	0.11360 0.39500 0.40470 -0.26800
N 	N 	0.46410 0.40030 0.38944 -0.26700
N 	N 	0.28760 0.57940 0.15570 -0.27200
N 	N 	0.36590 0.47300 0.06219 -0.13700
N 	N 	0.40170 0.32800 0.04434 -0.14300
N 	N 	0.36490 0.32930 0.09119 -0.13300
N 	N 	0.43730 0.57430 0.96624 -0.27000
N 	N 	0.44010 0.99640 0.08380 -0.27300
Zn	Zn	0.25324 0.65755 0.18780 1.16400
Zn	Zn	0.52980 0.36176 0.40795 1.16400
Zn	Zn	0.04954 0.35904 0.42628 1.16200
C 	C 	0.72250 0.95370 0.75920 0.06000
H 	H 	0.69110 0.94890 0.76760 0.00200
C 	C 	0.72640 0.98920 0.73122 -0.11100
H 	H 	0.69840 0.00840 0.72060 0.08000
C 	C 	0.77230 0.99610 0.71892 0.04800
C 	C 	0.81270 0.97300 0.73540 -0.11200
H 	H 	0.84450 0.98060 0.72770 0.07900
C 	C 	0.80530 0.93820 0.76364 0.06000
H 	H 	0.83280 0.92270 0.77520 -0.00800
C 	C 	0.77810 0.02370 0.68762 0.10300
C 	C 	0.74260 0.05910 0.64457 0.10400
C 	C 	0.82430 0.05660 0.64855 0.10100
C 	C 	0.69800 0.07330 0.62682 0.04900
C 	C 	0.65240 0.06050 0.63995 -0.11100
H 	H 	0.64980 0.04150 0.65980 0.07900
C 	C 	0.61160 0.07640 0.62320 0.05800
H 	H 	0.58070 0.06650 0.63190 -0.00900
C 	C 	0.65770 0.11580 0.58267 0.06500
H 	H 	0.65950 0.13480 0.56280 -0.01300
C 	C 	0.70000 0.10020 0.59780 -0.11600
H 	H 	0.73040 0.10780 0.58840 0.07800
C 	C 	0.87260 0.06790 0.63502 0.04900
C 	C 	0.87750 0.08290 0.60531 -0.10700
H 	H 	0.84980 0.08370 0.59300 0.07700
C 	C 	0.92360 0.09680 0.59385 0.05900
H 	H 	0.92690 0.10470 0.57330 -0.00400
C 	C 	0.95910 0.08370 0.63911 0.06600
H 	H 	0.98730 0.08350 0.65100 -0.00500
C 	C 	0.91430 0.06730 0.65208 -0.11200
H 	H 	0.91210 0.05580 0.67250 0.07900
C 	C 	0.81020 0.87340 0.86603 0.06400
H 	H 	0.81130 0.80420 0.86570 -0.00600
C 	C 	0.83180 0.92300 0.88889 -0.10900
H 	H 	0.84760 0.88780 0.90400 0.08000
C 	C 	0.83050 0.02290 0.88972 0.05700
C 	C 	0.80740 0.07180 0.86750 -0.11400
H 	H 	0.80560 0.14090 0.86750 0.07400
C 	C 	0.78660 0.01830 0.84494 0.06600
H 	H 	0.77110 0.05210 0.82940 -0.01300
C 	C 	0.85460 0.07650 0.91370 0.10700
C 	C 	0.88980 0.07760 0.95789 0.10000
C 	C 	0.88880 0.21470 0.93045 0.09400
C 	C 	0.94970 0.01920 0.02937 0.06900
H 	H 	0.96940 0.05090 0.04350 -0.00600
C 	C 	0.93520 0.07040 0.00550 -0.12300
H 	H 	0.94450 0.13660 0.00310 0.08600
C 	C 	0.90680 0.02480 0.98457 0.05100
C 	C 	0.89490 0.92730 0.98838 -0.11500
H 	H 	0.87600 0.89360 0.97430 0.07900
C 	C 	0.91130 0.88070 0.01314 0.06800
H 	H 	0.90370 0.81370 0.01570 -0.00800
C 	C 	0.93280 0.47060 0.94310 0.07200
H 	H 	0.93910 0.51230 0.95920 -0.00700
C 	C 	0.91600 0.37630 0.94830 -0.11900
H 	H 	0.91190 0.35370 0.96770 0.08200
C 	C 	0.90530 0.31600 0.92506 0.05300
C 	C 	0.91210 0.35140 0.89690 -0.12700
H 	H 	0.90540 0.31190 0.88040 0.09600
C 	C 	0.92880 0.44510 0.89370 0.07400
H 	H 	0.93240 0.47000 0.87450 -0.01000
I 	I 	0.80479 0.68970 0.80392 -0.36700
I 	I 	0.66305 0.82807 0.82371 -0.37300
I 	I 	0.07666 0.21882 0.63319 -0.36400
I 	I 	0.01521 0.22138 0.54296 -0.38500
I 	I 	0.48303 0.04769 0.60041 -0.36500
I 	I 	0.55086 0.32505 0.56648 -0.37900
N 	N 	0.76100 0.92560 0.77529 -0.27100
N 	N 	0.73680 0.03620 0.67245 -0.14000
N 	N 	0.78550 0.06990 0.63105 -0.13900
N 	N 	0.82270 0.03350 0.67689 -0.14000
N 	N 	0.61360 0.10500 0.59530 -0.26800
N 	N 	0.96410 0.09970 0.61056 -0.26700
N 	N 	0.78760 0.92060 0.84430 -0.27200
N 	N 	0.86590 0.02700 0.93781 -0.13700
N 	N 	0.90170 0.17200 0.95566 -0.14300
N 	N 	0.86490 0.17070 0.90881 -0.13300
N 	N 	0.93730 0.92570 0.03376 -0.27100
N 	N 	0.94010 0.50360 0.91620 -0.27300
Zn	Zn	0.75324 0.84245 0.81220 1.16400
Zn	Zn	0.02980 0.13824 0.59205 1.16300
Zn	Zn	0.54954 0.14096 0.57372 1.16200
C 	C 	0.77750 0.04630 0.25920 0.06000
H 	H 	0.80890 0.05110 0.26760 0.00200
C 	C 	0.77360 0.01080 0.23122 -0.11000
H 	H 	0.80160 0.99160 0.22060 0.08000
C 	C 	0.72770 0.00390 0.21892 0.04900
C 	C 	0.68730 0.02700 0.23540 -0.11200
H 	H 	0.65550 0.01940 0.22770 0.07900
C 	C 	0.69470 0.06180 0.26364 0.06000
H 	H 	0.66720 0.07730 0.27520 -0.00800
C 	C 	0.72190 0.97630 0.18762 0.10300
C 	C 	0.75740 0.94090 0.14457 0.10400
C 	C 	0.67570 0.94340 0.14855 0.10100
C 	C 	0.80200 0.92670 0.12682 0.04900
C 	C 	0.84760 0.93950 0.13995 -0.11100
H 	H 	0.85020 0.95850 0.15980 0.07800
C 	C 	0.88840 0.92360 0.12320 0.05800
H 	H 	0.91930 0.93350 0.13190 -0.00900
C 	C 	0.84230 0.88420 0.08267 0.06500
H 	H 	0.84050 0.86520 0.06280 -0.01300
C 	C 	0.80000 0.89980 0.09780 -0.11600
H 	H 	0.76960 0.89220 0.08840 0.07800
C 	C 	0.62740 0.93210 0.13502 0.04900
C 	C 	0.62250 0.91710 0.10531 -0.10700
H 	H 	0.65020 0.91630 0.09300 0.07700
C 	C 	0.57640 0.90320 0.09385 0.05900
H 	H 	0.57310 0.89530 0.07330 -0.00500
C 	C 	0.54090 0.91630 0.13911 0.06600
H 	H 	0.51270 0.91650 0.15100 -0.00600
C 	C 	0.58570 0.93270 0.15208 -0.11200
H 	H 	0.58790 0.94420 0.17250 0.07900
C 	C 	0.68980 0.12660 0.36603 0.06300
H 	H 	0.68870 0.19580 0.36570 -0.00600
C 	C 	0.66820 0.07700 0.38889 -0.10700
H 	H 	0.65240 0.11220 0.40400 0.07900
C 	C 	0.66950 0.97710 0.38972 0.05600
C 	C 	0.69260 0.92820 0.36750 -0.11300
H 	H 	0.69440 0.85910 0.36750 0.07300
C 	C 	0.71340 0.98170 0.34494 0.06500
H 	H 	0.72890 0.94790 0.32940 -0.01200
C 	C 	0.64540 0.92350 0.41370 0.10700
C 	C 	0.61020 0.92240 0.45789 0.10000
C 	C 	0.61120 0.78530 0.43045 0.09400
C 	C 	0.55030 0.98080 0.52937 0.06800
H 	H 	0.53060 0.94910 0.54350 -0.00600
C 	C 	0.56480 0.92960 0.50550 -0.12200
H 	H 	0.55550 0.86340 0.50310 0.08600
C 	C 	0.59320 0.97520 0.48457 0.05000
C 	C 	0.60510 0.07270 0.48838 -0.11300
H 	H 	0.62400 0.10640 0.47430 0.07800
C 	C 	0.58870 0.11930 0.51314 0.06700
H 	H 	0.59630 0.18630 0.51570 -0.00700
C 	C 	0.56720 0.52940 0.44310 0.07200
H 	H 	0.56090 0.48770 0.45920 -0.00700
C 	C 	0.58400 0.62370 0.44830 -0.11900
H 	H 	0.58810 0.64630 0.46770 0.08200
C 	C 	0.59470 0.68400 0.42506 0.05300
C 	C 	0.58790 0.64860 0.39690 -0.12700
H 	H 	0.59460 0.68810 0.38040 0.09600
C 	C 	0.57120 0.55490 0.39370 0.07400
H 	H 	0.56760 0.53000 0.37450 -0.01000
I 	I 	0.69521 0.31030 0.30392 -0.36700
I 	I 	0.83695 0.17193 0.32371 -0.37300
I 	I 	0.42334 0.78118 0.13319 -0.36400
I 	I 	0.48479 0.77862 0.04296 -0.38500
I 	I 	0.01697 0.95231 0.10041 -0.36500
I 	I 	0.94914 0.67495 0.06648 -0.38000
N 	N 	0.73900 0.07440 0.27529 -0.27000
N 	N 	0.76320 0.96380 0.17245 -0.14000
N 	N 	0.71450 0.93010 0.13105 -0.13900
N 	N 	0.67730 0.96650 0.17689 -0.14000
N 	N 	0.88640 0.89500 0.09530 -0.26800
N 	N 	0.53590 0.90030 0.11056 -0.26700
N 	N 	0.71240 0.07940 0.34430 -0.27200
N 	N 	0.63410 0.97300 0.43781 -0.13800
N 	N 	0.59830 0.82800 0.45566 -0.14300
N 	N 	0.63510 0.82930 0.40881 -0.13300
N 	N 	0.56270 0.07430 0.53376 -0.27000
N 	N 	0.55990 0.49640 0.41620 -0.27300
Zn	Zn	0.74676 0.15755 0.31220 1.16400
Zn	Zn	0.47020 0.86176 0.09205 1.16400
Zn	Zn	0.95046 0.85904 0.07372 1.16200
