data_crystal

_cell_length_a 13.70730
_cell_length_b 27.87300
_cell_length_c 45.85200
_cell_angle_alpha 90.00000
_cell_angle_beta  90.00000
_cell_angle_gamma 90.00000

_symmetry_space_group_name_	'P 1'
_symmetry_space_group_name_H-M	'P 1'

loop_
_symmetry_equiv_pos_as_xyz
  x,y,z

loop_
_atom_site_label
_atom_site_type_symbol
_atom_site_fract_x
_atom_site_fract_y
_atom_site_fract_z
_atom_site_charge
Zn	Zn	0.16187 0.94235 0.42983 1.16100
Zn	Zn	0.14267 0.75552 0.68908 1.16300
Zn	Zn	0.35074 0.97214 0.58674 1.16200
Zn	Zn	0.83813 0.55765 0.92983 1.16100
Zn	Zn	0.85733 0.74448 0.18908 1.16300
Zn	Zn	0.64926 0.52786 0.08674 1.16200
Zn	Zn	0.66187 0.05765 0.07017 1.16200
Zn	Zn	0.64267 0.24448 0.81092 1.16400
Zn	Zn	0.85074 0.02786 0.91326 1.16300
Zn	Zn	0.33813 0.44235 0.57017 1.16200
Zn	Zn	0.35733 0.25552 0.31092 1.16400
Zn	Zn	0.14926 0.47214 0.41326 1.16300
H 	H 	0.96180 0.96070 0.45500 -0.00900
H 	H 	0.86810 0.94100 0.49540 0.08800
H 	H 	0.10320 0.87330 0.52930 0.07700
H 	H 	0.19140 0.89620 0.48870 -0.00700
H 	H 	0.65740 0.93510 0.53070 0.08200
H 	H 	0.50040 0.96400 0.53830 -0.00000
H 	H 	0.50000 0.91360 0.61900 -0.00300
H 	H 	0.65630 0.88420 0.61340 0.09100
H 	H 	0.84490 0.81850 0.63750 0.08100
H 	H 	0.93210 0.78200 0.67440 -0.01500
H 	H 	0.18080 0.80990 0.63580 -0.01000
H 	H 	0.10130 0.84600 0.59680 0.08300
H 	H 	0.91920 0.66500 0.22820 -0.01100
H 	H 	0.98120 0.65370 0.27500 0.08000
H 	H 	0.03130 0.79620 0.27960 0.08100
H 	H 	0.97280 0.80320 0.23190 -0.00000
H 	H 	0.07920 0.58520 0.33000 0.08000
H 	H 	0.10760 0.51240 0.35320 -0.00600
H 	H 	0.11720 0.57530 0.42990 -0.00500
H 	H 	0.09480 0.65000 0.40870 0.08100
H 	H 	0.12520 0.76510 0.41260 0.07800
H 	H 	0.15660 0.83510 0.43820 -0.01500
H 	H 	0.08710 0.91420 0.37020 -0.00800
H 	H 	0.05990 0.84630 0.34180 0.07900
H 	H 	0.03820 0.53930 0.95500 -0.00800
H 	H 	0.13190 0.55900 0.99540 0.08800
H 	H 	0.89680 0.62670 0.02930 0.07700
H 	H 	0.80860 0.60380 0.98870 -0.00700
H 	H 	0.34260 0.56490 0.03070 0.08200
H 	H 	0.49960 0.53600 0.03830 -0.00000
H 	H 	0.50000 0.58640 0.11900 -0.00300
H 	H 	0.34370 0.61580 0.11340 0.09100
H 	H 	0.15510 0.68150 0.13750 0.08000
H 	H 	0.06790 0.71800 0.17440 -0.01500
H 	H 	0.81920 0.69010 0.13580 -0.01000
H 	H 	0.89870 0.65400 0.09680 0.08300
H 	H 	0.08080 0.83500 0.72820 -0.01100
H 	H 	0.01880 0.84630 0.77500 0.08000
H 	H 	0.96870 0.70380 0.77960 0.08100
H 	H 	0.02720 0.69680 0.73190 -0.00000
H 	H 	0.92080 0.91480 0.83000 0.08000
H 	H 	0.89240 0.98760 0.85320 -0.00600
H 	H 	0.88280 0.92470 0.92990 -0.00500
H 	H 	0.90520 0.85000 0.90870 0.08100
H 	H 	0.87480 0.73490 0.91260 0.07800
H 	H 	0.84340 0.66490 0.93820 -0.01500
H 	H 	0.91290 0.58580 0.87020 -0.00800
H 	H 	0.94010 0.65370 0.84180 0.07900
H 	H 	0.46180 0.03930 0.04500 -0.00800
H 	H 	0.36810 0.05900 0.00460 0.08800
H 	H 	0.60320 0.12670 0.97070 0.07700
H 	H 	0.69140 0.10380 0.01130 -0.00700
H 	H 	0.15740 0.06490 0.96930 0.08200
H 	H 	0.00040 0.03600 0.96170 -0.00000
H 	H 	-0.00000 0.08640 0.88100 -0.00300
H 	H 	0.15630 0.11580 0.88660 0.09100
H 	H 	0.34490 0.18150 0.86250 0.08000
H 	H 	0.43210 0.21800 0.82560 -0.01500
H 	H 	0.68080 0.19010 0.86420 -0.01000
H 	H 	0.60130 0.15400 0.90320 0.08300
H 	H 	0.41920 0.33500 0.27180 -0.01100
H 	H 	0.48120 0.34630 0.22500 0.08000
H 	H 	0.53130 0.20380 0.22040 0.08100
H 	H 	0.47280 0.19680 0.26810 -0.00000
H 	H 	0.57920 0.41480 0.17000 0.08000
H 	H 	0.60760 0.48760 0.14680 -0.00600
H 	H 	0.61720 0.42470 0.07010 -0.00500
H 	H 	0.59480 0.35000 0.09130 0.08100
H 	H 	0.62520 0.23490 0.08740 0.07800
H 	H 	0.65660 0.16490 0.06180 -0.01500
H 	H 	0.58710 0.08580 0.12980 -0.00800
H 	H 	0.55990 0.15370 0.15820 0.07900
H 	H 	0.53820 0.46070 0.54500 -0.00800
H 	H 	0.63190 0.44100 0.50460 0.08800
H 	H 	0.39680 0.37330 0.47070 0.07700
H 	H 	0.30860 0.39620 0.51130 -0.00700
H 	H 	0.84260 0.43510 0.46930 0.08200
H 	H 	0.99960 0.46400 0.46170 -0.00000
H 	H 	0.00000 0.41360 0.38100 -0.00200
H 	H 	0.84370 0.38420 0.38660 0.09000
H 	H 	0.65510 0.31850 0.36250 0.08000
H 	H 	0.56790 0.28200 0.32560 -0.01500
H 	H 	0.31920 0.30990 0.36420 -0.01000
H 	H 	0.39870 0.34600 0.40320 0.08300
H 	H 	0.58080 0.16500 0.77180 -0.01100
H 	H 	0.51880 0.15370 0.72500 0.08000
H 	H 	0.46870 0.29620 0.72040 0.08100
H 	H 	0.52720 0.30320 0.76810 -0.00000
H 	H 	0.42080 0.08520 0.67000 0.08000
H 	H 	0.39240 0.01240 0.64680 -0.00600
H 	H 	0.38280 0.07530 0.57010 -0.00500
H 	H 	0.40520 0.15000 0.59130 0.08100
H 	H 	0.37480 0.26510 0.58740 0.07800
H 	H 	0.34340 0.33510 0.56180 -0.01500
H 	H 	0.41290 0.41420 0.62980 -0.00800
H 	H 	0.44010 0.34630 0.65820 0.07900
C 	C 	0.99060 0.94260 0.47034 0.06800
C 	C 	0.93400 0.93050 0.49418 -0.12200
C 	C 	0.97420 0.90330 0.51609 0.05300
C 	C 	0.07260 0.89090 0.51413 -0.11600
C 	C 	0.12440 0.90470 0.48990 0.06800
C 	C 	0.91700 0.88960 0.54252 0.10100
C 	C 	0.77650 0.89050 0.56810 0.10100
C 	C 	0.91190 0.85760 0.58773 0.10700
C 	C 	0.67460 0.90660 0.57121 0.04500
C 	C 	0.62650 0.93050 0.54908 -0.11500
C 	C 	0.53290 0.94790 0.55374 0.06200
C 	C 	0.53280 0.91840 0.60096 0.06000
C 	C 	0.62550 0.90060 0.59771 -0.11400
C 	C 	0.96400 0.83500 0.61243 0.05900
C 	C 	0.91400 0.81650 0.63639 -0.12300
C 	C 	0.96670 0.79520 0.65834 0.07800
C 	C 	0.11160 0.81120 0.63581 0.06900
C 	C 	0.06480 0.83290 0.61248 -0.11200
C 	C 	0.94200 0.69200 0.23887 0.06600
C 	C 	0.97850 0.68500 0.26682 -0.11700
C 	C 	0.01080 0.72380 0.28259 0.05200
C 	C 	0.00860 0.76870 0.26944 -0.11300
C 	C 	0.97260 0.77260 0.24115 0.06400
C 	C 	0.04130 0.71910 0.31343 0.10000
C 	C 	0.07460 0.67340 0.35308 0.10100
C 	C 	0.07740 0.75420 0.35656 0.10300
C 	C 	0.08670 0.62570 0.36705 0.05200
C 	C 	0.08850 0.58410 0.35048 -0.11500
C 	C 	0.10430 0.54080 0.36462 0.06400
C 	C 	0.11080 0.57740 0.40936 0.06600
C 	C 	0.09710 0.62210 0.39681 -0.11300
C 	C 	0.09200 0.79800 0.37428 0.05000
C 	C 	0.11870 0.79540 0.40325 -0.11600
C 	C 	0.13580 0.83720 0.41843 0.06700
C 	C 	0.09610 0.88350 0.37864 0.06100
C 	C 	0.07940 0.84330 0.36155 -0.11300
C 	C 	0.00940 0.55740 0.97034 0.06700
C 	C 	0.06600 0.56950 0.99418 -0.12200
C 	C 	0.02580 0.59670 0.01609 0.05300
C 	C 	0.92740 0.60910 0.01413 -0.11500
C 	C 	0.87560 0.59530 0.98990 0.06700
C 	C 	0.08300 0.61040 0.04252 0.10100
C 	C 	0.22350 0.60950 0.06810 0.10100
C 	C 	0.08810 0.64240 0.08773 0.10700
C 	C 	0.32540 0.59340 0.07121 0.04500
C 	C 	0.37350 0.56950 0.04908 -0.11500
C 	C 	0.46710 0.55210 0.05374 0.06200
C 	C 	0.46720 0.58160 0.10096 0.06000
C 	C 	0.37450 0.59940 0.09771 -0.11400
C 	C 	0.03600 0.66500 0.11243 0.05800
C 	C 	0.08600 0.68350 0.13639 -0.12300
C 	C 	0.03330 0.70480 0.15834 0.07700
C 	C 	0.88840 0.68880 0.13581 0.06800
C 	C 	0.93520 0.66710 0.11248 -0.11200
C 	C 	0.05800 0.80800 0.73887 0.06600
C 	C 	0.02150 0.81500 0.76682 -0.11700
C 	C 	0.98920 0.77620 0.78259 0.05200
C 	C 	0.99140 0.73130 0.76944 -0.11200
C 	C 	0.02740 0.72740 0.74115 0.06300
C 	C 	0.95870 0.78090 0.81343 0.10000
C 	C 	0.92540 0.82660 0.85308 0.10100
C 	C 	0.92260 0.74580 0.85656 0.10300
C 	C 	0.91330 0.87430 0.86705 0.05200
C 	C 	0.91150 0.91590 0.85048 -0.11500
C 	C 	0.89570 0.95920 0.86462 0.06400
C 	C 	0.88920 0.92260 0.90936 0.06600
C 	C 	0.90290 0.87790 0.89681 -0.11300
C 	C 	0.90800 0.70200 0.87428 0.05000
C 	C 	0.88130 0.70460 0.90325 -0.11600
C 	C 	0.86420 0.66280 0.91843 0.06700
C 	C 	0.90390 0.61650 0.87864 0.06100
C 	C 	0.92060 0.65670 0.86155 -0.11300
C 	C 	0.49060 0.05740 0.02966 0.06700
C 	C 	0.43400 0.06950 0.00582 -0.12200
C 	C 	0.47420 0.09670 0.98391 0.05300
C 	C 	0.57260 0.10910 0.98587 -0.11500
C 	C 	0.62440 0.09530 0.01010 0.06700
C 	C 	0.41700 0.11040 0.95748 0.10100
C 	C 	0.27650 0.10950 0.93190 0.10100
C 	C 	0.41190 0.14240 0.91227 0.10700
C 	C 	0.17460 0.09340 0.92879 0.04600
C 	C 	0.12650 0.06950 0.95092 -0.11600
C 	C 	0.03290 0.05210 0.94626 0.06200
C 	C 	0.03280 0.08160 0.89904 0.06100
C 	C 	0.12550 0.09940 0.90229 -0.11500
C 	C 	0.46400 0.16500 0.88757 0.05800
C 	C 	0.41400 0.18350 0.86361 -0.12200
C 	C 	0.46670 0.20480 0.84166 0.07700
C 	C 	0.61160 0.18880 0.86419 0.06800
C 	C 	0.56480 0.16710 0.88752 -0.11100
C 	C 	0.44200 0.30800 0.26113 0.06600
C 	C 	0.47850 0.31500 0.23318 -0.11600
C 	C 	0.51080 0.27620 0.21741 0.05100
C 	C 	0.50860 0.23130 0.23056 -0.11300
C 	C 	0.47260 0.22740 0.25885 0.06400
C 	C 	0.54130 0.28090 0.18657 0.10000
C 	C 	0.57460 0.32660 0.14692 0.10100
C 	C 	0.57740 0.24580 0.14344 0.10300
C 	C 	0.58670 0.37430 0.13295 0.05200
C 	C 	0.58850 0.41590 0.14952 -0.11500
C 	C 	0.60430 0.45920 0.13538 0.06400
C 	C 	0.61080 0.42260 0.09064 0.06600
C 	C 	0.59710 0.37790 0.10319 -0.11300
C 	C 	0.59200 0.20200 0.12572 0.05000
C 	C 	0.61870 0.20460 0.09675 -0.11600
C 	C 	0.63580 0.16280 0.08157 0.06700
C 	C 	0.59610 0.11650 0.12136 0.06100
C 	C 	0.57940 0.15670 0.13845 -0.11300
C 	C 	0.50940 0.44260 0.52966 0.06700
C 	C 	0.56600 0.43050 0.50582 -0.12200
C 	C 	0.52580 0.40330 0.48391 0.05300
C 	C 	0.42740 0.39090 0.48587 -0.11500
C 	C 	0.37560 0.40470 0.51010 0.06700
C 	C 	0.58300 0.38960 0.45748 0.10100
C 	C 	0.72350 0.39050 0.43190 0.10200
C 	C 	0.58810 0.35760 0.41227 0.10700
C 	C 	0.82540 0.40660 0.42879 0.04500
C 	C 	0.87350 0.43050 0.45092 -0.11500
C 	C 	0.96710 0.44790 0.44626 0.06100
C 	C 	0.96720 0.41840 0.39904 0.05900
C 	C 	0.87450 0.40060 0.40229 -0.11400
C 	C 	0.53600 0.33500 0.38757 0.05800
C 	C 	0.58600 0.31650 0.36361 -0.12200
C 	C 	0.53330 0.29520 0.34166 0.07700
C 	C 	0.38840 0.31120 0.36419 0.06800
C 	C 	0.43520 0.33290 0.38752 -0.11100
C 	C 	0.55800 0.19200 0.76113 0.06600
C 	C 	0.52150 0.18500 0.73318 -0.11600
C 	C 	0.48920 0.22380 0.71741 0.05100
C 	C 	0.49140 0.26870 0.73056 -0.11300
C 	C 	0.52740 0.27260 0.75885 0.06400
C 	C 	0.45870 0.21910 0.68657 0.10000
C 	C 	0.42540 0.17340 0.64692 0.10100
C 	C 	0.42260 0.25420 0.64344 0.10300
C 	C 	0.41330 0.12570 0.63295 0.05200
C 	C 	0.41150 0.08410 0.64952 -0.11500
C 	C 	0.39570 0.04080 0.63538 0.06400
C 	C 	0.38920 0.07740 0.59064 0.06600
C 	C 	0.40290 0.12210 0.60319 -0.11300
C 	C 	0.40800 0.29800 0.62572 0.05000
C 	C 	0.38130 0.29540 0.59675 -0.11600
C 	C 	0.36420 0.33720 0.58157 0.06700
C 	C 	0.40390 0.38350 0.62136 0.06100
C 	C 	0.42060 0.34330 0.63845 -0.11300
I 	I 	0.08052 0.01077 0.40261 -0.36500
I 	I 	0.34261 0.93239 0.44132 -0.38100
I 	I 	0.30086 0.80272 0.69638 -0.37100
I 	I 	0.15082 0.66659 0.67661 -0.37500
I 	I 	0.26650 0.92267 0.62599 -0.36700
I 	I 	0.27502 0.99004 0.53711 -0.39100
I 	I 	0.91948 0.48923 0.90261 -0.36600
I 	I 	0.65739 0.56761 0.94132 -0.38000
I 	I 	0.69914 0.69728 0.19638 -0.37100
I 	I 	0.84918 0.83341 0.17661 -0.37500
I 	I 	0.73350 0.57733 0.12599 -0.36700
I 	I 	0.72498 0.50996 0.03711 -0.39100
I 	I 	0.58052 0.98923 0.09739 -0.36600
I 	I 	0.84261 0.06761 0.05868 -0.38100
I 	I 	0.80086 0.19728 0.80362 -0.37100
I 	I 	0.65082 0.33341 0.82339 -0.37500
I 	I 	0.76650 0.07733 0.87401 -0.36700
I 	I 	0.77502 0.00996 0.96289 -0.39100
I 	I 	0.41948 0.51077 0.59739 -0.36600
I 	I 	0.15739 0.43239 0.55868 -0.38100
I 	I 	0.19914 0.30272 0.30362 -0.37100
I 	I 	0.34918 0.16659 0.32339 -0.37500
I 	I 	0.23350 0.42267 0.37401 -0.36600
I 	I 	0.22498 0.49004 0.46289 -0.39100
N 	N 	0.08490 0.92970 0.46788 -0.27100
N 	N 	0.82220 0.90170 0.54331 -0.14200
N 	N 	0.81710 0.86784 0.59081 -0.13400
N 	N 	0.96530 0.86760 0.56402 -0.13700
N 	N 	0.48660 0.94260 0.57952 -0.27000
N 	N 	0.06390 0.79220 0.65832 -0.27600
N 	N 	0.93800 0.73520 0.22666 -0.27200
N 	N 	0.05100 0.67464 0.32452 -0.13700
N 	N 	0.08810 0.71191 0.36992 -0.13900
N 	N 	0.05380 0.75994 0.32850 -0.13900
N 	N 	0.11520 0.53704 0.39363 -0.26900
N 	N 	0.12440 0.88090 0.40650 -0.26900
N 	N 	0.91510 0.57030 0.96788 -0.27100
N 	N 	0.17780 0.59830 0.04331 -0.14200
N 	N 	0.18290 0.63216 0.09081 -0.13400
N 	N 	0.03470 0.63240 0.06402 -0.13700
N 	N 	0.51340 0.55740 0.07952 -0.27000
N 	N 	0.93610 0.70780 0.15832 -0.27600
N 	N 	0.06200 0.76480 0.72666 -0.27200
N 	N 	0.94900 0.82536 0.82452 -0.13700
N 	N 	0.91190 0.78809 0.86992 -0.13900
N 	N 	0.94620 0.74006 0.82850 -0.13900
N 	N 	0.88480 0.96296 0.89363 -0.26900
N 	N 	0.87560 0.61910 0.90650 -0.26900
N 	N 	0.58490 0.07030 0.03212 -0.27100
N 	N 	0.32220 0.09830 0.95669 -0.14200
N 	N 	0.31710 0.13216 0.90919 -0.13400
N 	N 	0.46530 0.13240 0.93598 -0.13700
N 	N 	0.98660 0.05740 0.92048 -0.27000
N 	N 	0.56390 0.20780 0.84168 -0.27600
N 	N 	0.43800 0.26480 0.27334 -0.27200
N 	N 	0.55100 0.32536 0.17548 -0.13800
N 	N 	0.58810 0.28809 0.13008 -0.13900
N 	N 	0.55380 0.24006 0.17150 -0.13900
N 	N 	0.61520 0.46296 0.10637 -0.26900
N 	N 	0.62440 0.11910 0.09350 -0.26900
N 	N 	0.41510 0.42970 0.53212 -0.27100
N 	N 	0.67780 0.40170 0.45669 -0.14200
N 	N 	0.68290 0.36784 0.40919 -0.13400
N 	N 	0.53470 0.36760 0.43598 -0.13700
N 	N 	0.01340 0.44260 0.42048 -0.26900
N 	N 	0.43610 0.29220 0.34168 -0.27600
N 	N 	0.56200 0.23520 0.77334 -0.27200
N 	N 	0.44900 0.17464 0.67548 -0.13800
N 	N 	0.41190 0.21191 0.63008 -0.13900
N 	N 	0.44620 0.25994 0.67150 -0.13900
N 	N 	0.38480 0.03704 0.60637 -0.26900
N 	N 	0.37560 0.38090 0.59350 -0.26900
Zn	Zn	0.83813 0.05765 0.57017 1.16200
Zn	Zn	0.85733 0.24448 0.31092 1.16400
Zn	Zn	0.64926 0.02786 0.41326 1.16300
Zn	Zn	0.16187 0.44235 0.07017 1.16200
Zn	Zn	0.14267 0.25552 0.81092 1.16400
Zn	Zn	0.35074 0.47214 0.91326 1.16300
Zn	Zn	0.33813 0.94235 0.92983 1.16200
Zn	Zn	0.35733 0.75552 0.18908 1.16400
Zn	Zn	0.14926 0.97214 0.08674 1.16300
Zn	Zn	0.66187 0.55765 0.42983 1.16200
Zn	Zn	0.64267 0.74448 0.68908 1.16400
Zn	Zn	0.85074 0.52786 0.58674 1.16300
H 	H 	0.03820 0.03930 0.54500 -0.00900
H 	H 	0.13190 0.05900 0.50460 0.08800
H 	H 	0.89680 0.12670 0.47070 0.07700
H 	H 	0.80860 0.10380 0.51130 -0.00700
H 	H 	0.34260 0.06490 0.46930 0.08200
H 	H 	0.49960 0.03600 0.46170 -0.00000
H 	H 	0.50000 0.08640 0.38100 -0.00300
H 	H 	0.34370 0.11580 0.38660 0.09100
H 	H 	0.15510 0.18150 0.36250 0.08100
H 	H 	0.06790 0.21800 0.32560 -0.01500
H 	H 	0.81920 0.19010 0.36420 -0.01000
H 	H 	0.89870 0.15400 0.40320 0.08300
H 	H 	0.08080 0.33500 0.77180 -0.01100
H 	H 	0.01880 0.34630 0.72500 0.08000
H 	H 	0.96870 0.20380 0.72040 0.08100
H 	H 	0.02720 0.19680 0.76810 -0.00000
H 	H 	0.92080 0.41480 0.67000 0.08000
H 	H 	0.89240 0.48760 0.64680 -0.00600
H 	H 	0.88280 0.42470 0.57010 -0.00500
H 	H 	0.90520 0.35000 0.59130 0.08100
H 	H 	0.87480 0.23490 0.58740 0.07800
H 	H 	0.84340 0.16490 0.56180 -0.01500
H 	H 	0.91290 0.08580 0.62980 -0.00800
H 	H 	0.94010 0.15370 0.65820 0.07900
H 	H 	0.96180 0.46070 0.04500 -0.00800
H 	H 	0.86810 0.44100 0.00460 0.08800
H 	H 	0.10320 0.37330 0.97070 0.07700
H 	H 	0.19140 0.39620 0.01130 -0.00700
H 	H 	0.65740 0.43510 0.96930 0.08200
H 	H 	0.50040 0.46400 0.96170 -0.00000
H 	H 	0.50000 0.41360 0.88100 -0.00300
H 	H 	0.65630 0.38420 0.88660 0.09100
H 	H 	0.84490 0.31850 0.86250 0.08000
H 	H 	0.93210 0.28200 0.82560 -0.01500
H 	H 	0.18080 0.30990 0.86420 -0.01000
H 	H 	0.10130 0.34600 0.90320 0.08300
H 	H 	0.91920 0.16500 0.27180 -0.01200
H 	H 	0.98120 0.15370 0.22500 0.08000
H 	H 	0.03130 0.29620 0.22040 0.08100
H 	H 	0.97280 0.30320 0.26810 -0.00000
H 	H 	0.07920 0.08520 0.17000 0.08000
H 	H 	0.10760 0.01240 0.14680 -0.00600
H 	H 	0.11720 0.07530 0.07010 -0.00500
H 	H 	0.09480 0.15000 0.09130 0.08100
H 	H 	0.12520 0.26510 0.08740 0.07800
H 	H 	0.15660 0.33510 0.06180 -0.01500
H 	H 	0.08710 0.41420 0.12980 -0.00800
H 	H 	0.05990 0.34630 0.15820 0.07900
H 	H 	0.53820 0.96070 0.95500 -0.00800
H 	H 	0.63190 0.94100 0.99540 0.08800
H 	H 	0.39680 0.87330 0.02930 0.07700
H 	H 	0.30860 0.89620 0.98870 -0.00700
H 	H 	0.84260 0.93510 0.03070 0.08200
H 	H 	0.99960 0.96400 0.03830 -0.00000
H 	H 	0.00000 0.91360 0.11900 -0.00300
H 	H 	0.84370 0.88420 0.11340 0.09100
H 	H 	0.65510 0.81850 0.13750 0.08000
H 	H 	0.56790 0.78200 0.17440 -0.01500
H 	H 	0.31920 0.80990 0.13580 -0.01000
H 	H 	0.39870 0.84600 0.09680 0.08300
H 	H 	0.58080 0.66500 0.72820 -0.01100
H 	H 	0.51880 0.65370 0.77500 0.08000
H 	H 	0.46870 0.79620 0.77960 0.08100
H 	H 	0.52720 0.80320 0.73190 -0.00000
H 	H 	0.42080 0.58520 0.83000 0.08000
H 	H 	0.39240 0.51240 0.85320 -0.00600
H 	H 	0.38280 0.57530 0.92990 -0.00500
H 	H 	0.40520 0.65000 0.90870 0.08100
H 	H 	0.37480 0.76510 0.91260 0.07800
H 	H 	0.34340 0.83510 0.93820 -0.01500
H 	H 	0.41290 0.91420 0.87020 -0.00800
H 	H 	0.44010 0.84630 0.84180 0.07900
H 	H 	0.46180 0.53930 0.45500 -0.00800
H 	H 	0.36810 0.55900 0.49540 0.08800
H 	H 	0.60320 0.62670 0.52930 0.07700
H 	H 	0.69140 0.60380 0.48870 -0.00700
H 	H 	0.15740 0.56490 0.53070 0.08200
H 	H 	0.00040 0.53600 0.53830 -0.00000
H 	H 	0.00000 0.58640 0.61900 -0.00300
H 	H 	0.15630 0.61580 0.61340 0.09000
H 	H 	0.34490 0.68150 0.63750 0.08000
H 	H 	0.43210 0.71800 0.67440 -0.01500
H 	H 	0.68080 0.69010 0.63580 -0.01000
H 	H 	0.60130 0.65400 0.59680 0.08300
H 	H 	0.41920 0.83500 0.22820 -0.01100
H 	H 	0.48120 0.84630 0.27500 0.08000
H 	H 	0.53130 0.70380 0.27960 0.08100
H 	H 	0.47280 0.69680 0.23190 -0.00000
H 	H 	0.57920 0.91480 0.33000 0.08000
H 	H 	0.60760 0.98760 0.35320 -0.00600
H 	H 	0.61720 0.92470 0.42990 -0.00500
H 	H 	0.59480 0.85000 0.40870 0.08100
H 	H 	0.62520 0.73490 0.41260 0.07800
H 	H 	0.65660 0.66490 0.43820 -0.01500
H 	H 	0.58710 0.58580 0.37020 -0.00800
H 	H 	0.55990 0.65370 0.34180 0.07900
C 	C 	0.00940 0.05740 0.52966 0.06800
C 	C 	0.06600 0.06950 0.50582 -0.12200
C 	C 	0.02580 0.09670 0.48391 0.05400
C 	C 	0.92740 0.10910 0.48587 -0.11600
C 	C 	0.87560 0.09530 0.51010 0.06800
C 	C 	0.08300 0.11040 0.45748 0.10100
C 	C 	0.22350 0.10950 0.43190 0.10100
C 	C 	0.08810 0.14240 0.41227 0.10700
C 	C 	0.32540 0.09340 0.42879 0.04500
C 	C 	0.37350 0.06950 0.45092 -0.11500
C 	C 	0.46710 0.05210 0.44626 0.06200
C 	C 	0.46720 0.08160 0.39904 0.06000
C 	C 	0.37450 0.09940 0.40229 -0.11400
C 	C 	0.03600 0.16500 0.38757 0.06000
C 	C 	0.08600 0.18350 0.36361 -0.12300
C 	C 	0.03330 0.20480 0.34166 0.07800
C 	C 	0.88840 0.18880 0.36419 0.06900
C 	C 	0.93520 0.16710 0.38752 -0.11300
C 	C 	0.05800 0.30800 0.76113 0.06600
C 	C 	0.02150 0.31500 0.73318 -0.11700
C 	C 	0.98920 0.27620 0.71741 0.05100
C 	C 	0.99140 0.23130 0.73056 -0.11300
C 	C 	0.02740 0.22740 0.75885 0.06400
C 	C 	0.95870 0.28090 0.68657 0.10000
C 	C 	0.92540 0.32660 0.64692 0.10100
C 	C 	0.92260 0.24580 0.64344 0.10300
C 	C 	0.91330 0.37430 0.63295 0.05200
C 	C 	0.91150 0.41590 0.64952 -0.11500
C 	C 	0.89570 0.45920 0.63538 0.06400
C 	C 	0.88920 0.42260 0.59064 0.06600
C 	C 	0.90290 0.37790 0.60319 -0.11300
C 	C 	0.90800 0.20200 0.62572 0.05000
C 	C 	0.88130 0.20460 0.59675 -0.11600
C 	C 	0.86420 0.16280 0.58157 0.06700
C 	C 	0.90390 0.11650 0.62136 0.06100
C 	C 	0.92060 0.15670 0.63845 -0.11300
C 	C 	0.99060 0.44260 0.02966 0.06700
C 	C 	0.93400 0.43050 0.00582 -0.12100
C 	C 	0.97420 0.40330 0.98391 0.05200
C 	C 	0.07260 0.39090 0.98587 -0.11400
C 	C 	0.12440 0.40470 0.01010 0.06700
C 	C 	0.91700 0.38960 0.95748 0.10100
C 	C 	0.77650 0.39050 0.93190 0.10100
C 	C 	0.91190 0.35760 0.91227 0.10700
C 	C 	0.67460 0.40660 0.92879 0.04500
C 	C 	0.62650 0.43050 0.95092 -0.11500
C 	C 	0.53290 0.44790 0.94626 0.06200
C 	C 	0.53280 0.41840 0.89904 0.06000
C 	C 	0.62550 0.40060 0.90229 -0.11400
C 	C 	0.96400 0.33500 0.88757 0.05800
C 	C 	0.91400 0.31650 0.86361 -0.12200
C 	C 	0.96670 0.29520 0.84166 0.07700
C 	C 	0.11160 0.31120 0.86419 0.06800
C 	C 	0.06480 0.33290 0.88752 -0.11100
C 	C 	0.94200 0.19200 0.26113 0.06600
C 	C 	0.97850 0.18500 0.23318 -0.11800
C 	C 	0.01080 0.22380 0.21741 0.05200
C 	C 	0.00860 0.26870 0.23056 -0.11200
C 	C 	0.97260 0.27260 0.25885 0.06300
C 	C 	0.04130 0.21910 0.18657 0.10000
C 	C 	0.07460 0.17340 0.14692 0.10100
C 	C 	0.07740 0.25420 0.14344 0.10300
C 	C 	0.08670 0.12570 0.13295 0.05200
C 	C 	0.08850 0.08410 0.14952 -0.11500
C 	C 	0.10430 0.04080 0.13538 0.06400
C 	C 	0.11080 0.07740 0.09064 0.06600
C 	C 	0.09710 0.12210 0.10319 -0.11300
C 	C 	0.09200 0.29800 0.12572 0.05000
C 	C 	0.11870 0.29540 0.09675 -0.11600
C 	C 	0.13580 0.33720 0.08157 0.06700
C 	C 	0.09610 0.38350 0.12136 0.06100
C 	C 	0.07940 0.34330 0.13845 -0.11300
C 	C 	0.50940 0.94260 0.97034 0.06700
C 	C 	0.56600 0.93050 0.99418 -0.12200
C 	C 	0.52580 0.90330 0.01609 0.05300
C 	C 	0.42740 0.89090 0.01413 -0.11500
C 	C 	0.37560 0.90470 0.98990 0.06700
C 	C 	0.58300 0.88960 0.04252 0.10100
C 	C 	0.72350 0.89050 0.06810 0.10100
C 	C 	0.58810 0.85760 0.08773 0.10700
C 	C 	0.82540 0.90660 0.07121 0.04500
C 	C 	0.87350 0.93050 0.04908 -0.11600
C 	C 	0.96710 0.94790 0.05374 0.06200
C 	C 	0.96720 0.91840 0.10096 0.06100
C 	C 	0.87450 0.90060 0.09771 -0.11500
C 	C 	0.53600 0.83500 0.11243 0.05800
C 	C 	0.58600 0.81650 0.13639 -0.12200
C 	C 	0.53330 0.79520 0.15834 0.07700
C 	C 	0.38840 0.81120 0.13581 0.06800
C 	C 	0.43520 0.83290 0.11248 -0.11100
C 	C 	0.55800 0.69200 0.73887 0.06600
C 	C 	0.52150 0.68500 0.76682 -0.11600
C 	C 	0.48920 0.72380 0.78259 0.05100
C 	C 	0.49140 0.76870 0.76944 -0.11300
C 	C 	0.52740 0.77260 0.74115 0.06400
C 	C 	0.45870 0.71910 0.81343 0.10000
C 	C 	0.42540 0.67340 0.85308 0.10100
C 	C 	0.42260 0.75420 0.85656 0.10300
C 	C 	0.41330 0.62570 0.86705 0.05200
C 	C 	0.41150 0.58410 0.85048 -0.11500
C 	C 	0.39570 0.54080 0.86462 0.06400
C 	C 	0.38920 0.57740 0.90936 0.06600
C 	C 	0.40290 0.62210 0.89681 -0.11300
C 	C 	0.40800 0.79800 0.87428 0.05000
C 	C 	0.38130 0.79540 0.90325 -0.11600
C 	C 	0.36420 0.83720 0.91843 0.06700
C 	C 	0.40390 0.88350 0.87864 0.06100
C 	C 	0.42060 0.84330 0.86155 -0.11300
C 	C 	0.49060 0.55740 0.47034 0.06700
C 	C 	0.43400 0.56950 0.49418 -0.12200
C 	C 	0.47420 0.59670 0.51609 0.05300
C 	C 	0.57260 0.60910 0.51413 -0.11500
C 	C 	0.62440 0.59530 0.48990 0.06700
C 	C 	0.41700 0.61040 0.54252 0.10100
C 	C 	0.27650 0.60950 0.56810 0.10100
C 	C 	0.41190 0.64240 0.58773 0.10700
C 	C 	0.17460 0.59340 0.57121 0.04500
C 	C 	0.12650 0.56950 0.54908 -0.11500
C 	C 	0.03290 0.55210 0.55374 0.06100
C 	C 	0.03280 0.58160 0.60096 0.06000
C 	C 	0.12550 0.59940 0.59771 -0.11400
C 	C 	0.46400 0.66500 0.61243 0.05800
C 	C 	0.41400 0.68350 0.63639 -0.12200
C 	C 	0.46670 0.70480 0.65834 0.07700
C 	C 	0.61160 0.68880 0.63581 0.06800
C 	C 	0.56480 0.66710 0.61248 -0.11100
C 	C 	0.44200 0.80800 0.23887 0.06600
C 	C 	0.47850 0.81500 0.26682 -0.11600
C 	C 	0.51080 0.77620 0.28259 0.05100
C 	C 	0.50860 0.73130 0.26944 -0.11300
C 	C 	0.47260 0.72740 0.24115 0.06400
C 	C 	0.54130 0.78090 0.31343 0.10000
C 	C 	0.57460 0.82660 0.35308 0.10100
C 	C 	0.57740 0.74580 0.35656 0.10300
C 	C 	0.58670 0.87430 0.36705 0.05200
C 	C 	0.58850 0.91590 0.35048 -0.11500
C 	C 	0.60430 0.95920 0.36462 0.06400
C 	C 	0.61080 0.92260 0.40936 0.06600
C 	C 	0.59710 0.87790 0.39681 -0.11300
C 	C 	0.59200 0.70200 0.37428 0.05000
C 	C 	0.61870 0.70460 0.40325 -0.11600
C 	C 	0.63580 0.66280 0.41843 0.06700
C 	C 	0.59610 0.61650 0.37864 0.06100
C 	C 	0.57940 0.65670 0.36155 -0.11300
I 	I 	0.91948 0.98923 0.59739 -0.36600
I 	I 	0.65739 0.06761 0.55868 -0.38100
I 	I 	0.69914 0.19728 0.30362 -0.37100
I 	I 	0.84918 0.33341 0.32339 -0.37500
I 	I 	0.73350 0.07733 0.37401 -0.36700
I 	I 	0.72498 0.00996 0.46289 -0.39100
I 	I 	0.08052 0.51077 0.09739 -0.36600
I 	I 	0.34261 0.43239 0.05868 -0.38000
I 	I 	0.30086 0.30272 0.80362 -0.37100
I 	I 	0.15082 0.16659 0.82339 -0.37500
I 	I 	0.26650 0.42267 0.87401 -0.36700
I 	I 	0.27502 0.49004 0.96289 -0.39100
I 	I 	0.41948 0.01077 0.90261 -0.36600
I 	I 	0.15739 0.93239 0.94132 -0.38100
I 	I 	0.19914 0.80272 0.19638 -0.37100
I 	I 	0.34918 0.66659 0.17661 -0.37500
I 	I 	0.23350 0.92267 0.12599 -0.36700
I 	I 	0.22498 0.99004 0.03711 -0.39100
I 	I 	0.58052 0.48923 0.40261 -0.36600
I 	I 	0.84261 0.56761 0.44132 -0.38100
I 	I 	0.80086 0.69728 0.69638 -0.37100
I 	I 	0.65082 0.83341 0.67661 -0.37500
I 	I 	0.76650 0.57733 0.62599 -0.36600
I 	I 	0.77502 0.50996 0.53711 -0.39100
N 	N 	0.91510 0.07030 0.53212 -0.27100
N 	N 	0.17780 0.09830 0.45669 -0.14200
N 	N 	0.18290 0.13216 0.40919 -0.13400
N 	N 	0.03470 0.13240 0.43598 -0.13700
N 	N 	0.51340 0.05740 0.42048 -0.27000
N 	N 	0.93610 0.20780 0.34168 -0.27700
N 	N 	0.06200 0.26480 0.77334 -0.27200
N 	N 	0.94900 0.32536 0.67548 -0.13700
N 	N 	0.91190 0.28809 0.63008 -0.13900
N 	N 	0.94620 0.24006 0.67150 -0.13900
N 	N 	0.88480 0.46296 0.60637 -0.26900
N 	N 	0.87560 0.11910 0.59350 -0.26900
N 	N 	0.08490 0.42970 0.03212 -0.27100
N 	N 	0.82220 0.40170 0.95669 -0.14200
N 	N 	0.81710 0.36784 0.90919 -0.13400
N 	N 	0.96530 0.36760 0.93598 -0.13700
N 	N 	0.48660 0.44260 0.92048 -0.27000
N 	N 	0.06390 0.29220 0.84168 -0.27600
N 	N 	0.93800 0.23520 0.27334 -0.27200
N 	N 	0.05100 0.17464 0.17548 -0.13700
N 	N 	0.08810 0.21191 0.13008 -0.13900
N 	N 	0.05380 0.25994 0.17150 -0.13900
N 	N 	0.11520 0.03704 0.10637 -0.26900
N 	N 	0.12440 0.38090 0.09350 -0.26900
N 	N 	0.41510 0.92970 0.96788 -0.27100
N 	N 	0.67780 0.90170 0.04331 -0.14200
N 	N 	0.68290 0.86784 0.09081 -0.13400
N 	N 	0.53470 0.86760 0.06402 -0.13700
N 	N 	0.01340 0.94260 0.07952 -0.27000
N 	N 	0.43610 0.79220 0.15832 -0.27600
N 	N 	0.56200 0.73520 0.72666 -0.27200
N 	N 	0.44900 0.67464 0.82452 -0.13800
N 	N 	0.41190 0.71191 0.86992 -0.13900
N 	N 	0.44620 0.75994 0.82850 -0.13900
N 	N 	0.38480 0.53704 0.89363 -0.26900
N 	N 	0.37560 0.88090 0.90650 -0.26900
N 	N 	0.58490 0.57030 0.46788 -0.27100
N 	N 	0.32220 0.59830 0.54331 -0.14200
N 	N 	0.31710 0.63216 0.59081 -0.13400
N 	N 	0.46530 0.63240 0.56402 -0.13700
N 	N 	0.98660 0.55740 0.57952 -0.27000
N 	N 	0.56390 0.70780 0.65832 -0.27600
N 	N 	0.43800 0.76480 0.22666 -0.27200
N 	N 	0.55100 0.82536 0.32452 -0.13800
N 	N 	0.58810 0.78809 0.36992 -0.13900
N 	N 	0.55380 0.74006 0.32850 -0.13900
N 	N 	0.61520 0.96296 0.39363 -0.26900
N 	N 	0.62440 0.61910 0.40650 -0.26900
