data_crystal

_cell_length_a 17.41640
_cell_length_b 14.24530
_cell_length_c 20.44240
_cell_angle_alpha 90.00000
_cell_angle_beta  114.51200
_cell_angle_gamma 90.00000

_symmetry_space_group_name_	'P 1'
_symmetry_space_group_name_H-M	'P 1'

loop_
_symmetry_equiv_pos_as_xyz
  x,y,z

loop_
_atom_site_label
_atom_site_type_symbol
_atom_site_fract_x
_atom_site_fract_y
_atom_site_fract_z
_atom_site_charge
Eu	Eu	0.20785 0.88692 0.20392 1.92200
C 	C 	0.35710 0.46570 0.24170 0.30200
C 	C 	0.47480 0.39000 0.21950 0.01100
H 	H 	0.50700 0.44360 0.23830 0.05300
O 	O 	0.64190 0.38950 0.23500 -0.48500
N 	N 	0.25900 0.02150 0.14730 -0.20500
O 	O 	0.40570 0.52920 0.27720 -0.42100
O 	O 	0.27970 0.46400 0.22780 -0.39700
C 	C 	0.39330 0.38560 0.21350 -0.04600
O 	O 	0.24980 0.79700 0.12490 -0.49800
C 	C 	0.25370 0.56170 0.05940 -0.03000
H 	H 	0.25620 0.52850 0.09940 0.06300
C 	C 	0.29280 0.10000 0.17890 0.12500
H 	H 	0.28880 0.12290 0.21990 -0.00400
N 	N 	0.33430 0.14370 0.14510 -0.15600
C 	C 	0.25390 0.66010 0.06010 -0.13400
C 	C 	0.34420 0.30550 0.18620 -0.07900
H 	H 	0.28860 0.30290 0.18080 0.07700
O 	O 	0.62720 0.24590 0.18780 -0.54300
C 	C 	0.32240 0.08750 0.08860 0.11300
H 	H 	0.34310 0.10010 0.05430 0.00300
N 	N 	0.21630 0.26720 0.01050 -0.09600
C 	C 	0.46290 0.23360 0.17180 -0.04300
H 	H 	0.48590 0.18250 0.15800 0.04800
O 	O 	0.27230 0.65920 0.18060 -0.51200
C 	C 	0.50940 0.31480 0.19730 -0.10600
C 	C 	0.25850 0.70920 0.12690 0.47000
C 	C 	0.38120 0.22980 0.16720 0.09200
C 	C 	0.60090 0.31800 0.20850 0.46400
N 	N 	0.27870 0.01400 0.08820 -0.10800
C 	C 	0.19930 0.35340 0.01620 0.10100
H 	H 	0.15720 0.37310 0.02990 0.00900
Eu	Eu	0.70785 0.38692 0.70392 1.92500
C 	C 	0.85710 0.96570 0.74170 0.30700
C 	C 	0.97480 0.89000 0.71950 0.02200
H 	H 	0.00700 0.94360 0.73830 0.04800
O 	O 	0.14190 0.88950 0.73500 -0.48600
N 	N 	0.75900 0.52150 0.64730 -0.20600
O 	O 	0.90570 0.02920 0.77720 -0.42300
O 	O 	0.77970 0.96400 0.72780 -0.39800
C 	C 	0.89330 0.88560 0.71350 -0.05100
O 	O 	0.74980 0.29700 0.62490 -0.49800
C 	C 	0.75370 0.06170 0.55940 -0.02900
H 	H 	0.75620 0.02850 0.59940 0.06300
C 	C 	0.79280 0.60000 0.67890 0.12500
H 	H 	0.78880 0.62290 0.71990 -0.00400
N 	N 	0.83430 0.64370 0.64510 -0.15600
C 	C 	0.75390 0.16010 0.56010 -0.13500
C 	C 	0.84420 0.80550 0.68620 -0.07500
H 	H 	0.78860 0.80290 0.68080 0.07600
O 	O 	0.12720 0.74590 0.68780 -0.54400
C 	C 	0.82240 0.58750 0.58860 0.11200
H 	H 	0.84310 0.60010 0.55430 0.00400
N 	N 	0.71630 0.76720 0.51050 -0.09600
C 	C 	0.96290 0.73360 0.67180 -0.03600
H 	H 	0.98590 0.68250 0.65800 0.04600
O 	O 	0.77230 0.15920 0.68060 -0.51200
C 	C 	0.00940 0.81480 0.69730 -0.11500
C 	C 	0.75850 0.20920 0.62690 0.47100
C 	C 	0.88120 0.72980 0.66720 0.08800
C 	C 	0.10090 0.81800 0.70850 0.46600
N 	N 	0.77870 0.51400 0.58820 -0.10800
C 	C 	0.69930 0.85340 0.51620 0.10100
H 	H 	0.65720 0.87310 0.52990 0.01000
Eu	Eu	0.29215 0.88692 0.79608 1.92400
C 	C 	0.14290 0.46570 0.75830 0.30300
C 	C 	0.02520 0.39000 0.78050 0.01500
H 	H 	0.99300 0.44360 0.76170 0.05200
O 	O 	0.85810 0.38950 0.76500 -0.48500
N 	N 	0.24100 0.02150 0.85270 -0.20500
O 	O 	0.09430 0.52920 0.72280 -0.42100
O 	O 	0.22030 0.46400 0.77220 -0.39700
C 	C 	0.10670 0.38560 0.78650 -0.04700
O 	O 	0.25020 0.79700 0.87510 -0.49800
C 	C 	0.24630 0.56170 0.94060 -0.02900
H 	H 	0.24380 0.52850 0.90060 0.06300
C 	C 	0.20720 0.10000 0.82110 0.12500
H 	H 	0.21120 0.12290 0.78010 -0.00400
N 	N 	0.16570 0.14370 0.85490 -0.15600
C 	C 	0.24610 0.66010 0.93990 -0.13400
C 	C 	0.15580 0.30550 0.81380 -0.07800
H 	H 	0.21140 0.30290 0.81920 0.07700
O 	O 	0.87280 0.24590 0.81220 -0.54400
C 	C 	0.17760 0.08750 0.91140 0.11300
H 	H 	0.15690 0.10010 0.94570 0.00400
N 	N 	0.28370 0.26720 0.98950 -0.09500
C 	C 	0.03710 0.23360 0.82820 -0.04000
H 	H 	0.01410 0.18250 0.84200 0.04800
O 	O 	0.22770 0.65920 0.81940 -0.51200
C 	C 	0.99060 0.31480 0.80270 -0.11000
C 	C 	0.24150 0.70920 0.87310 0.47000
C 	C 	0.11880 0.22980 0.83280 0.09000
C 	C 	0.89910 0.31800 0.79150 0.46500
N 	N 	0.22130 0.01400 0.91180 -0.10700
C 	C 	0.30070 0.35340 0.98380 0.10200
H 	H 	0.34280 0.37310 0.97010 0.00900
Eu	Eu	0.79215 0.38692 0.29608 1.92500
C 	C 	0.64290 0.96570 0.25830 0.30300
C 	C 	0.52520 0.89000 0.28050 0.01100
H 	H 	0.49300 0.94360 0.26170 0.05300
O 	O 	0.35810 0.88950 0.26500 -0.48500
N 	N 	0.74100 0.52150 0.35270 -0.20600
O 	O 	0.59430 0.02920 0.22280 -0.42200
O 	O 	0.72030 0.96400 0.27220 -0.39700
C 	C 	0.60670 0.88560 0.28650 -0.04600
O 	O 	0.75020 0.29700 0.37510 -0.49800
C 	C 	0.74630 0.06170 0.44060 -0.02900
H 	H 	0.74380 0.02850 0.40060 0.06300
C 	C 	0.70720 0.60000 0.32110 0.12500
H 	H 	0.71120 0.62290 0.28010 -0.00400
N 	N 	0.66570 0.64370 0.35490 -0.15600
C 	C 	0.74610 0.16010 0.43990 -0.13500
C 	C 	0.65580 0.80550 0.31380 -0.07900
H 	H 	0.71140 0.80290 0.31920 0.07700
O 	O 	0.37280 0.74590 0.31220 -0.54300
C 	C 	0.67760 0.58750 0.41140 0.11300
H 	H 	0.65690 0.60010 0.44570 0.00400
N 	N 	0.78370 0.76720 0.48950 -0.09600
C 	C 	0.53710 0.73360 0.32820 -0.04200
H 	H 	0.51410 0.68250 0.34200 0.04800
O 	O 	0.72770 0.15920 0.31940 -0.51200
C 	C 	0.49060 0.81480 0.30270 -0.10700
C 	C 	0.74150 0.20920 0.37310 0.47100
C 	C 	0.61880 0.72980 0.33280 0.09200
C 	C 	0.39910 0.81800 0.29150 0.46400
N 	N 	0.72130 0.51400 0.41180 -0.10800
C 	C 	0.80070 0.85340 0.48380 0.10100
H 	H 	0.84280 0.87310 0.47010 0.01000
Eu	Eu	0.79215 0.11308 0.79608 1.92400
C 	C 	0.64290 0.53430 0.75830 0.30200
C 	C 	0.52520 0.61000 0.78050 0.01100
H 	H 	0.49300 0.55640 0.76170 0.05300
O 	O 	0.35810 0.61050 0.76500 -0.48500
N 	N 	0.74100 0.97850 0.85270 -0.20500
O 	O 	0.59430 0.47080 0.72280 -0.42100
O 	O 	0.72030 0.53600 0.77220 -0.39700
C 	C 	0.60670 0.61440 0.78650 -0.04600
O 	O 	0.75020 0.20300 0.87510 -0.49800
C 	C 	0.74630 0.43830 0.94060 -0.02900
H 	H 	0.74380 0.47150 0.90060 0.06300
C 	C 	0.70720 0.90000 0.82110 0.12500
H 	H 	0.71120 0.87710 0.78010 -0.00400
N 	N 	0.66570 0.85630 0.85490 -0.15600
C 	C 	0.74610 0.33990 0.93990 -0.13400
C 	C 	0.65580 0.69450 0.81380 -0.07900
H 	H 	0.71140 0.69710 0.81920 0.07700
O 	O 	0.37280 0.75410 0.81220 -0.54300
C 	C 	0.67760 0.91250 0.91140 0.11300
H 	H 	0.65690 0.89990 0.94570 0.00400
N 	N 	0.78370 0.73280 0.98950 -0.09500
C 	C 	0.53710 0.76640 0.82820 -0.04300
H 	H 	0.51410 0.81750 0.84200 0.04800
O 	O 	0.72770 0.34080 0.81940 -0.51200
C 	C 	0.49060 0.68520 0.80270 -0.10600
C 	C 	0.74150 0.29080 0.87310 0.47000
C 	C 	0.61880 0.77020 0.83280 0.09200
C 	C 	0.39910 0.68200 0.79150 0.46400
N 	N 	0.72130 0.98600 0.91180 -0.10800
C 	C 	0.80070 0.64660 0.98380 0.10100
H 	H 	0.84280 0.62690 0.97010 0.00900
Eu	Eu	0.29215 0.61308 0.29608 1.92500
C 	C 	0.14290 0.03430 0.25830 0.30700
C 	C 	0.02520 0.11000 0.28050 0.02200
H 	H 	0.99300 0.05640 0.26170 0.04800
O 	O 	0.85810 0.11050 0.26500 -0.48600
N 	N 	0.24100 0.47850 0.35270 -0.20600
O 	O 	0.09430 0.97080 0.22280 -0.42400
O 	O 	0.22030 0.03600 0.27220 -0.39800
C 	C 	0.10670 0.11440 0.28650 -0.05100
O 	O 	0.25020 0.70300 0.37510 -0.49800
C 	C 	0.24630 0.93830 0.44060 -0.02900
H 	H 	0.24380 0.97150 0.40060 0.06300
C 	C 	0.20720 0.40000 0.32110 0.12500
H 	H 	0.21120 0.37710 0.28010 -0.00400
N 	N 	0.16570 0.35630 0.35490 -0.15600
C 	C 	0.24610 0.83990 0.43990 -0.13500
C 	C 	0.15580 0.19450 0.31380 -0.07500
H 	H 	0.21140 0.19710 0.31920 0.07600
O 	O 	0.87280 0.25410 0.31220 -0.54400
C 	C 	0.17760 0.41250 0.41140 0.11200
H 	H 	0.15690 0.39990 0.44570 0.00400
N 	N 	0.28370 0.23280 0.48950 -0.09600
C 	C 	0.03710 0.26640 0.32820 -0.03600
H 	H 	0.01410 0.31750 0.34200 0.04600
O 	O 	0.22770 0.84080 0.31940 -0.51200
C 	C 	0.99060 0.18520 0.30270 -0.11500
C 	C 	0.24150 0.79080 0.37310 0.47100
C 	C 	0.11880 0.27020 0.33280 0.08800
C 	C 	0.89910 0.18200 0.29150 0.46600
N 	N 	0.22130 0.48600 0.41180 -0.10800
C 	C 	0.30070 0.14660 0.48380 0.10100
H 	H 	0.34280 0.12690 0.47010 0.01000
Eu	Eu	0.70785 0.11308 0.20392 1.92300
C 	C 	0.85710 0.53430 0.24170 0.30300
C 	C 	0.97480 0.61000 0.21950 0.01400
H 	H 	0.00700 0.55640 0.23830 0.05200
O 	O 	0.14190 0.61050 0.23500 -0.48600
N 	N 	0.75900 0.97850 0.14730 -0.20500
O 	O 	0.90570 0.47080 0.27720 -0.42100
O 	O 	0.77970 0.53600 0.22780 -0.39700
C 	C 	0.89330 0.61440 0.21350 -0.04700
O 	O 	0.74980 0.20300 0.12490 -0.49800
C 	C 	0.75370 0.43830 0.05940 -0.03000
H 	H 	0.75620 0.47150 0.09940 0.06300
C 	C 	0.79280 0.90000 0.17890 0.12500
H 	H 	0.78880 0.87710 0.21990 -0.00400
N 	N 	0.83430 0.85630 0.14510 -0.15600
C 	C 	0.75390 0.33990 0.06010 -0.13400
C 	C 	0.84420 0.69450 0.18620 -0.07800
H 	H 	0.78860 0.69710 0.18080 0.07700
O 	O 	0.12720 0.75410 0.18780 -0.54400
C 	C 	0.82240 0.91250 0.08860 0.11300
H 	H 	0.84310 0.89990 0.05430 0.00400
N 	N 	0.71630 0.73280 0.01050 -0.09600
C 	C 	0.96290 0.76640 0.17180 -0.04000
H 	H 	0.98590 0.81750 0.15800 0.04800
O 	O 	0.77230 0.34080 0.18060 -0.51200
C 	C 	0.00940 0.68520 0.19730 -0.11000
C 	C 	0.75850 0.29080 0.12690 0.47000
C 	C 	0.88120 0.77020 0.16720 0.09000
C 	C 	0.10090 0.68200 0.20850 0.46400
N 	N 	0.77870 0.98600 0.08820 -0.10800
C 	C 	0.69930 0.64660 0.01620 0.10100
H 	H 	0.65720 0.62690 0.02990 0.00900
Eu	Eu	0.20785 0.61308 0.70392 1.92500
C 	C 	0.35710 0.03430 0.74170 0.30300
C 	C 	0.47480 0.11000 0.71950 0.01100
H 	H 	0.50700 0.05640 0.73830 0.05300
O 	O 	0.64190 0.11050 0.73500 -0.48500
N 	N 	0.25900 0.47850 0.64730 -0.20600
O 	O 	0.40570 0.97080 0.77720 -0.42200
O 	O 	0.27970 0.03600 0.72780 -0.39700
C 	C 	0.39330 0.11440 0.71350 -0.04600
O 	O 	0.24980 0.70300 0.62490 -0.49800
C 	C 	0.25370 0.93830 0.55940 -0.02900
H 	H 	0.25620 0.97150 0.59940 0.06300
C 	C 	0.29280 0.40000 0.67890 0.12500
H 	H 	0.28880 0.37710 0.71990 -0.00400
N 	N 	0.33430 0.35630 0.64510 -0.15600
C 	C 	0.25390 0.83990 0.56010 -0.13500
C 	C 	0.34420 0.19450 0.68620 -0.07900
H 	H 	0.28860 0.19710 0.68080 0.07700
O 	O 	0.62720 0.25410 0.68780 -0.54300
C 	C 	0.32240 0.41250 0.58860 0.11300
H 	H 	0.34310 0.39990 0.55430 0.00400
N 	N 	0.21630 0.23280 0.51050 -0.09600
C 	C 	0.46290 0.26640 0.67180 -0.04200
H 	H 	0.48590 0.31750 0.65800 0.04800
O 	O 	0.27230 0.84080 0.68060 -0.51200
C 	C 	0.50940 0.18520 0.69730 -0.10600
C 	C 	0.25850 0.79080 0.62690 0.47100
C 	C 	0.38120 0.27020 0.66720 0.09200
C 	C 	0.60090 0.18200 0.70850 0.46400
N 	N 	0.27870 0.48600 0.58820 -0.10800
C 	C 	0.19930 0.14660 0.51620 0.10100
H 	H 	0.15720 0.12690 0.52990 0.01000
C 	C 	0.25000 0.51460 -0.00000 0.06500
N 	N 	0.25000 0.41310 -0.00000 -0.14400
C 	C 	0.25000 0.70680 -0.00000 0.06900
H 	H 	0.25000 0.77210 -0.00000 0.02300
C 	C 	0.75000 0.01460 0.50000 0.06400
N 	N 	0.75000 0.91310 0.50000 -0.14300
C 	C 	0.75000 0.20680 0.50000 0.07000
H 	H 	0.75000 0.27210 0.50000 0.02300
C 	C 	0.75000 0.48540 -0.00000 0.06500
N 	N 	0.75000 0.58690 -0.00000 -0.14400
C 	C 	0.75000 0.29320 -0.00000 0.06800
H 	H 	0.75000 0.22790 -0.00000 0.02300
C 	C 	0.25000 0.98540 0.50000 0.06400
N 	N 	0.25000 0.08690 0.50000 -0.14300
C 	C 	0.25000 0.79320 0.50000 0.07000
H 	H 	0.25000 0.72790 0.50000 0.02300
