data_crystal

_cell_length_a 18.64000
_cell_length_b 22.79500
_cell_length_c 13.28100
_cell_angle_alpha 90.00000
_cell_angle_beta  130.48400
_cell_angle_gamma 90.00000

_symmetry_space_group_name_	'P 1'
_symmetry_space_group_name_H-M	'P 1'

loop_
_symmetry_equiv_pos_as_xyz
  x,y,z

loop_
_atom_site_label
_atom_site_type_symbol
_atom_site_fract_x
_atom_site_fract_y
_atom_site_fract_z
_atom_site_charge
O 	O 	0.61406 0.29186 0.43245 -0.46300
O 	O 	0.48931 0.24194 0.37257 -0.44500
O 	O 	0.83997 0.66566 0.06393 -0.50800
O 	O 	0.90850 0.60340 0.22720 -0.34100
C 	C 	0.54750 0.28380 0.43170 0.34200
C 	C 	0.53359 0.32572 0.50470 -0.01900
C 	C 	0.58490 0.37666 0.55600 -0.12700
H 	H 	0.62690 0.38580 0.54280 0.08000
C 	C 	0.57470 0.41457 0.62710 0.12600
H 	H 	0.61020 0.44880 0.66100 -0.02200
C 	C 	0.51317 0.40309 0.64950 -0.31500
C 	C 	0.46100 0.35192 0.59430 0.12000
H 	H 	0.41800 0.34290 0.60590 -0.02900
C 	C 	0.47050 0.31406 0.52310 -0.12400
H 	H 	0.43390 0.28020 0.48700 0.07300
C 	C 	0.84069 0.61697 0.11140 0.29200
C 	C 	0.75911 0.57616 0.02380 -0.00300
C 	C 	0.69192 0.58711 0.89040 -0.10400
H 	H 	0.69760 0.61980 0.85400 0.06100
C 	C 	0.61556 0.54957 0.80970 0.13200
H 	H 	0.57030 0.55760 0.71970 -0.02400
C 	C 	0.60558 0.49980 0.86160 -0.34800
C 	C 	0.67544 0.48986 0.99580 0.25400
H 	H 	0.67090 0.45700 0.03290 -0.08500
C 	C 	0.75133 0.52668 0.07620 -0.21700
H 	H 	0.79740 0.51830 0.16600 0.12300
O 	O 	0.11406 0.79186 0.43245 -0.46100
O 	O 	0.98931 0.74194 0.37257 -0.37400
O 	O 	0.33997 0.16566 0.06393 -0.52900
O 	O 	0.40850 0.10340 0.22720 -0.37200
C 	C 	0.04750 0.78380 0.43170 0.28400
C 	C 	0.03359 0.82572 0.50470 -0.11300
C 	C 	0.08490 0.87666 0.55600 -0.08400
H 	H 	0.12690 0.88580 0.54280 0.06100
C 	C 	0.07470 0.91457 0.62710 0.06800
H 	H 	0.11020 0.94880 0.66100 -0.00700
C 	C 	0.01317 0.90309 0.64950 -0.29800
C 	C 	0.96100 0.85192 0.59430 0.13000
H 	H 	0.91800 0.84290 0.60590 -0.01200
C 	C 	0.97050 0.81406 0.52310 -0.01300
H 	H 	0.93390 0.78020 0.48700 0.05000
C 	C 	0.34069 0.11697 0.11140 0.30900
C 	C 	0.25911 0.07616 0.02380 -0.04600
C 	C 	0.19192 0.08711 0.89040 -0.06100
H 	H 	0.19760 0.11980 0.85400 0.03900
C 	C 	0.11556 0.04957 0.80970 0.06900
H 	H 	0.07030 0.05760 0.71970 -0.01800
C 	C 	0.10558 0.99980 0.86160 -0.26300
C 	C 	0.17544 0.98986 0.99580 0.17200
H 	H 	0.17090 0.95700 0.03290 -0.06400
C 	C 	0.25133 0.02668 0.07620 -0.15800
H 	H 	0.29740 0.01830 0.16600 0.09500
O 	O 	0.38594 0.29186 0.06755 -0.47100
O 	O 	0.51069 0.24194 0.12743 -0.44600
O 	O 	0.16003 0.66566 0.43607 -0.53100
O 	O 	0.09150 0.60340 0.27280 -0.39600
C 	C 	0.45250 0.28380 0.06830 0.32500
C 	C 	0.46641 0.32572 0.99530 -0.01700
C 	C 	0.41510 0.37666 0.94400 -0.12000
H 	H 	0.37310 0.38580 0.95720 0.08400
C 	C 	0.42530 0.41457 0.87290 0.11700
H 	H 	0.38980 0.44880 0.83900 -0.02200
C 	C 	0.48683 0.40309 0.85050 -0.30000
C 	C 	0.53900 0.35192 0.90570 0.09000
H 	H 	0.58200 0.34290 0.89410 -0.00800
C 	C 	0.52950 0.31406 0.97690 -0.06100
H 	H 	0.56610 0.28020 0.01300 0.03600
C 	C 	0.15931 0.61697 0.38860 0.30800
C 	C 	0.24089 0.57616 0.47620 -0.03200
C 	C 	0.30808 0.58711 0.60960 -0.10100
H 	H 	0.30240 0.61980 0.64600 0.05000
C 	C 	0.38444 0.54957 0.69030 0.09900
H 	H 	0.42970 0.55760 0.78030 -0.01100
C 	C 	0.39442 0.49980 0.63840 -0.30400
C 	C 	0.32456 0.48986 0.50420 0.11400
H 	H 	0.32910 0.45700 0.46710 -0.02600
C 	C 	0.24867 0.52668 0.42380 -0.11800
H 	H 	0.20260 0.51830 0.33400 0.07200
O 	O 	0.88594 0.79186 0.06755 -0.48000
O 	O 	0.01069 0.74194 0.12743 -0.51800
O 	O 	0.66003 0.16566 0.43607 -0.52300
O 	O 	0.59150 0.10340 0.27280 -0.37900
C 	C 	0.95250 0.78380 0.06830 0.41600
C 	C 	0.96641 0.82572 0.99530 -0.01800
C 	C 	0.91510 0.87666 0.94400 -0.03300
H 	H 	0.87310 0.88580 0.95720 0.05900
C 	C 	0.92530 0.91457 0.87290 -0.00400
H 	H 	0.88980 0.94880 0.83900 0.03200
C 	C 	0.98683 0.90309 0.85050 -0.06400
C 	C 	0.03900 0.85192 0.90570 -0.09700
H 	H 	0.08200 0.84290 0.89410 0.04500
C 	C 	0.02950 0.81406 0.97690 -0.04300
H 	H 	0.06610 0.78020 0.01300 0.01700
C 	C 	0.65931 0.11697 0.38860 0.32700
C 	C 	0.74089 0.07616 0.47620 -0.08100
C 	C 	0.80808 0.08711 0.60960 -0.02300
H 	H 	0.80240 0.11980 0.64600 0.03100
C 	C 	0.88444 0.04957 0.69030 0.00400
H 	H 	0.92970 0.05760 0.78030 0.04700
C 	C 	0.89442 0.99980 0.63840 -0.14400
C 	C 	0.82456 0.98986 0.50420 0.00600
H 	H 	0.82910 0.95700 0.46710 0.02600
C 	C 	0.74867 0.02668 0.42380 -0.03200
H 	H 	0.70260 0.01830 0.33400 0.05300
O 	O 	0.38594 0.70814 0.56755 -0.46600
O 	O 	0.51069 0.75806 0.62743 -0.44500
O 	O 	0.16003 0.33434 0.93607 -0.52200
O 	O 	0.09150 0.39660 0.77280 -0.39400
C 	C 	0.45250 0.71620 0.56830 0.34300
C 	C 	0.46641 0.67428 0.49530 -0.02500
C 	C 	0.41510 0.62334 0.44400 -0.12300
H 	H 	0.37310 0.61420 0.45720 0.07700
C 	C 	0.42530 0.58543 0.37290 0.11300
H 	H 	0.38980 0.55120 0.33900 -0.02400
C 	C 	0.48683 0.59691 0.35050 -0.30100
C 	C 	0.53900 0.64808 0.40570 0.11000
H 	H 	0.58200 0.65710 0.39410 -0.02000
C 	C 	0.52950 0.68594 0.47690 -0.11700
H 	H 	0.56610 0.71980 0.51300 0.07400
C 	C 	0.15931 0.38303 0.88860 0.31500
C 	C 	0.24089 0.42384 0.97620 -0.04100
C 	C 	0.30808 0.41289 0.10960 -0.10400
H 	H 	0.30240 0.38020 0.14600 0.04300
C 	C 	0.38444 0.45043 0.19030 0.07000
H 	H 	0.42970 0.44240 0.28030 -0.00700
C 	C 	0.39442 0.50020 0.13840 -0.25200
C 	C 	0.32456 0.51014 0.00420 -0.01800
H 	H 	0.32910 0.54300 0.96710 0.03900
C 	C 	0.24867 0.47332 0.92380 -0.02500
H 	H 	0.20260 0.48170 0.83400 0.04500
O 	O 	0.88594 0.20814 0.56755 -0.47600
O 	O 	0.01069 0.25806 0.62743 -0.51900
O 	O 	0.66003 0.83434 0.93607 -0.51400
O 	O 	0.59150 0.89660 0.77280 -0.37600
C 	C 	0.95250 0.21620 0.56830 0.43500
C 	C 	0.96641 0.17428 0.49530 -0.02700
C 	C 	0.91510 0.12334 0.44400 -0.03300
H 	H 	0.87310 0.11420 0.45720 0.05200
C 	C 	0.92530 0.08543 0.37290 -0.00800
H 	H 	0.88980 0.05120 0.33900 0.03100
C 	C 	0.98683 0.09691 0.35050 -0.06400
C 	C 	0.03900 0.14808 0.40570 -0.07900
H 	H 	0.08200 0.15710 0.39410 0.03400
C 	C 	0.02950 0.18594 0.47690 -0.09500
H 	H 	0.06610 0.21980 0.51300 0.05100
C 	C 	0.65931 0.88303 0.88860 0.33200
C 	C 	0.74089 0.92384 0.97620 -0.08600
C 	C 	0.80808 0.91289 0.10960 -0.02700
H 	H 	0.80240 0.88020 0.14600 0.02400
C 	C 	0.88444 0.95043 0.19030 -0.03300
H 	H 	0.92970 0.94240 0.28030 0.05300
C 	C 	0.89442 0.00020 0.13840 -0.08800
C 	C 	0.82456 0.01014 0.00420 -0.11400
H 	H 	0.82910 0.04300 0.96710 0.08800
C 	C 	0.74867 0.97332 0.92380 0.04700
H 	H 	0.70260 0.98170 0.83400 0.02800
O 	O 	0.61406 0.70814 0.93245 -0.45700
O 	O 	0.48931 0.75806 0.87257 -0.44500
O 	O 	0.83997 0.33434 0.56393 -0.50100
O 	O 	0.90850 0.39660 0.72720 -0.33800
C 	C 	0.54750 0.71620 0.93170 0.36000
C 	C 	0.53359 0.67428 0.00470 -0.02700
C 	C 	0.58490 0.62334 0.05600 -0.13000
H 	H 	0.62690 0.61420 0.04280 0.07300
C 	C 	0.57470 0.58543 0.12710 0.12200
H 	H 	0.61020 0.55120 0.16100 -0.02500
C 	C 	0.51317 0.59691 0.14950 -0.31700
C 	C 	0.46100 0.64808 0.09430 0.14000
H 	H 	0.41800 0.65710 0.10590 -0.04200
C 	C 	0.47050 0.68594 0.02310 -0.18000
H 	H 	0.43390 0.71980 0.98700 0.11000
C 	C 	0.84069 0.38303 0.61140 0.30000
C 	C 	0.75911 0.42384 0.52380 -0.01200
C 	C 	0.69192 0.41289 0.39040 -0.10700
H 	H 	0.69760 0.38020 0.35400 0.05400
C 	C 	0.61556 0.45043 0.30970 0.10300
H 	H 	0.57030 0.44240 0.21970 -0.02000
C 	C 	0.60558 0.50020 0.36160 -0.29500
C 	C 	0.67544 0.51014 0.49580 0.12000
H 	H 	0.67090 0.54300 0.53290 -0.01900
C 	C 	0.75133 0.47332 0.57620 -0.12300
H 	H 	0.79740 0.48170 0.66600 0.09500
O 	O 	0.11406 0.20814 0.93245 -0.45300
O 	O 	0.98931 0.25806 0.87257 -0.37200
O 	O 	0.33997 0.83434 0.56393 -0.52300
O 	O 	0.40850 0.89660 0.72720 -0.37000
C 	C 	0.04750 0.21620 0.93170 0.29800
C 	C 	0.03359 0.17428 0.00470 -0.11600
C 	C 	0.08490 0.12334 0.05600 -0.08800
H 	H 	0.12690 0.11420 0.04280 0.05500
C 	C 	0.07470 0.08543 0.12710 0.06600
H 	H 	0.11020 0.05120 0.16100 -0.00800
C 	C 	0.01317 0.09691 0.14950 -0.29800
C 	C 	0.96100 0.14808 0.09430 0.15000
H 	H 	0.91800 0.15710 0.10590 -0.02500
C 	C 	0.97050 0.18594 0.02310 -0.07100
H 	H 	0.93390 0.21980 0.98700 0.08700
C 	C 	0.34069 0.88303 0.61140 0.31500
C 	C 	0.25911 0.92384 0.52380 -0.05400
C 	C 	0.19192 0.91289 0.39040 -0.06300
H 	H 	0.19760 0.88020 0.35400 0.03100
C 	C 	0.11556 0.95043 0.30970 0.03200
H 	H 	0.07030 0.94240 0.21970 -0.01100
C 	C 	0.10558 0.00020 0.36160 -0.20700
C 	C 	0.17544 0.01014 0.49580 0.05300
H 	H 	0.17090 0.04300 0.53290 -0.00200
C 	C 	0.25133 0.97332 0.57620 -0.07900
H 	H 	0.29740 0.98170 0.66600 0.07100
Cd	Cd	0.50000 0.18380 0.25000 1.23300
Cd	Cd	0.00000 0.68380 0.25000 1.21000
Cd	Cd	0.50000 0.81620 0.75000 1.23300
Cd	Cd	-0.00000 0.31620 0.75000 1.21100
Cd	Cd	0.75000 0.25000 0.50000 1.20000
Cd	Cd	0.25000 0.25000 -0.00000 1.18800
Cd	Cd	0.25000 0.75000 0.50000 1.19600
Cd	Cd	0.75000 0.75000 -0.00000 1.19100
Si	Si	0.50000 0.45157 0.75000 0.84400
Si	Si	-0.00000 0.95157 0.75000 0.55700
Si	Si	0.50000 0.54843 0.25000 0.79700
Si	Si	0.00000 0.04843 0.25000 0.51400
