data_crystal

_cell_length_a 41.47340
_cell_length_b 41.47340
_cell_length_c 41.47340
_cell_angle_alpha 90.00000
_cell_angle_beta  90.00000
_cell_angle_gamma 90.00000

_symmetry_space_group_name_	'P 1'
_symmetry_space_group_name_H-M	'P 1'

loop_
_symmetry_equiv_pos_as_xyz
  x,y,z

loop_
_atom_site_label
_atom_site_type_symbol
_atom_site_fract_x
_atom_site_fract_y
_atom_site_fract_z
_atom_site_charge
C 	C 	0.37155 0.31170 0.45596 0.35400
C 	C 	0.38863 0.29513 0.42952 -0.06000
C 	C 	0.37389 0.26839 0.41504 -0.06700
H 	H 	0.35430 0.26000 0.42340 0.07400
O 	O 	0.38352 0.33710 0.46645 -0.40400
O 	O 	0.34569 0.29914 0.46662 -0.39300
H 	H 	0.35130 0.22720 0.37660 0.11400
C 	C 	0.87155 0.81170 0.95596 0.35300
C 	C 	0.88863 0.79513 0.92952 -0.05800
C 	C 	0.87389 0.76839 0.91504 -0.06700
H 	H 	0.85430 0.76000 0.92340 0.07400
O 	O 	0.88352 0.83710 0.96645 -0.40200
O 	O 	0.84569 0.79914 0.96662 -0.39200
H 	H 	0.85130 0.72720 0.87660 0.11300
C 	C 	0.62845 0.68830 0.45596 0.35300
C 	C 	0.61137 0.70487 0.42952 -0.06100
C 	C 	0.62611 0.73161 0.41504 -0.06800
H 	H 	0.64570 0.74000 0.42340 0.07300
O 	O 	0.61648 0.66290 0.46645 -0.40500
O 	O 	0.65431 0.70086 0.46662 -0.39400
H 	H 	0.64870 0.77280 0.37660 0.11300
C 	C 	0.12845 0.18830 0.95596 0.35300
C 	C 	0.11137 0.20487 0.92952 -0.06000
C 	C 	0.12611 0.23161 0.91504 -0.06800
H 	H 	0.14570 0.24000 0.92340 0.07300
O 	O 	0.11648 0.16290 0.96645 -0.40400
O 	O 	0.15431 0.20086 0.96662 -0.39200
H 	H 	0.14870 0.27280 0.87660 0.11300
C 	C 	0.62845 0.31170 0.54404 0.35300
C 	C 	0.61137 0.29513 0.57048 -0.06100
C 	C 	0.62611 0.26839 0.58496 -0.06800
H 	H 	0.64570 0.26000 0.57660 0.07300
O 	O 	0.61648 0.33710 0.53355 -0.40500
O 	O 	0.65431 0.29914 0.53338 -0.39400
H 	H 	0.64870 0.22720 0.62340 0.11300
C 	C 	0.12845 0.81170 0.04404 0.35300
C 	C 	0.11137 0.79513 0.07048 -0.06200
C 	C 	0.12611 0.76839 0.08496 -0.06700
H 	H 	0.14570 0.76000 0.07660 0.07200
O 	O 	0.11648 0.83710 0.03355 -0.40600
O 	O 	0.15431 0.79914 0.03338 -0.39400
H 	H 	0.14870 0.72720 0.12340 0.11300
C 	C 	0.37155 0.68830 0.54404 0.35300
C 	C 	0.38863 0.70487 0.57048 -0.06100
C 	C 	0.37389 0.73161 0.58496 -0.06800
H 	H 	0.35430 0.74000 0.57660 0.07300
O 	O 	0.38352 0.66290 0.53355 -0.40500
O 	O 	0.34569 0.70086 0.53338 -0.39400
H 	H 	0.35130 0.77280 0.62340 0.11300
C 	C 	0.87155 0.18830 0.04404 0.35300
C 	C 	0.88863 0.20487 0.07048 -0.06100
C 	C 	0.87389 0.23161 0.08496 -0.06800
H 	H 	0.85430 0.24000 0.07660 0.07300
O 	O 	0.88352 0.16290 0.03355 -0.40600
O 	O 	0.84569 0.20086 0.03338 -0.39400
H 	H 	0.85130 0.27280 0.12340 0.11300
C 	C 	0.45596 0.37155 0.31170 0.35300
C 	C 	0.42952 0.38863 0.29513 -0.06100
C 	C 	0.41504 0.37389 0.26839 -0.06800
H 	H 	0.42340 0.35430 0.26000 0.07300
O 	O 	0.46645 0.38352 0.33710 -0.40500
O 	O 	0.46662 0.34569 0.29914 -0.39400
H 	H 	0.37660 0.35130 0.22720 0.11300
C 	C 	0.95596 0.87155 0.81170 0.35200
C 	C 	0.92952 0.88863 0.79513 -0.05900
C 	C 	0.91504 0.87389 0.76839 -0.06800
H 	H 	0.92340 0.85430 0.76000 0.07300
O 	O 	0.96645 0.88352 0.83710 -0.40300
O 	O 	0.96662 0.84569 0.79914 -0.39200
H 	H 	0.87660 0.85130 0.72720 0.11300
C 	C 	0.45596 0.62845 0.68830 0.35300
C 	C 	0.42952 0.61137 0.70487 -0.06100
C 	C 	0.41504 0.62611 0.73161 -0.06800
H 	H 	0.42340 0.64570 0.74000 0.07300
O 	O 	0.46645 0.61648 0.66290 -0.40500
O 	O 	0.46662 0.65431 0.70086 -0.39400
H 	H 	0.37660 0.64870 0.77280 0.11300
C 	C 	0.95596 0.12845 0.18830 0.35300
C 	C 	0.92952 0.11137 0.20487 -0.06000
C 	C 	0.91504 0.12611 0.23161 -0.06800
H 	H 	0.92340 0.14570 0.24000 0.07300
O 	O 	0.96645 0.11648 0.16290 -0.40400
O 	O 	0.96662 0.15431 0.20086 -0.39200
H 	H 	0.87660 0.14870 0.27280 0.11300
C 	C 	0.54404 0.62845 0.31170 0.35300
C 	C 	0.57048 0.61137 0.29513 -0.06100
C 	C 	0.58496 0.62611 0.26839 -0.06800
H 	H 	0.57660 0.64570 0.26000 0.07300
O 	O 	0.53355 0.61648 0.33710 -0.40500
O 	O 	0.53338 0.65431 0.29914 -0.39400
H 	H 	0.62340 0.64870 0.22720 0.11300
C 	C 	0.04404 0.12845 0.81170 0.35300
C 	C 	0.07048 0.11137 0.79513 -0.06200
C 	C 	0.08496 0.12611 0.76839 -0.06700
H 	H 	0.07660 0.14570 0.76000 0.07200
O 	O 	0.03355 0.11648 0.83710 -0.40600
O 	O 	0.03338 0.15431 0.79914 -0.39400
H 	H 	0.12340 0.14870 0.72720 0.11300
C 	C 	0.54404 0.37155 0.68830 0.35300
C 	C 	0.57048 0.38863 0.70487 -0.06100
C 	C 	0.58496 0.37389 0.73161 -0.06800
H 	H 	0.57660 0.35430 0.74000 0.07300
O 	O 	0.53355 0.38352 0.66290 -0.40500
O 	O 	0.53338 0.34569 0.70086 -0.39400
H 	H 	0.62340 0.35130 0.77280 0.11300
C 	C 	0.04404 0.87155 0.18830 0.35300
C 	C 	0.07048 0.88863 0.20487 -0.06100
C 	C 	0.08496 0.87389 0.23161 -0.06800
H 	H 	0.07660 0.85430 0.24000 0.07300
O 	O 	0.03355 0.88352 0.16290 -0.40600
O 	O 	0.03338 0.84569 0.20086 -0.39400
H 	H 	0.12340 0.85130 0.27280 0.11300
C 	C 	0.31170 0.45596 0.37155 0.35300
C 	C 	0.29513 0.42952 0.38863 -0.06100
C 	C 	0.26839 0.41504 0.37389 -0.06800
H 	H 	0.26000 0.42340 0.35430 0.07300
O 	O 	0.33710 0.46645 0.38352 -0.40500
O 	O 	0.29914 0.46662 0.34569 -0.39400
H 	H 	0.22720 0.37660 0.35130 0.11300
C 	C 	0.81170 0.95596 0.87155 0.35200
C 	C 	0.79513 0.92952 0.88863 -0.05900
C 	C 	0.76839 0.91504 0.87389 -0.06800
H 	H 	0.76000 0.92340 0.85430 0.07300
O 	O 	0.83710 0.96645 0.88352 -0.40300
O 	O 	0.79914 0.96662 0.84569 -0.39200
H 	H 	0.72720 0.87660 0.85130 0.11300
C 	C 	0.68830 0.45596 0.62845 0.35300
C 	C 	0.70487 0.42952 0.61137 -0.06100
C 	C 	0.73161 0.41504 0.62611 -0.06800
H 	H 	0.74000 0.42340 0.64570 0.07300
O 	O 	0.66290 0.46645 0.61648 -0.40500
O 	O 	0.70086 0.46662 0.65431 -0.39400
H 	H 	0.77280 0.37660 0.64870 0.11300
C 	C 	0.18830 0.95596 0.12845 0.35300
C 	C 	0.20487 0.92952 0.11137 -0.06000
C 	C 	0.23161 0.91504 0.12611 -0.06800
H 	H 	0.24000 0.92340 0.14570 0.07300
O 	O 	0.16290 0.96645 0.11648 -0.40400
O 	O 	0.20086 0.96662 0.15431 -0.39200
H 	H 	0.27280 0.87660 0.14870 0.11300
C 	C 	0.31170 0.54404 0.62845 0.35300
C 	C 	0.29513 0.57048 0.61137 -0.06100
C 	C 	0.26839 0.58496 0.62611 -0.06800
H 	H 	0.26000 0.57660 0.64570 0.07300
O 	O 	0.33710 0.53355 0.61648 -0.40500
O 	O 	0.29914 0.53338 0.65431 -0.39400
H 	H 	0.22720 0.62340 0.64870 0.11300
C 	C 	0.81170 0.04404 0.12845 0.35300
C 	C 	0.79513 0.07048 0.11137 -0.06200
C 	C 	0.76839 0.08496 0.12611 -0.06700
H 	H 	0.76000 0.07660 0.14570 0.07200
O 	O 	0.83710 0.03355 0.11648 -0.40600
O 	O 	0.79914 0.03338 0.15431 -0.39400
H 	H 	0.72720 0.12340 0.14870 0.11300
C 	C 	0.68830 0.54404 0.37155 0.35300
C 	C 	0.70487 0.57048 0.38863 -0.06100
C 	C 	0.73161 0.58496 0.37389 -0.06800
H 	H 	0.74000 0.57660 0.35430 0.07300
O 	O 	0.66290 0.53355 0.38352 -0.40500
O 	O 	0.70086 0.53338 0.34569 -0.39400
H 	H 	0.77280 0.62340 0.35130 0.11300
C 	C 	0.18830 0.04404 0.87155 0.35300
C 	C 	0.20487 0.07048 0.88863 -0.06100
C 	C 	0.23161 0.08496 0.87389 -0.06800
H 	H 	0.24000 0.07660 0.85430 0.07300
O 	O 	0.16290 0.03355 0.88352 -0.40600
O 	O 	0.20086 0.03338 0.84569 -0.39400
H 	H 	0.27280 0.12340 0.85130 0.11300
C 	C 	0.31170 0.37155 0.54404 0.35300
C 	C 	0.29513 0.38863 0.57048 -0.06100
C 	C 	0.26839 0.37389 0.58496 -0.06800
H 	H 	0.26000 0.35430 0.57660 0.07300
O 	O 	0.33710 0.38352 0.53355 -0.40500
O 	O 	0.29914 0.34569 0.53338 -0.39400
H 	H 	0.22720 0.35130 0.62340 0.11300
C 	C 	0.81170 0.87155 0.04404 0.35300
C 	C 	0.79513 0.88863 0.07048 -0.06100
C 	C 	0.76839 0.87389 0.08496 -0.06800
H 	H 	0.76000 0.85430 0.07660 0.07300
O 	O 	0.83710 0.88352 0.03355 -0.40600
O 	O 	0.79914 0.84569 0.03338 -0.39400
H 	H 	0.72720 0.85130 0.12340 0.11300
C 	C 	0.68830 0.62845 0.54404 0.35300
C 	C 	0.70487 0.61137 0.57048 -0.06100
C 	C 	0.73161 0.62611 0.58496 -0.06800
H 	H 	0.74000 0.64570 0.57660 0.07300
O 	O 	0.66290 0.61648 0.53355 -0.40500
O 	O 	0.70086 0.65431 0.53338 -0.39400
H 	H 	0.77280 0.64870 0.62340 0.11300
C 	C 	0.18830 0.12845 0.04404 0.35300
C 	C 	0.20487 0.11137 0.07048 -0.06200
C 	C 	0.23161 0.12611 0.08496 -0.06700
H 	H 	0.24000 0.14570 0.07660 0.07200
O 	O 	0.16290 0.11648 0.03355 -0.40700
O 	O 	0.20086 0.15431 0.03338 -0.39400
H 	H 	0.27280 0.14870 0.12340 0.11300
C 	C 	0.31170 0.62845 0.45596 0.35300
C 	C 	0.29513 0.61137 0.42952 -0.06100
C 	C 	0.26839 0.62611 0.41504 -0.06800
H 	H 	0.26000 0.64570 0.42340 0.07300
O 	O 	0.33710 0.61648 0.46645 -0.40500
O 	O 	0.29914 0.65431 0.46662 -0.39400
H 	H 	0.22720 0.64870 0.37660 0.11300
C 	C 	0.81170 0.12845 0.95596 0.35300
C 	C 	0.79513 0.11137 0.92952 -0.06000
C 	C 	0.76839 0.12611 0.91504 -0.06800
H 	H 	0.76000 0.14570 0.92340 0.07300
O 	O 	0.83710 0.11648 0.96645 -0.40300
O 	O 	0.79914 0.15431 0.96662 -0.39200
H 	H 	0.72720 0.14870 0.87660 0.11300
C 	C 	0.68830 0.37155 0.45596 0.35300
C 	C 	0.70487 0.38863 0.42952 -0.06100
C 	C 	0.73161 0.37389 0.41504 -0.06800
H 	H 	0.74000 0.35430 0.42340 0.07300
O 	O 	0.66290 0.38352 0.46645 -0.40500
O 	O 	0.70086 0.34569 0.46662 -0.39400
H 	H 	0.77280 0.35130 0.37660 0.11300
C 	C 	0.18830 0.87155 0.95596 0.35300
C 	C 	0.20487 0.88863 0.92952 -0.05900
C 	C 	0.23161 0.87389 0.91504 -0.06800
H 	H 	0.24000 0.85430 0.92340 0.07300
O 	O 	0.16290 0.88352 0.96645 -0.40300
O 	O 	0.20086 0.84569 0.96662 -0.39200
H 	H 	0.27280 0.85130 0.87660 0.11300
C 	C 	0.37155 0.45596 0.68830 0.35300
C 	C 	0.38863 0.42952 0.70487 -0.06100
C 	C 	0.37389 0.41504 0.73161 -0.06800
H 	H 	0.35430 0.42340 0.74000 0.07300
O 	O 	0.38352 0.46645 0.66290 -0.40500
O 	O 	0.34569 0.46662 0.70086 -0.39400
H 	H 	0.35130 0.37660 0.77280 0.11300
C 	C 	0.87155 0.95596 0.18830 0.35300
C 	C 	0.88863 0.92952 0.20487 -0.05900
C 	C 	0.87389 0.91504 0.23161 -0.06800
H 	H 	0.85430 0.92340 0.24000 0.07300
O 	O 	0.88352 0.96645 0.16290 -0.40300
O 	O 	0.84569 0.96662 0.20086 -0.39200
H 	H 	0.85130 0.87660 0.27280 0.11300
C 	C 	0.62845 0.45596 0.31170 0.35300
C 	C 	0.61137 0.42952 0.29513 -0.06100
C 	C 	0.62611 0.41504 0.26839 -0.06800
H 	H 	0.64570 0.42340 0.26000 0.07300
O 	O 	0.61648 0.46645 0.33710 -0.40500
O 	O 	0.65431 0.46662 0.29914 -0.39400
H 	H 	0.64870 0.37660 0.22720 0.11300
C 	C 	0.12845 0.95596 0.81170 0.35300
C 	C 	0.11137 0.92952 0.79513 -0.06000
C 	C 	0.12611 0.91504 0.76839 -0.06800
H 	H 	0.14570 0.92340 0.76000 0.07300
O 	O 	0.11648 0.96645 0.83710 -0.40300
O 	O 	0.15431 0.96662 0.79914 -0.39200
H 	H 	0.14870 0.87660 0.72720 0.11300
C 	C 	0.62845 0.54404 0.68830 0.35300
C 	C 	0.61137 0.57048 0.70487 -0.06100
C 	C 	0.62611 0.58496 0.73161 -0.06800
H 	H 	0.64570 0.57660 0.74000 0.07300
O 	O 	0.61648 0.53355 0.66290 -0.40500
O 	O 	0.65431 0.53338 0.70086 -0.39400
H 	H 	0.64870 0.62340 0.77280 0.11300
C 	C 	0.12845 0.04404 0.18830 0.35300
C 	C 	0.11137 0.07048 0.20487 -0.06200
C 	C 	0.12611 0.08496 0.23161 -0.06700
H 	H 	0.14570 0.07660 0.24000 0.07200
O 	O 	0.11648 0.03355 0.16290 -0.40700
O 	O 	0.15431 0.03338 0.20086 -0.39400
H 	H 	0.14870 0.12340 0.27280 0.11300
C 	C 	0.37155 0.54404 0.31170 0.35300
C 	C 	0.38863 0.57048 0.29513 -0.06100
C 	C 	0.37389 0.58496 0.26839 -0.06800
H 	H 	0.35430 0.57660 0.26000 0.07300
O 	O 	0.38352 0.53355 0.33710 -0.40500
O 	O 	0.34569 0.53338 0.29914 -0.39400
H 	H 	0.35130 0.62340 0.22720 0.11300
C 	C 	0.87155 0.04404 0.81170 0.35300
C 	C 	0.88863 0.07048 0.79513 -0.06100
C 	C 	0.87389 0.08496 0.76839 -0.06800
H 	H 	0.85430 0.07660 0.76000 0.07300
O 	O 	0.88352 0.03355 0.83710 -0.40600
O 	O 	0.84569 0.03338 0.79914 -0.39400
H 	H 	0.85130 0.12340 0.72720 0.11300
C 	C 	0.45596 0.31170 0.62845 0.35300
C 	C 	0.42952 0.29513 0.61137 -0.06100
C 	C 	0.41504 0.26839 0.62611 -0.06800
H 	H 	0.42340 0.26000 0.64570 0.07300
O 	O 	0.46645 0.33710 0.61648 -0.40500
O 	O 	0.46662 0.29914 0.65431 -0.39400
H 	H 	0.37660 0.22720 0.64870 0.11300
C 	C 	0.95596 0.81170 0.12845 0.35300
C 	C 	0.92952 0.79513 0.11137 -0.06000
C 	C 	0.91504 0.76839 0.12611 -0.06800
H 	H 	0.92340 0.76000 0.14570 0.07300
O 	O 	0.96645 0.83710 0.11648 -0.40300
O 	O 	0.96662 0.79914 0.15431 -0.39200
H 	H 	0.87660 0.72720 0.14870 0.11300
C 	C 	0.45596 0.68830 0.37155 0.35300
C 	C 	0.42952 0.70487 0.38863 -0.06100
C 	C 	0.41504 0.73161 0.37389 -0.06800
H 	H 	0.42340 0.74000 0.35430 0.07300
O 	O 	0.46645 0.66290 0.38352 -0.40500
O 	O 	0.46662 0.70086 0.34569 -0.39400
H 	H 	0.37660 0.77280 0.35130 0.11300
C 	C 	0.95596 0.18830 0.87155 0.35300
C 	C 	0.92952 0.20487 0.88863 -0.05900
C 	C 	0.91504 0.23161 0.87389 -0.06800
H 	H 	0.92340 0.24000 0.85430 0.07300
O 	O 	0.96645 0.16290 0.88352 -0.40300
O 	O 	0.96662 0.20086 0.84569 -0.39200
H 	H 	0.87660 0.27280 0.85130 0.11300
C 	C 	0.54404 0.31170 0.37155 0.35300
C 	C 	0.57048 0.29513 0.38863 -0.06100
C 	C 	0.58496 0.26839 0.37389 -0.06800
H 	H 	0.57660 0.26000 0.35430 0.07300
O 	O 	0.53355 0.33710 0.38352 -0.40500
O 	O 	0.53338 0.29914 0.34569 -0.39400
H 	H 	0.62340 0.22720 0.35130 0.11300
C 	C 	0.04404 0.81170 0.87155 0.35300
C 	C 	0.07048 0.79513 0.88863 -0.06100
C 	C 	0.08496 0.76839 0.87389 -0.06800
H 	H 	0.07660 0.76000 0.85430 0.07300
O 	O 	0.03355 0.83710 0.88352 -0.40600
O 	O 	0.03338 0.79914 0.84569 -0.39400
H 	H 	0.12340 0.72720 0.85130 0.11300
C 	C 	0.54404 0.68830 0.62845 0.35300
C 	C 	0.57048 0.70487 0.61137 -0.06100
C 	C 	0.58496 0.73161 0.62611 -0.06800
H 	H 	0.57660 0.74000 0.64570 0.07300
O 	O 	0.53355 0.66290 0.61648 -0.40500
O 	O 	0.53338 0.70086 0.65431 -0.39400
H 	H 	0.62340 0.77280 0.64870 0.11300
C 	C 	0.04404 0.18830 0.12845 0.35300
C 	C 	0.07048 0.20487 0.11137 -0.06200
C 	C 	0.08496 0.23161 0.12611 -0.06700
H 	H 	0.07660 0.24000 0.14570 0.07200
O 	O 	0.03355 0.16290 0.11648 -0.40700
O 	O 	0.03338 0.20086 0.15431 -0.39400
H 	H 	0.12340 0.27280 0.14870 0.11300
C 	C 	0.62845 0.68830 0.54404 0.35300
C 	C 	0.61137 0.70487 0.57048 -0.06100
C 	C 	0.62611 0.73161 0.58496 -0.06800
H 	H 	0.64570 0.74000 0.57660 0.07300
O 	O 	0.61648 0.66290 0.53355 -0.40500
O 	O 	0.65431 0.70086 0.53338 -0.39400
H 	H 	0.64870 0.77280 0.62340 0.11300
C 	C 	0.12845 0.18830 0.04404 0.35300
C 	C 	0.11137 0.20487 0.07048 -0.06200
C 	C 	0.12611 0.23161 0.08496 -0.06700
H 	H 	0.14570 0.24000 0.07660 0.07200
O 	O 	0.11648 0.16290 0.03355 -0.40700
O 	O 	0.15431 0.20086 0.03338 -0.39400
H 	H 	0.14870 0.27280 0.12340 0.11300
C 	C 	0.37155 0.31170 0.54404 0.35300
C 	C 	0.38863 0.29513 0.57048 -0.06100
C 	C 	0.37389 0.26839 0.58496 -0.06800
H 	H 	0.35430 0.26000 0.57660 0.07300
O 	O 	0.38352 0.33710 0.53355 -0.40500
O 	O 	0.34569 0.29914 0.53338 -0.39400
H 	H 	0.35130 0.22720 0.62340 0.11300
C 	C 	0.87155 0.81170 0.04404 0.35300
C 	C 	0.88863 0.79513 0.07048 -0.06100
C 	C 	0.87389 0.76839 0.08496 -0.06800
H 	H 	0.85430 0.76000 0.07660 0.07300
O 	O 	0.88352 0.83710 0.03355 -0.40600
O 	O 	0.84569 0.79914 0.03338 -0.39400
H 	H 	0.85130 0.72720 0.12340 0.11300
C 	C 	0.37155 0.68830 0.45596 0.35300
C 	C 	0.38863 0.70487 0.42952 -0.06100
C 	C 	0.37389 0.73161 0.41504 -0.06800
H 	H 	0.35430 0.74000 0.42340 0.07300
O 	O 	0.38352 0.66290 0.46645 -0.40500
O 	O 	0.34569 0.70086 0.46662 -0.39400
H 	H 	0.35130 0.77280 0.37660 0.11300
C 	C 	0.87155 0.18830 0.95596 0.35300
C 	C 	0.88863 0.20487 0.92952 -0.05900
C 	C 	0.87389 0.23161 0.91504 -0.06800
H 	H 	0.85430 0.24000 0.92340 0.07300
O 	O 	0.88352 0.16290 0.96645 -0.40300
O 	O 	0.84569 0.20086 0.96662 -0.39200
H 	H 	0.85130 0.27280 0.87660 0.11300
C 	C 	0.62845 0.31170 0.45596 0.35300
C 	C 	0.61137 0.29513 0.42952 -0.06100
C 	C 	0.62611 0.26839 0.41504 -0.06800
H 	H 	0.64570 0.26000 0.42340 0.07300
O 	O 	0.61648 0.33710 0.46645 -0.40500
O 	O 	0.65431 0.29914 0.46662 -0.39400
H 	H 	0.64870 0.22720 0.37660 0.11300
C 	C 	0.12845 0.81170 0.95596 0.35300
C 	C 	0.11137 0.79513 0.92952 -0.06000
C 	C 	0.12611 0.76839 0.91504 -0.06800
H 	H 	0.14570 0.76000 0.92340 0.07300
O 	O 	0.11648 0.83710 0.96645 -0.40300
O 	O 	0.15431 0.79914 0.96662 -0.39200
H 	H 	0.14870 0.72720 0.87660 0.11300
C 	C 	0.54404 0.62845 0.68830 0.35300
C 	C 	0.57048 0.61137 0.70487 -0.06100
C 	C 	0.58496 0.62611 0.73161 -0.06800
H 	H 	0.57660 0.64570 0.74000 0.07300
O 	O 	0.53355 0.61648 0.66290 -0.40500
O 	O 	0.53338 0.65431 0.70086 -0.39400
H 	H 	0.62340 0.64870 0.77280 0.11300
C 	C 	0.04404 0.12845 0.18830 0.35300
C 	C 	0.07048 0.11137 0.20487 -0.06200
C 	C 	0.08496 0.12611 0.23161 -0.06700
H 	H 	0.07660 0.14570 0.24000 0.07200
O 	O 	0.03355 0.11648 0.16290 -0.40700
O 	O 	0.03338 0.15431 0.20086 -0.39400
H 	H 	0.12340 0.14870 0.27280 0.11300
C 	C 	0.54404 0.37155 0.31170 0.35300
C 	C 	0.57048 0.38863 0.29513 -0.06100
C 	C 	0.58496 0.37389 0.26839 -0.06800
H 	H 	0.57660 0.35430 0.26000 0.07300
O 	O 	0.53355 0.38352 0.33710 -0.40500
O 	O 	0.53338 0.34569 0.29914 -0.39400
H 	H 	0.62340 0.35130 0.22720 0.11300
C 	C 	0.04404 0.87155 0.81170 0.35300
C 	C 	0.07048 0.88863 0.79513 -0.06100
C 	C 	0.08496 0.87389 0.76839 -0.06800
H 	H 	0.07660 0.85430 0.76000 0.07300
O 	O 	0.03355 0.88352 0.83710 -0.40600
O 	O 	0.03338 0.84569 0.79914 -0.39400
H 	H 	0.12340 0.85130 0.72720 0.11300
C 	C 	0.45596 0.37155 0.68830 0.35300
C 	C 	0.42952 0.38863 0.70487 -0.06100
C 	C 	0.41504 0.37389 0.73161 -0.06800
H 	H 	0.42340 0.35430 0.74000 0.07300
O 	O 	0.46645 0.38352 0.66290 -0.40500
O 	O 	0.46662 0.34569 0.70086 -0.39400
H 	H 	0.37660 0.35130 0.77280 0.11300
C 	C 	0.95596 0.87155 0.18830 0.35300
C 	C 	0.92952 0.88863 0.20487 -0.05900
C 	C 	0.91504 0.87389 0.23161 -0.06800
H 	H 	0.92340 0.85430 0.24000 0.07300
O 	O 	0.96645 0.88352 0.16290 -0.40300
O 	O 	0.96662 0.84569 0.20086 -0.39200
H 	H 	0.87660 0.85130 0.27280 0.11300
C 	C 	0.45596 0.62845 0.31170 0.35300
C 	C 	0.42952 0.61137 0.29513 -0.06100
C 	C 	0.41504 0.62611 0.26839 -0.06800
H 	H 	0.42340 0.64570 0.26000 0.07300
O 	O 	0.46645 0.61648 0.33710 -0.40500
O 	O 	0.46662 0.65431 0.29914 -0.39400
H 	H 	0.37660 0.64870 0.22720 0.11300
C 	C 	0.95596 0.12845 0.81170 0.35300
C 	C 	0.92952 0.11137 0.79513 -0.06000
C 	C 	0.91504 0.12611 0.76839 -0.06800
H 	H 	0.92340 0.14570 0.76000 0.07300
O 	O 	0.96645 0.11648 0.83710 -0.40300
O 	O 	0.96662 0.15431 0.79914 -0.39200
H 	H 	0.87660 0.14870 0.72720 0.11300
C 	C 	0.68830 0.54404 0.62845 0.35300
C 	C 	0.70487 0.57048 0.61137 -0.06100
C 	C 	0.73161 0.58496 0.62611 -0.06800
H 	H 	0.74000 0.57660 0.64570 0.07300
O 	O 	0.66290 0.53355 0.61648 -0.40500
O 	O 	0.70086 0.53338 0.65431 -0.39400
H 	H 	0.77280 0.62340 0.64870 0.11300
C 	C 	0.18830 0.04404 0.12845 0.35300
C 	C 	0.20487 0.07048 0.11137 -0.06200
C 	C 	0.23161 0.08496 0.12611 -0.06700
H 	H 	0.24000 0.07660 0.14570 0.07200
O 	O 	0.16290 0.03355 0.11648 -0.40700
O 	O 	0.20086 0.03338 0.15431 -0.39400
H 	H 	0.27280 0.12340 0.14870 0.11300
C 	C 	0.31170 0.54404 0.37155 0.35300
C 	C 	0.29513 0.57048 0.38863 -0.06100
C 	C 	0.26839 0.58496 0.37389 -0.06800
H 	H 	0.26000 0.57660 0.35430 0.07300
O 	O 	0.33710 0.53355 0.38352 -0.40500
O 	O 	0.29914 0.53338 0.34569 -0.39400
H 	H 	0.22720 0.62340 0.35130 0.11300
C 	C 	0.81170 0.04404 0.87155 0.35300
C 	C 	0.79513 0.07048 0.88863 -0.06100
C 	C 	0.76839 0.08496 0.87389 -0.06800
H 	H 	0.76000 0.07660 0.85430 0.07300
O 	O 	0.83710 0.03355 0.88352 -0.40600
O 	O 	0.79914 0.03338 0.84569 -0.39400
H 	H 	0.72720 0.12340 0.85130 0.11300
C 	C 	0.68830 0.45596 0.37155 0.35300
C 	C 	0.70487 0.42952 0.38863 -0.06100
C 	C 	0.73161 0.41504 0.37389 -0.06800
H 	H 	0.74000 0.42340 0.35430 0.07300
O 	O 	0.66290 0.46645 0.38352 -0.40500
O 	O 	0.70086 0.46662 0.34569 -0.39400
H 	H 	0.77280 0.37660 0.35130 0.11300
C 	C 	0.18830 0.95596 0.87155 0.35300
C 	C 	0.20487 0.92952 0.88863 -0.05900
C 	C 	0.23161 0.91504 0.87389 -0.06800
H 	H 	0.24000 0.92340 0.85430 0.07300
O 	O 	0.16290 0.96645 0.88352 -0.40300
O 	O 	0.20086 0.96662 0.84569 -0.39200
H 	H 	0.27280 0.87660 0.85130 0.11300
C 	C 	0.31170 0.45596 0.62845 0.35300
C 	C 	0.29513 0.42952 0.61137 -0.06100
C 	C 	0.26839 0.41504 0.62611 -0.06800
H 	H 	0.26000 0.42340 0.64570 0.07300
O 	O 	0.33710 0.46645 0.61648 -0.40500
O 	O 	0.29914 0.46662 0.65431 -0.39400
H 	H 	0.22720 0.37660 0.64870 0.11300
C 	C 	0.81170 0.95596 0.12845 0.35300
C 	C 	0.79513 0.92952 0.11137 -0.06000
C 	C 	0.76839 0.91504 0.12611 -0.06800
H 	H 	0.76000 0.92340 0.14570 0.07300
O 	O 	0.83710 0.96645 0.11648 -0.40300
O 	O 	0.79914 0.96662 0.15431 -0.39200
H 	H 	0.72720 0.87660 0.14870 0.11300
C 	C 	0.68830 0.62845 0.45596 0.35300
C 	C 	0.70487 0.61137 0.42952 -0.06100
C 	C 	0.73161 0.62611 0.41504 -0.06800
H 	H 	0.74000 0.64570 0.42340 0.07300
O 	O 	0.66290 0.61648 0.46645 -0.40500
O 	O 	0.70086 0.65431 0.46662 -0.39400
H 	H 	0.77280 0.64870 0.37660 0.11300
C 	C 	0.18830 0.12845 0.95596 0.35300
C 	C 	0.20487 0.11137 0.92952 -0.06000
C 	C 	0.23161 0.12611 0.91504 -0.06800
H 	H 	0.24000 0.14570 0.92340 0.07300
O 	O 	0.16290 0.11648 0.96645 -0.40400
O 	O 	0.20086 0.15431 0.96662 -0.39200
H 	H 	0.27280 0.14870 0.87660 0.11300
C 	C 	0.31170 0.37155 0.45596 0.35300
C 	C 	0.29513 0.38863 0.42952 -0.06100
C 	C 	0.26839 0.37389 0.41504 -0.06800
H 	H 	0.26000 0.35430 0.42340 0.07300
O 	O 	0.33710 0.38352 0.46645 -0.40500
O 	O 	0.29914 0.34569 0.46662 -0.39400
H 	H 	0.22720 0.35130 0.37660 0.11300
C 	C 	0.81170 0.87155 0.95596 0.35200
C 	C 	0.79513 0.88863 0.92952 -0.05900
C 	C 	0.76839 0.87389 0.91504 -0.06800
H 	H 	0.76000 0.85430 0.92340 0.07300
O 	O 	0.83710 0.88352 0.96645 -0.40300
O 	O 	0.79914 0.84569 0.96662 -0.39200
H 	H 	0.72720 0.85130 0.87660 0.11300
C 	C 	0.68830 0.37155 0.54404 0.35300
C 	C 	0.70487 0.38863 0.57048 -0.06100
C 	C 	0.73161 0.37389 0.58496 -0.06800
H 	H 	0.74000 0.35430 0.57660 0.07300
O 	O 	0.66290 0.38352 0.53355 -0.40500
O 	O 	0.70086 0.34569 0.53338 -0.39400
H 	H 	0.77280 0.35130 0.62340 0.11300
C 	C 	0.18830 0.87155 0.04404 0.35300
C 	C 	0.20487 0.88863 0.07048 -0.06100
C 	C 	0.23161 0.87389 0.08496 -0.06800
H 	H 	0.24000 0.85430 0.07660 0.07300
O 	O 	0.16290 0.88352 0.03355 -0.40600
O 	O 	0.20086 0.84569 0.03338 -0.39400
H 	H 	0.27280 0.85130 0.12340 0.11300
C 	C 	0.31170 0.62845 0.54404 0.35300
C 	C 	0.29513 0.61137 0.57048 -0.06100
C 	C 	0.26839 0.62611 0.58496 -0.06800
H 	H 	0.26000 0.64570 0.57660 0.07300
O 	O 	0.33710 0.61648 0.53355 -0.40500
O 	O 	0.29914 0.65431 0.53338 -0.39400
H 	H 	0.22720 0.64870 0.62340 0.11300
C 	C 	0.81170 0.12845 0.04404 0.35300
C 	C 	0.79513 0.11137 0.07048 -0.06200
C 	C 	0.76839 0.12611 0.08496 -0.06700
H 	H 	0.76000 0.14570 0.07660 0.07200
O 	O 	0.83710 0.11648 0.03355 -0.40600
O 	O 	0.79914 0.15431 0.03338 -0.39400
H 	H 	0.72720 0.14870 0.12340 0.11300
C 	C 	0.62845 0.54404 0.31170 0.35300
C 	C 	0.61137 0.57048 0.29513 -0.06100
C 	C 	0.62611 0.58496 0.26839 -0.06800
H 	H 	0.64570 0.57660 0.26000 0.07300
O 	O 	0.61648 0.53355 0.33710 -0.40500
O 	O 	0.65431 0.53338 0.29914 -0.39400
H 	H 	0.64870 0.62340 0.22720 0.11300
C 	C 	0.12845 0.04404 0.81170 0.35300
C 	C 	0.11137 0.07048 0.79513 -0.06200
C 	C 	0.12611 0.08496 0.76839 -0.06700
H 	H 	0.14570 0.07660 0.76000 0.07200
O 	O 	0.11648 0.03355 0.83710 -0.40600
O 	O 	0.15431 0.03338 0.79914 -0.39400
H 	H 	0.14870 0.12340 0.72720 0.11300
C 	C 	0.37155 0.54404 0.68830 0.35300
C 	C 	0.38863 0.57048 0.70487 -0.06100
C 	C 	0.37389 0.58496 0.73161 -0.06800
H 	H 	0.35430 0.57660 0.74000 0.07300
O 	O 	0.38352 0.53355 0.66290 -0.40500
O 	O 	0.34569 0.53338 0.70086 -0.39400
H 	H 	0.35130 0.62340 0.77280 0.11300
C 	C 	0.87155 0.04404 0.18830 0.35300
C 	C 	0.88863 0.07048 0.20487 -0.06100
C 	C 	0.87389 0.08496 0.23161 -0.06800
H 	H 	0.85430 0.07660 0.24000 0.07300
O 	O 	0.88352 0.03355 0.16290 -0.40600
O 	O 	0.84569 0.03338 0.20086 -0.39400
H 	H 	0.85130 0.12340 0.27280 0.11300
C 	C 	0.37155 0.45596 0.31170 0.35300
C 	C 	0.38863 0.42952 0.29513 -0.06100
C 	C 	0.37389 0.41504 0.26839 -0.06800
H 	H 	0.35430 0.42340 0.26000 0.07300
O 	O 	0.38352 0.46645 0.33710 -0.40500
O 	O 	0.34569 0.46662 0.29914 -0.39400
H 	H 	0.35130 0.37660 0.22720 0.11300
C 	C 	0.87155 0.95596 0.81170 0.35200
C 	C 	0.88863 0.92952 0.79513 -0.05900
C 	C 	0.87389 0.91504 0.76839 -0.06800
H 	H 	0.85430 0.92340 0.76000 0.07300
O 	O 	0.88352 0.96645 0.83710 -0.40300
O 	O 	0.84569 0.96662 0.79914 -0.39200
H 	H 	0.85130 0.87660 0.72720 0.11300
C 	C 	0.62845 0.45596 0.68830 0.35300
C 	C 	0.61137 0.42952 0.70487 -0.06100
C 	C 	0.62611 0.41504 0.73161 -0.06800
H 	H 	0.64570 0.42340 0.74000 0.07300
O 	O 	0.61648 0.46645 0.66290 -0.40500
O 	O 	0.65431 0.46662 0.70086 -0.39400
H 	H 	0.64870 0.37660 0.77280 0.11300
C 	C 	0.12845 0.95596 0.18830 0.35300
C 	C 	0.11137 0.92952 0.20487 -0.06000
C 	C 	0.12611 0.91504 0.23161 -0.06800
H 	H 	0.14570 0.92340 0.24000 0.07300
O 	O 	0.11648 0.96645 0.16290 -0.40400
O 	O 	0.15431 0.96662 0.20086 -0.39200
H 	H 	0.14870 0.87660 0.27280 0.11300
C 	C 	0.54404 0.68830 0.37155 0.35300
C 	C 	0.57048 0.70487 0.38863 -0.06100
C 	C 	0.58496 0.73161 0.37389 -0.06800
H 	H 	0.57660 0.74000 0.35430 0.07300
O 	O 	0.53355 0.66290 0.38352 -0.40500
O 	O 	0.53338 0.70086 0.34569 -0.39400
H 	H 	0.62340 0.77280 0.35130 0.11300
C 	C 	0.04404 0.18830 0.87155 0.35300
C 	C 	0.07048 0.20487 0.88863 -0.06100
C 	C 	0.08496 0.23161 0.87389 -0.06800
H 	H 	0.07660 0.24000 0.85430 0.07300
O 	O 	0.03355 0.16290 0.88352 -0.40600
O 	O 	0.03338 0.20086 0.84569 -0.39400
H 	H 	0.12340 0.27280 0.85130 0.11300
C 	C 	0.54404 0.31170 0.62845 0.35300
C 	C 	0.57048 0.29513 0.61137 -0.06100
C 	C 	0.58496 0.26839 0.62611 -0.06800
H 	H 	0.57660 0.26000 0.64570 0.07300
O 	O 	0.53355 0.33710 0.61648 -0.40500
O 	O 	0.53338 0.29914 0.65431 -0.39400
H 	H 	0.62340 0.22720 0.64870 0.11300
C 	C 	0.04404 0.81170 0.12845 0.35300
C 	C 	0.07048 0.79513 0.11137 -0.06200
C 	C 	0.08496 0.76839 0.12611 -0.06700
H 	H 	0.07660 0.76000 0.14570 0.07200
O 	O 	0.03355 0.83710 0.11648 -0.40600
O 	O 	0.03338 0.79914 0.15431 -0.39400
H 	H 	0.12340 0.72720 0.14870 0.11300
C 	C 	0.45596 0.68830 0.62845 0.35300
C 	C 	0.42952 0.70487 0.61137 -0.06100
C 	C 	0.41504 0.73161 0.62611 -0.06800
H 	H 	0.42340 0.74000 0.64570 0.07300
O 	O 	0.46645 0.66290 0.61648 -0.40500
O 	O 	0.46662 0.70086 0.65431 -0.39400
H 	H 	0.37660 0.77280 0.64870 0.11300
C 	C 	0.95596 0.18830 0.12845 0.35300
C 	C 	0.92952 0.20487 0.11137 -0.06000
C 	C 	0.91504 0.23161 0.12611 -0.06800
H 	H 	0.92340 0.24000 0.14570 0.07300
O 	O 	0.96645 0.16290 0.11648 -0.40400
O 	O 	0.96662 0.20086 0.15431 -0.39200
H 	H 	0.87660 0.27280 0.14870 0.11300
C 	C 	0.45596 0.31170 0.37155 0.35300
C 	C 	0.42952 0.29513 0.38863 -0.06100
C 	C 	0.41504 0.26839 0.37389 -0.06800
H 	H 	0.42340 0.26000 0.35430 0.07300
O 	O 	0.46645 0.33710 0.38352 -0.40500
O 	O 	0.46662 0.29914 0.34569 -0.39400
H 	H 	0.37660 0.22720 0.35130 0.11300
C 	C 	0.95596 0.81170 0.87155 0.35200
C 	C 	0.92952 0.79513 0.88863 -0.05900
C 	C 	0.91504 0.76839 0.87389 -0.06800
H 	H 	0.92340 0.76000 0.85430 0.07300
O 	O 	0.96645 0.83710 0.88352 -0.40300
O 	O 	0.96662 0.79914 0.84569 -0.39200
H 	H 	0.87660 0.72720 0.85130 0.11300
C 	C 	0.41618 0.30831 0.41618 0.01100
H 	H 	0.42600 0.32650 0.42600 0.05900
C 	C 	0.38837 0.25434 0.38837 0.09400
C 	C 	0.37982 0.19181 0.37982 0.20100
C 	C 	0.33747 0.18117 0.33747 -0.01100
H 	H 	0.33460 0.20370 0.33460 0.02500
C 	C 	0.35907 0.17012 0.35907 -0.06100
C 	C 	0.36343 0.13684 0.36343 0.02700
H 	H 	0.37870 0.12910 0.37870 0.04800
C 	C 	0.34511 0.11528 0.34511 -0.13400
H 	H 	0.34780 0.09270 0.34780 0.08800
C 	C 	0.32341 0.12682 0.32341 0.12600
C 	C 	0.31918 0.15951 0.31918 -0.05000
C 	C 	0.29692 0.17151 0.29692 0.02200
H 	H 	0.29410 0.19410 0.29410 0.02000
C 	C 	0.27866 0.14902 0.27866 -0.15400
H 	H 	0.26340 0.15660 0.26340 0.07900
C 	C 	0.28270 0.11690 0.28270 0.16300
C 	C 	0.30492 0.10488 0.30492 -0.19500
H 	H 	0.30760 0.08230 0.30760 0.14500
C 	C 	0.26748 0.05872 0.26748 0.19800
C 	C 	0.25342 0.02803 0.25342 -0.05700
C 	C 	0.22922 0.02846 0.22922 0.04400
H 	H 	0.22110 0.04820 0.22110 0.02000
N 	N 	0.37313 0.22490 0.37313 -0.26800
N 	N 	0.26240 0.09198 0.26240 -0.21900
H 	H 	0.24820 0.09870 0.24820 0.12000
O 	O 	0.39849 0.17831 0.39849 -0.20600
O 	O 	0.28871 0.05266 0.28871 -0.22700
C 	C 	0.91618 0.80831 0.91618 0.01000
H 	H 	0.92600 0.82650 0.92600 0.06000
C 	C 	0.88837 0.75434 0.88837 0.09400
C 	C 	0.87982 0.69181 0.87982 0.20100
C 	C 	0.83747 0.68117 0.83747 -0.01100
H 	H 	0.83460 0.70370 0.83460 0.02500
C 	C 	0.85907 0.67012 0.85907 -0.06100
C 	C 	0.86343 0.63684 0.86343 0.02700
H 	H 	0.87870 0.62910 0.87870 0.04900
C 	C 	0.84511 0.61528 0.84511 -0.13400
H 	H 	0.84780 0.59270 0.84780 0.08900
C 	C 	0.82341 0.62682 0.82341 0.12700
C 	C 	0.81918 0.65951 0.81918 -0.05000
C 	C 	0.79692 0.67151 0.79692 0.02200
H 	H 	0.79410 0.69410 0.79410 0.02000
C 	C 	0.77866 0.64902 0.77866 -0.15400
H 	H 	0.76340 0.65660 0.76340 0.07900
C 	C 	0.78270 0.61690 0.78270 0.16300
C 	C 	0.80492 0.60488 0.80492 -0.19500
H 	H 	0.80760 0.58230 0.80760 0.14600
C 	C 	0.76748 0.55872 0.76748 0.19900
C 	C 	0.75342 0.52803 0.75342 -0.05800
C 	C 	0.72922 0.52846 0.72922 0.04500
H 	H 	0.72110 0.54820 0.72110 0.01900
N 	N 	0.87313 0.72490 0.87313 -0.26800
N 	N 	0.76240 0.59198 0.76240 -0.21900
H 	H 	0.74820 0.59870 0.74820 0.12000
O 	O 	0.89849 0.67831 0.89849 -0.20400
O 	O 	0.78871 0.55266 0.78871 -0.22700
C 	C 	0.58382 0.69169 0.41618 0.01100
H 	H 	0.57400 0.67350 0.42600 0.05900
C 	C 	0.61163 0.74566 0.38837 0.09400
C 	C 	0.62018 0.80819 0.37982 0.20100
C 	C 	0.66253 0.81883 0.33747 -0.01100
H 	H 	0.66540 0.79630 0.33460 0.02500
C 	C 	0.64093 0.82988 0.35907 -0.06100
C 	C 	0.63657 0.86316 0.36343 0.02700
H 	H 	0.62130 0.87090 0.37870 0.04900
C 	C 	0.65489 0.88472 0.34511 -0.13400
H 	H 	0.65220 0.90730 0.34780 0.08900
C 	C 	0.67659 0.87318 0.32341 0.12700
C 	C 	0.68082 0.84049 0.31918 -0.05100
C 	C 	0.70308 0.82849 0.29692 0.02200
H 	H 	0.70590 0.80590 0.29410 0.01900
C 	C 	0.72134 0.85098 0.27866 -0.15400
H 	H 	0.73660 0.84340 0.26340 0.07900
C 	C 	0.71730 0.88310 0.28270 0.16300
C 	C 	0.69508 0.89512 0.30492 -0.19500
H 	H 	0.69240 0.91770 0.30760 0.14600
C 	C 	0.73252 0.94128 0.26748 0.19800
C 	C 	0.74658 0.97197 0.25342 -0.05300
C 	C 	0.77078 0.97154 0.22922 0.04800
H 	H 	0.77890 0.95180 0.22110 0.01900
N 	N 	0.62687 0.77510 0.37313 -0.26800
N 	N 	0.73760 0.90802 0.26240 -0.21800
H 	H 	0.75180 0.90130 0.24820 0.12000
O 	O 	0.60151 0.82169 0.39849 -0.20500
O 	O 	0.71129 0.94734 0.28871 -0.22500
C 	C 	0.08382 0.19169 0.91618 0.01100
H 	H 	0.07400 0.17350 0.92600 0.05900
C 	C 	0.11163 0.24566 0.88837 0.09400
C 	C 	0.12018 0.30819 0.87982 0.20100
C 	C 	0.16253 0.31883 0.83747 -0.01100
H 	H 	0.16540 0.29630 0.83460 0.02500
C 	C 	0.14093 0.32988 0.85907 -0.06100
C 	C 	0.13657 0.36316 0.86343 0.02700
H 	H 	0.12130 0.37090 0.87870 0.04800
C 	C 	0.15489 0.38472 0.84511 -0.13400
H 	H 	0.15220 0.40730 0.84780 0.08900
C 	C 	0.17659 0.37318 0.82341 0.12700
C 	C 	0.18082 0.34049 0.81918 -0.05000
C 	C 	0.20308 0.32849 0.79692 0.02200
H 	H 	0.20590 0.30590 0.79410 0.02000
C 	C 	0.22134 0.35098 0.77866 -0.15400
H 	H 	0.23660 0.34340 0.76340 0.07900
C 	C 	0.21730 0.38310 0.78270 0.16300
C 	C 	0.19508 0.39512 0.80492 -0.19500
H 	H 	0.19240 0.41770 0.80760 0.14600
C 	C 	0.23252 0.44128 0.76748 0.19900
C 	C 	0.24658 0.47197 0.75342 -0.05900
C 	C 	0.27078 0.47154 0.72922 0.04500
H 	H 	0.27890 0.45180 0.72110 0.01900
N 	N 	0.12687 0.27510 0.87313 -0.26800
N 	N 	0.23760 0.40802 0.76240 -0.21900
H 	H 	0.25180 0.40130 0.74820 0.12000
O 	O 	0.10151 0.32169 0.89849 -0.20500
O 	O 	0.21129 0.44734 0.78871 -0.22700
C 	C 	0.58382 0.30831 0.58382 0.01100
H 	H 	0.57400 0.32650 0.57400 0.05900
C 	C 	0.61163 0.25434 0.61163 0.09400
C 	C 	0.62018 0.19181 0.62018 0.20100
C 	C 	0.66253 0.18117 0.66253 -0.01100
H 	H 	0.66540 0.20370 0.66540 0.02500
C 	C 	0.64093 0.17012 0.64093 -0.06100
C 	C 	0.63657 0.13684 0.63657 0.02700
H 	H 	0.62130 0.12910 0.62130 0.04800
C 	C 	0.65489 0.11528 0.65489 -0.13400
H 	H 	0.65220 0.09270 0.65220 0.08800
C 	C 	0.67659 0.12682 0.67659 0.12600
C 	C 	0.68082 0.15951 0.68082 -0.05000
C 	C 	0.70308 0.17151 0.70308 0.02200
H 	H 	0.70590 0.19410 0.70590 0.02000
C 	C 	0.72134 0.14902 0.72134 -0.15400
H 	H 	0.73660 0.15660 0.73660 0.07900
C 	C 	0.71730 0.11690 0.71730 0.16300
C 	C 	0.69508 0.10488 0.69508 -0.19500
H 	H 	0.69240 0.08230 0.69240 0.14500
C 	C 	0.73252 0.05872 0.73252 0.19800
C 	C 	0.74658 0.02803 0.74658 -0.05700
C 	C 	0.77078 0.02846 0.77078 0.04400
H 	H 	0.77890 0.04820 0.77890 0.02000
N 	N 	0.62687 0.22490 0.62687 -0.26800
N 	N 	0.73760 0.09198 0.73760 -0.21900
H 	H 	0.75180 0.09870 0.75180 0.11900
O 	O 	0.60151 0.17831 0.60151 -0.20600
O 	O 	0.71129 0.05266 0.71129 -0.22700
C 	C 	0.08382 0.80831 0.08382 0.01100
H 	H 	0.07400 0.82650 0.07400 0.05800
C 	C 	0.11163 0.75434 0.11163 0.09300
C 	C 	0.12018 0.69181 0.12018 0.20100
C 	C 	0.16253 0.68117 0.16253 -0.01100
H 	H 	0.16540 0.70370 0.16540 0.02500
C 	C 	0.14093 0.67012 0.14093 -0.06100
C 	C 	0.13657 0.63684 0.13657 0.02700
H 	H 	0.12130 0.62910 0.12130 0.04800
C 	C 	0.15489 0.61528 0.15489 -0.13500
H 	H 	0.15220 0.59270 0.15220 0.08800
C 	C 	0.17659 0.62682 0.17659 0.12700
C 	C 	0.18082 0.65951 0.18082 -0.05100
C 	C 	0.20308 0.67151 0.20308 0.02200
H 	H 	0.20590 0.69410 0.20590 0.02000
C 	C 	0.22134 0.64902 0.22134 -0.15400
H 	H 	0.23660 0.65660 0.23660 0.07900
C 	C 	0.21730 0.61690 0.21730 0.16300
C 	C 	0.19508 0.60488 0.19508 -0.19500
H 	H 	0.19240 0.58230 0.19240 0.14500
C 	C 	0.23252 0.55872 0.23252 0.19900
C 	C 	0.24658 0.52803 0.24658 -0.05900
C 	C 	0.27078 0.52846 0.27078 0.04500
H 	H 	0.27890 0.54820 0.27890 0.01900
N 	N 	0.12687 0.72490 0.12687 -0.26800
N 	N 	0.23760 0.59198 0.23760 -0.21900
H 	H 	0.25180 0.59870 0.25180 0.12000
O 	O 	0.10151 0.67831 0.10151 -0.20700
O 	O 	0.21129 0.55266 0.21129 -0.22700
C 	C 	0.41618 0.69169 0.58382 0.01100
H 	H 	0.42600 0.67350 0.57400 0.05900
C 	C 	0.38837 0.74566 0.61163 0.09400
C 	C 	0.37982 0.80819 0.62018 0.20100
C 	C 	0.33747 0.81883 0.66253 -0.01100
H 	H 	0.33460 0.79630 0.66540 0.02500
C 	C 	0.35907 0.82988 0.64093 -0.06100
C 	C 	0.36343 0.86316 0.63657 0.02700
H 	H 	0.37870 0.87090 0.62130 0.04900
C 	C 	0.34511 0.88472 0.65489 -0.13400
H 	H 	0.34780 0.90730 0.65220 0.08900
C 	C 	0.32341 0.87318 0.67659 0.12700
C 	C 	0.31918 0.84049 0.68082 -0.05100
C 	C 	0.29692 0.82849 0.70308 0.02200
H 	H 	0.29410 0.80590 0.70590 0.01900
C 	C 	0.27866 0.85098 0.72134 -0.15400
H 	H 	0.26340 0.84340 0.73660 0.07900
C 	C 	0.28270 0.88310 0.71730 0.16300
C 	C 	0.30492 0.89512 0.69508 -0.19500
H 	H 	0.30760 0.91770 0.69240 0.14600
C 	C 	0.26748 0.94128 0.73252 0.19800
C 	C 	0.25342 0.97197 0.74658 -0.05300
C 	C 	0.22922 0.97154 0.77078 0.04800
H 	H 	0.22110 0.95180 0.77890 0.01900
N 	N 	0.37313 0.77510 0.62687 -0.26800
N 	N 	0.26240 0.90802 0.73760 -0.21800
H 	H 	0.24820 0.90130 0.75180 0.12000
O 	O 	0.39849 0.82169 0.60151 -0.20500
O 	O 	0.28871 0.94734 0.71129 -0.22500
C 	C 	0.91618 0.19169 0.08382 0.01100
H 	H 	0.92600 0.17350 0.07400 0.05900
C 	C 	0.88837 0.24566 0.11163 0.09400
C 	C 	0.87982 0.30819 0.12018 0.20100
C 	C 	0.83747 0.31883 0.16253 -0.01100
H 	H 	0.83460 0.29630 0.16540 0.02500
C 	C 	0.85907 0.32988 0.14093 -0.06100
C 	C 	0.86343 0.36316 0.13657 0.02700
H 	H 	0.87870 0.37090 0.12130 0.04800
C 	C 	0.84511 0.38472 0.15489 -0.13400
H 	H 	0.84780 0.40730 0.15220 0.08900
C 	C 	0.82341 0.37318 0.17659 0.12700
C 	C 	0.81918 0.34049 0.18082 -0.05000
C 	C 	0.79692 0.32849 0.20308 0.02200
H 	H 	0.79410 0.30590 0.20590 0.02000
C 	C 	0.77866 0.35098 0.22134 -0.15400
H 	H 	0.76340 0.34340 0.23660 0.07900
C 	C 	0.78270 0.38310 0.21730 0.16300
C 	C 	0.80492 0.39512 0.19508 -0.19500
H 	H 	0.80760 0.41770 0.19240 0.14600
C 	C 	0.76748 0.44128 0.23252 0.19900
C 	C 	0.75342 0.47197 0.24658 -0.05900
C 	C 	0.72922 0.47154 0.27078 0.04500
H 	H 	0.72110 0.45180 0.27890 0.01900
N 	N 	0.87313 0.27510 0.12687 -0.26800
N 	N 	0.76240 0.40802 0.23760 -0.21900
H 	H 	0.74820 0.40130 0.25180 0.12000
O 	O 	0.89849 0.32169 0.10151 -0.20500
O 	O 	0.78871 0.44734 0.21129 -0.22700
C 	C 	0.41618 0.41618 0.30831 0.01100
H 	H 	0.42600 0.42600 0.32650 0.05900
C 	C 	0.38837 0.38837 0.25434 0.09400
C 	C 	0.37982 0.37982 0.19181 0.20100
C 	C 	0.33747 0.33747 0.18117 -0.01100
H 	H 	0.33460 0.33460 0.20370 0.02500
C 	C 	0.35907 0.35907 0.17012 -0.06100
C 	C 	0.36343 0.36343 0.13684 0.02700
H 	H 	0.37870 0.37870 0.12910 0.04800
C 	C 	0.34511 0.34511 0.11528 -0.13400
H 	H 	0.34780 0.34780 0.09270 0.08800
C 	C 	0.32341 0.32341 0.12682 0.12600
C 	C 	0.31918 0.31918 0.15951 -0.05000
C 	C 	0.29692 0.29692 0.17151 0.02200
H 	H 	0.29410 0.29410 0.19410 0.02000
C 	C 	0.27866 0.27866 0.14902 -0.15400
H 	H 	0.26340 0.26340 0.15660 0.07900
C 	C 	0.28270 0.28270 0.11690 0.16300
C 	C 	0.30492 0.30492 0.10488 -0.19500
H 	H 	0.30760 0.30760 0.08230 0.14500
C 	C 	0.26748 0.26748 0.05872 0.19800
C 	C 	0.25342 0.25342 0.02803 -0.05700
C 	C 	0.22922 0.22922 0.02846 0.04400
H 	H 	0.22110 0.22110 0.04820 0.02000
N 	N 	0.37313 0.37313 0.22490 -0.26800
N 	N 	0.26240 0.26240 0.09198 -0.21900
H 	H 	0.24820 0.24820 0.09870 0.12000
O 	O 	0.39849 0.39849 0.17831 -0.20600
O 	O 	0.28871 0.28871 0.05266 -0.22700
C 	C 	0.91618 0.91618 0.80831 0.01000
H 	H 	0.92600 0.92600 0.82650 0.06000
C 	C 	0.88837 0.88837 0.75434 0.09400
C 	C 	0.87982 0.87982 0.69181 0.20100
C 	C 	0.83747 0.83747 0.68117 -0.01100
H 	H 	0.83460 0.83460 0.70370 0.02500
C 	C 	0.85907 0.85907 0.67012 -0.06100
C 	C 	0.86343 0.86343 0.63684 0.02700
H 	H 	0.87870 0.87870 0.62910 0.04900
C 	C 	0.84511 0.84511 0.61528 -0.13400
H 	H 	0.84780 0.84780 0.59270 0.08900
C 	C 	0.82341 0.82341 0.62682 0.12700
C 	C 	0.81918 0.81918 0.65951 -0.05000
C 	C 	0.79692 0.79692 0.67151 0.02200
H 	H 	0.79410 0.79410 0.69410 0.02000
C 	C 	0.77866 0.77866 0.64902 -0.15400
H 	H 	0.76340 0.76340 0.65660 0.07900
C 	C 	0.78270 0.78270 0.61690 0.16300
C 	C 	0.80492 0.80492 0.60488 -0.19500
H 	H 	0.80760 0.80760 0.58230 0.14600
C 	C 	0.76748 0.76748 0.55872 0.19900
C 	C 	0.75342 0.75342 0.52803 -0.05800
C 	C 	0.72922 0.72922 0.52846 0.04500
H 	H 	0.72110 0.72110 0.54820 0.01900
N 	N 	0.87313 0.87313 0.72490 -0.26800
N 	N 	0.76240 0.76240 0.59198 -0.21900
H 	H 	0.74820 0.74820 0.59870 0.12000
O 	O 	0.89849 0.89849 0.67831 -0.20400
O 	O 	0.78871 0.78871 0.55266 -0.22700
C 	C 	0.41618 0.58382 0.69169 0.01100
H 	H 	0.42600 0.57400 0.67350 0.05900
C 	C 	0.38837 0.61163 0.74566 0.09400
C 	C 	0.37982 0.62018 0.80819 0.20100
C 	C 	0.33747 0.66253 0.81883 -0.01100
H 	H 	0.33460 0.66540 0.79630 0.02500
C 	C 	0.35907 0.64093 0.82988 -0.06100
C 	C 	0.36343 0.63657 0.86316 0.02700
H 	H 	0.37870 0.62130 0.87090 0.04900
C 	C 	0.34511 0.65489 0.88472 -0.13400
H 	H 	0.34780 0.65220 0.90730 0.08900
C 	C 	0.32341 0.67659 0.87318 0.12700
C 	C 	0.31918 0.68082 0.84049 -0.05100
C 	C 	0.29692 0.70308 0.82849 0.02200
H 	H 	0.29410 0.70590 0.80590 0.01900
C 	C 	0.27866 0.72134 0.85098 -0.15400
H 	H 	0.26340 0.73660 0.84340 0.07900
C 	C 	0.28270 0.71730 0.88310 0.16300
C 	C 	0.30492 0.69508 0.89512 -0.19500
H 	H 	0.30760 0.69240 0.91770 0.14600
C 	C 	0.26748 0.73252 0.94128 0.19800
C 	C 	0.25342 0.74658 0.97197 -0.05300
C 	C 	0.22922 0.77078 0.97154 0.04800
H 	H 	0.22110 0.77890 0.95180 0.01900
N 	N 	0.37313 0.62687 0.77510 -0.26800
N 	N 	0.26240 0.73760 0.90802 -0.21800
H 	H 	0.24820 0.75180 0.90130 0.12000
O 	O 	0.39849 0.60151 0.82169 -0.20500
O 	O 	0.28871 0.71129 0.94734 -0.22500
C 	C 	0.91618 0.08382 0.19169 0.01100
H 	H 	0.92600 0.07400 0.17350 0.05900
C 	C 	0.88837 0.11163 0.24566 0.09400
C 	C 	0.87982 0.12018 0.30819 0.20100
C 	C 	0.83747 0.16253 0.31883 -0.01100
H 	H 	0.83460 0.16540 0.29630 0.02500
C 	C 	0.85907 0.14093 0.32988 -0.06100
C 	C 	0.86343 0.13657 0.36316 0.02700
H 	H 	0.87870 0.12130 0.37090 0.04800
C 	C 	0.84511 0.15489 0.38472 -0.13400
H 	H 	0.84780 0.15220 0.40730 0.08900
C 	C 	0.82341 0.17659 0.37318 0.12700
C 	C 	0.81918 0.18082 0.34049 -0.05000
C 	C 	0.79692 0.20308 0.32849 0.02200
H 	H 	0.79410 0.20590 0.30590 0.02000
C 	C 	0.77866 0.22134 0.35098 -0.15400
H 	H 	0.76340 0.23660 0.34340 0.07900
C 	C 	0.78270 0.21730 0.38310 0.16300
C 	C 	0.80492 0.19508 0.39512 -0.19500
H 	H 	0.80760 0.19240 0.41770 0.14600
C 	C 	0.76748 0.23252 0.44128 0.19900
C 	C 	0.75342 0.24658 0.47197 -0.05900
C 	C 	0.72922 0.27078 0.47154 0.04500
H 	H 	0.72110 0.27890 0.45180 0.01900
N 	N 	0.87313 0.12687 0.27510 -0.26800
N 	N 	0.76240 0.23760 0.40802 -0.21900
H 	H 	0.74820 0.25180 0.40130 0.12000
O 	O 	0.89849 0.10151 0.32169 -0.20500
O 	O 	0.78871 0.21129 0.44734 -0.22700
C 	C 	0.58382 0.58382 0.30831 0.01100
H 	H 	0.57400 0.57400 0.32650 0.05900
C 	C 	0.61163 0.61163 0.25434 0.09400
C 	C 	0.62018 0.62018 0.19181 0.20100
C 	C 	0.66253 0.66253 0.18117 -0.01100
H 	H 	0.66540 0.66540 0.20370 0.02500
C 	C 	0.64093 0.64093 0.17012 -0.06100
C 	C 	0.63657 0.63657 0.13684 0.02700
H 	H 	0.62130 0.62130 0.12910 0.04800
C 	C 	0.65489 0.65489 0.11528 -0.13400
H 	H 	0.65220 0.65220 0.09270 0.08800
C 	C 	0.67659 0.67659 0.12682 0.12600
C 	C 	0.68082 0.68082 0.15951 -0.05000
C 	C 	0.70308 0.70308 0.17151 0.02200
H 	H 	0.70590 0.70590 0.19410 0.02000
C 	C 	0.72134 0.72134 0.14902 -0.15400
H 	H 	0.73660 0.73660 0.15660 0.07900
C 	C 	0.71730 0.71730 0.11690 0.16300
C 	C 	0.69508 0.69508 0.10488 -0.19500
H 	H 	0.69240 0.69240 0.08230 0.14500
C 	C 	0.73252 0.73252 0.05872 0.19800
C 	C 	0.74658 0.74658 0.02803 -0.05700
C 	C 	0.77078 0.77078 0.02846 0.04400
H 	H 	0.77890 0.77890 0.04820 0.02000
N 	N 	0.62687 0.62687 0.22490 -0.26800
N 	N 	0.73760 0.73760 0.09198 -0.21900
H 	H 	0.75180 0.75180 0.09870 0.11900
O 	O 	0.60151 0.60151 0.17831 -0.20600
O 	O 	0.71129 0.71129 0.05266 -0.22700
C 	C 	0.08382 0.08382 0.80831 0.01100
H 	H 	0.07400 0.07400 0.82650 0.05800
C 	C 	0.11163 0.11163 0.75434 0.09300
C 	C 	0.12018 0.12018 0.69181 0.20100
C 	C 	0.16253 0.16253 0.68117 -0.01100
H 	H 	0.16540 0.16540 0.70370 0.02500
C 	C 	0.14093 0.14093 0.67012 -0.06100
C 	C 	0.13657 0.13657 0.63684 0.02700
H 	H 	0.12130 0.12130 0.62910 0.04800
C 	C 	0.15489 0.15489 0.61528 -0.13500
H 	H 	0.15220 0.15220 0.59270 0.08800
C 	C 	0.17659 0.17659 0.62682 0.12700
C 	C 	0.18082 0.18082 0.65951 -0.05100
C 	C 	0.20308 0.20308 0.67151 0.02200
H 	H 	0.20590 0.20590 0.69410 0.02000
C 	C 	0.22134 0.22134 0.64902 -0.15400
H 	H 	0.23660 0.23660 0.65660 0.07900
C 	C 	0.21730 0.21730 0.61690 0.16300
C 	C 	0.19508 0.19508 0.60488 -0.19500
H 	H 	0.19240 0.19240 0.58230 0.14500
C 	C 	0.23252 0.23252 0.55872 0.19900
C 	C 	0.24658 0.24658 0.52803 -0.05900
C 	C 	0.27078 0.27078 0.52846 0.04500
H 	H 	0.27890 0.27890 0.54820 0.01900
N 	N 	0.12687 0.12687 0.72490 -0.26800
N 	N 	0.23760 0.23760 0.59198 -0.21900
H 	H 	0.25180 0.25180 0.59870 0.12000
O 	O 	0.10151 0.10151 0.67831 -0.20700
O 	O 	0.21129 0.21129 0.55266 -0.22700
C 	C 	0.58382 0.41618 0.69169 0.01100
H 	H 	0.57400 0.42600 0.67350 0.05900
C 	C 	0.61163 0.38837 0.74566 0.09400
C 	C 	0.62018 0.37982 0.80819 0.20100
C 	C 	0.66253 0.33747 0.81883 -0.01100
H 	H 	0.66540 0.33460 0.79630 0.02500
C 	C 	0.64093 0.35907 0.82988 -0.06100
C 	C 	0.63657 0.36343 0.86316 0.02700
H 	H 	0.62130 0.37870 0.87090 0.04900
C 	C 	0.65489 0.34511 0.88472 -0.13400
H 	H 	0.65220 0.34780 0.90730 0.08900
C 	C 	0.67659 0.32341 0.87318 0.12700
C 	C 	0.68082 0.31918 0.84049 -0.05100
C 	C 	0.70308 0.29692 0.82849 0.02200
H 	H 	0.70590 0.29410 0.80590 0.01900
C 	C 	0.72134 0.27866 0.85098 -0.15400
H 	H 	0.73660 0.26340 0.84340 0.07900
C 	C 	0.71730 0.28270 0.88310 0.16300
C 	C 	0.69508 0.30492 0.89512 -0.19500
H 	H 	0.69240 0.30760 0.91770 0.14600
C 	C 	0.73252 0.26748 0.94128 0.19800
C 	C 	0.74658 0.25342 0.97197 -0.05300
C 	C 	0.77078 0.22922 0.97154 0.04800
H 	H 	0.77890 0.22110 0.95180 0.01900
N 	N 	0.62687 0.37313 0.77510 -0.26800
N 	N 	0.73760 0.26240 0.90802 -0.21800
H 	H 	0.75180 0.24820 0.90130 0.12000
O 	O 	0.60151 0.39849 0.82169 -0.20500
O 	O 	0.71129 0.28871 0.94734 -0.22500
C 	C 	0.08382 0.91618 0.19169 0.01100
H 	H 	0.07400 0.92600 0.17350 0.05900
C 	C 	0.11163 0.88837 0.24566 0.09400
C 	C 	0.12018 0.87982 0.30819 0.20100
C 	C 	0.16253 0.83747 0.31883 -0.01100
H 	H 	0.16540 0.83460 0.29630 0.02500
C 	C 	0.14093 0.85907 0.32988 -0.06100
C 	C 	0.13657 0.86343 0.36316 0.02700
H 	H 	0.12130 0.87870 0.37090 0.04800
C 	C 	0.15489 0.84511 0.38472 -0.13400
H 	H 	0.15220 0.84780 0.40730 0.08900
C 	C 	0.17659 0.82341 0.37318 0.12700
C 	C 	0.18082 0.81918 0.34049 -0.05000
C 	C 	0.20308 0.79692 0.32849 0.02200
H 	H 	0.20590 0.79410 0.30590 0.02000
C 	C 	0.22134 0.77866 0.35098 -0.15400
H 	H 	0.23660 0.76340 0.34340 0.07900
C 	C 	0.21730 0.78270 0.38310 0.16300
C 	C 	0.19508 0.80492 0.39512 -0.19500
H 	H 	0.19240 0.80760 0.41770 0.14600
C 	C 	0.23252 0.76748 0.44128 0.19900
C 	C 	0.24658 0.75342 0.47197 -0.05900
C 	C 	0.27078 0.72922 0.47154 0.04500
H 	H 	0.27890 0.72110 0.45180 0.01900
N 	N 	0.12687 0.87313 0.27510 -0.26800
N 	N 	0.23760 0.76240 0.40802 -0.21900
H 	H 	0.25180 0.74820 0.40130 0.12000
O 	O 	0.10151 0.89849 0.32169 -0.20500
O 	O 	0.21129 0.78871 0.44734 -0.22700
C 	C 	0.30831 0.41618 0.41618 0.01100
H 	H 	0.32650 0.42600 0.42600 0.05900
C 	C 	0.25434 0.38837 0.38837 0.09400
C 	C 	0.19181 0.37982 0.37982 0.20100
C 	C 	0.18117 0.33747 0.33747 -0.01100
H 	H 	0.20370 0.33460 0.33460 0.02500
C 	C 	0.17012 0.35907 0.35907 -0.06100
C 	C 	0.13684 0.36343 0.36343 0.02700
H 	H 	0.12910 0.37870 0.37870 0.04800
C 	C 	0.11528 0.34511 0.34511 -0.13400
H 	H 	0.09270 0.34780 0.34780 0.08800
C 	C 	0.12682 0.32341 0.32341 0.12600
C 	C 	0.15951 0.31918 0.31918 -0.05000
C 	C 	0.17151 0.29692 0.29692 0.02200
H 	H 	0.19410 0.29410 0.29410 0.02000
C 	C 	0.14902 0.27866 0.27866 -0.15400
H 	H 	0.15660 0.26340 0.26340 0.07900
C 	C 	0.11690 0.28270 0.28270 0.16300
C 	C 	0.10488 0.30492 0.30492 -0.19500
H 	H 	0.08230 0.30760 0.30760 0.14500
C 	C 	0.05872 0.26748 0.26748 0.19800
C 	C 	0.02803 0.25342 0.25342 -0.05700
C 	C 	0.02846 0.22922 0.22922 0.04400
H 	H 	0.04820 0.22110 0.22110 0.02000
N 	N 	0.22490 0.37313 0.37313 -0.26800
N 	N 	0.09198 0.26240 0.26240 -0.21900
H 	H 	0.09870 0.24820 0.24820 0.12000
O 	O 	0.17831 0.39849 0.39849 -0.20600
O 	O 	0.05266 0.28871 0.28871 -0.22700
C 	C 	0.80831 0.91618 0.91618 0.01000
H 	H 	0.82650 0.92600 0.92600 0.06000
C 	C 	0.75434 0.88837 0.88837 0.09400
C 	C 	0.69181 0.87982 0.87982 0.20100
C 	C 	0.68117 0.83747 0.83747 -0.01100
H 	H 	0.70370 0.83460 0.83460 0.02500
C 	C 	0.67012 0.85907 0.85907 -0.06100
C 	C 	0.63684 0.86343 0.86343 0.02700
H 	H 	0.62910 0.87870 0.87870 0.04900
C 	C 	0.61528 0.84511 0.84511 -0.13400
H 	H 	0.59270 0.84780 0.84780 0.08900
C 	C 	0.62682 0.82341 0.82341 0.12700
C 	C 	0.65951 0.81918 0.81918 -0.05000
C 	C 	0.67151 0.79692 0.79692 0.02200
H 	H 	0.69410 0.79410 0.79410 0.02000
C 	C 	0.64902 0.77866 0.77866 -0.15400
H 	H 	0.65660 0.76340 0.76340 0.07900
C 	C 	0.61690 0.78270 0.78270 0.16300
C 	C 	0.60488 0.80492 0.80492 -0.19500
H 	H 	0.58230 0.80760 0.80760 0.14600
C 	C 	0.55872 0.76748 0.76748 0.19900
C 	C 	0.52803 0.75342 0.75342 -0.05800
C 	C 	0.52846 0.72922 0.72922 0.04500
H 	H 	0.54820 0.72110 0.72110 0.01900
N 	N 	0.72490 0.87313 0.87313 -0.26800
N 	N 	0.59198 0.76240 0.76240 -0.21900
H 	H 	0.59870 0.74820 0.74820 0.12000
O 	O 	0.67831 0.89849 0.89849 -0.20400
O 	O 	0.55266 0.78871 0.78871 -0.22700
C 	C 	0.69169 0.41618 0.58382 0.01100
H 	H 	0.67350 0.42600 0.57400 0.05900
C 	C 	0.74566 0.38837 0.61163 0.09400
C 	C 	0.80819 0.37982 0.62018 0.20100
C 	C 	0.81883 0.33747 0.66253 -0.01100
H 	H 	0.79630 0.33460 0.66540 0.02500
C 	C 	0.82988 0.35907 0.64093 -0.06100
C 	C 	0.86316 0.36343 0.63657 0.02700
H 	H 	0.87090 0.37870 0.62130 0.04900
C 	C 	0.88472 0.34511 0.65489 -0.13400
H 	H 	0.90730 0.34780 0.65220 0.08900
C 	C 	0.87318 0.32341 0.67659 0.12700
C 	C 	0.84049 0.31918 0.68082 -0.05100
C 	C 	0.82849 0.29692 0.70308 0.02200
H 	H 	0.80590 0.29410 0.70590 0.01900
C 	C 	0.85098 0.27866 0.72134 -0.15400
H 	H 	0.84340 0.26340 0.73660 0.07900
C 	C 	0.88310 0.28270 0.71730 0.16300
C 	C 	0.89512 0.30492 0.69508 -0.19500
H 	H 	0.91770 0.30760 0.69240 0.14600
C 	C 	0.94128 0.26748 0.73252 0.19800
C 	C 	0.97197 0.25342 0.74658 -0.05300
C 	C 	0.97154 0.22922 0.77078 0.04800
H 	H 	0.95180 0.22110 0.77890 0.01900
N 	N 	0.77510 0.37313 0.62687 -0.26800
N 	N 	0.90802 0.26240 0.73760 -0.21800
H 	H 	0.90130 0.24820 0.75180 0.12000
O 	O 	0.82169 0.39849 0.60151 -0.20500
O 	O 	0.94734 0.28871 0.71129 -0.22500
C 	C 	0.19169 0.91618 0.08382 0.01100
H 	H 	0.17350 0.92600 0.07400 0.05900
C 	C 	0.24566 0.88837 0.11163 0.09400
C 	C 	0.30819 0.87982 0.12018 0.20100
C 	C 	0.31883 0.83747 0.16253 -0.01100
H 	H 	0.29630 0.83460 0.16540 0.02500
C 	C 	0.32988 0.85907 0.14093 -0.06100
C 	C 	0.36316 0.86343 0.13657 0.02700
H 	H 	0.37090 0.87870 0.12130 0.04800
C 	C 	0.38472 0.84511 0.15489 -0.13400
H 	H 	0.40730 0.84780 0.15220 0.08900
C 	C 	0.37318 0.82341 0.17659 0.12700
C 	C 	0.34049 0.81918 0.18082 -0.05000
C 	C 	0.32849 0.79692 0.20308 0.02200
H 	H 	0.30590 0.79410 0.20590 0.02000
C 	C 	0.35098 0.77866 0.22134 -0.15400
H 	H 	0.34340 0.76340 0.23660 0.07900
C 	C 	0.38310 0.78270 0.21730 0.16300
C 	C 	0.39512 0.80492 0.19508 -0.19500
H 	H 	0.41770 0.80760 0.19240 0.14600
C 	C 	0.44128 0.76748 0.23252 0.19900
C 	C 	0.47197 0.75342 0.24658 -0.05900
C 	C 	0.47154 0.72922 0.27078 0.04500
H 	H 	0.45180 0.72110 0.27890 0.01900
N 	N 	0.27510 0.87313 0.12687 -0.26800
N 	N 	0.40802 0.76240 0.23760 -0.21900
H 	H 	0.40130 0.74820 0.25180 0.12000
O 	O 	0.32169 0.89849 0.10151 -0.20500
O 	O 	0.44734 0.78871 0.21129 -0.22700
C 	C 	0.30831 0.58382 0.58382 0.01100
H 	H 	0.32650 0.57400 0.57400 0.05900
C 	C 	0.25434 0.61163 0.61163 0.09400
C 	C 	0.19181 0.62018 0.62018 0.20100
C 	C 	0.18117 0.66253 0.66253 -0.01100
H 	H 	0.20370 0.66540 0.66540 0.02500
C 	C 	0.17012 0.64093 0.64093 -0.06100
C 	C 	0.13684 0.63657 0.63657 0.02700
H 	H 	0.12910 0.62130 0.62130 0.04800
C 	C 	0.11528 0.65489 0.65489 -0.13400
H 	H 	0.09270 0.65220 0.65220 0.08800
C 	C 	0.12682 0.67659 0.67659 0.12600
C 	C 	0.15951 0.68082 0.68082 -0.05000
C 	C 	0.17151 0.70308 0.70308 0.02200
H 	H 	0.19410 0.70590 0.70590 0.02000
C 	C 	0.14902 0.72134 0.72134 -0.15400
H 	H 	0.15660 0.73660 0.73660 0.07900
C 	C 	0.11690 0.71730 0.71730 0.16300
C 	C 	0.10488 0.69508 0.69508 -0.19500
H 	H 	0.08230 0.69240 0.69240 0.14500
C 	C 	0.05872 0.73252 0.73252 0.19800
C 	C 	0.02803 0.74658 0.74658 -0.05700
C 	C 	0.02846 0.77078 0.77078 0.04400
H 	H 	0.04820 0.77890 0.77890 0.02000
N 	N 	0.22490 0.62687 0.62687 -0.26800
N 	N 	0.09198 0.73760 0.73760 -0.21900
H 	H 	0.09870 0.75180 0.75180 0.11900
O 	O 	0.17831 0.60151 0.60151 -0.20600
O 	O 	0.05266 0.71129 0.71129 -0.22700
C 	C 	0.80831 0.08382 0.08382 0.01100
H 	H 	0.82650 0.07400 0.07400 0.05800
C 	C 	0.75434 0.11163 0.11163 0.09300
C 	C 	0.69181 0.12018 0.12018 0.20100
C 	C 	0.68117 0.16253 0.16253 -0.01100
H 	H 	0.70370 0.16540 0.16540 0.02500
C 	C 	0.67012 0.14093 0.14093 -0.06100
C 	C 	0.63684 0.13657 0.13657 0.02700
H 	H 	0.62910 0.12130 0.12130 0.04800
C 	C 	0.61528 0.15489 0.15489 -0.13500
H 	H 	0.59270 0.15220 0.15220 0.08800
C 	C 	0.62682 0.17659 0.17659 0.12700
C 	C 	0.65951 0.18082 0.18082 -0.05100
C 	C 	0.67151 0.20308 0.20308 0.02200
H 	H 	0.69410 0.20590 0.20590 0.02000
C 	C 	0.64902 0.22134 0.22134 -0.15400
H 	H 	0.65660 0.23660 0.23660 0.07900
C 	C 	0.61690 0.21730 0.21730 0.16300
C 	C 	0.60488 0.19508 0.19508 -0.19500
H 	H 	0.58230 0.19240 0.19240 0.14500
C 	C 	0.55872 0.23252 0.23252 0.19900
C 	C 	0.52803 0.24658 0.24658 -0.05900
C 	C 	0.52846 0.27078 0.27078 0.04500
H 	H 	0.54820 0.27890 0.27890 0.01900
N 	N 	0.72490 0.12687 0.12687 -0.26800
N 	N 	0.59198 0.23760 0.23760 -0.21900
H 	H 	0.59870 0.25180 0.25180 0.12000
O 	O 	0.67831 0.10151 0.10151 -0.20700
O 	O 	0.55266 0.21129 0.21129 -0.22700
C 	C 	0.69169 0.58382 0.41618 0.01100
H 	H 	0.67350 0.57400 0.42600 0.05900
C 	C 	0.74566 0.61163 0.38837 0.09400
C 	C 	0.80819 0.62018 0.37982 0.20100
C 	C 	0.81883 0.66253 0.33747 -0.01100
H 	H 	0.79630 0.66540 0.33460 0.02500
C 	C 	0.82988 0.64093 0.35907 -0.06100
C 	C 	0.86316 0.63657 0.36343 0.02700
H 	H 	0.87090 0.62130 0.37870 0.04900
C 	C 	0.88472 0.65489 0.34511 -0.13400
H 	H 	0.90730 0.65220 0.34780 0.08900
C 	C 	0.87318 0.67659 0.32341 0.12700
C 	C 	0.84049 0.68082 0.31918 -0.05100
C 	C 	0.82849 0.70308 0.29692 0.02200
H 	H 	0.80590 0.70590 0.29410 0.01900
C 	C 	0.85098 0.72134 0.27866 -0.15400
H 	H 	0.84340 0.73660 0.26340 0.07900
C 	C 	0.88310 0.71730 0.28270 0.16300
C 	C 	0.89512 0.69508 0.30492 -0.19500
H 	H 	0.91770 0.69240 0.30760 0.14600
C 	C 	0.94128 0.73252 0.26748 0.19800
C 	C 	0.97197 0.74658 0.25342 -0.05300
C 	C 	0.97154 0.77078 0.22922 0.04800
H 	H 	0.95180 0.77890 0.22110 0.01900
N 	N 	0.77510 0.62687 0.37313 -0.26800
N 	N 	0.90802 0.73760 0.26240 -0.21800
H 	H 	0.90130 0.75180 0.24820 0.12000
O 	O 	0.82169 0.60151 0.39849 -0.20500
O 	O 	0.94734 0.71129 0.28871 -0.22500
C 	C 	0.19169 0.08382 0.91618 0.01100
H 	H 	0.17350 0.07400 0.92600 0.05900
C 	C 	0.24566 0.11163 0.88837 0.09400
C 	C 	0.30819 0.12018 0.87982 0.20100
C 	C 	0.31883 0.16253 0.83747 -0.01100
H 	H 	0.29630 0.16540 0.83460 0.02500
C 	C 	0.32988 0.14093 0.85907 -0.06100
C 	C 	0.36316 0.13657 0.86343 0.02700
H 	H 	0.37090 0.12130 0.87870 0.04800
C 	C 	0.38472 0.15489 0.84511 -0.13400
H 	H 	0.40730 0.15220 0.84780 0.08900
C 	C 	0.37318 0.17659 0.82341 0.12700
C 	C 	0.34049 0.18082 0.81918 -0.05000
C 	C 	0.32849 0.20308 0.79692 0.02200
H 	H 	0.30590 0.20590 0.79410 0.02000
C 	C 	0.35098 0.22134 0.77866 -0.15400
H 	H 	0.34340 0.23660 0.76340 0.07900
C 	C 	0.38310 0.21730 0.78270 0.16300
C 	C 	0.39512 0.19508 0.80492 -0.19500
H 	H 	0.41770 0.19240 0.80760 0.14600
C 	C 	0.44128 0.23252 0.76748 0.19900
C 	C 	0.47197 0.24658 0.75342 -0.05900
C 	C 	0.47154 0.27078 0.72922 0.04500
H 	H 	0.45180 0.27890 0.72110 0.01900
N 	N 	0.27510 0.12687 0.87313 -0.26800
N 	N 	0.40802 0.23760 0.76240 -0.21900
H 	H 	0.40130 0.25180 0.74820 0.12000
O 	O 	0.32169 0.10151 0.89849 -0.20500
O 	O 	0.44734 0.21129 0.78871 -0.22700
C 	C 	0.30831 0.41618 0.58382 0.01100
H 	H 	0.32650 0.42600 0.57400 0.05900
C 	C 	0.25434 0.38837 0.61163 0.09400
C 	C 	0.19181 0.37982 0.62018 0.20100
C 	C 	0.18117 0.33747 0.66253 -0.01100
H 	H 	0.20370 0.33460 0.66540 0.02500
C 	C 	0.17012 0.35907 0.64093 -0.06100
C 	C 	0.13684 0.36343 0.63657 0.02700
H 	H 	0.12910 0.37870 0.62130 0.04800
C 	C 	0.11528 0.34511 0.65489 -0.13400
H 	H 	0.09270 0.34780 0.65220 0.08800
C 	C 	0.12682 0.32341 0.67659 0.12600
C 	C 	0.15951 0.31918 0.68082 -0.05000
C 	C 	0.17151 0.29692 0.70308 0.02200
H 	H 	0.19410 0.29410 0.70590 0.02000
C 	C 	0.14902 0.27866 0.72134 -0.15400
H 	H 	0.15660 0.26340 0.73660 0.07900
C 	C 	0.11690 0.28270 0.71730 0.16300
C 	C 	0.10488 0.30492 0.69508 -0.19500
H 	H 	0.08230 0.30760 0.69240 0.14500
C 	C 	0.05872 0.26748 0.73252 0.19800
C 	C 	0.02803 0.25342 0.74658 -0.05700
C 	C 	0.02846 0.22922 0.77078 0.04400
H 	H 	0.04820 0.22110 0.77890 0.02000
N 	N 	0.22490 0.37313 0.62687 -0.26800
N 	N 	0.09198 0.26240 0.73760 -0.21900
H 	H 	0.09870 0.24820 0.75180 0.12000
O 	O 	0.17831 0.39849 0.60151 -0.20600
O 	O 	0.05266 0.28871 0.71129 -0.22700
C 	C 	0.80831 0.91618 0.08382 0.01100
H 	H 	0.82650 0.92600 0.07400 0.05900
C 	C 	0.75434 0.88837 0.11163 0.09400
C 	C 	0.69181 0.87982 0.12018 0.20100
C 	C 	0.68117 0.83747 0.16253 -0.01100
H 	H 	0.70370 0.83460 0.16540 0.02500
C 	C 	0.67012 0.85907 0.14093 -0.06100
C 	C 	0.63684 0.86343 0.13657 0.02700
H 	H 	0.62910 0.87870 0.12130 0.04800
C 	C 	0.61528 0.84511 0.15489 -0.13400
H 	H 	0.59270 0.84780 0.15220 0.08900
C 	C 	0.62682 0.82341 0.17659 0.12700
C 	C 	0.65951 0.81918 0.18082 -0.05100
C 	C 	0.67151 0.79692 0.20308 0.02200
H 	H 	0.69410 0.79410 0.20590 0.02000
C 	C 	0.64902 0.77866 0.22134 -0.15400
H 	H 	0.65660 0.76340 0.23660 0.07900
C 	C 	0.61690 0.78270 0.21730 0.16300
C 	C 	0.60488 0.80492 0.19508 -0.19500
H 	H 	0.58230 0.80760 0.19240 0.14600
C 	C 	0.55872 0.76748 0.23252 0.19900
C 	C 	0.52803 0.75342 0.24658 -0.05900
C 	C 	0.52846 0.72922 0.27078 0.04500
H 	H 	0.54820 0.72110 0.27890 0.01900
N 	N 	0.72490 0.87313 0.12687 -0.26800
N 	N 	0.59198 0.76240 0.23760 -0.21900
H 	H 	0.59870 0.74820 0.25180 0.12000
O 	O 	0.67831 0.89849 0.10151 -0.20500
O 	O 	0.55266 0.78871 0.21129 -0.22700
C 	C 	0.69169 0.58382 0.58382 0.01100
H 	H 	0.67350 0.57400 0.57400 0.05900
C 	C 	0.74566 0.61163 0.61163 0.09400
C 	C 	0.80819 0.62018 0.62018 0.20100
C 	C 	0.81883 0.66253 0.66253 -0.01100
H 	H 	0.79630 0.66540 0.66540 0.02500
C 	C 	0.82988 0.64093 0.64093 -0.06100
C 	C 	0.86316 0.63657 0.63657 0.02700
H 	H 	0.87090 0.62130 0.62130 0.04900
C 	C 	0.88472 0.65489 0.65489 -0.13400
H 	H 	0.90730 0.65220 0.65220 0.08900
C 	C 	0.87318 0.67659 0.67659 0.12700
C 	C 	0.84049 0.68082 0.68082 -0.05100
C 	C 	0.82849 0.70308 0.70308 0.02200
H 	H 	0.80590 0.70590 0.70590 0.01900
C 	C 	0.85098 0.72134 0.72134 -0.15400
H 	H 	0.84340 0.73660 0.73660 0.07900
C 	C 	0.88310 0.71730 0.71730 0.16300
C 	C 	0.89512 0.69508 0.69508 -0.19500
H 	H 	0.91770 0.69240 0.69240 0.14600
C 	C 	0.94128 0.73252 0.73252 0.19800
C 	C 	0.97197 0.74658 0.74658 -0.05300
C 	C 	0.97154 0.77078 0.77078 0.04800
H 	H 	0.95180 0.77890 0.77890 0.01900
N 	N 	0.77510 0.62687 0.62687 -0.26800
N 	N 	0.90802 0.73760 0.73760 -0.21800
H 	H 	0.90130 0.75180 0.75180 0.12000
O 	O 	0.82169 0.60151 0.60151 -0.20500
O 	O 	0.94734 0.71129 0.71129 -0.22500
C 	C 	0.19169 0.08382 0.08382 0.01100
H 	H 	0.17350 0.07400 0.07400 0.05800
C 	C 	0.24566 0.11163 0.11163 0.09300
C 	C 	0.30819 0.12018 0.12018 0.20100
C 	C 	0.31883 0.16253 0.16253 -0.01100
H 	H 	0.29630 0.16540 0.16540 0.02500
C 	C 	0.32988 0.14093 0.14093 -0.06100
C 	C 	0.36316 0.13657 0.13657 0.02700
H 	H 	0.37090 0.12130 0.12130 0.04800
C 	C 	0.38472 0.15489 0.15489 -0.13500
H 	H 	0.40730 0.15220 0.15220 0.08800
C 	C 	0.37318 0.17659 0.17659 0.12700
C 	C 	0.34049 0.18082 0.18082 -0.05100
C 	C 	0.32849 0.20308 0.20308 0.02200
H 	H 	0.30590 0.20590 0.20590 0.02000
C 	C 	0.35098 0.22134 0.22134 -0.15400
H 	H 	0.34340 0.23660 0.23660 0.07900
C 	C 	0.38310 0.21730 0.21730 0.16300
C 	C 	0.39512 0.19508 0.19508 -0.19500
H 	H 	0.41770 0.19240 0.19240 0.14500
C 	C 	0.44128 0.23252 0.23252 0.19900
C 	C 	0.47197 0.24658 0.24658 -0.05900
C 	C 	0.47154 0.27078 0.27078 0.04500
H 	H 	0.45180 0.27890 0.27890 0.01900
N 	N 	0.27510 0.12687 0.12687 -0.26800
N 	N 	0.40802 0.23760 0.23760 -0.21900
H 	H 	0.40130 0.25180 0.25180 0.12000
O 	O 	0.32169 0.10151 0.10151 -0.20600
O 	O 	0.44734 0.21129 0.21129 -0.22700
C 	C 	0.30831 0.58382 0.41618 0.01100
H 	H 	0.32650 0.57400 0.42600 0.05900
C 	C 	0.25434 0.61163 0.38837 0.09400
C 	C 	0.19181 0.62018 0.37982 0.20100
C 	C 	0.18117 0.66253 0.33747 -0.01100
H 	H 	0.20370 0.66540 0.33460 0.02500
C 	C 	0.17012 0.64093 0.35907 -0.06100
C 	C 	0.13684 0.63657 0.36343 0.02700
H 	H 	0.12910 0.62130 0.37870 0.04800
C 	C 	0.11528 0.65489 0.34511 -0.13400
H 	H 	0.09270 0.65220 0.34780 0.08800
C 	C 	0.12682 0.67659 0.32341 0.12600
C 	C 	0.15951 0.68082 0.31918 -0.05000
C 	C 	0.17151 0.70308 0.29692 0.02200
H 	H 	0.19410 0.70590 0.29410 0.02000
C 	C 	0.14902 0.72134 0.27866 -0.15400
H 	H 	0.15660 0.73660 0.26340 0.07900
C 	C 	0.11690 0.71730 0.28270 0.16300
C 	C 	0.10488 0.69508 0.30492 -0.19500
H 	H 	0.08230 0.69240 0.30760 0.14500
C 	C 	0.05872 0.73252 0.26748 0.19800
C 	C 	0.02803 0.74658 0.25342 -0.05700
C 	C 	0.02846 0.77078 0.22922 0.04400
H 	H 	0.04820 0.77890 0.22110 0.02000
N 	N 	0.22490 0.62687 0.37313 -0.26800
N 	N 	0.09198 0.73760 0.26240 -0.21900
H 	H 	0.09870 0.75180 0.24820 0.12000
O 	O 	0.17831 0.60151 0.39849 -0.20600
O 	O 	0.05266 0.71129 0.28871 -0.22700
C 	C 	0.80831 0.08382 0.91618 0.01100
H 	H 	0.82650 0.07400 0.92600 0.05900
C 	C 	0.75434 0.11163 0.88837 0.09400
C 	C 	0.69181 0.12018 0.87982 0.20100
C 	C 	0.68117 0.16253 0.83747 -0.01100
H 	H 	0.70370 0.16540 0.83460 0.02500
C 	C 	0.67012 0.14093 0.85907 -0.06100
C 	C 	0.63684 0.13657 0.86343 0.02700
H 	H 	0.62910 0.12130 0.87870 0.04800
C 	C 	0.61528 0.15489 0.84511 -0.13400
H 	H 	0.59270 0.15220 0.84780 0.08900
C 	C 	0.62682 0.17659 0.82341 0.12700
C 	C 	0.65951 0.18082 0.81918 -0.05100
C 	C 	0.67151 0.20308 0.79692 0.02200
H 	H 	0.69410 0.20590 0.79410 0.02000
C 	C 	0.64902 0.22134 0.77866 -0.15400
H 	H 	0.65660 0.23660 0.76340 0.07900
C 	C 	0.61690 0.21730 0.78270 0.16300
C 	C 	0.60488 0.19508 0.80492 -0.19500
H 	H 	0.58230 0.19240 0.80760 0.14600
C 	C 	0.55872 0.23252 0.76748 0.19900
C 	C 	0.52803 0.24658 0.75342 -0.05900
C 	C 	0.52846 0.27078 0.72922 0.04500
H 	H 	0.54820 0.27890 0.72110 0.01900
N 	N 	0.72490 0.12687 0.87313 -0.26800
N 	N 	0.59198 0.23760 0.76240 -0.21900
H 	H 	0.59870 0.25180 0.74820 0.12000
O 	O 	0.67831 0.10151 0.89849 -0.20500
O 	O 	0.55266 0.21129 0.78871 -0.22700
C 	C 	0.69169 0.41618 0.41618 0.01100
H 	H 	0.67350 0.42600 0.42600 0.05900
C 	C 	0.74566 0.38837 0.38837 0.09400
C 	C 	0.80819 0.37982 0.37982 0.20100
C 	C 	0.81883 0.33747 0.33747 -0.01100
H 	H 	0.79630 0.33460 0.33460 0.02500
C 	C 	0.82988 0.35907 0.35907 -0.06100
C 	C 	0.86316 0.36343 0.36343 0.02700
H 	H 	0.87090 0.37870 0.37870 0.04900
C 	C 	0.88472 0.34511 0.34511 -0.13400
H 	H 	0.90730 0.34780 0.34780 0.08900
C 	C 	0.87318 0.32341 0.32341 0.12700
C 	C 	0.84049 0.31918 0.31918 -0.05100
C 	C 	0.82849 0.29692 0.29692 0.02200
H 	H 	0.80590 0.29410 0.29410 0.02000
C 	C 	0.85098 0.27866 0.27866 -0.15400
H 	H 	0.84340 0.26340 0.26340 0.07900
C 	C 	0.88310 0.28270 0.28270 0.16300
C 	C 	0.89512 0.30492 0.30492 -0.19500
H 	H 	0.91770 0.30760 0.30760 0.14600
C 	C 	0.94128 0.26748 0.26748 0.19800
C 	C 	0.97197 0.25342 0.25342 -0.05300
C 	C 	0.97154 0.22922 0.22922 0.04800
H 	H 	0.95180 0.22110 0.22110 0.01900
N 	N 	0.77510 0.37313 0.37313 -0.26800
N 	N 	0.90802 0.26240 0.26240 -0.21800
H 	H 	0.90130 0.24820 0.24820 0.12000
O 	O 	0.82169 0.39849 0.39849 -0.20500
O 	O 	0.94734 0.28871 0.28871 -0.22500
C 	C 	0.19169 0.91618 0.91618 0.01000
H 	H 	0.17350 0.92600 0.92600 0.06000
C 	C 	0.24566 0.88837 0.88837 0.09400
C 	C 	0.30819 0.87982 0.87982 0.20100
C 	C 	0.31883 0.83747 0.83747 -0.01100
H 	H 	0.29630 0.83460 0.83460 0.02500
C 	C 	0.32988 0.85907 0.85907 -0.06100
C 	C 	0.36316 0.86343 0.86343 0.02700
H 	H 	0.37090 0.87870 0.87870 0.04900
C 	C 	0.38472 0.84511 0.84511 -0.13400
H 	H 	0.40730 0.84780 0.84780 0.08900
C 	C 	0.37318 0.82341 0.82341 0.12700
C 	C 	0.34049 0.81918 0.81918 -0.05000
C 	C 	0.32849 0.79692 0.79692 0.02200
H 	H 	0.30590 0.79410 0.79410 0.02000
C 	C 	0.35098 0.77866 0.77866 -0.15400
H 	H 	0.34340 0.76340 0.76340 0.07900
C 	C 	0.38310 0.78270 0.78270 0.16300
C 	C 	0.39512 0.80492 0.80492 -0.19500
H 	H 	0.41770 0.80760 0.80760 0.14600
C 	C 	0.44128 0.76748 0.76748 0.19900
C 	C 	0.47197 0.75342 0.75342 -0.05800
C 	C 	0.47154 0.72922 0.72922 0.04500
H 	H 	0.45180 0.72110 0.72110 0.02000
N 	N 	0.27510 0.87313 0.87313 -0.26800
N 	N 	0.40802 0.76240 0.76240 -0.21900
H 	H 	0.40130 0.74820 0.74820 0.12000
O 	O 	0.32169 0.89849 0.89849 -0.20400
O 	O 	0.44734 0.78871 0.78871 -0.22700
C 	C 	0.41618 0.41618 0.69169 0.01100
H 	H 	0.42600 0.42600 0.67350 0.05900
C 	C 	0.38837 0.38837 0.74566 0.09400
C 	C 	0.37982 0.37982 0.80819 0.20100
C 	C 	0.33747 0.33747 0.81883 -0.01100
H 	H 	0.33460 0.33460 0.79630 0.02500
C 	C 	0.35907 0.35907 0.82988 -0.06100
C 	C 	0.36343 0.36343 0.86316 0.02700
H 	H 	0.37870 0.37870 0.87090 0.04900
C 	C 	0.34511 0.34511 0.88472 -0.13400
H 	H 	0.34780 0.34780 0.90730 0.08900
C 	C 	0.32341 0.32341 0.87318 0.12700
C 	C 	0.31918 0.31918 0.84049 -0.05100
C 	C 	0.29692 0.29692 0.82849 0.02200
H 	H 	0.29410 0.29410 0.80590 0.02000
C 	C 	0.27866 0.27866 0.85098 -0.15400
H 	H 	0.26340 0.26340 0.84340 0.07900
C 	C 	0.28270 0.28270 0.88310 0.16300
C 	C 	0.30492 0.30492 0.89512 -0.19500
H 	H 	0.30760 0.30760 0.91770 0.14600
C 	C 	0.26748 0.26748 0.94128 0.19800
C 	C 	0.25342 0.25342 0.97197 -0.05300
C 	C 	0.22922 0.22922 0.97154 0.04800
H 	H 	0.22110 0.22110 0.95180 0.01900
N 	N 	0.37313 0.37313 0.77510 -0.26800
N 	N 	0.26240 0.26240 0.90802 -0.21800
H 	H 	0.24820 0.24820 0.90130 0.12000
O 	O 	0.39849 0.39849 0.82169 -0.20500
O 	O 	0.28871 0.28871 0.94734 -0.22500
C 	C 	0.91618 0.91618 0.19169 0.01000
H 	H 	0.92600 0.92600 0.17350 0.06000
C 	C 	0.88837 0.88837 0.24566 0.09400
C 	C 	0.87982 0.87982 0.30819 0.20100
C 	C 	0.83747 0.83747 0.31883 -0.01100
H 	H 	0.83460 0.83460 0.29630 0.02500
C 	C 	0.85907 0.85907 0.32988 -0.06100
C 	C 	0.86343 0.86343 0.36316 0.02700
H 	H 	0.87870 0.87870 0.37090 0.04900
C 	C 	0.84511 0.84511 0.38472 -0.13400
H 	H 	0.84780 0.84780 0.40730 0.08900
C 	C 	0.82341 0.82341 0.37318 0.12700
C 	C 	0.81918 0.81918 0.34049 -0.05000
C 	C 	0.79692 0.79692 0.32849 0.02200
H 	H 	0.79410 0.79410 0.30590 0.02000
C 	C 	0.77866 0.77866 0.35098 -0.15400
H 	H 	0.76340 0.76340 0.34340 0.07900
C 	C 	0.78270 0.78270 0.38310 0.16300
C 	C 	0.80492 0.80492 0.39512 -0.19500
H 	H 	0.80760 0.80760 0.41770 0.14600
C 	C 	0.76748 0.76748 0.44128 0.19900
C 	C 	0.75342 0.75342 0.47197 -0.05800
C 	C 	0.72922 0.72922 0.47154 0.04500
H 	H 	0.72110 0.72110 0.45180 0.02000
N 	N 	0.87313 0.87313 0.27510 -0.26800
N 	N 	0.76240 0.76240 0.40802 -0.21900
H 	H 	0.74820 0.74820 0.40130 0.12000
O 	O 	0.89849 0.89849 0.32169 -0.20400
O 	O 	0.78871 0.78871 0.44734 -0.22700
C 	C 	0.58382 0.41618 0.30831 0.01100
H 	H 	0.57400 0.42600 0.32650 0.05900
C 	C 	0.61163 0.38837 0.25434 0.09400
C 	C 	0.62018 0.37982 0.19181 0.20100
C 	C 	0.66253 0.33747 0.18117 -0.01100
H 	H 	0.66540 0.33460 0.20370 0.02500
C 	C 	0.64093 0.35907 0.17012 -0.06100
C 	C 	0.63657 0.36343 0.13684 0.02700
H 	H 	0.62130 0.37870 0.12910 0.04800
C 	C 	0.65489 0.34511 0.11528 -0.13400
H 	H 	0.65220 0.34780 0.09270 0.08800
C 	C 	0.67659 0.32341 0.12682 0.12600
C 	C 	0.68082 0.31918 0.15951 -0.05000
C 	C 	0.70308 0.29692 0.17151 0.02200
H 	H 	0.70590 0.29410 0.19410 0.02000
C 	C 	0.72134 0.27866 0.14902 -0.15400
H 	H 	0.73660 0.26340 0.15660 0.07900
C 	C 	0.71730 0.28270 0.11690 0.16300
C 	C 	0.69508 0.30492 0.10488 -0.19500
H 	H 	0.69240 0.30760 0.08230 0.14500
C 	C 	0.73252 0.26748 0.05872 0.19800
C 	C 	0.74658 0.25342 0.02803 -0.05700
C 	C 	0.77078 0.22922 0.02846 0.04400
H 	H 	0.77890 0.22110 0.04820 0.02000
N 	N 	0.62687 0.37313 0.22490 -0.26800
N 	N 	0.73760 0.26240 0.09198 -0.21900
H 	H 	0.75180 0.24820 0.09870 0.12000
O 	O 	0.60151 0.39849 0.17831 -0.20600
O 	O 	0.71129 0.28871 0.05266 -0.22700
C 	C 	0.08382 0.91618 0.80831 0.01100
H 	H 	0.07400 0.92600 0.82650 0.05900
C 	C 	0.11163 0.88837 0.75434 0.09400
C 	C 	0.12018 0.87982 0.69181 0.20100
C 	C 	0.16253 0.83747 0.68117 -0.01100
H 	H 	0.16540 0.83460 0.70370 0.02500
C 	C 	0.14093 0.85907 0.67012 -0.06100
C 	C 	0.13657 0.86343 0.63684 0.02700
H 	H 	0.12130 0.87870 0.62910 0.04800
C 	C 	0.15489 0.84511 0.61528 -0.13400
H 	H 	0.15220 0.84780 0.59270 0.08900
C 	C 	0.17659 0.82341 0.62682 0.12700
C 	C 	0.18082 0.81918 0.65951 -0.05100
C 	C 	0.20308 0.79692 0.67151 0.02200
H 	H 	0.20590 0.79410 0.69410 0.02000
C 	C 	0.22134 0.77866 0.64902 -0.15400
H 	H 	0.23660 0.76340 0.65660 0.07900
C 	C 	0.21730 0.78270 0.61690 0.16300
C 	C 	0.19508 0.80492 0.60488 -0.19500
H 	H 	0.19240 0.80760 0.58230 0.14600
C 	C 	0.23252 0.76748 0.55872 0.19900
C 	C 	0.24658 0.75342 0.52803 -0.05900
C 	C 	0.27078 0.72922 0.52846 0.04500
H 	H 	0.27890 0.72110 0.54820 0.01900
N 	N 	0.12687 0.87313 0.72490 -0.26800
N 	N 	0.23760 0.76240 0.59198 -0.21900
H 	H 	0.25180 0.74820 0.59870 0.12000
O 	O 	0.10151 0.89849 0.67831 -0.20500
O 	O 	0.21129 0.78871 0.55266 -0.22700
C 	C 	0.58382 0.58382 0.69169 0.01100
H 	H 	0.57400 0.57400 0.67350 0.05900
C 	C 	0.61163 0.61163 0.74566 0.09400
C 	C 	0.62018 0.62018 0.80819 0.20100
C 	C 	0.66253 0.66253 0.81883 -0.01100
H 	H 	0.66540 0.66540 0.79630 0.02500
C 	C 	0.64093 0.64093 0.82988 -0.06100
C 	C 	0.63657 0.63657 0.86316 0.02700
H 	H 	0.62130 0.62130 0.87090 0.04900
C 	C 	0.65489 0.65489 0.88472 -0.13400
H 	H 	0.65220 0.65220 0.90730 0.08900
C 	C 	0.67659 0.67659 0.87318 0.12700
C 	C 	0.68082 0.68082 0.84049 -0.05100
C 	C 	0.70308 0.70308 0.82849 0.02200
H 	H 	0.70590 0.70590 0.80590 0.01900
C 	C 	0.72134 0.72134 0.85098 -0.15400
H 	H 	0.73660 0.73660 0.84340 0.07900
C 	C 	0.71730 0.71730 0.88310 0.16300
C 	C 	0.69508 0.69508 0.89512 -0.19500
H 	H 	0.69240 0.69240 0.91770 0.14600
C 	C 	0.73252 0.73252 0.94128 0.19800
C 	C 	0.74658 0.74658 0.97197 -0.05300
C 	C 	0.77078 0.77078 0.97154 0.04800
H 	H 	0.77890 0.77890 0.95180 0.01900
N 	N 	0.62687 0.62687 0.77510 -0.26800
N 	N 	0.73760 0.73760 0.90802 -0.21800
H 	H 	0.75180 0.75180 0.90130 0.12000
O 	O 	0.60151 0.60151 0.82169 -0.20500
O 	O 	0.71129 0.71129 0.94734 -0.22500
C 	C 	0.08382 0.08382 0.19169 0.01100
H 	H 	0.07400 0.07400 0.17350 0.05800
C 	C 	0.11163 0.11163 0.24566 0.09300
C 	C 	0.12018 0.12018 0.30819 0.20100
C 	C 	0.16253 0.16253 0.31883 -0.01100
H 	H 	0.16540 0.16540 0.29630 0.02500
C 	C 	0.14093 0.14093 0.32988 -0.06100
C 	C 	0.13657 0.13657 0.36316 0.02700
H 	H 	0.12130 0.12130 0.37090 0.04800
C 	C 	0.15489 0.15489 0.38472 -0.13500
H 	H 	0.15220 0.15220 0.40730 0.08800
C 	C 	0.17659 0.17659 0.37318 0.12700
C 	C 	0.18082 0.18082 0.34049 -0.05100
C 	C 	0.20308 0.20308 0.32849 0.02200
H 	H 	0.20590 0.20590 0.30590 0.02000
C 	C 	0.22134 0.22134 0.35098 -0.15400
H 	H 	0.23660 0.23660 0.34340 0.07900
C 	C 	0.21730 0.21730 0.38310 0.16300
C 	C 	0.19508 0.19508 0.39512 -0.19500
H 	H 	0.19240 0.19240 0.41770 0.14500
C 	C 	0.23252 0.23252 0.44128 0.19900
C 	C 	0.24658 0.24658 0.47197 -0.05900
C 	C 	0.27078 0.27078 0.47154 0.04500
H 	H 	0.27890 0.27890 0.45180 0.01900
N 	N 	0.12687 0.12687 0.27510 -0.26800
N 	N 	0.23760 0.23760 0.40802 -0.21900
H 	H 	0.25180 0.25180 0.40130 0.12000
O 	O 	0.10151 0.10151 0.32169 -0.20600
O 	O 	0.21129 0.21129 0.44734 -0.22700
C 	C 	0.41618 0.58382 0.30831 0.01100
H 	H 	0.42600 0.57400 0.32650 0.05900
C 	C 	0.38837 0.61163 0.25434 0.09400
C 	C 	0.37982 0.62018 0.19181 0.20100
C 	C 	0.33747 0.66253 0.18117 -0.01100
H 	H 	0.33460 0.66540 0.20370 0.02500
C 	C 	0.35907 0.64093 0.17012 -0.06100
C 	C 	0.36343 0.63657 0.13684 0.02700
H 	H 	0.37870 0.62130 0.12910 0.04800
C 	C 	0.34511 0.65489 0.11528 -0.13400
H 	H 	0.34780 0.65220 0.09270 0.08800
C 	C 	0.32341 0.67659 0.12682 0.12600
C 	C 	0.31918 0.68082 0.15951 -0.05000
C 	C 	0.29692 0.70308 0.17151 0.02200
H 	H 	0.29410 0.70590 0.19410 0.02000
C 	C 	0.27866 0.72134 0.14902 -0.15400
H 	H 	0.26340 0.73660 0.15660 0.07900
C 	C 	0.28270 0.71730 0.11690 0.16300
C 	C 	0.30492 0.69508 0.10488 -0.19500
H 	H 	0.30760 0.69240 0.08230 0.14500
C 	C 	0.26748 0.73252 0.05872 0.19800
C 	C 	0.25342 0.74658 0.02803 -0.05700
C 	C 	0.22922 0.77078 0.02846 0.04400
H 	H 	0.22110 0.77890 0.04820 0.02000
N 	N 	0.37313 0.62687 0.22490 -0.26800
N 	N 	0.26240 0.73760 0.09198 -0.21900
H 	H 	0.24820 0.75180 0.09870 0.12000
O 	O 	0.39849 0.60151 0.17831 -0.20600
O 	O 	0.28871 0.71129 0.05266 -0.22700
C 	C 	0.91618 0.08382 0.80831 0.01100
H 	H 	0.92600 0.07400 0.82650 0.05900
C 	C 	0.88837 0.11163 0.75434 0.09400
C 	C 	0.87982 0.12018 0.69181 0.20100
C 	C 	0.83747 0.16253 0.68117 -0.01100
H 	H 	0.83460 0.16540 0.70370 0.02500
C 	C 	0.85907 0.14093 0.67012 -0.06100
C 	C 	0.86343 0.13657 0.63684 0.02700
H 	H 	0.87870 0.12130 0.62910 0.04800
C 	C 	0.84511 0.15489 0.61528 -0.13400
H 	H 	0.84780 0.15220 0.59270 0.08900
C 	C 	0.82341 0.17659 0.62682 0.12700
C 	C 	0.81918 0.18082 0.65951 -0.05100
C 	C 	0.79692 0.20308 0.67151 0.02200
H 	H 	0.79410 0.20590 0.69410 0.02000
C 	C 	0.77866 0.22134 0.64902 -0.15400
H 	H 	0.76340 0.23660 0.65660 0.07900
C 	C 	0.78270 0.21730 0.61690 0.16300
C 	C 	0.80492 0.19508 0.60488 -0.19500
H 	H 	0.80760 0.19240 0.58230 0.14600
C 	C 	0.76748 0.23252 0.55872 0.19900
C 	C 	0.75342 0.24658 0.52803 -0.05900
C 	C 	0.72922 0.27078 0.52846 0.04500
H 	H 	0.72110 0.27890 0.54820 0.01900
N 	N 	0.87313 0.12687 0.72490 -0.26800
N 	N 	0.76240 0.23760 0.59198 -0.21900
H 	H 	0.74820 0.25180 0.59870 0.12000
O 	O 	0.89849 0.10151 0.67831 -0.20500
O 	O 	0.78871 0.21129 0.55266 -0.22700
C 	C 	0.41618 0.30831 0.58382 0.01100
H 	H 	0.42600 0.32650 0.57400 0.05900
C 	C 	0.38837 0.25434 0.61163 0.09400
C 	C 	0.37982 0.19181 0.62018 0.20100
C 	C 	0.33747 0.18117 0.66253 -0.01100
H 	H 	0.33460 0.20370 0.66540 0.02500
C 	C 	0.35907 0.17012 0.64093 -0.06100
C 	C 	0.36343 0.13684 0.63657 0.02700
H 	H 	0.37870 0.12910 0.62130 0.04800
C 	C 	0.34511 0.11528 0.65489 -0.13400
H 	H 	0.34780 0.09270 0.65220 0.08800
C 	C 	0.32341 0.12682 0.67659 0.12600
C 	C 	0.31918 0.15951 0.68082 -0.05000
C 	C 	0.29692 0.17151 0.70308 0.02200
H 	H 	0.29410 0.19410 0.70590 0.02000
C 	C 	0.27866 0.14902 0.72134 -0.15400
H 	H 	0.26340 0.15660 0.73660 0.07900
C 	C 	0.28270 0.11690 0.71730 0.16300
C 	C 	0.30492 0.10488 0.69508 -0.19500
H 	H 	0.30760 0.08230 0.69240 0.14500
C 	C 	0.26748 0.05872 0.73252 0.19800
C 	C 	0.25342 0.02803 0.74658 -0.05700
C 	C 	0.22922 0.02846 0.77078 0.04400
H 	H 	0.22110 0.04820 0.77890 0.02000
N 	N 	0.37313 0.22490 0.62687 -0.26800
N 	N 	0.26240 0.09198 0.73760 -0.21900
H 	H 	0.24820 0.09870 0.75180 0.12000
O 	O 	0.39849 0.17831 0.60151 -0.20600
O 	O 	0.28871 0.05266 0.71129 -0.22700
C 	C 	0.91618 0.80831 0.08382 0.01100
H 	H 	0.92600 0.82650 0.07400 0.05900
C 	C 	0.88837 0.75434 0.11163 0.09400
C 	C 	0.87982 0.69181 0.12018 0.20100
C 	C 	0.83747 0.68117 0.16253 -0.01100
H 	H 	0.83460 0.70370 0.16540 0.02500
C 	C 	0.85907 0.67012 0.14093 -0.06100
C 	C 	0.86343 0.63684 0.13657 0.02700
H 	H 	0.87870 0.62910 0.12130 0.04800
C 	C 	0.84511 0.61528 0.15489 -0.13400
H 	H 	0.84780 0.59270 0.15220 0.08900
C 	C 	0.82341 0.62682 0.17659 0.12700
C 	C 	0.81918 0.65951 0.18082 -0.05100
C 	C 	0.79692 0.67151 0.20308 0.02200
H 	H 	0.79410 0.69410 0.20590 0.02000
C 	C 	0.77866 0.64902 0.22134 -0.15400
H 	H 	0.76340 0.65660 0.23660 0.07900
C 	C 	0.78270 0.61690 0.21730 0.16300
C 	C 	0.80492 0.60488 0.19508 -0.19500
H 	H 	0.80760 0.58230 0.19240 0.14600
C 	C 	0.76748 0.55872 0.23252 0.19900
C 	C 	0.75342 0.52803 0.24658 -0.05900
C 	C 	0.72922 0.52846 0.27078 0.04500
H 	H 	0.72110 0.54820 0.27890 0.01900
N 	N 	0.87313 0.72490 0.12687 -0.26800
N 	N 	0.76240 0.59198 0.23760 -0.21900
H 	H 	0.74820 0.59870 0.25180 0.12000
O 	O 	0.89849 0.67831 0.10151 -0.20500
O 	O 	0.78871 0.55266 0.21129 -0.22700
C 	C 	0.41618 0.69169 0.41618 0.01100
H 	H 	0.42600 0.67350 0.42600 0.05900
C 	C 	0.38837 0.74566 0.38837 0.09400
C 	C 	0.37982 0.80819 0.37982 0.20100
C 	C 	0.33747 0.81883 0.33747 -0.01100
H 	H 	0.33460 0.79630 0.33460 0.02500
C 	C 	0.35907 0.82988 0.35907 -0.06100
C 	C 	0.36343 0.86316 0.36343 0.02700
H 	H 	0.37870 0.87090 0.37870 0.04900
C 	C 	0.34511 0.88472 0.34511 -0.13400
H 	H 	0.34780 0.90730 0.34780 0.08900
C 	C 	0.32341 0.87318 0.32341 0.12700
C 	C 	0.31918 0.84049 0.31918 -0.05100
C 	C 	0.29692 0.82849 0.29692 0.02200
H 	H 	0.29410 0.80590 0.29410 0.02000
C 	C 	0.27866 0.85098 0.27866 -0.15400
H 	H 	0.26340 0.84340 0.26340 0.07900
C 	C 	0.28270 0.88310 0.28270 0.16300
C 	C 	0.30492 0.89512 0.30492 -0.19500
H 	H 	0.30760 0.91770 0.30760 0.14600
C 	C 	0.26748 0.94128 0.26748 0.19800
C 	C 	0.25342 0.97197 0.25342 -0.05300
C 	C 	0.22922 0.97154 0.22922 0.04800
H 	H 	0.22110 0.95180 0.22110 0.01900
N 	N 	0.37313 0.77510 0.37313 -0.26800
N 	N 	0.26240 0.90802 0.26240 -0.21800
H 	H 	0.24820 0.90130 0.24820 0.12000
O 	O 	0.39849 0.82169 0.39849 -0.20500
O 	O 	0.28871 0.94734 0.28871 -0.22500
C 	C 	0.91618 0.19169 0.91618 0.01000
H 	H 	0.92600 0.17350 0.92600 0.06000
C 	C 	0.88837 0.24566 0.88837 0.09400
C 	C 	0.87982 0.30819 0.87982 0.20100
C 	C 	0.83747 0.31883 0.83747 -0.01100
H 	H 	0.83460 0.29630 0.83460 0.02500
C 	C 	0.85907 0.32988 0.85907 -0.06100
C 	C 	0.86343 0.36316 0.86343 0.02700
H 	H 	0.87870 0.37090 0.87870 0.04900
C 	C 	0.84511 0.38472 0.84511 -0.13400
H 	H 	0.84780 0.40730 0.84780 0.08900
C 	C 	0.82341 0.37318 0.82341 0.12700
C 	C 	0.81918 0.34049 0.81918 -0.05000
C 	C 	0.79692 0.32849 0.79692 0.02200
H 	H 	0.79410 0.30590 0.79410 0.02000
C 	C 	0.77866 0.35098 0.77866 -0.15400
H 	H 	0.76340 0.34340 0.76340 0.07900
C 	C 	0.78270 0.38310 0.78270 0.16300
C 	C 	0.80492 0.39512 0.80492 -0.19500
H 	H 	0.80760 0.41770 0.80760 0.14600
C 	C 	0.76748 0.44128 0.76748 0.19900
C 	C 	0.75342 0.47197 0.75342 -0.05800
C 	C 	0.72922 0.47154 0.72922 0.04500
H 	H 	0.72110 0.45180 0.72110 0.02000
N 	N 	0.87313 0.27510 0.87313 -0.26800
N 	N 	0.76240 0.40802 0.76240 -0.21900
H 	H 	0.74820 0.40130 0.74820 0.12000
O 	O 	0.89849 0.32169 0.89849 -0.20400
O 	O 	0.78871 0.44734 0.78871 -0.22700
C 	C 	0.58382 0.30831 0.41618 0.01100
H 	H 	0.57400 0.32650 0.42600 0.05900
C 	C 	0.61163 0.25434 0.38837 0.09400
C 	C 	0.62018 0.19181 0.37982 0.20100
C 	C 	0.66253 0.18117 0.33747 -0.01100
H 	H 	0.66540 0.20370 0.33460 0.02500
C 	C 	0.64093 0.17012 0.35907 -0.06100
C 	C 	0.63657 0.13684 0.36343 0.02700
H 	H 	0.62130 0.12910 0.37870 0.04800
C 	C 	0.65489 0.11528 0.34511 -0.13400
H 	H 	0.65220 0.09270 0.34780 0.08800
C 	C 	0.67659 0.12682 0.32341 0.12600
C 	C 	0.68082 0.15951 0.31918 -0.05000
C 	C 	0.70308 0.17151 0.29692 0.02200
H 	H 	0.70590 0.19410 0.29410 0.02000
C 	C 	0.72134 0.14902 0.27866 -0.15400
H 	H 	0.73660 0.15660 0.26340 0.07900
C 	C 	0.71730 0.11690 0.28270 0.16300
C 	C 	0.69508 0.10488 0.30492 -0.19500
H 	H 	0.69240 0.08230 0.30760 0.14500
C 	C 	0.73252 0.05872 0.26748 0.19800
C 	C 	0.74658 0.02803 0.25342 -0.05700
C 	C 	0.77078 0.02846 0.22922 0.04400
H 	H 	0.77890 0.04820 0.22110 0.02000
N 	N 	0.62687 0.22490 0.37313 -0.26800
N 	N 	0.73760 0.09198 0.26240 -0.21900
H 	H 	0.75180 0.09870 0.24820 0.12000
O 	O 	0.60151 0.17831 0.39849 -0.20600
O 	O 	0.71129 0.05266 0.28871 -0.22700
C 	C 	0.08382 0.80831 0.91618 0.01100
H 	H 	0.07400 0.82650 0.92600 0.05900
C 	C 	0.11163 0.75434 0.88837 0.09400
C 	C 	0.12018 0.69181 0.87982 0.20100
C 	C 	0.16253 0.68117 0.83747 -0.01100
H 	H 	0.16540 0.70370 0.83460 0.02500
C 	C 	0.14093 0.67012 0.85907 -0.06100
C 	C 	0.13657 0.63684 0.86343 0.02700
H 	H 	0.12130 0.62910 0.87870 0.04800
C 	C 	0.15489 0.61528 0.84511 -0.13400
H 	H 	0.15220 0.59270 0.84780 0.08900
C 	C 	0.17659 0.62682 0.82341 0.12700
C 	C 	0.18082 0.65951 0.81918 -0.05100
C 	C 	0.20308 0.67151 0.79692 0.02200
H 	H 	0.20590 0.69410 0.79410 0.02000
C 	C 	0.22134 0.64902 0.77866 -0.15400
H 	H 	0.23660 0.65660 0.76340 0.07900
C 	C 	0.21730 0.61690 0.78270 0.16300
C 	C 	0.19508 0.60488 0.80492 -0.19500
H 	H 	0.19240 0.58230 0.80760 0.14600
C 	C 	0.23252 0.55872 0.76748 0.19900
C 	C 	0.24658 0.52803 0.75342 -0.05900
C 	C 	0.27078 0.52846 0.72922 0.04500
H 	H 	0.27890 0.54820 0.72110 0.01900
N 	N 	0.12687 0.72490 0.87313 -0.26800
N 	N 	0.23760 0.59198 0.76240 -0.21900
H 	H 	0.25180 0.59870 0.74820 0.12000
O 	O 	0.10151 0.67831 0.89849 -0.20500
O 	O 	0.21129 0.55266 0.78871 -0.22700
C 	C 	0.58382 0.69169 0.58382 0.01100
H 	H 	0.57400 0.67350 0.57400 0.05900
C 	C 	0.61163 0.74566 0.61163 0.09400
C 	C 	0.62018 0.80819 0.62018 0.20100
C 	C 	0.66253 0.81883 0.66253 -0.01100
H 	H 	0.66540 0.79630 0.66540 0.02500
C 	C 	0.64093 0.82988 0.64093 -0.06100
C 	C 	0.63657 0.86316 0.63657 0.02700
H 	H 	0.62130 0.87090 0.62130 0.04900
C 	C 	0.65489 0.88472 0.65489 -0.13400
H 	H 	0.65220 0.90730 0.65220 0.08900
C 	C 	0.67659 0.87318 0.67659 0.12700
C 	C 	0.68082 0.84049 0.68082 -0.05100
C 	C 	0.70308 0.82849 0.70308 0.02200
H 	H 	0.70590 0.80590 0.70590 0.01900
C 	C 	0.72134 0.85098 0.72134 -0.15400
H 	H 	0.73660 0.84340 0.73660 0.07900
C 	C 	0.71730 0.88310 0.71730 0.16300
C 	C 	0.69508 0.89512 0.69508 -0.19500
H 	H 	0.69240 0.91770 0.69240 0.14600
C 	C 	0.73252 0.94128 0.73252 0.19800
C 	C 	0.74658 0.97197 0.74658 -0.05300
C 	C 	0.77078 0.97154 0.77078 0.04800
H 	H 	0.77890 0.95180 0.77890 0.01900
N 	N 	0.62687 0.77510 0.62687 -0.26800
N 	N 	0.73760 0.90802 0.73760 -0.21800
H 	H 	0.75180 0.90130 0.75180 0.12000
O 	O 	0.60151 0.82169 0.60151 -0.20500
O 	O 	0.71129 0.94734 0.71129 -0.22500
C 	C 	0.08382 0.19169 0.08382 0.01100
H 	H 	0.07400 0.17350 0.07400 0.05800
C 	C 	0.11163 0.24566 0.11163 0.09300
C 	C 	0.12018 0.30819 0.12018 0.20100
C 	C 	0.16253 0.31883 0.16253 -0.01100
H 	H 	0.16540 0.29630 0.16540 0.02500
C 	C 	0.14093 0.32988 0.14093 -0.06100
C 	C 	0.13657 0.36316 0.13657 0.02700
H 	H 	0.12130 0.37090 0.12130 0.04800
C 	C 	0.15489 0.38472 0.15489 -0.13500
H 	H 	0.15220 0.40730 0.15220 0.08800
C 	C 	0.17659 0.37318 0.17659 0.12700
C 	C 	0.18082 0.34049 0.18082 -0.05100
C 	C 	0.20308 0.32849 0.20308 0.02200
H 	H 	0.20590 0.30590 0.20590 0.02000
C 	C 	0.22134 0.35098 0.22134 -0.15400
H 	H 	0.23660 0.34340 0.23660 0.07900
C 	C 	0.21730 0.38310 0.21730 0.16300
C 	C 	0.19508 0.39512 0.19508 -0.19500
H 	H 	0.19240 0.41770 0.19240 0.14500
C 	C 	0.23252 0.44128 0.23252 0.19900
C 	C 	0.24658 0.47197 0.24658 -0.05900
C 	C 	0.27078 0.47154 0.27078 0.04500
H 	H 	0.27890 0.45180 0.27890 0.01900
N 	N 	0.12687 0.27510 0.12687 -0.26800
N 	N 	0.23760 0.40802 0.23760 -0.21900
H 	H 	0.25180 0.40130 0.25180 0.12000
O 	O 	0.10151 0.32169 0.10151 -0.20600
O 	O 	0.21129 0.44734 0.21129 -0.22700
C 	C 	0.26520 0.00000 0.26520 0.00300
H 	H 	0.28140 -0.00000 0.28140 0.07200
Cu	Cu	0.18119 0.00000 0.18119 0.91800
N 	N 	0.21817 0.00000 0.21817 -0.17600
C 	C 	0.76520 0.50000 0.76520 0.01000
H 	H 	0.78140 0.50000 0.78140 0.07100
Cu	Cu	0.68119 0.50000 0.68119 0.92000
N 	N 	0.71817 0.50000 0.71817 -0.17400
C 	C 	0.73480 0.00000 0.26520 0.00300
H 	H 	0.71860 -0.00000 0.28140 0.07200
Cu	Cu	0.81881 0.00000 0.18119 0.91800
N 	N 	0.78183 0.00000 0.21817 -0.17600
C 	C 	0.23480 0.50000 0.76520 0.01000
H 	H 	0.21860 0.50000 0.78140 0.07100
Cu	Cu	0.31881 0.50000 0.68119 0.92000
N 	N 	0.28183 0.50000 0.71817 -0.17400
C 	C 	0.73480 0.00000 0.73480 0.00300
H 	H 	0.71860 0.00000 0.71860 0.07200
Cu	Cu	0.81881 0.00000 0.81881 0.91800
N 	N 	0.78183 0.00000 0.78183 -0.17600
C 	C 	0.23480 0.50000 0.23480 0.01100
H 	H 	0.21860 0.50000 0.21860 0.07000
Cu	Cu	0.31881 0.50000 0.31881 0.92000
N 	N 	0.28183 0.50000 0.28183 -0.17400
C 	C 	0.26520 0.00000 0.73480 0.00300
H 	H 	0.28140 0.00000 0.71860 0.07200
Cu	Cu	0.18119 0.00000 0.81881 0.91800
N 	N 	0.21817 0.00000 0.78183 -0.17600
C 	C 	0.76520 0.50000 0.23480 0.01000
H 	H 	0.78140 0.50000 0.21860 0.07100
Cu	Cu	0.68119 0.50000 0.31881 0.92000
N 	N 	0.71817 0.50000 0.28183 -0.17400
C 	C 	0.26520 0.26520 -0.00000 0.00300
H 	H 	0.28140 0.28140 -0.00000 0.07200
Cu	Cu	0.18119 0.18119 -0.00000 0.91800
N 	N 	0.21817 0.21817 -0.00000 -0.17600
C 	C 	0.76520 0.76520 0.50000 0.01000
H 	H 	0.78140 0.78140 0.50000 0.07100
Cu	Cu	0.68119 0.68119 0.50000 0.92000
N 	N 	0.71817 0.71817 0.50000 -0.17400
C 	C 	0.26520 0.73480 -0.00000 0.00300
H 	H 	0.28140 0.71860 -0.00000 0.07200
Cu	Cu	0.18119 0.81881 -0.00000 0.91800
N 	N 	0.21817 0.78183 -0.00000 -0.17600
C 	C 	0.76520 0.23480 0.50000 0.01000
H 	H 	0.78140 0.21860 0.50000 0.07100
Cu	Cu	0.68119 0.31881 0.50000 0.92000
N 	N 	0.71817 0.28183 0.50000 -0.17400
C 	C 	0.73480 0.73480 -0.00000 0.00300
H 	H 	0.71860 0.71860 -0.00000 0.07200
Cu	Cu	0.81881 0.81881 -0.00000 0.91800
N 	N 	0.78183 0.78183 -0.00000 -0.17600
C 	C 	0.23480 0.23480 0.50000 0.01100
H 	H 	0.21860 0.21860 0.50000 0.07000
Cu	Cu	0.31881 0.31881 0.50000 0.92000
N 	N 	0.28183 0.28183 0.50000 -0.17400
C 	C 	0.73480 0.26520 -0.00000 0.00300
H 	H 	0.71860 0.28140 -0.00000 0.07200
Cu	Cu	0.81881 0.18119 -0.00000 0.91800
N 	N 	0.78183 0.21817 -0.00000 -0.17600
C 	C 	0.23480 0.76520 0.50000 0.01000
H 	H 	0.21860 0.78140 0.50000 0.07100
Cu	Cu	0.31881 0.68119 0.50000 0.92000
N 	N 	0.28183 0.71817 0.50000 -0.17400
C 	C 	0.00000 0.26520 0.26520 0.00300
H 	H 	-0.00000 0.28140 0.28140 0.07200
Cu	Cu	-0.00000 0.18119 0.18119 0.91800
N 	N 	0.00000 0.21817 0.21817 -0.17600
C 	C 	0.50000 0.76520 0.76520 0.01000
H 	H 	0.50000 0.78140 0.78140 0.07100
Cu	Cu	0.50000 0.68119 0.68119 0.92000
N 	N 	0.50000 0.71817 0.71817 -0.17400
C 	C 	0.00000 0.26520 0.73480 0.00300
H 	H 	0.00000 0.28140 0.71860 0.07200
Cu	Cu	0.00000 0.18119 0.81881 0.91800
N 	N 	0.00000 0.21817 0.78183 -0.17600
C 	C 	0.50000 0.76520 0.23480 0.01000
H 	H 	0.50000 0.78140 0.21860 0.07100
Cu	Cu	0.50000 0.68119 0.31881 0.92000
N 	N 	0.50000 0.71817 0.28183 -0.17400
C 	C 	-0.00000 0.73480 0.73480 0.00300
H 	H 	-0.00000 0.71860 0.71860 0.07200
Cu	Cu	-0.00000 0.81881 0.81881 0.91800
N 	N 	0.00000 0.78183 0.78183 -0.17600
C 	C 	0.50000 0.23480 0.23480 0.01100
H 	H 	0.50000 0.21860 0.21860 0.07000
Cu	Cu	0.50000 0.31881 0.31881 0.92000
N 	N 	0.50000 0.28183 0.28183 -0.17400
C 	C 	0.00000 0.73480 0.26520 0.00300
H 	H 	0.00000 0.71860 0.28140 0.07200
Cu	Cu	0.00000 0.81881 0.18119 0.91800
N 	N 	0.00000 0.78183 0.21817 -0.17600
C 	C 	0.50000 0.23480 0.76520 0.01000
H 	H 	0.50000 0.21860 0.78140 0.07100
Cu	Cu	0.50000 0.31881 0.68119 0.92000
N 	N 	0.50000 0.28183 0.71817 -0.17400
Cu	Cu	0.36384 0.36384 0.50000 0.90700
Cu	Cu	0.86384 0.86384 -0.00000 0.90500
Cu	Cu	0.63616 0.63616 0.50000 0.90700
Cu	Cu	0.13616 0.13616 -0.00000 0.90500
Cu	Cu	0.63616 0.36384 0.50000 0.90700
Cu	Cu	0.13616 0.86384 -0.00000 0.90500
Cu	Cu	0.36384 0.63616 0.50000 0.90700
Cu	Cu	0.86384 0.13616 -0.00000 0.90500
Cu	Cu	0.50000 0.36384 0.36384 0.90700
Cu	Cu	0.00000 0.86384 0.86384 0.90500
Cu	Cu	0.50000 0.63616 0.63616 0.90700
Cu	Cu	0.00000 0.13616 0.13616 0.90500
Cu	Cu	0.50000 0.63616 0.36384 0.90700
Cu	Cu	0.00000 0.13616 0.86384 0.90500
Cu	Cu	0.50000 0.36384 0.63616 0.90700
Cu	Cu	0.00000 0.86384 0.13616 0.90500
Cu	Cu	0.36384 0.50000 0.36384 0.90700
Cu	Cu	0.86384 0.00000 0.86384 0.90500
Cu	Cu	0.63616 0.50000 0.63616 0.90700
Cu	Cu	0.13616 0.00000 0.13616 0.90500
Cu	Cu	0.36384 0.50000 0.63616 0.90700
Cu	Cu	0.86384 0.00000 0.13616 0.90500
Cu	Cu	0.63616 0.50000 0.36384 0.90700
Cu	Cu	0.13616 0.00000 0.86384 0.90500
