data_crystal

_cell_length_a 14.30600
_cell_length_b 19.50900
_cell_length_c 36.48200
_cell_angle_alpha 90.00000
_cell_angle_beta  99.62900
_cell_angle_gamma 90.00000

_symmetry_space_group_name_	'P 1'
_symmetry_space_group_name_H-M	'P 1'

loop_
_symmetry_equiv_pos_as_xyz
  x,y,z

loop_
_atom_site_label
_atom_site_type_symbol
_atom_site_fract_x
_atom_site_fract_y
_atom_site_fract_z
_atom_site_charge
Cd	Cd	0.68217 0.98032 0.69507 1.22900
Cd	Cd	0.44687 0.00011 0.66267 1.23500
Cd	Cd	0.18127 0.44562 0.16345 1.13700
Cd	Cd	0.68217 0.51968 0.19507 1.22900
Cd	Cd	0.44687 0.49989 0.16267 1.23500
Cd	Cd	0.18127 0.05438 0.66345 1.13700
H 	H 	0.69560 0.12690 0.58880 0.04200
H 	H 	0.50620 0.30140 0.62510 0.06900
H 	H 	0.52400 0.20010 0.65680 0.03100
H 	H 	0.55550 0.37800 0.57650 0.07000
H 	H 	0.71410 0.30070 0.50400 0.05700
H 	H 	0.72640 0.19770 0.53520 0.03600
H 	H 	0.48720 0.86550 0.56720 0.03000
H 	H 	0.48740 0.77860 0.52520 0.07300
H 	H 	0.69180 0.77300 0.64040 0.04100
H 	H 	0.55110 0.66430 0.50910 0.07300
H 	H 	0.75220 0.56960 0.58330 0.05500
H 	H 	0.75680 0.65940 0.62360 0.03300
H 	H 	0.46450 0.43860 0.28930 0.04400
H 	H 	0.65840 0.61510 0.34670 0.06600
H 	H 	0.61980 0.60800 0.28190 0.02600
H 	H 	0.45460 0.39120 0.35160 0.03900
H 	H 	0.49540 0.39660 0.41570 0.05900
H 	H 	0.64560 0.57090 0.40950 0.07100
H 	H 	0.65700 0.47730 0.56420 0.06600
H 	H 	0.60550 0.58650 0.46870 0.06500
H 	H 	0.60750 0.37900 0.46550 0.06600
H 	H 	0.38060 0.36400 0.05300 0.03000
H 	H 	0.32820 0.27070 0.01500 0.07500
H 	H 	0.25250 0.28960 0.13510 -0.00800
H 	H 	0.16360 0.17930 0.12550 0.02200
H 	H 	0.11420 0.08570 0.08850 0.06400
H 	H 	0.23640 0.16220 0.00590 0.07600
H 	H 	0.12820 0.63340 0.08800 0.03300
H 	H 	0.35920 0.80100 0.12210 0.07300
H 	H 	0.37410 0.69460 0.15020 0.02700
H 	H 	0.04110 0.71030 0.04040 0.03300
H 	H 	0.02980 0.81390 0.00930 0.05200
H 	H 	0.26800 0.88120 0.07570 0.07200
H 	H 	0.78020 0.10120 0.80980 0.04000
H 	H 	0.86440 0.11830 0.86880 0.07000
H 	H 	0.93700 0.93130 0.79700 0.04100
H 	H 	0.98950 0.07840 0.92090 0.07500
H 	H 	0.13510 0.90520 0.90930 0.05300
H 	H 	0.06080 0.89520 0.84810 0.03100
H 	H 	0.17730 0.98660 0.06570 0.06800
H 	H 	0.09550 0.88890 0.96820 0.06300
H 	H 	0.11360 0.09450 0.97080 0.06300
H 	H 	0.69560 0.37310 0.08880 0.04100
H 	H 	0.50620 0.19860 0.12510 0.06900
H 	H 	0.52400 0.29990 0.15680 0.03100
H 	H 	0.55550 0.12200 0.07650 0.07000
H 	H 	0.71410 0.19930 0.00400 0.05700
H 	H 	0.72640 0.30230 0.03520 0.03600
H 	H 	0.48720 0.63450 0.06720 0.03000
H 	H 	0.48740 0.72140 0.02520 0.07300
H 	H 	0.69180 0.72700 0.14040 0.04100
H 	H 	0.55110 0.83570 0.00910 0.07300
H 	H 	0.75220 0.93040 0.08330 0.05500
H 	H 	0.75680 0.84060 0.12360 0.03300
H 	H 	0.46450 0.06140 0.78930 0.04400
H 	H 	0.65840 0.88490 0.84670 0.06600
H 	H 	0.61980 0.89200 0.78190 0.02600
H 	H 	0.45460 0.10880 0.85160 0.03900
H 	H 	0.49540 0.10340 0.91570 0.05900
H 	H 	0.64560 0.92910 0.90950 0.07100
H 	H 	0.65700 0.02270 0.06420 0.06600
H 	H 	0.60550 0.91350 0.96870 0.06500
H 	H 	0.60750 0.12100 0.96550 0.06600
H 	H 	0.38060 0.13600 0.55300 0.03000
H 	H 	0.32820 0.22930 0.51500 0.07500
H 	H 	0.25250 0.21040 0.63510 -0.00800
H 	H 	0.16360 0.32070 0.62550 0.02200
H 	H 	0.11420 0.41430 0.58850 0.06400
H 	H 	0.23640 0.33780 0.50590 0.07600
H 	H 	0.12820 0.86660 0.58800 0.03300
H 	H 	0.35920 0.69900 0.62210 0.07200
H 	H 	0.37410 0.80540 0.65020 0.02700
H 	H 	0.04110 0.78970 0.54040 0.03400
H 	H 	0.02980 0.68610 0.50930 0.05200
H 	H 	0.26800 0.61880 0.57570 0.07200
H 	H 	0.78020 0.39880 0.30980 0.04100
H 	H 	0.86440 0.38170 0.36880 0.06800
H 	H 	0.93700 0.56870 0.29700 0.04300
H 	H 	0.98950 0.42160 0.42090 0.07100
H 	H 	0.13510 0.59480 0.40930 0.05100
H 	H 	0.06080 0.60480 0.34810 0.03300
H 	H 	0.17730 0.51340 0.56570 0.06800
H 	H 	0.09550 0.61110 0.46820 0.06300
H 	H 	0.11360 0.40550 0.47080 0.06300
C 	C 	0.63360 0.09060 0.65010 0.32600
C 	C 	0.61600 0.15400 0.62636 -0.09000
C 	C 	0.65860 0.16320 0.59619 -0.01300
C 	C 	0.65010 0.22490 0.57530 -0.02000
C 	C 	0.59580 0.27850 0.58688 0.06500
C 	C 	0.54620 0.26680 0.61788 -0.11100
C 	C 	0.55670 0.20710 0.63649 0.03000
C 	C 	0.59040 0.34140 0.56820 -0.11800
C 	C 	0.63510 0.35110 0.53792 0.02600
C 	C 	0.68510 0.29540 0.52548 -0.07600
C 	C 	0.69220 0.23430 0.54387 -0.03200
C 	C 	0.59210 0.88640 0.63509 0.36500
C 	C 	0.59080 0.82790 0.60869 -0.10600
C 	C 	0.52930 0.82810 0.57331 0.03800
C 	C 	0.52930 0.77680 0.54828 -0.12500
C 	C 	0.59160 0.72050 0.55655 0.06900
C 	C 	0.65370 0.71830 0.59173 -0.02700
C 	C 	0.65070 0.77380 0.61703 -0.00500
C 	C 	0.59100 0.66340 0.53269 -0.12400
C 	C 	0.64610 0.60640 0.54251 0.02900
C 	C 	0.71070 0.60730 0.57702 -0.07800
C 	C 	0.71400 0.66040 0.60068 -0.02700
C 	C 	0.51140 0.51820 0.23809 0.31800
C 	C 	0.53670 0.52300 0.28072 -0.08300
C 	C 	0.50330 0.47420 0.30122 -0.01900
C 	C 	0.52620 0.47570 0.34103 -0.01300
C 	C 	0.58460 0.53010 0.35729 0.06200
C 	C 	0.61900 0.57910 0.33546 -0.11000
C 	C 	0.59560 0.57510 0.29706 0.02100
C 	C 	0.49390 0.42740 0.36270 -0.03500
C 	C 	0.51850 0.43090 0.40101 -0.07400
C 	C 	0.57610 0.48310 0.41898 0.02600
C 	C 	0.60850 0.53410 0.39792 -0.11300
C 	C 	0.63020 0.41910 0.51823 0.04500
C 	C 	0.64260 0.47910 0.53785 -0.10500
C 	C 	0.63450 0.54340 0.52002 0.04400
C 	C 	0.61250 0.54370 0.48136 -0.10200
C 	C 	0.60030 0.48310 0.46037 0.04500
C 	C 	0.61190 0.42070 0.47914 -0.10600
C 	C 	0.35090 0.39790 0.12039 0.33000
C 	C 	0.31770 0.33620 0.09764 -0.13400
C 	C 	0.34250 0.32970 0.06168 0.04500
C 	C 	0.31200 0.27420 0.03915 -0.13300
C 	C 	0.25650 0.22280 0.05239 0.08200
C 	C 	0.23580 0.22810 0.08878 -0.04900
C 	C 	0.26720 0.28590 0.11069 0.00500
C 	C 	0.18040 0.17590 0.10143 -0.01700
C 	C 	0.15050 0.12050 0.07935 -0.09300
C 	C 	0.17260 0.11440 0.04368 0.04100
C 	C 	0.22330 0.16540 0.03050 -0.13500
C 	C 	0.25680 0.58660 0.14205 0.35900
C 	C 	0.25100 0.65410 0.12250 -0.11700
C 	C 	0.17480 0.66790 0.09463 -0.00300
C 	C 	0.16420 0.73060 0.07594 -0.02600
C 	C 	0.23270 0.78180 0.08640 0.06800
C 	C 	0.31210 0.76700 0.11491 -0.12100
C 	C 	0.32030 0.70420 0.13181 0.04300
C 	C 	0.08820 0.74430 0.04735 -0.03000
C 	C 	0.08090 0.80640 0.02919 -0.07700
C 	C 	0.14820 0.85950 0.03948 0.02600
C 	C 	0.22260 0.84630 0.06808 -0.12000
C 	C 	0.79110 0.00550 0.75952 0.28400
C 	C 	0.84910 0.01490 0.79717 -0.07500
C 	C 	0.82930 0.07010 0.81936 0.01500
C 	C 	0.87890 0.08030 0.85453 -0.11200
C 	C 	0.95240 0.03360 0.86958 0.06600
C 	C 	0.97400 0.97790 0.84720 -0.02100
C 	C 	0.92270 0.96880 0.81169 -0.03100
C 	C 	0.00130 0.03980 0.90656 -0.12800
C 	C 	0.06460 0.99190 0.92188 0.03500
C 	C 	0.08820 0.93770 0.89929 -0.08100
C 	C 	0.04360 0.93170 0.86289 -0.03200
C 	C 	0.14880 0.05010 0.02149 0.04000
C 	C 	0.15790 0.98770 0.03948 -0.10100
C 	C 	0.13910 0.92610 0.02019 0.04100
C 	C 	0.10950 0.93020 0.98182 -0.10000
C 	C 	0.09960 0.99210 0.96263 0.04200
C 	C 	0.11970 0.05150 0.98319 -0.10300
C 	C 	0.63360 0.40940 0.15010 0.32600
C 	C 	0.61600 0.34600 0.12636 -0.09000
C 	C 	0.65860 0.33680 0.09619 -0.01200
C 	C 	0.65010 0.27510 0.07530 -0.02000
C 	C 	0.59580 0.22150 0.08688 0.06600
C 	C 	0.54620 0.23320 0.11788 -0.11100
C 	C 	0.55670 0.29290 0.13649 0.03000
C 	C 	0.59040 0.15860 0.06820 -0.11800
C 	C 	0.63510 0.14890 0.03792 0.02600
C 	C 	0.68510 0.20460 0.02548 -0.07600
C 	C 	0.69220 0.26570 0.04387 -0.03200
C 	C 	0.59210 0.61360 0.13509 0.36500
C 	C 	0.59080 0.67210 0.10869 -0.10600
C 	C 	0.52930 0.67190 0.07331 0.03800
C 	C 	0.52930 0.72320 0.04828 -0.12500
C 	C 	0.59160 0.77950 0.05655 0.06900
C 	C 	0.65370 0.78170 0.09173 -0.02700
C 	C 	0.65070 0.72620 0.11703 -0.00500
C 	C 	0.59100 0.83660 0.03269 -0.12400
C 	C 	0.64610 0.89360 0.04251 0.02900
C 	C 	0.71070 0.89270 0.07702 -0.07800
C 	C 	0.71400 0.83960 0.10068 -0.02700
C 	C 	0.51140 0.98180 0.73809 0.31800
C 	C 	0.53670 0.97700 0.78072 -0.08300
C 	C 	0.50330 0.02580 0.80122 -0.01900
C 	C 	0.52620 0.02430 0.84103 -0.01300
C 	C 	0.58460 0.96990 0.85729 0.06200
C 	C 	0.61900 0.92090 0.83546 -0.11000
C 	C 	0.59560 0.92490 0.79706 0.02100
C 	C 	0.49390 0.07260 0.86270 -0.03500
C 	C 	0.51850 0.06910 0.90101 -0.07400
C 	C 	0.57610 0.01690 0.91898 0.02600
C 	C 	0.60850 0.96590 0.89792 -0.11300
C 	C 	0.63020 0.08090 0.01823 0.04500
C 	C 	0.64260 0.02090 0.03785 -0.10400
C 	C 	0.63450 0.95660 0.02002 0.04300
C 	C 	0.61250 0.95630 0.98136 -0.10200
C 	C 	0.60030 0.01690 0.96037 0.04500
C 	C 	0.61190 0.07930 0.97914 -0.10600
C 	C 	0.35090 0.10210 0.62039 0.33000
C 	C 	0.31770 0.16380 0.59764 -0.13400
C 	C 	0.34250 0.17030 0.56168 0.04400
C 	C 	0.31200 0.22580 0.53915 -0.13300
C 	C 	0.25650 0.27720 0.55239 0.08200
C 	C 	0.23580 0.27190 0.58878 -0.04800
C 	C 	0.26720 0.21410 0.61069 0.00500
C 	C 	0.18040 0.32410 0.60143 -0.01800
C 	C 	0.15050 0.37950 0.57935 -0.09300
C 	C 	0.17260 0.38560 0.54368 0.04000
C 	C 	0.22330 0.33460 0.53050 -0.13400
C 	C 	0.25680 0.91340 0.64205 0.35900
C 	C 	0.25100 0.84590 0.62250 -0.11700
C 	C 	0.17480 0.83210 0.59463 -0.00300
C 	C 	0.16420 0.76940 0.57594 -0.02600
C 	C 	0.23270 0.71820 0.58640 0.06700
C 	C 	0.31210 0.73300 0.61491 -0.12100
C 	C 	0.32030 0.79580 0.63181 0.04200
C 	C 	0.08820 0.75570 0.54735 -0.03100
C 	C 	0.08090 0.69360 0.52919 -0.07600
C 	C 	0.14820 0.64050 0.53948 0.02500
C 	C 	0.22260 0.65370 0.56808 -0.11900
C 	C 	0.79110 0.49450 0.25952 0.28200
C 	C 	0.84910 0.48510 0.29717 -0.07400
C 	C 	0.82930 0.42990 0.31936 0.01200
C 	C 	0.87890 0.41970 0.35453 -0.10600
C 	C 	0.95240 0.46640 0.36958 0.05600
C 	C 	0.97400 0.52210 0.34720 -0.01300
C 	C 	0.92270 0.53120 0.31169 -0.03500
C 	C 	0.00130 0.46020 0.40656 -0.11600
C 	C 	0.06460 0.50810 0.42188 0.02700
C 	C 	0.08820 0.56230 0.39929 -0.07400
C 	C 	0.04360 0.56830 0.36289 -0.04000
C 	C 	0.14880 0.44990 0.52149 0.04200
C 	C 	0.15790 0.51230 0.53948 -0.10400
C 	C 	0.13910 0.57390 0.52019 0.04300
C 	C 	0.10950 0.56980 0.48182 -0.10200
C 	C 	0.09960 0.50790 0.46263 0.04400
C 	C 	0.11970 0.44850 0.48319 -0.10300
O 	O 	0.57760 0.07580 0.67193 -0.47200
O 	O 	0.70720 0.05500 0.64820 -0.40200
O 	O 	0.66360 0.88810 0.66116 -0.43700
O 	O 	0.52620 0.92920 0.62990 -0.44000
O 	O 	0.55320 0.55640 0.21865 -0.47100
O 	O 	0.44660 0.47570 0.22436 -0.40500
O 	O 	0.32560 0.40605 0.15174 -0.52800
O 	O 	0.40510 0.43971 0.10815 -0.38700
O 	O 	0.33330 0.57710 0.16572 -0.44500
O 	O 	0.19010 0.54480 0.13524 -0.49400
O 	O 	0.80950 0.95330 0.73981 -0.38900
O 	O 	0.72790 0.04700 0.74819 -0.37400
O 	O 	0.57760 0.42420 0.17193 -0.47200
O 	O 	0.70720 0.44500 0.14820 -0.40300
O 	O 	0.66360 0.61190 0.16116 -0.43700
O 	O 	0.52620 0.57080 0.12990 -0.44100
O 	O 	0.55320 0.94360 0.71865 -0.47100
O 	O 	0.44660 0.02430 0.72436 -0.40500
O 	O 	0.32560 0.09395 0.65174 -0.52800
O 	O 	0.40510 0.06029 0.60815 -0.38700
O 	O 	0.33330 0.92290 0.66572 -0.44500
O 	O 	0.19010 0.95520 0.63524 -0.49300
O 	O 	0.80950 0.54670 0.23981 -0.38800
O 	O 	0.72790 0.45300 0.24819 -0.37300
Cd	Cd	0.31783 0.48032 0.80493 1.22900
Cd	Cd	0.55313 0.50011 0.83733 1.23500
Cd	Cd	0.81873 0.94562 0.33655 1.13700
Cd	Cd	0.31783 0.01968 0.30493 1.22900
Cd	Cd	0.55313 0.99989 0.33733 1.23500
Cd	Cd	0.81873 0.55438 0.83655 1.13700
H 	H 	0.30440 0.62690 0.91120 0.04100
H 	H 	0.49380 0.80140 0.87490 0.06900
H 	H 	0.47600 0.70010 0.84320 0.03100
H 	H 	0.44450 0.87800 0.92350 0.07000
H 	H 	0.28590 0.80070 0.99600 0.05700
H 	H 	0.27360 0.69770 0.96480 0.03600
H 	H 	0.51280 0.36550 0.93280 0.03000
H 	H 	0.51260 0.27860 0.97480 0.07300
H 	H 	0.30820 0.27300 0.85960 0.04100
H 	H 	0.44890 0.16430 0.99090 0.07300
H 	H 	0.24780 0.06960 0.91670 0.05500
H 	H 	0.24320 0.15940 0.87640 0.03300
H 	H 	0.53550 0.93860 0.21070 0.04400
H 	H 	0.34160 0.11510 0.15330 0.06600
H 	H 	0.38020 0.10800 0.21810 0.02600
H 	H 	0.54540 0.89120 0.14840 0.03900
H 	H 	0.50460 0.89660 0.08430 0.05900
H 	H 	0.35440 0.07090 0.09050 0.07100
H 	H 	0.34300 0.97730 0.93580 0.06600
H 	H 	0.39450 0.08650 0.03130 0.06500
H 	H 	0.39250 0.87900 0.03450 0.06600
H 	H 	0.61940 0.86400 0.44700 0.03000
H 	H 	0.67180 0.77070 0.48500 0.07500
H 	H 	0.74750 0.78960 0.36490 -0.00800
H 	H 	0.83640 0.67930 0.37450 0.02200
H 	H 	0.88580 0.58570 0.41150 0.06400
H 	H 	0.76360 0.66220 0.49410 0.07600
H 	H 	0.87180 0.13340 0.41200 0.03300
H 	H 	0.64080 0.30100 0.37790 0.07200
H 	H 	0.62590 0.19460 0.34980 0.02700
H 	H 	0.95890 0.21030 0.45960 0.03400
H 	H 	0.97020 0.31390 0.49070 0.05200
H 	H 	0.73200 0.38120 0.42430 0.07200
H 	H 	0.21980 0.60120 0.69020 0.04100
H 	H 	0.13560 0.61830 0.63120 0.06800
H 	H 	0.06300 0.43130 0.70300 0.04300
H 	H 	0.01050 0.57840 0.57910 0.07100
H 	H 	0.86490 0.40520 0.59070 0.05100
H 	H 	0.93920 0.39520 0.65190 0.03300
H 	H 	0.82270 0.48660 0.43430 0.06800
H 	H 	0.90450 0.38890 0.53180 0.06300
H 	H 	0.88640 0.59450 0.52920 0.06300
H 	H 	0.30440 0.87310 0.41120 0.04200
H 	H 	0.49380 0.69860 0.37490 0.06900
H 	H 	0.47600 0.79990 0.34320 0.03100
H 	H 	0.44450 0.62200 0.42350 0.07000
H 	H 	0.28590 0.69930 0.49600 0.05700
H 	H 	0.27360 0.80230 0.46480 0.03600
H 	H 	0.51280 0.13450 0.43280 0.03000
H 	H 	0.51260 0.22140 0.47480 0.07300
H 	H 	0.30820 0.22700 0.35960 0.04100
H 	H 	0.44890 0.33570 0.49090 0.07300
H 	H 	0.24780 0.43040 0.41670 0.05500
H 	H 	0.24320 0.34060 0.37640 0.03300
H 	H 	0.53550 0.56140 0.71070 0.04400
H 	H 	0.34160 0.38490 0.65330 0.06600
H 	H 	0.38020 0.39200 0.71810 0.02600
H 	H 	0.54540 0.60880 0.64840 0.03900
H 	H 	0.50460 0.60340 0.58430 0.05900
H 	H 	0.35440 0.42910 0.59050 0.07100
H 	H 	0.34300 0.52270 0.43580 0.06600
H 	H 	0.39450 0.41350 0.53130 0.06500
H 	H 	0.39250 0.62100 0.53450 0.06600
H 	H 	0.61940 0.63600 0.94700 0.03000
H 	H 	0.67180 0.72930 0.98500 0.07500
H 	H 	0.74750 0.71040 0.86490 -0.00800
H 	H 	0.83640 0.82070 0.87450 0.02200
H 	H 	0.88580 0.91430 0.91150 0.06400
H 	H 	0.76360 0.83780 0.99410 0.07600
H 	H 	0.87180 0.36660 0.91200 0.03300
H 	H 	0.64080 0.19900 0.87790 0.07300
H 	H 	0.62590 0.30540 0.84980 0.02700
H 	H 	0.95890 0.28970 0.95960 0.03300
H 	H 	0.97020 0.18610 0.99070 0.05200
H 	H 	0.73200 0.11880 0.92430 0.07200
H 	H 	0.21980 0.89880 0.19020 0.04000
H 	H 	0.13560 0.88170 0.13120 0.07000
H 	H 	0.06300 0.06870 0.20300 0.04100
H 	H 	0.01050 0.92160 0.07910 0.07500
H 	H 	0.86490 0.09480 0.09070 0.05300
H 	H 	0.93920 0.10480 0.15190 0.03100
H 	H 	0.82270 0.01340 0.93430 0.06800
H 	H 	0.90450 0.11110 0.03180 0.06300
H 	H 	0.88640 0.90550 0.02920 0.06300
C 	C 	0.36640 0.59060 0.84990 0.32600
C 	C 	0.38400 0.65400 0.87364 -0.09000
C 	C 	0.34140 0.66320 0.90381 -0.01200
C 	C 	0.34990 0.72490 0.92470 -0.02000
C 	C 	0.40420 0.77850 0.91312 0.06600
C 	C 	0.45380 0.76680 0.88212 -0.11100
C 	C 	0.44330 0.70710 0.86351 0.03000
C 	C 	0.40960 0.84140 0.93180 -0.11800
C 	C 	0.36490 0.85110 0.96208 0.02600
C 	C 	0.31490 0.79540 0.97452 -0.07600
C 	C 	0.30780 0.73430 0.95613 -0.03200
C 	C 	0.40790 0.38640 0.86491 0.36500
C 	C 	0.40920 0.32790 0.89131 -0.10600
C 	C 	0.47070 0.32810 0.92669 0.03800
C 	C 	0.47070 0.27680 0.95172 -0.12500
C 	C 	0.40840 0.22050 0.94345 0.06900
C 	C 	0.34630 0.21830 0.90827 -0.02700
C 	C 	0.34930 0.27380 0.88297 -0.00500
C 	C 	0.40900 0.16340 0.96731 -0.12400
C 	C 	0.35390 0.10640 0.95749 0.02900
C 	C 	0.28930 0.10730 0.92298 -0.07800
C 	C 	0.28600 0.16040 0.89932 -0.02700
C 	C 	0.48860 0.01820 0.26191 0.31800
C 	C 	0.46330 0.02300 0.21928 -0.08300
C 	C 	0.49670 0.97420 0.19878 -0.01900
C 	C 	0.47380 0.97570 0.15897 -0.01300
C 	C 	0.41540 0.03010 0.14271 0.06200
C 	C 	0.38100 0.07910 0.16454 -0.11000
C 	C 	0.40440 0.07510 0.20294 0.02100
C 	C 	0.50610 0.92740 0.13730 -0.03500
C 	C 	0.48150 0.93090 0.09899 -0.07400
C 	C 	0.42390 0.98310 0.08102 0.02600
C 	C 	0.39150 0.03410 0.10208 -0.11300
C 	C 	0.36980 0.91910 0.98177 0.04500
C 	C 	0.35740 0.97910 0.96215 -0.10400
C 	C 	0.36550 0.04340 0.97998 0.04300
C 	C 	0.38750 0.04370 0.01864 -0.10200
C 	C 	0.39970 0.98310 0.03963 0.04500
C 	C 	0.38810 0.92070 0.02086 -0.10600
C 	C 	0.64910 0.89790 0.37961 0.33000
C 	C 	0.68230 0.83620 0.40236 -0.13400
C 	C 	0.65750 0.82970 0.43832 0.04400
C 	C 	0.68800 0.77420 0.46085 -0.13300
C 	C 	0.74350 0.72280 0.44761 0.08200
C 	C 	0.76420 0.72810 0.41122 -0.04800
C 	C 	0.73280 0.78590 0.38931 0.00500
C 	C 	0.81960 0.67590 0.39857 -0.01800
C 	C 	0.84950 0.62050 0.42065 -0.09300
C 	C 	0.82740 0.61440 0.45632 0.04000
C 	C 	0.77670 0.66540 0.46950 -0.13400
C 	C 	0.74320 0.08660 0.35795 0.35900
C 	C 	0.74900 0.15410 0.37750 -0.11700
C 	C 	0.82520 0.16790 0.40537 -0.00300
C 	C 	0.83580 0.23060 0.42406 -0.02600
C 	C 	0.76730 0.28180 0.41360 0.06700
C 	C 	0.68790 0.26700 0.38509 -0.12100
C 	C 	0.67970 0.20420 0.36819 0.04200
C 	C 	0.91180 0.24430 0.45265 -0.03100
C 	C 	0.91910 0.30640 0.47081 -0.07600
C 	C 	0.85180 0.35950 0.46052 0.02500
C 	C 	0.77740 0.34630 0.43192 -0.11900
C 	C 	0.20890 0.50550 0.74048 0.28200
C 	C 	0.15090 0.51490 0.70283 -0.07400
C 	C 	0.17070 0.57010 0.68064 0.01200
C 	C 	0.12110 0.58030 0.64547 -0.10600
C 	C 	0.04760 0.53360 0.63042 0.05600
C 	C 	0.02600 0.47790 0.65280 -0.01300
C 	C 	0.07730 0.46880 0.68831 -0.03500
C 	C 	0.99870 0.53980 0.59344 -0.11600
C 	C 	0.93540 0.49190 0.57812 0.02700
C 	C 	0.91180 0.43770 0.60071 -0.07400
C 	C 	0.95640 0.43170 0.63711 -0.04000
C 	C 	0.85120 0.55010 0.47851 0.04200
C 	C 	0.84210 0.48770 0.46052 -0.10400
C 	C 	0.86090 0.42610 0.47981 0.04300
C 	C 	0.89050 0.43020 0.51818 -0.10200
C 	C 	0.90040 0.49210 0.53737 0.04400
C 	C 	0.88030 0.55150 0.51681 -0.10300
C 	C 	0.36640 0.90940 0.34990 0.32600
C 	C 	0.38400 0.84600 0.37364 -0.09000
C 	C 	0.34140 0.83680 0.40381 -0.01300
C 	C 	0.34990 0.77510 0.42470 -0.02000
C 	C 	0.40420 0.72150 0.41312 0.06500
C 	C 	0.45380 0.73320 0.38212 -0.11100
C 	C 	0.44330 0.79290 0.36351 0.03000
C 	C 	0.40960 0.65860 0.43180 -0.11800
C 	C 	0.36490 0.64890 0.46208 0.02600
C 	C 	0.31490 0.70460 0.47452 -0.07600
C 	C 	0.30780 0.76570 0.45613 -0.03200
C 	C 	0.40790 0.11360 0.36491 0.36500
C 	C 	0.40920 0.17210 0.39131 -0.10600
C 	C 	0.47070 0.17190 0.42669 0.03800
C 	C 	0.47070 0.22320 0.45172 -0.12500
C 	C 	0.40840 0.27950 0.44345 0.06900
C 	C 	0.34630 0.28170 0.40827 -0.02700
C 	C 	0.34930 0.22620 0.38297 -0.00500
C 	C 	0.40900 0.33660 0.46731 -0.12400
C 	C 	0.35390 0.39360 0.45749 0.02900
C 	C 	0.28930 0.39270 0.42298 -0.07800
C 	C 	0.28600 0.33960 0.39932 -0.02700
C 	C 	0.48860 0.48180 0.76191 0.31800
C 	C 	0.46330 0.47700 0.71928 -0.08300
C 	C 	0.49670 0.52580 0.69878 -0.01900
C 	C 	0.47380 0.52430 0.65897 -0.01300
C 	C 	0.41540 0.46990 0.64271 0.06200
C 	C 	0.38100 0.42090 0.66454 -0.11000
C 	C 	0.40440 0.42490 0.70294 0.02100
C 	C 	0.50610 0.57260 0.63730 -0.03500
C 	C 	0.48150 0.56910 0.59899 -0.07400
C 	C 	0.42390 0.51690 0.58102 0.02600
C 	C 	0.39150 0.46590 0.60208 -0.11300
C 	C 	0.36980 0.58090 0.48177 0.04500
C 	C 	0.35740 0.52090 0.46215 -0.10500
C 	C 	0.36550 0.45660 0.47998 0.04400
C 	C 	0.38750 0.45630 0.51864 -0.10200
C 	C 	0.39970 0.51690 0.53963 0.04500
C 	C 	0.38810 0.57930 0.52086 -0.10600
C 	C 	0.64910 0.60210 0.87961 0.33000
C 	C 	0.68230 0.66380 0.90236 -0.13400
C 	C 	0.65750 0.67030 0.93832 0.04500
C 	C 	0.68800 0.72580 0.96085 -0.13300
C 	C 	0.74350 0.77720 0.94761 0.08200
C 	C 	0.76420 0.77190 0.91122 -0.04900
C 	C 	0.73280 0.71410 0.88931 0.00500
C 	C 	0.81960 0.82410 0.89857 -0.01700
C 	C 	0.84950 0.87950 0.92065 -0.09300
C 	C 	0.82740 0.88560 0.95632 0.04100
C 	C 	0.77670 0.83460 0.96950 -0.13500
C 	C 	0.74320 0.41340 0.85795 0.35900
C 	C 	0.74900 0.34590 0.87750 -0.11700
C 	C 	0.82520 0.33210 0.90537 -0.00300
C 	C 	0.83580 0.26940 0.92406 -0.02600
C 	C 	0.76730 0.21820 0.91360 0.06800
C 	C 	0.68790 0.23300 0.88509 -0.12100
C 	C 	0.67970 0.29580 0.86819 0.04300
C 	C 	0.91180 0.25570 0.95265 -0.03000
C 	C 	0.91910 0.19360 0.97081 -0.07700
C 	C 	0.85180 0.14050 0.96052 0.02600
C 	C 	0.77740 0.15370 0.93192 -0.12000
C 	C 	0.20890 0.99450 0.24048 0.28400
C 	C 	0.15090 0.98510 0.20283 -0.07500
C 	C 	0.17070 0.92990 0.18064 0.01500
C 	C 	0.12110 0.91970 0.14547 -0.11200
C 	C 	0.04760 0.96640 0.13042 0.06600
C 	C 	0.02600 0.02210 0.15280 -0.02100
C 	C 	0.07730 0.03120 0.18831 -0.03100
C 	C 	0.99870 0.96020 0.09344 -0.12800
C 	C 	0.93540 0.00810 0.07812 0.03500
C 	C 	0.91180 0.06230 0.10071 -0.08100
C 	C 	0.95640 0.06830 0.13711 -0.03200
C 	C 	0.85120 0.94990 0.97851 0.04000
C 	C 	0.84210 0.01230 0.96052 -0.10100
C 	C 	0.86090 0.07390 0.97981 0.04100
C 	C 	0.89050 0.06980 0.01818 -0.10000
C 	C 	0.90040 0.00790 0.03737 0.04200
C 	C 	0.88030 0.94850 0.01681 -0.10300
O 	O 	0.42240 0.57580 0.82807 -0.47200
O 	O 	0.29280 0.55500 0.85180 -0.40300
O 	O 	0.33640 0.38810 0.83884 -0.43700
O 	O 	0.47380 0.42920 0.87010 -0.44100
O 	O 	0.44680 0.05640 0.28135 -0.47100
O 	O 	0.55340 0.97570 0.27564 -0.40500
O 	O 	0.67440 0.90605 0.34826 -0.52800
O 	O 	0.59490 0.93971 0.39185 -0.38700
O 	O 	0.66670 0.07710 0.33428 -0.44500
O 	O 	0.80990 0.04480 0.36476 -0.49300
O 	O 	0.19050 0.45330 0.76019 -0.38800
O 	O 	0.27210 0.54700 0.75181 -0.37300
O 	O 	0.42240 0.92420 0.32807 -0.47200
O 	O 	0.29280 0.94500 0.35180 -0.40200
O 	O 	0.33640 0.11190 0.33884 -0.43700
O 	O 	0.47380 0.07080 0.37010 -0.44000
O 	O 	0.44680 0.44360 0.78135 -0.47100
O 	O 	0.55340 0.52430 0.77564 -0.40500
O 	O 	0.67440 0.59395 0.84826 -0.52800
O 	O 	0.59490 0.56029 0.89185 -0.38700
O 	O 	0.66670 0.42290 0.83428 -0.44500
O 	O 	0.80990 0.45520 0.86476 -0.49400
O 	O 	0.19050 0.04670 0.26019 -0.38900
O 	O 	0.27210 0.95300 0.25181 -0.37400
