data_crystal

_cell_length_a 29.04400
_cell_length_b 29.04400
_cell_length_c 29.04400
_cell_angle_alpha 90.00000
_cell_angle_beta  90.00000
_cell_angle_gamma 90.00000

_symmetry_space_group_name_	'P 1'
_symmetry_space_group_name_H-M	'P 1'

loop_
_symmetry_equiv_pos_as_xyz
  x,y,z

loop_
_atom_site_label
_atom_site_type_symbol
_atom_site_fract_x
_atom_site_fract_y
_atom_site_fract_z
_atom_site_charge
O 	O 	0.32029 0.41370 0.03783 -0.17200
C 	C 	0.18940 0.36920 0.02370 -0.05500
H 	H 	0.16460 0.36110 0.04230 0.06700
N 	N 	0.23212 0.38329 0.03901 -0.25500
C 	C 	0.31960 0.35320 0.17040 0.09200
C 	C 	0.30770 0.37490 0.20950 -0.25400
H 	H 	0.28520 0.39770 0.20960 0.11100
C 	C 	0.32910 0.36290 0.24720 0.14500
H 	H 	0.32140 0.37730 0.27480 -0.43600
N 	N 	0.30193 0.35762 0.12689 -0.28700
O 	O 	0.13900 0.23700 0.03730 0.94300
C 	C 	0.15100 0.24570 0.02410 -1.55500
N 	N 	0.32450 0.46230 0.29440 -0.24400
O 	O 	0.82029 0.91370 0.53783 -0.15400
C 	C 	0.68940 0.86920 0.52370 0.02900
H 	H 	0.66460 0.86110 0.54230 0.05000
N 	N 	0.73212 0.88329 0.53901 -0.26900
C 	C 	0.81960 0.85320 0.67040 0.09400
C 	C 	0.80770 0.87490 0.70950 -0.25500
H 	H 	0.78520 0.89770 0.70960 0.11600
C 	C 	0.82910 0.86290 0.74720 0.14600
H 	H 	0.82140 0.87730 0.77480 -0.43700
N 	N 	0.80193 0.85762 0.62689 -0.28600
O 	O 	0.63900 0.73700 0.53730 0.93700
C 	C 	0.65100 0.74570 0.52410 -1.51700
N 	N 	0.82450 0.96230 0.79440 -0.21800
O 	O 	0.67971 0.58630 0.03783 -0.17200
C 	C 	0.81060 0.63080 0.02370 -0.05400
H 	H 	0.83540 0.63890 0.04230 0.07200
N 	N 	0.76788 0.61671 0.03901 -0.25500
C 	C 	0.68040 0.64680 0.17040 0.09100
C 	C 	0.69230 0.62510 0.20950 -0.25400
H 	H 	0.71480 0.60230 0.20960 0.11100
C 	C 	0.67090 0.63710 0.24720 0.14500
H 	H 	0.67860 0.62270 0.27480 -0.43600
N 	N 	0.69807 0.64238 0.12689 -0.28700
O 	O 	0.86100 0.76300 0.03730 0.94300
C 	C 	0.84900 0.75430 0.02410 -1.54000
N 	N 	0.67550 0.53770 0.29440 -0.24400
O 	O 	0.17971 0.08630 0.53783 -0.17200
C 	C 	0.31060 0.13080 0.52370 0.02600
H 	H 	0.33540 0.13890 0.54230 0.04700
N 	N 	0.26788 0.11671 0.53901 -0.26900
C 	C 	0.18040 0.14680 0.67040 0.09100
C 	C 	0.19230 0.12510 0.70950 -0.25400
H 	H 	0.21480 0.10230 0.70960 0.11100
C 	C 	0.17090 0.13710 0.74720 0.14400
H 	H 	0.17860 0.12270 0.77480 -0.43600
N 	N 	0.19807 0.14238 0.62689 -0.28600
O 	O 	0.36100 0.26300 0.53730 0.93700
C 	C 	0.34900 0.25430 0.52410 -1.51600
N 	N 	0.17550 0.03770 0.79440 -0.23600
O 	O 	0.67971 0.41370 0.96217 -0.12900
C 	C 	0.81060 0.36920 0.97630 0.11500
H 	H 	0.83540 0.36110 0.95770 0.03200
N 	N 	0.76788 0.38329 0.96099 -0.25600
C 	C 	0.68040 0.35320 0.82960 0.09300
C 	C 	0.69230 0.37490 0.79050 -0.25300
H 	H 	0.71480 0.39770 0.79040 0.11200
C 	C 	0.67090 0.36290 0.75280 0.14600
H 	H 	0.67860 0.37730 0.72520 -0.43500
N 	N 	0.69807 0.35762 0.87311 -0.28400
O 	O 	0.86100 0.23700 0.96270 1.05500
C 	C 	0.84900 0.24570 0.97590 -1.63500
N 	N 	0.67550 0.46230 0.70560 -0.24400
O 	O 	0.17971 0.91370 0.46217 -0.15800
C 	C 	0.31060 0.86920 0.47630 0.03000
H 	H 	0.33540 0.86110 0.45770 0.05100
N 	N 	0.26788 0.88329 0.46099 -0.26800
C 	C 	0.18040 0.85320 0.32960 0.09800
C 	C 	0.19230 0.87490 0.29050 -0.26100
H 	H 	0.21480 0.89770 0.29040 0.11900
C 	C 	0.17090 0.86290 0.25280 0.15400
H 	H 	0.17860 0.87730 0.22520 -0.43900
N 	N 	0.19807 0.85762 0.37311 -0.28600
O 	O 	0.36100 0.73700 0.46270 0.93800
C 	C 	0.34900 0.74570 0.47590 -1.51700
N 	N 	0.17550 0.96230 0.20560 -0.21800
O 	O 	0.32029 0.58630 0.96217 -0.12900
C 	C 	0.18940 0.63080 0.97630 0.11400
H 	H 	0.16460 0.63890 0.95770 0.02800
N 	N 	0.23212 0.61671 0.96099 -0.25600
C 	C 	0.31960 0.64680 0.82960 0.09300
C 	C 	0.30770 0.62510 0.79050 -0.25300
H 	H 	0.28520 0.60230 0.79040 0.11200
C 	C 	0.32910 0.63710 0.75280 0.14600
H 	H 	0.32140 0.62270 0.72520 -0.43500
N 	N 	0.30193 0.64238 0.87311 -0.28400
O 	O 	0.13900 0.76300 0.96270 1.05200
C 	C 	0.15100 0.75430 0.97590 -1.63900
N 	N 	0.32450 0.53770 0.70560 -0.24400
O 	O 	0.82029 0.08630 0.46217 -0.16600
C 	C 	0.68940 0.13080 0.47630 0.02700
H 	H 	0.66460 0.13890 0.45770 0.04800
N 	N 	0.73212 0.11671 0.46099 -0.26900
C 	C 	0.81960 0.14680 0.32960 0.08800
C 	C 	0.80770 0.12510 0.29050 -0.24700
H 	H 	0.78520 0.10230 0.29040 0.10900
C 	C 	0.82910 0.13710 0.25280 0.13700
H 	H 	0.82140 0.12270 0.22520 -0.43300
N 	N 	0.80193 0.14238 0.37311 -0.28500
O 	O 	0.63900 0.26300 0.46270 0.93700
C 	C 	0.65100 0.25430 0.47590 -1.51600
N 	N 	0.82450 0.03770 0.20560 -0.23600
O 	O 	0.03783 0.32029 0.41370 -0.17100
C 	C 	0.02370 0.18940 0.36920 -0.05400
H 	H 	0.04230 0.16460 0.36110 0.06800
N 	N 	0.03901 0.23212 0.38329 -0.25400
C 	C 	0.17040 0.31960 0.35320 0.09300
C 	C 	0.20950 0.30770 0.37490 -0.25300
H 	H 	0.20960 0.28520 0.39770 0.11200
C 	C 	0.24720 0.32910 0.36290 0.14600
H 	H 	0.27480 0.32140 0.37730 -0.43500
N 	N 	0.12689 0.30193 0.35762 -0.28600
O 	O 	0.03730 0.13900 0.23700 0.94400
C 	C 	0.02410 0.15100 0.24570 -1.55400
N 	N 	0.29440 0.32450 0.46230 -0.24300
O 	O 	0.53783 0.82029 0.91370 -0.15300
C 	C 	0.52370 0.68940 0.86920 0.03000
H 	H 	0.54230 0.66460 0.86110 0.05100
N 	N 	0.53901 0.73212 0.88329 -0.26800
C 	C 	0.67040 0.81960 0.85320 0.09500
C 	C 	0.70950 0.80770 0.87490 -0.25400
H 	H 	0.70960 0.78520 0.89770 0.11700
C 	C 	0.74720 0.82910 0.86290 0.14700
H 	H 	0.77480 0.82140 0.87730 -0.43600
N 	N 	0.62689 0.80193 0.85762 -0.28500
O 	O 	0.53730 0.63900 0.73700 0.93800
C 	C 	0.52410 0.65100 0.74570 -1.51600
N 	N 	0.79440 0.82450 0.96230 -0.21700
O 	O 	0.03783 0.67971 0.58630 -0.17100
C 	C 	0.02370 0.81060 0.63080 -0.05300
H 	H 	0.04230 0.83540 0.63890 0.07300
N 	N 	0.03901 0.76788 0.61671 -0.25400
C 	C 	0.17040 0.68040 0.64680 0.09200
C 	C 	0.20950 0.69230 0.62510 -0.25300
H 	H 	0.20960 0.71480 0.60230 0.11200
C 	C 	0.24720 0.67090 0.63710 0.14600
H 	H 	0.27480 0.67860 0.62270 -0.43500
N 	N 	0.12689 0.69807 0.64238 -0.28600
O 	O 	0.03730 0.86100 0.76300 0.94400
C 	C 	0.02410 0.84900 0.75430 -1.53900
N 	N 	0.29440 0.67550 0.53770 -0.24300
O 	O 	0.53783 0.17971 0.08630 -0.17100
C 	C 	0.52370 0.31060 0.13080 0.02700
H 	H 	0.54230 0.33540 0.13890 0.04800
N 	N 	0.53901 0.26788 0.11671 -0.26900
C 	C 	0.67040 0.18040 0.14680 0.09100
C 	C 	0.70950 0.19230 0.12510 -0.25400
H 	H 	0.70960 0.21480 0.10230 0.11100
C 	C 	0.74720 0.17090 0.13710 0.14400
H 	H 	0.77480 0.17860 0.12270 -0.43600
N 	N 	0.62689 0.19807 0.14238 -0.28600
O 	O 	0.53730 0.36100 0.26300 0.93700
C 	C 	0.52410 0.34900 0.25430 -1.51600
N 	N 	0.79440 0.17550 0.03770 -0.23600
O 	O 	0.96217 0.67971 0.41370 -0.12900
C 	C 	0.97630 0.81060 0.36920 0.11500
H 	H 	0.95770 0.83540 0.36110 0.03200
N 	N 	0.96099 0.76788 0.38329 -0.25600
C 	C 	0.82960 0.68040 0.35320 0.09300
C 	C 	0.79050 0.69230 0.37490 -0.25300
H 	H 	0.79040 0.71480 0.39770 0.11200
C 	C 	0.75280 0.67090 0.36290 0.14600
H 	H 	0.72520 0.67860 0.37730 -0.43500
N 	N 	0.87311 0.69807 0.35762 -0.28400
O 	O 	0.96270 0.86100 0.23700 1.05500
C 	C 	0.97590 0.84900 0.24570 -1.63500
N 	N 	0.70560 0.67550 0.46230 -0.24400
O 	O 	0.46217 0.17971 0.91370 -0.15800
C 	C 	0.47630 0.31060 0.86920 0.03000
H 	H 	0.45770 0.33540 0.86110 0.05100
N 	N 	0.46099 0.26788 0.88329 -0.26800
C 	C 	0.32960 0.18040 0.85320 0.09800
C 	C 	0.29050 0.19230 0.87490 -0.26100
H 	H 	0.29040 0.21480 0.89770 0.11900
C 	C 	0.25280 0.17090 0.86290 0.15400
H 	H 	0.22520 0.17860 0.87730 -0.43900
N 	N 	0.37311 0.19807 0.85762 -0.28600
O 	O 	0.46270 0.36100 0.73700 0.93800
C 	C 	0.47590 0.34900 0.74570 -1.51700
N 	N 	0.20560 0.17550 0.96230 -0.21800
O 	O 	0.96217 0.32029 0.58630 -0.12900
C 	C 	0.97630 0.18940 0.63080 0.11400
H 	H 	0.95770 0.16460 0.63890 0.02800
N 	N 	0.96099 0.23212 0.61671 -0.25600
C 	C 	0.82960 0.31960 0.64680 0.09300
C 	C 	0.79050 0.30770 0.62510 -0.25300
H 	H 	0.79040 0.28520 0.60230 0.11200
C 	C 	0.75280 0.32910 0.63710 0.14600
H 	H 	0.72520 0.32140 0.62270 -0.43500
N 	N 	0.87311 0.30193 0.64238 -0.28400
O 	O 	0.96270 0.13900 0.76300 1.05200
C 	C 	0.97590 0.15100 0.75430 -1.63900
N 	N 	0.70560 0.32450 0.53770 -0.24400
O 	O 	0.46217 0.82029 0.08630 -0.16600
C 	C 	0.47630 0.68940 0.13080 0.02700
H 	H 	0.45770 0.66460 0.13890 0.04800
N 	N 	0.46099 0.73212 0.11671 -0.26900
C 	C 	0.32960 0.81960 0.14680 0.08800
C 	C 	0.29050 0.80770 0.12510 -0.24700
H 	H 	0.29040 0.78520 0.10230 0.10900
C 	C 	0.25280 0.82910 0.13710 0.13700
H 	H 	0.22520 0.82140 0.12270 -0.43300
N 	N 	0.37311 0.80193 0.14238 -0.28500
O 	O 	0.46270 0.63900 0.26300 0.93700
C 	C 	0.47590 0.65100 0.25430 -1.51600
N 	N 	0.20560 0.82450 0.03770 -0.23600
O 	O 	0.41370 0.03783 0.32029 -0.17100
C 	C 	0.36920 0.02370 0.18940 -0.05400
H 	H 	0.36110 0.04230 0.16460 0.06800
N 	N 	0.38329 0.03901 0.23212 -0.25400
C 	C 	0.35320 0.17040 0.31960 0.09300
C 	C 	0.37490 0.20950 0.30770 -0.25300
H 	H 	0.39770 0.20960 0.28520 0.11200
C 	C 	0.36290 0.24720 0.32910 0.14600
H 	H 	0.37730 0.27480 0.32140 -0.43500
N 	N 	0.35762 0.12689 0.30193 -0.28600
O 	O 	0.23700 0.03730 0.13900 0.94400
C 	C 	0.24570 0.02410 0.15100 -1.55400
N 	N 	0.46230 0.29440 0.32450 -0.24300
O 	O 	0.91370 0.53783 0.82029 -0.15300
C 	C 	0.86920 0.52370 0.68940 0.03000
H 	H 	0.86110 0.54230 0.66460 0.05100
N 	N 	0.88329 0.53901 0.73212 -0.26800
C 	C 	0.85320 0.67040 0.81960 0.09500
C 	C 	0.87490 0.70950 0.80770 -0.25400
H 	H 	0.89770 0.70960 0.78520 0.11700
C 	C 	0.86290 0.74720 0.82910 0.14700
H 	H 	0.87730 0.77480 0.82140 -0.43600
N 	N 	0.85762 0.62689 0.80193 -0.28500
O 	O 	0.73700 0.53730 0.63900 0.93800
C 	C 	0.74570 0.52410 0.65100 -1.51600
N 	N 	0.96230 0.79440 0.82450 -0.21700
O 	O 	0.58630 0.03783 0.67971 -0.17100
C 	C 	0.63080 0.02370 0.81060 -0.05300
H 	H 	0.63890 0.04230 0.83540 0.07300
N 	N 	0.61671 0.03901 0.76788 -0.25400
C 	C 	0.64680 0.17040 0.68040 0.09200
C 	C 	0.62510 0.20950 0.69230 -0.25300
H 	H 	0.60230 0.20960 0.71480 0.11200
C 	C 	0.63710 0.24720 0.67090 0.14600
H 	H 	0.62270 0.27480 0.67860 -0.43500
N 	N 	0.64238 0.12689 0.69807 -0.28600
O 	O 	0.76300 0.03730 0.86100 0.94400
C 	C 	0.75430 0.02410 0.84900 -1.53900
N 	N 	0.53770 0.29440 0.67550 -0.24300
O 	O 	0.08630 0.53783 0.17971 -0.17100
C 	C 	0.13080 0.52370 0.31060 0.02700
H 	H 	0.13890 0.54230 0.33540 0.04800
N 	N 	0.11671 0.53901 0.26788 -0.26900
C 	C 	0.14680 0.67040 0.18040 0.09100
C 	C 	0.12510 0.70950 0.19230 -0.25400
H 	H 	0.10230 0.70960 0.21480 0.11100
C 	C 	0.13710 0.74720 0.17090 0.14400
H 	H 	0.12270 0.77480 0.17860 -0.43600
N 	N 	0.14238 0.62689 0.19807 -0.28600
O 	O 	0.26300 0.53730 0.36100 0.93700
C 	C 	0.25430 0.52410 0.34900 -1.51600
N 	N 	0.03770 0.79440 0.17550 -0.23600
O 	O 	0.41370 0.96217 0.67971 -0.12900
C 	C 	0.36920 0.97630 0.81060 0.11500
H 	H 	0.36110 0.95770 0.83540 0.03200
N 	N 	0.38329 0.96099 0.76788 -0.25600
C 	C 	0.35320 0.82960 0.68040 0.09300
C 	C 	0.37490 0.79050 0.69230 -0.25300
H 	H 	0.39770 0.79040 0.71480 0.11200
C 	C 	0.36290 0.75280 0.67090 0.14600
H 	H 	0.37730 0.72520 0.67860 -0.43500
N 	N 	0.35762 0.87311 0.69807 -0.28400
O 	O 	0.23700 0.96270 0.86100 1.05500
C 	C 	0.24570 0.97590 0.84900 -1.63500
N 	N 	0.46230 0.70560 0.67550 -0.24400
O 	O 	0.91370 0.46217 0.17971 -0.15800
C 	C 	0.86920 0.47630 0.31060 0.03000
H 	H 	0.86110 0.45770 0.33540 0.05100
N 	N 	0.88329 0.46099 0.26788 -0.26800
C 	C 	0.85320 0.32960 0.18040 0.09800
C 	C 	0.87490 0.29050 0.19230 -0.26100
H 	H 	0.89770 0.29040 0.21480 0.11900
C 	C 	0.86290 0.25280 0.17090 0.15400
H 	H 	0.87730 0.22520 0.17860 -0.43900
N 	N 	0.85762 0.37311 0.19807 -0.28600
O 	O 	0.73700 0.46270 0.36100 0.93800
C 	C 	0.74570 0.47590 0.34900 -1.51700
N 	N 	0.96230 0.20560 0.17550 -0.21800
O 	O 	0.58630 0.96217 0.32029 -0.12900
C 	C 	0.63080 0.97630 0.18940 0.11400
H 	H 	0.63890 0.95770 0.16460 0.02800
N 	N 	0.61671 0.96099 0.23212 -0.25600
C 	C 	0.64680 0.82960 0.31960 0.09300
C 	C 	0.62510 0.79050 0.30770 -0.25300
H 	H 	0.60230 0.79040 0.28520 0.11200
C 	C 	0.63710 0.75280 0.32910 0.14600
H 	H 	0.62270 0.72520 0.32140 -0.43500
N 	N 	0.64238 0.87311 0.30193 -0.28400
O 	O 	0.76300 0.96270 0.13900 1.05200
C 	C 	0.75430 0.97590 0.15100 -1.63900
N 	N 	0.53770 0.70560 0.32450 -0.24400
O 	O 	0.08630 0.46217 0.82029 -0.16600
C 	C 	0.13080 0.47630 0.68940 0.02700
H 	H 	0.13890 0.45770 0.66460 0.04800
N 	N 	0.11671 0.46099 0.73212 -0.26900
C 	C 	0.14680 0.32960 0.81960 0.08800
C 	C 	0.12510 0.29050 0.80770 -0.24700
H 	H 	0.10230 0.29040 0.78520 0.10900
C 	C 	0.13710 0.25280 0.82910 0.13700
H 	H 	0.12270 0.22520 0.82140 -0.43300
N 	N 	0.14238 0.37311 0.80193 -0.28500
O 	O 	0.26300 0.46270 0.63900 0.93700
C 	C 	0.25430 0.47590 0.65100 -1.51600
N 	N 	0.03770 0.20560 0.82450 -0.23600
O 	O 	0.41370 0.32029 0.96217 -0.12900
C 	C 	0.36920 0.18940 0.97630 0.11400
H 	H 	0.36110 0.16460 0.95770 0.02800
N 	N 	0.38329 0.23212 0.96099 -0.25600
C 	C 	0.35320 0.31960 0.82960 0.09300
C 	C 	0.37490 0.30770 0.79050 -0.25300
H 	H 	0.39770 0.28520 0.79040 0.11200
C 	C 	0.36290 0.32910 0.75280 0.14600
H 	H 	0.37730 0.32140 0.72520 -0.43500
N 	N 	0.35762 0.30193 0.87311 -0.28400
O 	O 	0.23700 0.13900 0.96270 1.05400
C 	C 	0.24570 0.15100 0.97590 -1.64500
N 	N 	0.46230 0.32450 0.70560 -0.24400
O 	O 	0.91370 0.82029 0.46217 -0.15300
C 	C 	0.86920 0.68940 0.47630 0.03000
H 	H 	0.86110 0.66460 0.45770 0.05100
N 	N 	0.88329 0.73212 0.46099 -0.26800
C 	C 	0.85320 0.81960 0.32960 0.09500
C 	C 	0.87490 0.80770 0.29050 -0.25400
H 	H 	0.89770 0.78520 0.29040 0.11700
C 	C 	0.86290 0.82910 0.25280 0.14700
H 	H 	0.87730 0.82140 0.22520 -0.43600
N 	N 	0.85762 0.80193 0.37311 -0.28500
O 	O 	0.73700 0.63900 0.46270 0.93800
C 	C 	0.74570 0.65100 0.47590 -1.51600
N 	N 	0.96230 0.82450 0.20560 -0.21800
O 	O 	0.58630 0.67971 0.96217 -0.13000
C 	C 	0.63080 0.81060 0.97630 0.11500
H 	H 	0.63890 0.83540 0.95770 0.03200
N 	N 	0.61671 0.76788 0.96099 -0.25600
C 	C 	0.64680 0.68040 0.82960 0.09300
C 	C 	0.62510 0.69230 0.79050 -0.25300
H 	H 	0.60230 0.71480 0.79040 0.11200
C 	C 	0.63710 0.67090 0.75280 0.14600
H 	H 	0.62270 0.67860 0.72520 -0.43500
N 	N 	0.64238 0.69807 0.87311 -0.28400
O 	O 	0.76300 0.86100 0.96270 1.05400
C 	C 	0.75430 0.84900 0.97590 -1.63000
N 	N 	0.53770 0.67550 0.70560 -0.24400
O 	O 	0.08630 0.17971 0.46217 -0.17100
C 	C 	0.13080 0.31060 0.47630 0.02700
H 	H 	0.13890 0.33540 0.45770 0.04800
N 	N 	0.11671 0.26788 0.46099 -0.26900
C 	C 	0.14680 0.18040 0.32960 0.09100
C 	C 	0.12510 0.19230 0.29050 -0.25300
H 	H 	0.10230 0.21480 0.29040 0.11100
C 	C 	0.13710 0.17090 0.25280 0.14400
H 	H 	0.12270 0.17860 0.22520 -0.43600
N 	N 	0.14238 0.19807 0.37311 -0.28600
O 	O 	0.26300 0.36100 0.46270 0.93700
C 	C 	0.25430 0.34900 0.47590 -1.51600
N 	N 	0.03770 0.17550 0.20560 -0.23700
O 	O 	0.41370 0.67971 0.03783 -0.17100
C 	C 	0.36920 0.81060 0.02370 -0.05300
H 	H 	0.36110 0.83540 0.04230 0.07300
N 	N 	0.38329 0.76788 0.03901 -0.25400
C 	C 	0.35320 0.68040 0.17040 0.09200
C 	C 	0.37490 0.69230 0.20950 -0.25300
H 	H 	0.39770 0.71480 0.20960 0.11200
C 	C 	0.36290 0.67090 0.24720 0.14600
H 	H 	0.37730 0.67860 0.27480 -0.43500
N 	N 	0.35762 0.69807 0.12689 -0.28600
O 	O 	0.23700 0.86100 0.03730 0.94600
C 	C 	0.24570 0.84900 0.02410 -1.54400
N 	N 	0.46230 0.67550 0.29440 -0.24300
O 	O 	0.91370 0.17971 0.53783 -0.15800
C 	C 	0.86920 0.31060 0.52370 0.03000
H 	H 	0.86110 0.33540 0.54230 0.05100
N 	N 	0.88329 0.26788 0.53901 -0.26800
C 	C 	0.85320 0.18040 0.67040 0.09800
C 	C 	0.87490 0.19230 0.70950 -0.26100
H 	H 	0.89770 0.21480 0.70960 0.11900
C 	C 	0.86290 0.17090 0.74720 0.15400
H 	H 	0.87730 0.17860 0.77480 -0.43900
N 	N 	0.85762 0.19807 0.62689 -0.28600
O 	O 	0.73700 0.36100 0.53730 0.93800
C 	C 	0.74570 0.34900 0.52410 -1.51700
N 	N 	0.96230 0.17550 0.79440 -0.21800
O 	O 	0.58630 0.32029 0.03783 -0.17100
C 	C 	0.63080 0.18940 0.02370 -0.05400
H 	H 	0.63890 0.16460 0.04230 0.06800
N 	N 	0.61671 0.23212 0.03901 -0.25400
C 	C 	0.64680 0.31960 0.17040 0.09300
C 	C 	0.62510 0.30770 0.20950 -0.25300
H 	H 	0.60230 0.28520 0.20960 0.11200
C 	C 	0.63710 0.32910 0.24720 0.14600
H 	H 	0.62270 0.32140 0.27480 -0.43500
N 	N 	0.64238 0.30193 0.12689 -0.28600
O 	O 	0.76300 0.13900 0.03730 0.94300
C 	C 	0.75430 0.15100 0.02410 -1.54900
N 	N 	0.53770 0.32450 0.29440 -0.24300
O 	O 	0.08630 0.82029 0.53783 -0.16600
C 	C 	0.13080 0.68940 0.52370 0.02700
H 	H 	0.13890 0.66460 0.54230 0.04800
N 	N 	0.11671 0.73212 0.53901 -0.26900
C 	C 	0.14680 0.81960 0.67040 0.08800
C 	C 	0.12510 0.80770 0.70950 -0.24700
H 	H 	0.10230 0.78520 0.70960 0.10900
C 	C 	0.13710 0.82910 0.74720 0.13700
H 	H 	0.12270 0.82140 0.77480 -0.43300
N 	N 	0.14238 0.80193 0.62689 -0.28500
O 	O 	0.26300 0.63900 0.53730 0.93700
C 	C 	0.25430 0.65100 0.52410 -1.51600
N 	N 	0.03770 0.82450 0.79440 -0.23600
O 	O 	0.32029 0.03783 0.58630 -0.17100
C 	C 	0.18940 0.02370 0.63080 -0.05400
H 	H 	0.16460 0.04230 0.63890 0.06800
N 	N 	0.23212 0.03901 0.61671 -0.25400
C 	C 	0.31960 0.17040 0.64680 0.09300
C 	C 	0.30770 0.20950 0.62510 -0.25300
H 	H 	0.28520 0.20960 0.60230 0.11200
C 	C 	0.32910 0.24720 0.63710 0.14600
H 	H 	0.32140 0.27480 0.62270 -0.43500
N 	N 	0.30193 0.12689 0.64238 -0.28600
O 	O 	0.13900 0.03730 0.76300 0.94300
C 	C 	0.15100 0.02410 0.75430 -1.54900
N 	N 	0.32450 0.29440 0.53770 -0.24300
O 	O 	0.82029 0.53783 0.08630 -0.16600
C 	C 	0.68940 0.52370 0.13080 0.02700
H 	H 	0.66460 0.54230 0.13890 0.04800
N 	N 	0.73212 0.53901 0.11671 -0.26900
C 	C 	0.81960 0.67040 0.14680 0.08800
C 	C 	0.80770 0.70950 0.12510 -0.24700
H 	H 	0.78520 0.70960 0.10230 0.10900
C 	C 	0.82910 0.74720 0.13710 0.13700
H 	H 	0.82140 0.77480 0.12270 -0.43300
N 	N 	0.80193 0.62689 0.14238 -0.28500
O 	O 	0.63900 0.53730 0.26300 0.93700
C 	C 	0.65100 0.52410 0.25430 -1.51600
N 	N 	0.82450 0.79440 0.03770 -0.23600
O 	O 	0.67971 0.03783 0.41370 -0.17100
C 	C 	0.81060 0.02370 0.36920 -0.05300
H 	H 	0.83540 0.04230 0.36110 0.07300
N 	N 	0.76788 0.03901 0.38329 -0.25400
C 	C 	0.68040 0.17040 0.35320 0.09200
C 	C 	0.69230 0.20950 0.37490 -0.25300
H 	H 	0.71480 0.20960 0.39770 0.11200
C 	C 	0.67090 0.24720 0.36290 0.14600
H 	H 	0.67860 0.27480 0.37730 -0.43500
N 	N 	0.69807 0.12689 0.35762 -0.28600
O 	O 	0.86100 0.03730 0.23700 0.94600
C 	C 	0.84900 0.02410 0.24570 -1.54400
N 	N 	0.67550 0.29440 0.46230 -0.24300
O 	O 	0.17971 0.53783 0.91370 -0.15800
C 	C 	0.31060 0.52370 0.86920 0.03000
H 	H 	0.33540 0.54230 0.86110 0.05100
N 	N 	0.26788 0.53901 0.88329 -0.26800
C 	C 	0.18040 0.67040 0.85320 0.09800
C 	C 	0.19230 0.70950 0.87490 -0.26100
H 	H 	0.21480 0.70960 0.89770 0.11900
C 	C 	0.17090 0.74720 0.86290 0.15400
H 	H 	0.17860 0.77480 0.87730 -0.43900
N 	N 	0.19807 0.62689 0.85762 -0.28600
O 	O 	0.36100 0.53730 0.73700 0.93800
C 	C 	0.34900 0.52410 0.74570 -1.51700
N 	N 	0.17550 0.79440 0.96230 -0.21800
O 	O 	0.67971 0.96217 0.58630 -0.13000
C 	C 	0.81060 0.97630 0.63080 0.11500
H 	H 	0.83540 0.95770 0.63890 0.03200
N 	N 	0.76788 0.96099 0.61671 -0.25600
C 	C 	0.68040 0.82960 0.64680 0.09300
C 	C 	0.69230 0.79050 0.62510 -0.25300
H 	H 	0.71480 0.79040 0.60230 0.11200
C 	C 	0.67090 0.75280 0.63710 0.14600
H 	H 	0.67860 0.72520 0.62270 -0.43500
N 	N 	0.69807 0.87311 0.64238 -0.28400
O 	O 	0.86100 0.96270 0.76300 1.05400
C 	C 	0.84900 0.97590 0.75430 -1.63000
N 	N 	0.67550 0.70560 0.53770 -0.24400
O 	O 	0.17971 0.46217 0.08630 -0.17100
C 	C 	0.31060 0.47630 0.13080 0.02700
H 	H 	0.33540 0.45770 0.13890 0.04800
N 	N 	0.26788 0.46099 0.11671 -0.26900
C 	C 	0.18040 0.32960 0.14680 0.09100
C 	C 	0.19230 0.29050 0.12510 -0.25300
H 	H 	0.21480 0.29040 0.10230 0.11100
C 	C 	0.17090 0.25280 0.13710 0.14400
H 	H 	0.17860 0.22520 0.12270 -0.43600
N 	N 	0.19807 0.37311 0.14238 -0.28600
O 	O 	0.36100 0.46270 0.26300 0.93700
C 	C 	0.34900 0.47590 0.25430 -1.51600
N 	N 	0.17550 0.20560 0.03770 -0.23700
O 	O 	0.32029 0.96217 0.41370 -0.12900
C 	C 	0.18940 0.97630 0.36920 0.11400
H 	H 	0.16460 0.95770 0.36110 0.02800
N 	N 	0.23212 0.96099 0.38329 -0.25600
C 	C 	0.31960 0.82960 0.35320 0.09300
C 	C 	0.30770 0.79050 0.37490 -0.25300
H 	H 	0.28520 0.79040 0.39770 0.11200
C 	C 	0.32910 0.75280 0.36290 0.14600
H 	H 	0.32140 0.72520 0.37730 -0.43500
N 	N 	0.30193 0.87311 0.35762 -0.28400
O 	O 	0.13900 0.96270 0.23700 1.05400
C 	C 	0.15100 0.97590 0.24570 -1.64500
N 	N 	0.32450 0.70560 0.46230 -0.24400
O 	O 	0.82029 0.46217 0.91370 -0.15300
C 	C 	0.68940 0.47630 0.86920 0.03000
H 	H 	0.66460 0.45770 0.86110 0.05100
N 	N 	0.73212 0.46099 0.88329 -0.26800
C 	C 	0.81960 0.32960 0.85320 0.09500
C 	C 	0.80770 0.29050 0.87490 -0.25400
H 	H 	0.78520 0.29040 0.89770 0.11700
C 	C 	0.82910 0.25280 0.86290 0.14700
H 	H 	0.82140 0.22520 0.87730 -0.43600
N 	N 	0.80193 0.37311 0.85762 -0.28500
O 	O 	0.63900 0.46270 0.73700 0.93800
C 	C 	0.65100 0.47590 0.74570 -1.51600
N 	N 	0.82450 0.20560 0.96230 -0.21800
O 	O 	0.03783 0.41370 0.67971 -0.17100
C 	C 	0.02370 0.36920 0.81060 -0.05300
H 	H 	0.04230 0.36110 0.83540 0.07300
N 	N 	0.03901 0.38329 0.76788 -0.25400
C 	C 	0.17040 0.35320 0.68040 0.09200
C 	C 	0.20950 0.37490 0.69230 -0.25300
H 	H 	0.20960 0.39770 0.71480 0.11200
C 	C 	0.24720 0.36290 0.67090 0.14600
H 	H 	0.27480 0.37730 0.67860 -0.43500
N 	N 	0.12689 0.35762 0.69807 -0.28600
O 	O 	0.03730 0.23700 0.86100 0.94600
C 	C 	0.02410 0.24570 0.84900 -1.54400
N 	N 	0.29440 0.46230 0.67550 -0.24300
O 	O 	0.53783 0.91370 0.17971 -0.15800
C 	C 	0.52370 0.86920 0.31060 0.03000
H 	H 	0.54230 0.86110 0.33540 0.05100
N 	N 	0.53901 0.88329 0.26788 -0.26800
C 	C 	0.67040 0.85320 0.18040 0.09800
C 	C 	0.70950 0.87490 0.19230 -0.26100
H 	H 	0.70960 0.89770 0.21480 0.11900
C 	C 	0.74720 0.86290 0.17090 0.15400
H 	H 	0.77480 0.87730 0.17860 -0.43900
N 	N 	0.62689 0.85762 0.19807 -0.28600
O 	O 	0.53730 0.73700 0.36100 0.93800
C 	C 	0.52410 0.74570 0.34900 -1.51700
N 	N 	0.79440 0.96230 0.17550 -0.21800
O 	O 	0.03783 0.58630 0.32029 -0.17100
C 	C 	0.02370 0.63080 0.18940 -0.05400
H 	H 	0.04230 0.63890 0.16460 0.06800
N 	N 	0.03901 0.61671 0.23212 -0.25400
C 	C 	0.17040 0.64680 0.31960 0.09300
C 	C 	0.20950 0.62510 0.30770 -0.25300
H 	H 	0.20960 0.60230 0.28520 0.11200
C 	C 	0.24720 0.63710 0.32910 0.14600
H 	H 	0.27480 0.62270 0.32140 -0.43500
N 	N 	0.12689 0.64238 0.30193 -0.28600
O 	O 	0.03730 0.76300 0.13900 0.94300
C 	C 	0.02410 0.75430 0.15100 -1.54900
N 	N 	0.29440 0.53770 0.32450 -0.24300
O 	O 	0.53783 0.08630 0.82029 -0.16600
C 	C 	0.52370 0.13080 0.68940 0.02700
H 	H 	0.54230 0.13890 0.66460 0.04800
N 	N 	0.53901 0.11671 0.73212 -0.26900
C 	C 	0.67040 0.14680 0.81960 0.08800
C 	C 	0.70950 0.12510 0.80770 -0.24700
H 	H 	0.70960 0.10230 0.78520 0.10900
C 	C 	0.74720 0.13710 0.82910 0.13700
H 	H 	0.77480 0.12270 0.82140 -0.43300
N 	N 	0.62689 0.14238 0.80193 -0.28500
O 	O 	0.53730 0.26300 0.63900 0.93700
C 	C 	0.52410 0.25430 0.65100 -1.51600
N 	N 	0.79440 0.03770 0.82450 -0.23600
O 	O 	0.96217 0.41370 0.32029 -0.12900
C 	C 	0.97630 0.36920 0.18940 0.11400
H 	H 	0.95770 0.36110 0.16460 0.02800
N 	N 	0.96099 0.38329 0.23212 -0.25600
C 	C 	0.82960 0.35320 0.31960 0.09300
C 	C 	0.79050 0.37490 0.30770 -0.25300
H 	H 	0.79040 0.39770 0.28520 0.11200
C 	C 	0.75280 0.36290 0.32910 0.14600
H 	H 	0.72520 0.37730 0.32140 -0.43500
N 	N 	0.87311 0.35762 0.30193 -0.28400
O 	O 	0.96270 0.23700 0.13900 1.05400
C 	C 	0.97590 0.24570 0.15100 -1.64500
N 	N 	0.70560 0.46230 0.32450 -0.24400
O 	O 	0.46217 0.91370 0.82029 -0.15300
C 	C 	0.47630 0.86920 0.68940 0.03000
H 	H 	0.45770 0.86110 0.66460 0.05100
N 	N 	0.46099 0.88329 0.73212 -0.26800
C 	C 	0.32960 0.85320 0.81960 0.09500
C 	C 	0.29050 0.87490 0.80770 -0.25400
H 	H 	0.29040 0.89770 0.78520 0.11700
C 	C 	0.25280 0.86290 0.82910 0.14700
H 	H 	0.22520 0.87730 0.82140 -0.43600
N 	N 	0.37311 0.85762 0.80193 -0.28500
O 	O 	0.46270 0.73700 0.63900 0.93800
C 	C 	0.47590 0.74570 0.65100 -1.51600
N 	N 	0.20560 0.96230 0.82450 -0.21800
O 	O 	0.96217 0.58630 0.67971 -0.13000
C 	C 	0.97630 0.63080 0.81060 0.11500
H 	H 	0.95770 0.63890 0.83540 0.03200
N 	N 	0.96099 0.61671 0.76788 -0.25600
C 	C 	0.82960 0.64680 0.68040 0.09300
C 	C 	0.79050 0.62510 0.69230 -0.25300
H 	H 	0.79040 0.60230 0.71480 0.11200
C 	C 	0.75280 0.63710 0.67090 0.14600
H 	H 	0.72520 0.62270 0.67860 -0.43500
N 	N 	0.87311 0.64238 0.69807 -0.28400
O 	O 	0.96270 0.76300 0.86100 1.05400
C 	C 	0.97590 0.75430 0.84900 -1.63000
N 	N 	0.70560 0.53770 0.67550 -0.24400
O 	O 	0.46217 0.08630 0.17971 -0.17100
C 	C 	0.47630 0.13080 0.31060 0.02700
H 	H 	0.45770 0.13890 0.33540 0.04800
N 	N 	0.46099 0.11671 0.26788 -0.26900
C 	C 	0.32960 0.14680 0.18040 0.09100
C 	C 	0.29050 0.12510 0.19230 -0.25300
H 	H 	0.29040 0.10230 0.21480 0.11100
C 	C 	0.25280 0.13710 0.17090 0.14400
H 	H 	0.22520 0.12270 0.17860 -0.43600
N 	N 	0.37311 0.14238 0.19807 -0.28600
O 	O 	0.46270 0.26300 0.36100 0.93700
C 	C 	0.47590 0.25430 0.34900 -1.51600
N 	N 	0.20560 0.03770 0.17550 -0.23700
O 	O 	0.67971 0.58630 0.96217 -0.13000
C 	C 	0.81060 0.63080 0.97630 0.11500
H 	H 	0.83540 0.63890 0.95770 0.03200
N 	N 	0.76788 0.61671 0.96099 -0.25600
C 	C 	0.68040 0.64680 0.82960 0.09300
C 	C 	0.69230 0.62510 0.79050 -0.25300
H 	H 	0.71480 0.60230 0.79040 0.11200
C 	C 	0.67090 0.63710 0.75280 0.14600
H 	H 	0.67860 0.62270 0.72520 -0.43500
N 	N 	0.69807 0.64238 0.87311 -0.28400
O 	O 	0.86100 0.76300 0.96270 1.05400
C 	C 	0.84900 0.75430 0.97590 -1.63000
N 	N 	0.67550 0.53770 0.70560 -0.24400
O 	O 	0.17971 0.08630 0.46217 -0.17100
C 	C 	0.31060 0.13080 0.47630 0.02700
H 	H 	0.33540 0.13890 0.45770 0.04800
N 	N 	0.26788 0.11671 0.46099 -0.26900
C 	C 	0.18040 0.14680 0.32960 0.09100
C 	C 	0.19230 0.12510 0.29050 -0.25300
H 	H 	0.21480 0.10230 0.29040 0.11100
C 	C 	0.17090 0.13710 0.25280 0.14400
H 	H 	0.17860 0.12270 0.22520 -0.43600
N 	N 	0.19807 0.14238 0.37311 -0.28600
O 	O 	0.36100 0.26300 0.46270 0.93700
C 	C 	0.34900 0.25430 0.47590 -1.51600
N 	N 	0.17550 0.03770 0.20560 -0.23700
O 	O 	0.32029 0.41370 0.96217 -0.12900
C 	C 	0.18940 0.36920 0.97630 0.11400
H 	H 	0.16460 0.36110 0.95770 0.02800
N 	N 	0.23212 0.38329 0.96099 -0.25600
C 	C 	0.31960 0.35320 0.82960 0.09300
C 	C 	0.30770 0.37490 0.79050 -0.25300
H 	H 	0.28520 0.39770 0.79040 0.11200
C 	C 	0.32910 0.36290 0.75280 0.14600
H 	H 	0.32140 0.37730 0.72520 -0.43500
N 	N 	0.30193 0.35762 0.87311 -0.28400
O 	O 	0.13900 0.23700 0.96270 1.05400
C 	C 	0.15100 0.24570 0.97590 -1.64500
N 	N 	0.32450 0.46230 0.70560 -0.24400
O 	O 	0.82029 0.91370 0.46217 -0.15300
C 	C 	0.68940 0.86920 0.47630 0.03000
H 	H 	0.66460 0.86110 0.45770 0.05100
N 	N 	0.73212 0.88329 0.46099 -0.26800
C 	C 	0.81960 0.85320 0.32960 0.09500
C 	C 	0.80770 0.87490 0.29050 -0.25400
H 	H 	0.78520 0.89770 0.29040 0.11700
C 	C 	0.82910 0.86290 0.25280 0.14700
H 	H 	0.82140 0.87730 0.22520 -0.43600
N 	N 	0.80193 0.85762 0.37311 -0.28500
O 	O 	0.63900 0.73700 0.46270 0.93800
C 	C 	0.65100 0.74570 0.47590 -1.51600
N 	N 	0.82450 0.96230 0.20560 -0.21800
O 	O 	0.32029 0.58630 0.03783 -0.17100
C 	C 	0.18940 0.63080 0.02370 -0.05400
H 	H 	0.16460 0.63890 0.04230 0.06800
N 	N 	0.23212 0.61671 0.03901 -0.25400
C 	C 	0.31960 0.64680 0.17040 0.09300
C 	C 	0.30770 0.62510 0.20950 -0.25300
H 	H 	0.28520 0.60230 0.20960 0.11200
C 	C 	0.32910 0.63710 0.24720 0.14600
H 	H 	0.32140 0.62270 0.27480 -0.43500
N 	N 	0.30193 0.64238 0.12689 -0.28600
O 	O 	0.13900 0.76300 0.03730 0.94300
C 	C 	0.15100 0.75430 0.02410 -1.54900
N 	N 	0.32450 0.53770 0.29440 -0.24300
O 	O 	0.82029 0.08630 0.53783 -0.16600
C 	C 	0.68940 0.13080 0.52370 0.02700
H 	H 	0.66460 0.13890 0.54230 0.04800
N 	N 	0.73212 0.11671 0.53901 -0.26900
C 	C 	0.81960 0.14680 0.67040 0.08800
C 	C 	0.80770 0.12510 0.70950 -0.24700
H 	H 	0.78520 0.10230 0.70960 0.10900
C 	C 	0.82910 0.13710 0.74720 0.13700
H 	H 	0.82140 0.12270 0.77480 -0.43300
N 	N 	0.80193 0.14238 0.62689 -0.28500
O 	O 	0.63900 0.26300 0.53730 0.93700
C 	C 	0.65100 0.25430 0.52410 -1.51600
N 	N 	0.82450 0.03770 0.79440 -0.23600
O 	O 	0.67971 0.41370 0.03783 -0.17100
C 	C 	0.81060 0.36920 0.02370 -0.05300
H 	H 	0.83540 0.36110 0.04230 0.07300
N 	N 	0.76788 0.38329 0.03901 -0.25400
C 	C 	0.68040 0.35320 0.17040 0.09200
C 	C 	0.69230 0.37490 0.20950 -0.25300
H 	H 	0.71480 0.39770 0.20960 0.11200
C 	C 	0.67090 0.36290 0.24720 0.14600
H 	H 	0.67860 0.37730 0.27480 -0.43500
N 	N 	0.69807 0.35762 0.12689 -0.28600
O 	O 	0.86100 0.23700 0.03730 0.94600
C 	C 	0.84900 0.24570 0.02410 -1.54400
N 	N 	0.67550 0.46230 0.29440 -0.24300
O 	O 	0.17971 0.91370 0.53783 -0.15800
C 	C 	0.31060 0.86920 0.52370 0.03000
H 	H 	0.33540 0.86110 0.54230 0.05100
N 	N 	0.26788 0.88329 0.53901 -0.26800
C 	C 	0.18040 0.85320 0.67040 0.09800
C 	C 	0.19230 0.87490 0.70950 -0.26100
H 	H 	0.21480 0.89770 0.70960 0.11900
C 	C 	0.17090 0.86290 0.74720 0.15400
H 	H 	0.17860 0.87730 0.77480 -0.43900
N 	N 	0.19807 0.85762 0.62689 -0.28600
O 	O 	0.36100 0.73700 0.53730 0.93800
C 	C 	0.34900 0.74570 0.52410 -1.51700
N 	N 	0.17550 0.96230 0.79440 -0.21800
O 	O 	0.96217 0.67971 0.58630 -0.13000
C 	C 	0.97630 0.81060 0.63080 0.11500
H 	H 	0.95770 0.83540 0.63890 0.03200
N 	N 	0.96099 0.76788 0.61671 -0.25600
C 	C 	0.82960 0.68040 0.64680 0.09300
C 	C 	0.79050 0.69230 0.62510 -0.25300
H 	H 	0.79040 0.71480 0.60230 0.11200
C 	C 	0.75280 0.67090 0.63710 0.14600
H 	H 	0.72520 0.67860 0.62270 -0.43500
N 	N 	0.87311 0.69807 0.64238 -0.28400
O 	O 	0.96270 0.86100 0.76300 1.05400
C 	C 	0.97590 0.84900 0.75430 -1.63000
N 	N 	0.70560 0.67550 0.53770 -0.24400
O 	O 	0.46217 0.17971 0.08630 -0.17100
C 	C 	0.47630 0.31060 0.13080 0.02700
H 	H 	0.45770 0.33540 0.13890 0.04800
N 	N 	0.46099 0.26788 0.11671 -0.26900
C 	C 	0.32960 0.18040 0.14680 0.09100
C 	C 	0.29050 0.19230 0.12510 -0.25300
H 	H 	0.29040 0.21480 0.10230 0.11100
C 	C 	0.25280 0.17090 0.13710 0.14400
H 	H 	0.22520 0.17860 0.12270 -0.43600
N 	N 	0.37311 0.19807 0.14238 -0.28600
O 	O 	0.46270 0.36100 0.26300 0.93700
C 	C 	0.47590 0.34900 0.25430 -1.51600
N 	N 	0.20560 0.17550 0.03770 -0.23700
O 	O 	0.96217 0.32029 0.41370 -0.12900
C 	C 	0.97630 0.18940 0.36920 0.11400
H 	H 	0.95770 0.16460 0.36110 0.02800
N 	N 	0.96099 0.23212 0.38329 -0.25600
C 	C 	0.82960 0.31960 0.35320 0.09300
C 	C 	0.79050 0.30770 0.37490 -0.25300
H 	H 	0.79040 0.28520 0.39770 0.11200
C 	C 	0.75280 0.32910 0.36290 0.14600
H 	H 	0.72520 0.32140 0.37730 -0.43500
N 	N 	0.87311 0.30193 0.35762 -0.28400
O 	O 	0.96270 0.13900 0.23700 1.05400
C 	C 	0.97590 0.15100 0.24570 -1.64500
N 	N 	0.70560 0.32450 0.46230 -0.24400
O 	O 	0.46217 0.82029 0.91370 -0.15300
C 	C 	0.47630 0.68940 0.86920 0.03000
H 	H 	0.45770 0.66460 0.86110 0.05100
N 	N 	0.46099 0.73212 0.88329 -0.26800
C 	C 	0.32960 0.81960 0.85320 0.09500
C 	C 	0.29050 0.80770 0.87490 -0.25400
H 	H 	0.29040 0.78520 0.89770 0.11700
C 	C 	0.25280 0.82910 0.86290 0.14700
H 	H 	0.22520 0.82140 0.87730 -0.43600
N 	N 	0.37311 0.80193 0.85762 -0.28500
O 	O 	0.46270 0.63900 0.73700 0.93800
C 	C 	0.47590 0.65100 0.74570 -1.51600
N 	N 	0.20560 0.82450 0.96230 -0.21800
O 	O 	0.03783 0.32029 0.58630 -0.17100
C 	C 	0.02370 0.18940 0.63080 -0.05400
H 	H 	0.04230 0.16460 0.63890 0.06800
N 	N 	0.03901 0.23212 0.61671 -0.25400
C 	C 	0.17040 0.31960 0.64680 0.09300
C 	C 	0.20950 0.30770 0.62510 -0.25300
H 	H 	0.20960 0.28520 0.60230 0.11200
C 	C 	0.24720 0.32910 0.63710 0.14600
H 	H 	0.27480 0.32140 0.62270 -0.43500
N 	N 	0.12689 0.30193 0.64238 -0.28600
O 	O 	0.03730 0.13900 0.76300 0.94300
C 	C 	0.02410 0.15100 0.75430 -1.54900
N 	N 	0.29440 0.32450 0.53770 -0.24300
O 	O 	0.53783 0.82029 0.08630 -0.16600
C 	C 	0.52370 0.68940 0.13080 0.02700
H 	H 	0.54230 0.66460 0.13890 0.04800
N 	N 	0.53901 0.73212 0.11671 -0.26900
C 	C 	0.67040 0.81960 0.14680 0.08800
C 	C 	0.70950 0.80770 0.12510 -0.24700
H 	H 	0.70960 0.78520 0.10230 0.10900
C 	C 	0.74720 0.82910 0.13710 0.13700
H 	H 	0.77480 0.82140 0.12270 -0.43300
N 	N 	0.62689 0.80193 0.14238 -0.28500
O 	O 	0.53730 0.63900 0.26300 0.93700
C 	C 	0.52410 0.65100 0.25430 -1.51600
N 	N 	0.79440 0.82450 0.03770 -0.23600
O 	O 	0.03783 0.67971 0.41370 -0.17100
C 	C 	0.02370 0.81060 0.36920 -0.05300
H 	H 	0.04230 0.83540 0.36110 0.07300
N 	N 	0.03901 0.76788 0.38329 -0.25400
C 	C 	0.17040 0.68040 0.35320 0.09200
C 	C 	0.20950 0.69230 0.37490 -0.25300
H 	H 	0.20960 0.71480 0.39770 0.11200
C 	C 	0.24720 0.67090 0.36290 0.14600
H 	H 	0.27480 0.67860 0.37730 -0.43500
N 	N 	0.12689 0.69807 0.35762 -0.28600
O 	O 	0.03730 0.86100 0.23700 0.94600
C 	C 	0.02410 0.84900 0.24570 -1.54400
N 	N 	0.29440 0.67550 0.46230 -0.24300
O 	O 	0.53783 0.17971 0.91370 -0.15800
C 	C 	0.52370 0.31060 0.86920 0.03000
H 	H 	0.54230 0.33540 0.86110 0.05100
N 	N 	0.53901 0.26788 0.88329 -0.26800
C 	C 	0.67040 0.18040 0.85320 0.09800
C 	C 	0.70950 0.19230 0.87490 -0.26100
H 	H 	0.70960 0.21480 0.89770 0.11900
C 	C 	0.74720 0.17090 0.86290 0.15400
H 	H 	0.77480 0.17860 0.87730 -0.43900
N 	N 	0.62689 0.19807 0.85762 -0.28600
O 	O 	0.53730 0.36100 0.73700 0.93800
C 	C 	0.52410 0.34900 0.74570 -1.51700
N 	N 	0.79440 0.17550 0.96230 -0.21800
O 	O 	0.58630 0.96217 0.67971 -0.13000
C 	C 	0.63080 0.97630 0.81060 0.11500
H 	H 	0.63890 0.95770 0.83540 0.03200
N 	N 	0.61671 0.96099 0.76788 -0.25600
C 	C 	0.64680 0.82960 0.68040 0.09300
C 	C 	0.62510 0.79050 0.69230 -0.25300
H 	H 	0.60230 0.79040 0.71480 0.11200
C 	C 	0.63710 0.75280 0.67090 0.14600
H 	H 	0.62270 0.72520 0.67860 -0.43500
N 	N 	0.64238 0.87311 0.69807 -0.28400
O 	O 	0.76300 0.96270 0.86100 1.05400
C 	C 	0.75430 0.97590 0.84900 -1.63000
N 	N 	0.53770 0.70560 0.67550 -0.24400
O 	O 	0.08630 0.46217 0.17971 -0.17100
C 	C 	0.13080 0.47630 0.31060 0.02700
H 	H 	0.13890 0.45770 0.33540 0.04800
N 	N 	0.11671 0.46099 0.26788 -0.26900
C 	C 	0.14680 0.32960 0.18040 0.09100
C 	C 	0.12510 0.29050 0.19230 -0.25300
H 	H 	0.10230 0.29040 0.21480 0.11100
C 	C 	0.13710 0.25280 0.17090 0.14400
H 	H 	0.12270 0.22520 0.17860 -0.43600
N 	N 	0.14238 0.37311 0.19807 -0.28600
O 	O 	0.26300 0.46270 0.36100 0.93700
C 	C 	0.25430 0.47590 0.34900 -1.51600
N 	N 	0.03770 0.20560 0.17550 -0.23700
O 	O 	0.41370 0.96217 0.32029 -0.12900
C 	C 	0.36920 0.97630 0.18940 0.11400
H 	H 	0.36110 0.95770 0.16460 0.02800
N 	N 	0.38329 0.96099 0.23212 -0.25600
C 	C 	0.35320 0.82960 0.31960 0.09300
C 	C 	0.37490 0.79050 0.30770 -0.25300
H 	H 	0.39770 0.79040 0.28520 0.11200
C 	C 	0.36290 0.75280 0.32910 0.14600
H 	H 	0.37730 0.72520 0.32140 -0.43500
N 	N 	0.35762 0.87311 0.30193 -0.28400
O 	O 	0.23700 0.96270 0.13900 1.05400
C 	C 	0.24570 0.97590 0.15100 -1.64500
N 	N 	0.46230 0.70560 0.32450 -0.24400
O 	O 	0.91370 0.46217 0.82029 -0.15300
C 	C 	0.86920 0.47630 0.68940 0.03000
H 	H 	0.86110 0.45770 0.66460 0.05100
N 	N 	0.88329 0.46099 0.73212 -0.26800
C 	C 	0.85320 0.32960 0.81960 0.09500
C 	C 	0.87490 0.29050 0.80770 -0.25400
H 	H 	0.89770 0.29040 0.78520 0.11700
C 	C 	0.86290 0.25280 0.82910 0.14700
H 	H 	0.87730 0.22520 0.82140 -0.43600
N 	N 	0.85762 0.37311 0.80193 -0.28500
O 	O 	0.73700 0.46270 0.63900 0.93800
C 	C 	0.74570 0.47590 0.65100 -1.51600
N 	N 	0.96230 0.20560 0.82450 -0.21800
O 	O 	0.58630 0.03783 0.32029 -0.17100
C 	C 	0.63080 0.02370 0.18940 -0.05400
H 	H 	0.63890 0.04230 0.16460 0.06800
N 	N 	0.61671 0.03901 0.23212 -0.25400
C 	C 	0.64680 0.17040 0.31960 0.09300
C 	C 	0.62510 0.20950 0.30770 -0.25300
H 	H 	0.60230 0.20960 0.28520 0.11200
C 	C 	0.63710 0.24720 0.32910 0.14600
H 	H 	0.62270 0.27480 0.32140 -0.43500
N 	N 	0.64238 0.12689 0.30193 -0.28600
O 	O 	0.76300 0.03730 0.13900 0.94300
C 	C 	0.75430 0.02410 0.15100 -1.54900
N 	N 	0.53770 0.29440 0.32450 -0.24300
O 	O 	0.08630 0.53783 0.82029 -0.16600
C 	C 	0.13080 0.52370 0.68940 0.02700
H 	H 	0.13890 0.54230 0.66460 0.04800
N 	N 	0.11671 0.53901 0.73212 -0.26900
C 	C 	0.14680 0.67040 0.81960 0.08800
C 	C 	0.12510 0.70950 0.80770 -0.24700
H 	H 	0.10230 0.70960 0.78520 0.10900
C 	C 	0.13710 0.74720 0.82910 0.13700
H 	H 	0.12270 0.77480 0.82140 -0.43300
N 	N 	0.14238 0.62689 0.80193 -0.28500
O 	O 	0.26300 0.53730 0.63900 0.93700
C 	C 	0.25430 0.52410 0.65100 -1.51600
N 	N 	0.03770 0.79440 0.82450 -0.23600
O 	O 	0.41370 0.03783 0.67971 -0.17100
C 	C 	0.36920 0.02370 0.81060 -0.05300
H 	H 	0.36110 0.04230 0.83540 0.07300
N 	N 	0.38329 0.03901 0.76788 -0.25400
C 	C 	0.35320 0.17040 0.68040 0.09200
C 	C 	0.37490 0.20950 0.69230 -0.25300
H 	H 	0.39770 0.20960 0.71480 0.11200
C 	C 	0.36290 0.24720 0.67090 0.14600
H 	H 	0.37730 0.27480 0.67860 -0.43500
N 	N 	0.35762 0.12689 0.69807 -0.28600
O 	O 	0.23700 0.03730 0.86100 0.94600
C 	C 	0.24570 0.02410 0.84900 -1.54400
N 	N 	0.46230 0.29440 0.67550 -0.24300
O 	O 	0.91370 0.53783 0.17971 -0.15800
C 	C 	0.86920 0.52370 0.31060 0.03000
H 	H 	0.86110 0.54230 0.33540 0.05100
N 	N 	0.88329 0.53901 0.26788 -0.26800
C 	C 	0.85320 0.67040 0.18040 0.09800
C 	C 	0.87490 0.70950 0.19230 -0.26100
H 	H 	0.89770 0.70960 0.21480 0.11900
C 	C 	0.86290 0.74720 0.17090 0.15400
H 	H 	0.87730 0.77480 0.17860 -0.43900
N 	N 	0.85762 0.62689 0.19807 -0.28600
O 	O 	0.73700 0.53730 0.36100 0.93800
C 	C 	0.74570 0.52410 0.34900 -1.51700
N 	N 	0.96230 0.79440 0.17550 -0.21800
O 	O 	0.58630 0.67971 0.03783 -0.17100
C 	C 	0.63080 0.81060 0.02370 -0.05300
H 	H 	0.63890 0.83540 0.04230 0.07300
N 	N 	0.61671 0.76788 0.03901 -0.25400
C 	C 	0.64680 0.68040 0.17040 0.09200
C 	C 	0.62510 0.69230 0.20950 -0.25300
H 	H 	0.60230 0.71480 0.20960 0.11200
C 	C 	0.63710 0.67090 0.24720 0.14600
H 	H 	0.62270 0.67860 0.27480 -0.43500
N 	N 	0.64238 0.69807 0.12689 -0.28600
O 	O 	0.76300 0.86100 0.03730 0.94400
C 	C 	0.75430 0.84900 0.02410 -1.53900
N 	N 	0.53770 0.67550 0.29440 -0.24300
O 	O 	0.08630 0.17971 0.53783 -0.17100
C 	C 	0.13080 0.31060 0.52370 0.02700
H 	H 	0.13890 0.33540 0.54230 0.04800
N 	N 	0.11671 0.26788 0.53901 -0.26900
C 	C 	0.14680 0.18040 0.67040 0.09100
C 	C 	0.12510 0.19230 0.70950 -0.25400
H 	H 	0.10230 0.21480 0.70960 0.11100
C 	C 	0.13710 0.17090 0.74720 0.14400
H 	H 	0.12270 0.17860 0.77480 -0.43600
N 	N 	0.14238 0.19807 0.62689 -0.28600
O 	O 	0.26300 0.36100 0.53730 0.93700
C 	C 	0.25430 0.34900 0.52410 -1.51600
N 	N 	0.03770 0.17550 0.79440 -0.23600
O 	O 	0.41370 0.32029 0.03783 -0.17100
C 	C 	0.36920 0.18940 0.02370 -0.05400
H 	H 	0.36110 0.16460 0.04230 0.06800
N 	N 	0.38329 0.23212 0.03901 -0.25400
C 	C 	0.35320 0.31960 0.17040 0.09300
C 	C 	0.37490 0.30770 0.20950 -0.25300
H 	H 	0.39770 0.28520 0.20960 0.11200
C 	C 	0.36290 0.32910 0.24720 0.14600
H 	H 	0.37730 0.32140 0.27480 -0.43500
N 	N 	0.35762 0.30193 0.12689 -0.28600
O 	O 	0.23700 0.13900 0.03730 0.94400
C 	C 	0.24570 0.15100 0.02410 -1.55400
N 	N 	0.46230 0.32450 0.29440 -0.24300
O 	O 	0.91370 0.82029 0.53783 -0.15300
C 	C 	0.86920 0.68940 0.52370 0.03000
H 	H 	0.86110 0.66460 0.54230 0.05100
N 	N 	0.88329 0.73212 0.53901 -0.26800
C 	C 	0.85320 0.81960 0.67040 0.09500
C 	C 	0.87490 0.80770 0.70950 -0.25400
H 	H 	0.89770 0.78520 0.70960 0.11700
C 	C 	0.86290 0.82910 0.74720 0.14700
H 	H 	0.87730 0.82140 0.77480 -0.43600
N 	N 	0.85762 0.80193 0.62689 -0.28500
O 	O 	0.73700 0.63900 0.53730 0.93800
C 	C 	0.74570 0.65100 0.52410 -1.51600
N 	N 	0.96230 0.82450 0.79440 -0.21700
O 	O 	0.58630 0.32029 0.96217 -0.12900
C 	C 	0.63080 0.18940 0.97630 0.11400
H 	H 	0.63890 0.16460 0.95770 0.02800
N 	N 	0.61671 0.23212 0.96099 -0.25600
C 	C 	0.64680 0.31960 0.82960 0.09300
C 	C 	0.62510 0.30770 0.79050 -0.25300
H 	H 	0.60230 0.28520 0.79040 0.11200
C 	C 	0.63710 0.32910 0.75280 0.14600
H 	H 	0.62270 0.32140 0.72520 -0.43500
N 	N 	0.64238 0.30193 0.87311 -0.28400
O 	O 	0.76300 0.13900 0.96270 1.05200
C 	C 	0.75430 0.15100 0.97590 -1.63900
N 	N 	0.53770 0.32450 0.70560 -0.24400
O 	O 	0.08630 0.82029 0.46217 -0.16600
C 	C 	0.13080 0.68940 0.47630 0.02700
H 	H 	0.13890 0.66460 0.45770 0.04800
N 	N 	0.11671 0.73212 0.46099 -0.26900
C 	C 	0.14680 0.81960 0.32960 0.08800
C 	C 	0.12510 0.80770 0.29050 -0.24700
H 	H 	0.10230 0.78520 0.29040 0.10900
C 	C 	0.13710 0.82910 0.25280 0.13700
H 	H 	0.12270 0.82140 0.22520 -0.43300
N 	N 	0.14238 0.80193 0.37311 -0.28500
O 	O 	0.26300 0.63900 0.46270 0.93700
C 	C 	0.25430 0.65100 0.47590 -1.51600
N 	N 	0.03770 0.82450 0.20560 -0.23600
O 	O 	0.41370 0.67971 0.96217 -0.12900
C 	C 	0.36920 0.81060 0.97630 0.11500
H 	H 	0.36110 0.83540 0.95770 0.03200
N 	N 	0.38329 0.76788 0.96099 -0.25600
C 	C 	0.35320 0.68040 0.82960 0.09300
C 	C 	0.37490 0.69230 0.79050 -0.25300
H 	H 	0.39770 0.71480 0.79040 0.11200
C 	C 	0.36290 0.67090 0.75280 0.14600
H 	H 	0.37730 0.67860 0.72520 -0.43500
N 	N 	0.35762 0.69807 0.87311 -0.28400
O 	O 	0.23700 0.86100 0.96270 1.05500
C 	C 	0.24570 0.84900 0.97590 -1.63500
N 	N 	0.46230 0.67550 0.70560 -0.24400
O 	O 	0.91370 0.17971 0.46217 -0.15800
C 	C 	0.86920 0.31060 0.47630 0.03000
H 	H 	0.86110 0.33540 0.45770 0.05100
N 	N 	0.88329 0.26788 0.46099 -0.26800
C 	C 	0.85320 0.18040 0.32960 0.09800
C 	C 	0.87490 0.19230 0.29050 -0.26100
H 	H 	0.89770 0.21480 0.29040 0.11900
C 	C 	0.86290 0.17090 0.25280 0.15400
H 	H 	0.87730 0.17860 0.22520 -0.43900
N 	N 	0.85762 0.19807 0.37311 -0.28600
O 	O 	0.73700 0.36100 0.46270 0.93800
C 	C 	0.74570 0.34900 0.47590 -1.51700
N 	N 	0.96230 0.17550 0.20560 -0.21800
O 	O 	0.67971 0.96217 0.41370 -0.12900
C 	C 	0.81060 0.97630 0.36920 0.11500
H 	H 	0.83540 0.95770 0.36110 0.03200
N 	N 	0.76788 0.96099 0.38329 -0.25600
C 	C 	0.68040 0.82960 0.35320 0.09300
C 	C 	0.69230 0.79050 0.37490 -0.25300
H 	H 	0.71480 0.79040 0.39770 0.11200
C 	C 	0.67090 0.75280 0.36290 0.14600
H 	H 	0.67860 0.72520 0.37730 -0.43500
N 	N 	0.69807 0.87311 0.35762 -0.28400
O 	O 	0.86100 0.96270 0.23700 1.05500
C 	C 	0.84900 0.97590 0.24570 -1.63500
N 	N 	0.67550 0.70560 0.46230 -0.24400
O 	O 	0.17971 0.46217 0.91370 -0.15800
C 	C 	0.31060 0.47630 0.86920 0.03000
H 	H 	0.33540 0.45770 0.86110 0.05100
N 	N 	0.26788 0.46099 0.88329 -0.26800
C 	C 	0.18040 0.32960 0.85320 0.09800
C 	C 	0.19230 0.29050 0.87490 -0.26100
H 	H 	0.21480 0.29040 0.89770 0.11900
C 	C 	0.17090 0.25280 0.86290 0.15400
H 	H 	0.17860 0.22520 0.87730 -0.43900
N 	N 	0.19807 0.37311 0.85762 -0.28600
O 	O 	0.36100 0.46270 0.73700 0.93800
C 	C 	0.34900 0.47590 0.74570 -1.51700
N 	N 	0.17550 0.20560 0.96230 -0.21800
O 	O 	0.32029 0.96217 0.58630 -0.12900
C 	C 	0.18940 0.97630 0.63080 0.11400
H 	H 	0.16460 0.95770 0.63890 0.02800
N 	N 	0.23212 0.96099 0.61671 -0.25600
C 	C 	0.31960 0.82960 0.64680 0.09300
C 	C 	0.30770 0.79050 0.62510 -0.25300
H 	H 	0.28520 0.79040 0.60230 0.11200
C 	C 	0.32910 0.75280 0.63710 0.14600
H 	H 	0.32140 0.72520 0.62270 -0.43500
N 	N 	0.30193 0.87311 0.64238 -0.28400
O 	O 	0.13900 0.96270 0.76300 1.05200
C 	C 	0.15100 0.97590 0.75430 -1.63900
N 	N 	0.32450 0.70560 0.53770 -0.24400
O 	O 	0.82029 0.46217 0.08630 -0.16600
C 	C 	0.68940 0.47630 0.13080 0.02700
H 	H 	0.66460 0.45770 0.13890 0.04800
N 	N 	0.73212 0.46099 0.11671 -0.26900
C 	C 	0.81960 0.32960 0.14680 0.08800
C 	C 	0.80770 0.29050 0.12510 -0.24700
H 	H 	0.78520 0.29040 0.10230 0.10900
C 	C 	0.82910 0.25280 0.13710 0.13700
H 	H 	0.82140 0.22520 0.12270 -0.43300
N 	N 	0.80193 0.37311 0.14238 -0.28500
O 	O 	0.63900 0.46270 0.26300 0.93700
C 	C 	0.65100 0.47590 0.25430 -1.51600
N 	N 	0.82450 0.20560 0.03770 -0.23600
O 	O 	0.32029 0.03783 0.41370 -0.17100
C 	C 	0.18940 0.02370 0.36920 -0.05400
H 	H 	0.16460 0.04230 0.36110 0.06800
N 	N 	0.23212 0.03901 0.38329 -0.25400
C 	C 	0.31960 0.17040 0.35320 0.09300
C 	C 	0.30770 0.20950 0.37490 -0.25300
H 	H 	0.28520 0.20960 0.39770 0.11200
C 	C 	0.32910 0.24720 0.36290 0.14600
H 	H 	0.32140 0.27480 0.37730 -0.43500
N 	N 	0.30193 0.12689 0.35762 -0.28600
O 	O 	0.13900 0.03730 0.23700 0.94400
C 	C 	0.15100 0.02410 0.24570 -1.55400
N 	N 	0.32450 0.29440 0.46230 -0.24300
O 	O 	0.82029 0.53783 0.91370 -0.15300
C 	C 	0.68940 0.52370 0.86920 0.03000
H 	H 	0.66460 0.54230 0.86110 0.05100
N 	N 	0.73212 0.53901 0.88329 -0.26800
C 	C 	0.81960 0.67040 0.85320 0.09500
C 	C 	0.80770 0.70950 0.87490 -0.25400
H 	H 	0.78520 0.70960 0.89770 0.11700
C 	C 	0.82910 0.74720 0.86290 0.14700
H 	H 	0.82140 0.77480 0.87730 -0.43600
N 	N 	0.80193 0.62689 0.85762 -0.28500
O 	O 	0.63900 0.53730 0.73700 0.93800
C 	C 	0.65100 0.52410 0.74570 -1.51600
N 	N 	0.82450 0.79440 0.96230 -0.21700
O 	O 	0.67971 0.03783 0.58630 -0.17100
C 	C 	0.81060 0.02370 0.63080 -0.05300
H 	H 	0.83540 0.04230 0.63890 0.07300
N 	N 	0.76788 0.03901 0.61671 -0.25400
C 	C 	0.68040 0.17040 0.64680 0.09200
C 	C 	0.69230 0.20950 0.62510 -0.25300
H 	H 	0.71480 0.20960 0.60230 0.11200
C 	C 	0.67090 0.24720 0.63710 0.14600
H 	H 	0.67860 0.27480 0.62270 -0.43500
N 	N 	0.69807 0.12689 0.64238 -0.28600
O 	O 	0.86100 0.03730 0.76300 0.94400
C 	C 	0.84900 0.02410 0.75430 -1.53900
N 	N 	0.67550 0.29440 0.53770 -0.24300
O 	O 	0.17971 0.53783 0.08630 -0.17100
C 	C 	0.31060 0.52370 0.13080 0.02700
H 	H 	0.33540 0.54230 0.13890 0.04800
N 	N 	0.26788 0.53901 0.11671 -0.26900
C 	C 	0.18040 0.67040 0.14680 0.09100
C 	C 	0.19230 0.70950 0.12510 -0.25400
H 	H 	0.21480 0.70960 0.10230 0.11100
C 	C 	0.17090 0.74720 0.13710 0.14400
H 	H 	0.17860 0.77480 0.12270 -0.43600
N 	N 	0.19807 0.62689 0.14238 -0.28600
O 	O 	0.36100 0.53730 0.26300 0.93700
C 	C 	0.34900 0.52410 0.25430 -1.51600
N 	N 	0.17550 0.79440 0.03770 -0.23600
O 	O 	0.96217 0.58630 0.32029 -0.12900
C 	C 	0.97630 0.63080 0.18940 0.11400
H 	H 	0.95770 0.63890 0.16460 0.02800
N 	N 	0.96099 0.61671 0.23212 -0.25600
C 	C 	0.82960 0.64680 0.31960 0.09300
C 	C 	0.79050 0.62510 0.30770 -0.25300
H 	H 	0.79040 0.60230 0.28520 0.11200
C 	C 	0.75280 0.63710 0.32910 0.14600
H 	H 	0.72520 0.62270 0.32140 -0.43500
N 	N 	0.87311 0.64238 0.30193 -0.28400
O 	O 	0.96270 0.76300 0.13900 1.05200
C 	C 	0.97590 0.75430 0.15100 -1.63900
N 	N 	0.70560 0.53770 0.32450 -0.24400
O 	O 	0.46217 0.08630 0.82029 -0.16600
C 	C 	0.47630 0.13080 0.68940 0.02700
H 	H 	0.45770 0.13890 0.66460 0.04800
N 	N 	0.46099 0.11671 0.73212 -0.26900
C 	C 	0.32960 0.14680 0.81960 0.08800
C 	C 	0.29050 0.12510 0.80770 -0.24700
H 	H 	0.29040 0.10230 0.78520 0.10900
C 	C 	0.25280 0.13710 0.82910 0.13700
H 	H 	0.22520 0.12270 0.82140 -0.43300
N 	N 	0.37311 0.14238 0.80193 -0.28500
O 	O 	0.46270 0.26300 0.63900 0.93700
C 	C 	0.47590 0.25430 0.65100 -1.51600
N 	N 	0.20560 0.03770 0.82450 -0.23600
O 	O 	0.96217 0.41370 0.67971 -0.12900
C 	C 	0.97630 0.36920 0.81060 0.11500
H 	H 	0.95770 0.36110 0.83540 0.03200
N 	N 	0.96099 0.38329 0.76788 -0.25600
C 	C 	0.82960 0.35320 0.68040 0.09300
C 	C 	0.79050 0.37490 0.69230 -0.25300
H 	H 	0.79040 0.39770 0.71480 0.11200
C 	C 	0.75280 0.36290 0.67090 0.14600
H 	H 	0.72520 0.37730 0.67860 -0.43500
N 	N 	0.87311 0.35762 0.69807 -0.28400
O 	O 	0.96270 0.23700 0.86100 1.05500
C 	C 	0.97590 0.24570 0.84900 -1.63500
N 	N 	0.70560 0.46230 0.67550 -0.24400
O 	O 	0.46217 0.91370 0.17971 -0.15800
C 	C 	0.47630 0.86920 0.31060 0.03000
H 	H 	0.45770 0.86110 0.33540 0.05100
N 	N 	0.46099 0.88329 0.26788 -0.26800
C 	C 	0.32960 0.85320 0.18040 0.09800
C 	C 	0.29050 0.87490 0.19230 -0.26100
H 	H 	0.29040 0.89770 0.21480 0.11900
C 	C 	0.25280 0.86290 0.17090 0.15400
H 	H 	0.22520 0.87730 0.17860 -0.43900
N 	N 	0.37311 0.85762 0.19807 -0.28600
O 	O 	0.46270 0.73700 0.36100 0.93800
C 	C 	0.47590 0.74570 0.34900 -1.51700
N 	N 	0.20560 0.96230 0.17550 -0.21800
O 	O 	0.03783 0.58630 0.67971 -0.17100
C 	C 	0.02370 0.63080 0.81060 -0.05300
H 	H 	0.04230 0.63890 0.83540 0.07300
N 	N 	0.03901 0.61671 0.76788 -0.25400
C 	C 	0.17040 0.64680 0.68040 0.09200
C 	C 	0.20950 0.62510 0.69230 -0.25300
H 	H 	0.20960 0.60230 0.71480 0.11200
C 	C 	0.24720 0.63710 0.67090 0.14600
H 	H 	0.27480 0.62270 0.67860 -0.43500
N 	N 	0.12689 0.64238 0.69807 -0.28600
O 	O 	0.03730 0.76300 0.86100 0.94400
C 	C 	0.02410 0.75430 0.84900 -1.53900
N 	N 	0.29440 0.53770 0.67550 -0.24300
O 	O 	0.53783 0.08630 0.17971 -0.17100
C 	C 	0.52370 0.13080 0.31060 0.02700
H 	H 	0.54230 0.13890 0.33540 0.04800
N 	N 	0.53901 0.11671 0.26788 -0.26900
C 	C 	0.67040 0.14680 0.18040 0.09100
C 	C 	0.70950 0.12510 0.19230 -0.25400
H 	H 	0.70960 0.10230 0.21480 0.11100
C 	C 	0.74720 0.13710 0.17090 0.14400
H 	H 	0.77480 0.12270 0.17860 -0.43600
N 	N 	0.62689 0.14238 0.19807 -0.28600
O 	O 	0.53730 0.26300 0.36100 0.93700
C 	C 	0.52410 0.25430 0.34900 -1.51600
N 	N 	0.79440 0.03770 0.17550 -0.23600
O 	O 	0.03783 0.41370 0.32029 -0.17100
C 	C 	0.02370 0.36920 0.18940 -0.05400
H 	H 	0.04230 0.36110 0.16460 0.06800
N 	N 	0.03901 0.38329 0.23212 -0.25400
C 	C 	0.17040 0.35320 0.31960 0.09300
C 	C 	0.20950 0.37490 0.30770 -0.25300
H 	H 	0.20960 0.39770 0.28520 0.11200
C 	C 	0.24720 0.36290 0.32910 0.14600
H 	H 	0.27480 0.37730 0.32140 -0.43500
N 	N 	0.12689 0.35762 0.30193 -0.28600
O 	O 	0.03730 0.23700 0.13900 0.94400
C 	C 	0.02410 0.24570 0.15100 -1.55400
N 	N 	0.29440 0.46230 0.32450 -0.24300
O 	O 	0.53783 0.91370 0.82029 -0.15300
C 	C 	0.52370 0.86920 0.68940 0.03000
H 	H 	0.54230 0.86110 0.66460 0.05100
N 	N 	0.53901 0.88329 0.73212 -0.26800
C 	C 	0.67040 0.85320 0.81960 0.09500
C 	C 	0.70950 0.87490 0.80770 -0.25400
H 	H 	0.70960 0.89770 0.78520 0.11700
C 	C 	0.74720 0.86290 0.82910 0.14700
H 	H 	0.77480 0.87730 0.82140 -0.43600
N 	N 	0.62689 0.85762 0.80193 -0.28500
O 	O 	0.53730 0.73700 0.63900 0.93800
C 	C 	0.52410 0.74570 0.65100 -1.51600
N 	N 	0.79440 0.96230 0.82450 -0.21700
Zn	Zn	0.25000 0.39602 0.10398 1.19000
Zn	Zn	0.75000 0.60398 0.10398 1.19000
Zn	Zn	0.75000 0.39602 0.89602 1.19200
Zn	Zn	0.25000 0.60398 0.89602 1.19200
Zn	Zn	0.10398 0.25000 0.39602 1.19000
Zn	Zn	0.10398 0.75000 0.60398 1.19000
Zn	Zn	0.89602 0.75000 0.39602 1.19200
Zn	Zn	0.89602 0.25000 0.60398 1.19200
Zn	Zn	0.39602 0.10398 0.25000 1.19000
Zn	Zn	0.60398 0.10398 0.75000 1.19000
Zn	Zn	0.39602 0.89602 0.75000 1.19200
Zn	Zn	0.60398 0.89602 0.25000 1.19200
Zn	Zn	0.39602 0.25000 0.89602 1.19200
Zn	Zn	0.60398 0.75000 0.89602 1.19200
Zn	Zn	0.39602 0.75000 0.10398 1.19000
Zn	Zn	0.60398 0.25000 0.10398 1.19000
Zn	Zn	0.25000 0.10398 0.60398 1.19000
Zn	Zn	0.75000 0.10398 0.39602 1.19000
Zn	Zn	0.75000 0.89602 0.60398 1.19200
Zn	Zn	0.25000 0.89602 0.39602 1.19200
Zn	Zn	0.10398 0.39602 0.75000 1.19000
Zn	Zn	0.10398 0.60398 0.25000 1.19000
Zn	Zn	0.89602 0.39602 0.25000 1.19200
Zn	Zn	0.89602 0.60398 0.75000 1.19200
Zn	Zn	0.75000 0.60398 0.89602 1.19200
Zn	Zn	0.25000 0.10398 0.39602 1.19000
Zn	Zn	0.25000 0.39602 0.89602 1.19200
Zn	Zn	0.25000 0.60398 0.10398 1.19000
Zn	Zn	0.75000 0.39602 0.10398 1.19000
Zn	Zn	0.89602 0.75000 0.60398 1.19200
Zn	Zn	0.39602 0.25000 0.10398 1.19000
Zn	Zn	0.89602 0.25000 0.39602 1.19200
Zn	Zn	0.10398 0.25000 0.60398 1.19000
Zn	Zn	0.10398 0.75000 0.39602 1.19000
Zn	Zn	0.60398 0.89602 0.75000 1.19200
Zn	Zn	0.10398 0.39602 0.25000 1.19000
Zn	Zn	0.39602 0.89602 0.25000 1.19200
Zn	Zn	0.60398 0.10398 0.25000 1.19000
Zn	Zn	0.39602 0.10398 0.75000 1.19000
Zn	Zn	0.60398 0.75000 0.10398 1.19000
Zn	Zn	0.60398 0.25000 0.89602 1.19200
Zn	Zn	0.39602 0.75000 0.89602 1.19200
Zn	Zn	0.75000 0.89602 0.39602 1.19200
Zn	Zn	0.25000 0.89602 0.60398 1.19200
Zn	Zn	0.75000 0.10398 0.60398 1.19000
Zn	Zn	0.89602 0.60398 0.25000 1.19200
Zn	Zn	0.89602 0.39602 0.75000 1.19200
Zn	Zn	0.10398 0.60398 0.75000 1.19000
Zn	Zn	0.31112 0.39628 0.31112 1.22600
Zn	Zn	0.81112 0.89628 0.81112 1.22600
Zn	Zn	0.68888 0.60372 0.31112 1.22600
Zn	Zn	0.18888 0.10372 0.81112 1.22400
Zn	Zn	0.68888 0.39628 0.68888 1.22600
Zn	Zn	0.18888 0.89628 0.18888 1.22400
Zn	Zn	0.31112 0.60372 0.68888 1.22600
Zn	Zn	0.81112 0.10372 0.18888 1.22400
Zn	Zn	0.31112 0.31112 0.39628 1.22600
Zn	Zn	0.81112 0.81112 0.89628 1.22600
Zn	Zn	0.31112 0.68888 0.60372 1.22600
Zn	Zn	0.81112 0.18888 0.10372 1.22400
Zn	Zn	0.68888 0.68888 0.39628 1.22600
Zn	Zn	0.18888 0.18888 0.89628 1.22400
Zn	Zn	0.68888 0.31112 0.60372 1.22600
Zn	Zn	0.18888 0.81112 0.10372 1.22400
Zn	Zn	0.39628 0.31112 0.31112 1.22600
Zn	Zn	0.89628 0.81112 0.81112 1.22600
Zn	Zn	0.60372 0.31112 0.68888 1.22600
Zn	Zn	0.10372 0.81112 0.18888 1.22400
Zn	Zn	0.39628 0.68888 0.68888 1.22600
Zn	Zn	0.89628 0.18888 0.18888 1.22400
Zn	Zn	0.60372 0.68888 0.31112 1.22600
Zn	Zn	0.10372 0.18888 0.81112 1.22400
Zn	Zn	0.39628 0.31112 0.68888 1.22600
Zn	Zn	0.89628 0.81112 0.18888 1.22500
Zn	Zn	0.60372 0.68888 0.68888 1.22600
Zn	Zn	0.10372 0.18888 0.18888 1.22300
Zn	Zn	0.39628 0.68888 0.31112 1.22600
Zn	Zn	0.89628 0.18888 0.81112 1.22500
Zn	Zn	0.60372 0.31112 0.31112 1.22600
Zn	Zn	0.10372 0.81112 0.81112 1.22500
Zn	Zn	0.31112 0.31112 0.60372 1.22600
Zn	Zn	0.81112 0.81112 0.10372 1.22500
Zn	Zn	0.68888 0.31112 0.39628 1.22600
Zn	Zn	0.18888 0.81112 0.89628 1.22500
Zn	Zn	0.68888 0.68888 0.60372 1.22600
Zn	Zn	0.18888 0.18888 0.10372 1.22300
Zn	Zn	0.31112 0.68888 0.39628 1.22600
Zn	Zn	0.81112 0.18888 0.89628 1.22500
Zn	Zn	0.31112 0.39628 0.68888 1.22600
Zn	Zn	0.81112 0.89628 0.18888 1.22500
Zn	Zn	0.31112 0.60372 0.31112 1.22600
Zn	Zn	0.81112 0.10372 0.81112 1.22500
Zn	Zn	0.68888 0.39628 0.31112 1.22600
Zn	Zn	0.18888 0.89628 0.81112 1.22500
Zn	Zn	0.68888 0.60372 0.68888 1.22600
Zn	Zn	0.18888 0.10372 0.18888 1.22300
C 	C 	0.25510 0.39190 -0.00000 0.11600
N 	N 	0.30100 0.40710 -0.00000 -0.05100
C 	C 	0.75510 0.89190 0.50000 0.16300
N 	N 	0.80100 0.90710 0.50000 -0.03200
C 	C 	0.74490 0.60810 -0.00000 0.11600
N 	N 	0.69900 0.59290 -0.00000 -0.05100
C 	C 	0.24490 0.10810 0.50000 0.15600
N 	N 	0.19900 0.09290 0.50000 -0.03200
C 	C 	0.74490 0.39190 -0.00000 0.11600
N 	N 	0.69900 0.40710 -0.00000 -0.05100
C 	C 	0.24490 0.89190 0.50000 0.16300
N 	N 	0.19900 0.90710 0.50000 -0.03100
C 	C 	0.25510 0.60810 -0.00000 0.11600
N 	N 	0.30100 0.59290 -0.00000 -0.05100
C 	C 	0.75510 0.10810 0.50000 0.15600
N 	N 	0.80100 0.09290 0.50000 -0.03200
C 	C 	0.00000 0.25510 0.39190 0.11600
N 	N 	0.00000 0.30100 0.40710 -0.05100
C 	C 	0.50000 0.75510 0.89190 0.16300
N 	N 	0.50000 0.80100 0.90710 -0.03200
C 	C 	0.00000 0.74490 0.60810 0.11600
N 	N 	-0.00000 0.69900 0.59290 -0.05100
C 	C 	0.50000 0.24490 0.10810 0.15600
N 	N 	0.50000 0.19900 0.09290 -0.03200
C 	C 	0.00000 0.74490 0.39190 0.11600
N 	N 	-0.00000 0.69900 0.40710 -0.05100
C 	C 	0.50000 0.24490 0.89190 0.16300
N 	N 	0.50000 0.19900 0.90710 -0.03100
C 	C 	0.00000 0.25510 0.60810 0.11600
N 	N 	-0.00000 0.30100 0.59290 -0.05100
C 	C 	0.50000 0.75510 0.10810 0.15600
N 	N 	0.50000 0.80100 0.09290 -0.03200
C 	C 	0.39190 0.00000 0.25510 0.11600
N 	N 	0.40710 0.00000 0.30100 -0.05100
C 	C 	0.89190 0.50000 0.75510 0.16300
N 	N 	0.90710 0.50000 0.80100 -0.03200
C 	C 	0.60810 -0.00000 0.74490 0.11600
N 	N 	0.59290 0.00000 0.69900 -0.05100
C 	C 	0.10810 0.50000 0.24490 0.15600
N 	N 	0.09290 0.50000 0.19900 -0.03200
C 	C 	0.39190 -0.00000 0.74490 0.11600
N 	N 	0.40710 0.00000 0.69900 -0.05100
C 	C 	0.89190 0.50000 0.24490 0.16300
N 	N 	0.90710 0.50000 0.19900 -0.03100
C 	C 	0.60810 0.00000 0.25510 0.11600
N 	N 	0.59290 0.00000 0.30100 -0.05100
C 	C 	0.10810 0.50000 0.75510 0.15600
N 	N 	0.09290 0.50000 0.80100 -0.03200
C 	C 	0.39190 0.25510 -0.00000 0.11600
N 	N 	0.40710 0.30100 -0.00000 -0.05100
C 	C 	0.89190 0.75510 0.50000 0.16300
N 	N 	0.90710 0.80100 0.50000 -0.03200
C 	C 	0.60810 0.74490 -0.00000 0.11600
N 	N 	0.59290 0.69900 -0.00000 -0.05100
C 	C 	0.10810 0.24490 0.50000 0.15600
N 	N 	0.09290 0.19900 0.50000 -0.03200
C 	C 	0.39190 0.74490 -0.00000 0.11600
N 	N 	0.40710 0.69900 -0.00000 -0.05100
C 	C 	0.89190 0.24490 0.50000 0.16300
N 	N 	0.90710 0.19900 0.50000 -0.03100
C 	C 	0.60810 0.25510 -0.00000 0.11600
N 	N 	0.59290 0.30100 -0.00000 -0.05100
C 	C 	0.10810 0.75510 0.50000 0.15600
N 	N 	0.09290 0.80100 0.50000 -0.03200
C 	C 	0.25510 0.00000 0.60810 0.11600
N 	N 	0.30100 0.00000 0.59290 -0.05100
C 	C 	0.75510 0.50000 0.10810 0.15600
N 	N 	0.80100 0.50000 0.09290 -0.03200
C 	C 	0.74490 0.00000 0.39190 0.11600
N 	N 	0.69900 0.00000 0.40710 -0.05100
C 	C 	0.24490 0.50000 0.89190 0.16300
N 	N 	0.19900 0.50000 0.90710 -0.03100
C 	C 	0.74490 0.00000 0.60810 0.11600
N 	N 	0.69900 0.00000 0.59290 -0.05100
C 	C 	0.24490 0.50000 0.10810 0.15600
N 	N 	0.19900 0.50000 0.09290 -0.03200
C 	C 	0.25510 0.00000 0.39190 0.11600
N 	N 	0.30100 0.00000 0.40710 -0.05100
C 	C 	0.75510 0.50000 0.89190 0.16300
N 	N 	0.80100 0.50000 0.90710 -0.03200
C 	C 	0.00000 0.39190 0.74490 0.11600
N 	N 	-0.00000 0.40710 0.69900 -0.05100
C 	C 	0.50000 0.89190 0.24490 0.16300
N 	N 	0.50000 0.90710 0.19900 -0.03100
C 	C 	0.00000 0.60810 0.25510 0.11600
N 	N 	-0.00000 0.59290 0.30100 -0.05100
C 	C 	0.50000 0.10810 0.75510 0.15600
N 	N 	0.50000 0.09290 0.80100 -0.03200
C 	C 	0.00000 0.39190 0.25510 0.11600
N 	N 	0.00000 0.40710 0.30100 -0.05100
C 	C 	0.50000 0.89190 0.75510 0.16300
N 	N 	0.50000 0.90710 0.80100 -0.03200
C 	C 	0.00000 0.60810 0.74490 0.11600
N 	N 	-0.00000 0.59290 0.69900 -0.05100
C 	C 	0.50000 0.10810 0.24490 0.15600
N 	N 	0.50000 0.09290 0.19900 -0.03200
C 	C 	0.32810 0.32810 0.10230 0.09100
H 	H 	0.32590 0.32590 0.07040 -0.01500
C 	C 	0.82810 0.82810 0.60230 0.09200
H 	H 	0.82590 0.82590 0.57040 -0.01200
C 	C 	0.67190 0.67190 0.10230 0.09100
H 	H 	0.67410 0.67410 0.07040 -0.01500
C 	C 	0.17190 0.17190 0.60230 0.08900
H 	H 	0.17410 0.17410 0.57040 -0.01100
C 	C 	0.67190 0.32810 0.89770 0.09000
H 	H 	0.67410 0.32590 0.92960 -0.00200
C 	C 	0.17190 0.82810 0.39770 0.09100
H 	H 	0.17410 0.82590 0.42960 -0.01100
C 	C 	0.32810 0.67190 0.89770 0.09000
H 	H 	0.32590 0.67410 0.92960 -0.00200
C 	C 	0.82810 0.17190 0.39770 0.09100
H 	H 	0.82590 0.17410 0.42960 -0.01100
C 	C 	0.10230 0.32810 0.32810 0.09100
H 	H 	0.07040 0.32590 0.32590 -0.01500
C 	C 	0.60230 0.82810 0.82810 0.09200
H 	H 	0.57040 0.82590 0.82590 -0.01200
C 	C 	0.10230 0.67190 0.67190 0.09100
H 	H 	0.07040 0.67410 0.67410 -0.01500
C 	C 	0.60230 0.17190 0.17190 0.08900
H 	H 	0.57040 0.17410 0.17410 -0.01100
C 	C 	0.89770 0.67190 0.32810 0.09000
H 	H 	0.92960 0.67410 0.32590 -0.00200
C 	C 	0.39770 0.17190 0.82810 0.09100
H 	H 	0.42960 0.17410 0.82590 -0.01100
C 	C 	0.89770 0.32810 0.67190 0.09000
H 	H 	0.92960 0.32590 0.67410 -0.00200
C 	C 	0.39770 0.82810 0.17190 0.09100
H 	H 	0.42960 0.82590 0.17410 -0.01100
C 	C 	0.32810 0.10230 0.32810 0.09100
H 	H 	0.32590 0.07040 0.32590 -0.01500
C 	C 	0.82810 0.60230 0.82810 0.09200
H 	H 	0.82590 0.57040 0.82590 -0.01200
C 	C 	0.67190 0.10230 0.67190 0.09100
H 	H 	0.67410 0.07040 0.67410 -0.01500
C 	C 	0.17190 0.60230 0.17190 0.08900
H 	H 	0.17410 0.57040 0.17410 -0.01100
C 	C 	0.32810 0.89770 0.67190 0.09000
H 	H 	0.32590 0.92960 0.67410 -0.00200
C 	C 	0.82810 0.39770 0.17190 0.09100
H 	H 	0.82590 0.42960 0.17410 -0.01100
C 	C 	0.67190 0.89770 0.32810 0.09000
H 	H 	0.67410 0.92960 0.32590 -0.00200
C 	C 	0.17190 0.39770 0.82810 0.09100
H 	H 	0.17410 0.42960 0.82590 -0.01100
C 	C 	0.32810 0.32810 0.89770 0.09000
H 	H 	0.32590 0.32590 0.92960 -0.00200
C 	C 	0.82810 0.82810 0.39770 0.09200
H 	H 	0.82590 0.82590 0.42960 -0.01200
C 	C 	0.67190 0.67190 0.89770 0.08900
H 	H 	0.67410 0.67410 0.92960 -0.00200
C 	C 	0.17190 0.17190 0.39770 0.08900
H 	H 	0.17410 0.17410 0.42960 -0.01100
C 	C 	0.32810 0.67190 0.10230 0.09100
H 	H 	0.32590 0.67410 0.07040 -0.01500
C 	C 	0.82810 0.17190 0.60230 0.09100
H 	H 	0.82590 0.17410 0.57040 -0.01100
C 	C 	0.67190 0.32810 0.10230 0.09100
H 	H 	0.67410 0.32590 0.07040 -0.01500
C 	C 	0.17190 0.82810 0.60230 0.09100
H 	H 	0.17410 0.82590 0.57040 -0.01100
C 	C 	0.32810 0.10230 0.67190 0.09100
H 	H 	0.32590 0.07040 0.67410 -0.01500
C 	C 	0.82810 0.60230 0.17190 0.09100
H 	H 	0.82590 0.57040 0.17410 -0.01100
C 	C 	0.67190 0.10230 0.32810 0.09100
H 	H 	0.67410 0.07040 0.32590 -0.01500
C 	C 	0.17190 0.60230 0.82810 0.09100
H 	H 	0.17410 0.57040 0.82590 -0.01100
C 	C 	0.67190 0.89770 0.67190 0.08900
H 	H 	0.67410 0.92960 0.67410 -0.00200
C 	C 	0.17190 0.39770 0.17190 0.08900
H 	H 	0.17410 0.42960 0.17410 -0.01100
C 	C 	0.32810 0.89770 0.32810 0.09000
H 	H 	0.32590 0.92960 0.32590 -0.00200
C 	C 	0.82810 0.39770 0.82810 0.09200
H 	H 	0.82590 0.42960 0.82590 -0.01200
C 	C 	0.10230 0.32810 0.67190 0.09100
H 	H 	0.07040 0.32590 0.67410 -0.01500
C 	C 	0.60230 0.82810 0.17190 0.09100
H 	H 	0.57040 0.82590 0.17410 -0.01100
C 	C 	0.10230 0.67190 0.32810 0.09100
H 	H 	0.07040 0.67410 0.32590 -0.01500
C 	C 	0.60230 0.17190 0.82810 0.09100
H 	H 	0.57040 0.17410 0.82590 -0.01100
C 	C 	0.89770 0.32810 0.32810 0.09000
H 	H 	0.92960 0.32590 0.32590 -0.00200
C 	C 	0.39770 0.82810 0.82810 0.09200
H 	H 	0.42960 0.82590 0.82590 -0.01200
C 	C 	0.89770 0.67190 0.67190 0.08900
H 	H 	0.92960 0.67410 0.67410 -0.00200
C 	C 	0.39770 0.17190 0.17190 0.08900
H 	H 	0.42960 0.17410 0.17410 -0.01100
C 	C 	0.18910 0.18910 -0.00000 -0.15400
C 	C 	0.68910 0.68910 0.50000 -0.06900
C 	C 	0.81090 0.81090 -0.00000 -0.14300
C 	C 	0.31090 0.31090 0.50000 -0.06900
C 	C 	0.81090 0.18910 -0.00000 -0.14800
C 	C 	0.31090 0.68910 0.50000 -0.06900
C 	C 	0.18910 0.81090 -0.00000 -0.14800
C 	C 	0.68910 0.31090 0.50000 -0.06900
C 	C 	0.00000 0.18910 0.18910 -0.15400
C 	C 	0.50000 0.68910 0.68910 -0.06900
C 	C 	0.00000 0.81090 0.81090 -0.14300
C 	C 	0.50000 0.31090 0.31090 -0.06900
C 	C 	0.00000 0.81090 0.18910 -0.14800
C 	C 	0.50000 0.31090 0.68910 -0.06900
C 	C 	0.00000 0.18910 0.81090 -0.14800
C 	C 	0.50000 0.68910 0.31090 -0.06900
C 	C 	0.18910 0.00000 0.18910 -0.15400
C 	C 	0.68910 0.50000 0.68910 -0.06900
C 	C 	0.81090 0.00000 0.81090 -0.14300
C 	C 	0.31090 0.50000 0.31090 -0.06900
C 	C 	0.18910 0.00000 0.81090 -0.14800
C 	C 	0.68910 0.50000 0.31090 -0.06900
C 	C 	0.81090 0.00000 0.18910 -0.14800
C 	C 	0.31090 0.50000 0.68910 -0.06900
N 	N 	0.33940 0.50000 0.27150 1.01200
N 	N 	0.83940 0.00000 0.77150 1.03400
N 	N 	0.66060 0.50000 0.27150 1.01200
N 	N 	0.16060 0.00000 0.77150 1.04200
N 	N 	0.66060 0.50000 0.72850 1.01200
N 	N 	0.16060 0.00000 0.22850 1.04600
N 	N 	0.33940 0.50000 0.72850 1.01200
N 	N 	0.83940 0.00000 0.22850 1.03800
N 	N 	0.27150 0.33940 0.50000 1.01200
N 	N 	0.77150 0.83940 -0.00000 1.03400
N 	N 	0.27150 0.66060 0.50000 1.01200
N 	N 	0.77150 0.16060 -0.00000 1.04200
N 	N 	0.72850 0.66060 0.50000 1.01200
N 	N 	0.22850 0.16060 -0.00000 1.04600
N 	N 	0.72850 0.33940 0.50000 1.01200
N 	N 	0.22850 0.83940 -0.00000 1.03800
N 	N 	0.50000 0.27150 0.33940 1.01200
N 	N 	-0.00000 0.77150 0.83940 1.03400
N 	N 	0.50000 0.27150 0.66060 1.01200
N 	N 	-0.00000 0.77150 0.16060 1.04200
N 	N 	0.50000 0.72850 0.66060 1.01200
N 	N 	-0.00000 0.22850 0.16060 1.04600
N 	N 	0.50000 0.72850 0.33940 1.01200
N 	N 	-0.00000 0.22850 0.83940 1.03800
N 	N 	0.50000 0.33940 0.72850 1.01200
N 	N 	-0.00000 0.83940 0.22850 1.03800
N 	N 	0.50000 0.66060 0.72850 1.01200
N 	N 	-0.00000 0.16060 0.22850 1.04600
N 	N 	0.50000 0.66060 0.27150 1.01200
N 	N 	-0.00000 0.16060 0.77150 1.04200
N 	N 	0.50000 0.33940 0.27150 1.01200
N 	N 	-0.00000 0.83940 0.77150 1.03400
N 	N 	0.33940 0.27150 0.50000 1.01200
N 	N 	0.83940 0.77150 -0.00000 1.03400
N 	N 	0.66060 0.27150 0.50000 1.01200
N 	N 	0.16060 0.77150 -0.00000 1.04200
N 	N 	0.66060 0.72850 0.50000 1.01200
N 	N 	0.16060 0.22850 -0.00000 1.04600
N 	N 	0.33940 0.72850 0.50000 1.01200
N 	N 	0.83940 0.22850 -0.00000 1.03800
N 	N 	0.27150 0.50000 0.66060 1.01200
N 	N 	0.77150 0.00000 0.16060 1.04200
N 	N 	0.27150 0.50000 0.33940 1.01200
N 	N 	0.77150 0.00000 0.83940 1.03400
N 	N 	0.72850 0.50000 0.33940 1.01200
N 	N 	0.22850 0.00000 0.83940 1.03800
N 	N 	0.72850 0.50000 0.66060 1.01200
N 	N 	0.22850 0.00000 0.16060 1.04600
