data_crystal

_cell_length_a 18.12100
_cell_length_b 26.88400
_cell_length_c 26.88400
_cell_angle_alpha 120.00000
_cell_angle_beta  90.00000
_cell_angle_gamma 90.00000

_symmetry_space_group_name_	'P 1'
_symmetry_space_group_name_H-M	'P 1'

loop_
_symmetry_equiv_pos_as_xyz
  x,y,z

loop_
_atom_site_label
_atom_site_type_symbol
_atom_site_fract_x
_atom_site_fract_y
_atom_site_fract_z
_atom_site_charge
Zn	Zn	0.41605 0.88943 0.33165 1.18300
Zn	Zn	0.41605 0.44222 0.11057 1.18300
Zn	Zn	0.41605 0.66835 0.55778 1.18300
Zn	Zn	0.91605 0.11057 0.66835 1.18300
Zn	Zn	0.91605 0.55778 0.88943 1.18300
Zn	Zn	0.91605 0.33165 0.44222 1.18300
Zn	Zn	0.58395 0.55778 0.66835 1.18300
Zn	Zn	0.58395 0.33165 0.88943 1.18300
Zn	Zn	0.58395 0.11057 0.44222 1.18400
Zn	Zn	0.08395 0.44222 0.33165 1.18400
Zn	Zn	0.08395 0.66835 0.11057 1.18400
Zn	Zn	0.08395 0.88943 0.55778 1.18400
Zn	Zn	0.58395 0.11057 0.66835 1.18400
Zn	Zn	0.58395 0.55778 0.88943 1.18400
Zn	Zn	0.58395 0.33165 0.44222 1.18400
Zn	Zn	0.08395 0.88943 0.33165 1.18400
Zn	Zn	0.08395 0.44222 0.11057 1.18400
Zn	Zn	0.08395 0.66835 0.55778 1.18400
Zn	Zn	0.41605 0.44222 0.33165 1.18400
Zn	Zn	0.41605 0.66835 0.11057 1.18400
Zn	Zn	0.41605 0.88943 0.55778 1.18400
Zn	Zn	0.91605 0.55778 0.66835 1.18400
Zn	Zn	0.91605 0.33165 0.88943 1.18400
Zn	Zn	0.91605 0.11057 0.44222 1.18400
H 	H 	0.59430 0.87090 0.30160 0.05100
H 	H 	0.70000 0.82510 0.25960 0.03000
H 	H 	0.44610 0.91020 0.22240 0.05000
H 	H 	0.46180 0.96280 0.17620 0.02000
H 	H 	0.31770 0.97570 0.30860 0.01100
H 	H 	0.52320 0.81520 0.36110 0.01200
H 	H 	0.59430 0.43070 0.12910 0.05000
H 	H 	0.70000 0.43450 0.17490 0.03000
H 	H 	0.44610 0.31220 0.08980 0.04000
H 	H 	0.46180 0.21340 0.03720 0.03200
H 	H 	0.31770 0.33290 0.02430 0.01000
H 	H 	0.52320 0.54590 0.18480 0.01200
H 	H 	0.59430 0.69840 0.56930 0.05100
H 	H 	0.70000 0.74040 0.56550 0.03000
H 	H 	0.44610 0.77760 0.68780 0.04300
H 	H 	0.46180 0.82380 0.78660 0.02900
H 	H 	0.31770 0.69140 0.66710 0.01000
H 	H 	0.52320 0.63890 0.45410 0.01200
H 	H 	0.09430 0.12910 0.69840 0.05000
H 	H 	0.20000 0.17490 0.74040 0.03000
H 	H 	0.94610 0.08980 0.77760 0.04000
H 	H 	0.96180 0.03720 0.82380 0.03300
H 	H 	0.81770 0.02430 0.69140 0.01000
H 	H 	0.02320 0.18480 0.63890 0.01000
H 	H 	0.09430 0.56930 0.87090 0.05000
H 	H 	0.20000 0.56550 0.82510 0.03000
H 	H 	0.94610 0.68780 0.91020 0.05000
H 	H 	0.96180 0.78660 0.96280 0.02100
H 	H 	0.81770 0.66710 0.97570 0.01100
H 	H 	0.02320 0.45410 0.81520 0.01100
H 	H 	0.09430 0.30160 0.43070 0.05000
H 	H 	0.20000 0.25960 0.43450 0.03000
H 	H 	0.94610 0.22240 0.31220 0.04700
H 	H 	0.96180 0.17620 0.21340 0.02400
H 	H 	0.81770 0.30860 0.33290 0.01000
H 	H 	0.02320 0.36110 0.54590 0.01100
H 	H 	0.40570 0.56930 0.69840 0.05100
H 	H 	0.30000 0.56550 0.74040 0.03000
H 	H 	0.55390 0.68780 0.77760 0.04300
H 	H 	0.53820 0.78660 0.82380 0.02900
H 	H 	0.68230 0.66710 0.69140 0.01000
H 	H 	0.47680 0.45410 0.63890 0.01200
H 	H 	0.40570 0.30160 0.87090 0.05100
H 	H 	0.30000 0.25960 0.82510 0.03000
H 	H 	0.55390 0.22240 0.91020 0.04700
H 	H 	0.53820 0.17620 0.96280 0.02400
H 	H 	0.68230 0.30860 0.97570 0.01000
H 	H 	0.47680 0.36110 0.81520 0.01200
H 	H 	0.40570 0.12910 0.43070 0.05000
H 	H 	0.30000 0.17490 0.43450 0.02900
H 	H 	0.55390 0.08980 0.31220 0.03700
H 	H 	0.53820 0.03720 0.21340 0.03600
H 	H 	0.68230 0.02430 0.33290 0.01000
H 	H 	0.47680 0.18480 0.54590 0.01200
H 	H 	0.90570 0.43070 0.30160 0.05100
H 	H 	0.80000 0.43450 0.25960 0.03000
H 	H 	0.05390 0.31220 0.22240 0.04000
H 	H 	0.03820 0.21340 0.17620 0.03200
H 	H 	0.18230 0.33290 0.30860 0.01000
H 	H 	0.97680 0.54590 0.36110 0.01400
H 	H 	0.90570 0.69840 0.12910 0.05100
H 	H 	0.80000 0.74040 0.17490 0.03000
H 	H 	0.05390 0.77760 0.08980 0.03700
H 	H 	0.03820 0.82380 0.03720 0.03600
H 	H 	0.18230 0.69140 0.02430 0.01000
H 	H 	0.97680 0.63890 0.18480 0.01300
H 	H 	0.90570 0.87090 0.56930 0.05200
H 	H 	0.80000 0.82510 0.56550 0.03000
H 	H 	0.05390 0.91020 0.68780 0.04700
H 	H 	0.03820 0.96280 0.78660 0.02400
H 	H 	0.18230 0.97570 0.66710 0.01100
H 	H 	0.97680 0.81520 0.45410 0.01400
H 	H 	0.40570 0.12910 0.69840 0.05000
H 	H 	0.30000 0.17490 0.74040 0.03000
H 	H 	0.55390 0.08980 0.77760 0.03700
H 	H 	0.53820 0.03720 0.82380 0.03700
H 	H 	0.68230 0.02430 0.69140 0.01000
H 	H 	0.47680 0.18480 0.63890 0.01200
H 	H 	0.40570 0.56930 0.87090 0.05100
H 	H 	0.30000 0.56550 0.82510 0.03000
H 	H 	0.55390 0.68780 0.91020 0.04700
H 	H 	0.53820 0.78660 0.96280 0.02400
H 	H 	0.68230 0.66710 0.97570 0.01100
H 	H 	0.47680 0.45410 0.81520 0.01200
H 	H 	0.40570 0.30160 0.43070 0.05100
H 	H 	0.30000 0.25960 0.43450 0.03000
H 	H 	0.55390 0.22240 0.31220 0.04300
H 	H 	0.53820 0.17620 0.21340 0.02800
H 	H 	0.68230 0.30860 0.33290 0.01000
H 	H 	0.47680 0.36110 0.54590 0.01200
H 	H 	0.90570 0.87090 0.30160 0.05200
H 	H 	0.80000 0.82510 0.25960 0.03000
H 	H 	0.05390 0.91020 0.22240 0.04700
H 	H 	0.03820 0.96280 0.17620 0.02400
H 	H 	0.18230 0.97570 0.30860 0.01100
H 	H 	0.97680 0.81520 0.36110 0.01300
H 	H 	0.90570 0.43070 0.12910 0.05100
H 	H 	0.80000 0.43450 0.17490 0.03000
H 	H 	0.05390 0.31220 0.08980 0.03700
H 	H 	0.03820 0.21340 0.03720 0.03700
H 	H 	0.18230 0.33290 0.02430 0.01000
H 	H 	0.97680 0.54590 0.18480 0.01400
H 	H 	0.90570 0.69840 0.56930 0.05100
H 	H 	0.80000 0.74040 0.56550 0.03000
H 	H 	0.05390 0.77760 0.68780 0.04000
H 	H 	0.03820 0.82380 0.78660 0.03300
H 	H 	0.18230 0.69140 0.66710 0.01000
H 	H 	0.97680 0.63890 0.45410 0.01400
H 	H 	0.59430 0.43070 0.30160 0.05100
H 	H 	0.70000 0.43450 0.25960 0.03000
H 	H 	0.44610 0.31220 0.22240 0.04300
H 	H 	0.46180 0.21340 0.17620 0.02800
H 	H 	0.31770 0.33290 0.30860 0.01000
H 	H 	0.52320 0.54590 0.36110 0.01200
H 	H 	0.59430 0.69840 0.12910 0.05000
H 	H 	0.70000 0.74040 0.17490 0.03000
H 	H 	0.44610 0.77760 0.08980 0.04000
H 	H 	0.46180 0.82380 0.03720 0.03300
H 	H 	0.31770 0.69140 0.02430 0.01000
H 	H 	0.52320 0.63890 0.18480 0.01200
H 	H 	0.59430 0.87090 0.56930 0.05100
H 	H 	0.70000 0.82510 0.56550 0.03000
H 	H 	0.44610 0.91020 0.68780 0.05000
H 	H 	0.46180 0.96280 0.78660 0.02000
H 	H 	0.31770 0.97570 0.66710 0.01100
H 	H 	0.52320 0.81520 0.45410 0.01200
H 	H 	0.09430 0.56930 0.69840 0.05000
H 	H 	0.20000 0.56550 0.74040 0.03000
H 	H 	0.94610 0.68780 0.77760 0.04600
H 	H 	0.96180 0.78660 0.82380 0.02500
H 	H 	0.81770 0.66710 0.69140 0.01000
H 	H 	0.02320 0.45410 0.63890 0.01100
H 	H 	0.09430 0.30160 0.87090 0.05000
H 	H 	0.20000 0.25960 0.82510 0.03000
H 	H 	0.94610 0.22240 0.91020 0.05000
H 	H 	0.96180 0.17620 0.96280 0.02000
H 	H 	0.81770 0.30860 0.97570 0.01000
H 	H 	0.02320 0.36110 0.81520 0.01100
H 	H 	0.09430 0.12910 0.43070 0.05000
H 	H 	0.20000 0.17490 0.43450 0.03000
H 	H 	0.94610 0.08980 0.31220 0.04000
H 	H 	0.96180 0.03720 0.21340 0.03300
H 	H 	0.81770 0.02430 0.33290 0.01000
H 	H 	0.02320 0.18480 0.54590 0.01000
H 	H 	0.36650 0.77510 0.22490 -0.02000
H 	H 	0.36650 0.44980 0.22490 -0.02100
H 	H 	0.36650 0.77510 0.55020 -0.02000
H 	H 	0.86650 0.22490 0.77510 -0.02100
H 	H 	0.86650 0.55020 0.77510 -0.02100
H 	H 	0.86650 0.22490 0.44980 -0.02100
H 	H 	0.63350 0.55020 0.77510 -0.02000
H 	H 	0.63350 0.22490 0.77510 -0.02000
H 	H 	0.63350 0.22490 0.44980 -0.02000
H 	H 	0.13350 0.44980 0.22490 -0.02000
H 	H 	0.13350 0.77510 0.22490 -0.02000
H 	H 	0.13350 0.77510 0.55020 -0.02000
H 	H 	0.50000 0.00000 0.42280 -0.02600
H 	H 	0.50000 0.42280 -0.00000 -0.02600
H 	H 	0.50000 0.57720 0.57720 -0.02600
H 	H 	0.00000 1.00000 0.57720 -0.02100
H 	H 	1.00000 0.57720 -0.00000 -0.02600
H 	H 	1.00000 0.42280 0.42280 -0.02400
H 	H 	0.50000 1.00000 0.57720 -0.02100
H 	H 	0.50000 0.57720 -0.00000 -0.02600
H 	H 	0.50000 0.42280 0.42280 -0.02600
H 	H 	0.00000 0.00000 0.42280 -0.02600
H 	H 	1.00000 0.42280 -0.00000 -0.02400
H 	H 	1.00000 0.57720 0.57720 -0.02600
C 	C 	0.52780 0.80880 0.24440 0.06200
C 	C 	0.59290 0.83450 0.26750 -0.11700
C 	C 	0.65420 0.80820 0.24200 -0.01200
C 	C 	0.47920 0.97470 0.29780 0.07200
C 	C 	0.46560 0.94810 0.24200 -0.13300
C 	C 	0.48060 0.97700 0.21400 0.01000
C 	C 	0.28740 0.94870 0.31190 0.01200
C 	C 	0.49360 0.83910 0.39370 0.01400
C 	C 	0.52780 0.43560 0.19120 0.06200
C 	C 	0.59290 0.43300 0.16550 -0.11600
C 	C 	0.65420 0.43380 0.19180 -0.01200
C 	C 	0.47920 0.32310 0.02530 0.05100
C 	C 	0.46560 0.29390 0.05190 -0.10500
C 	C 	0.48060 0.23700 0.02300 -0.03000
C 	C 	0.28740 0.36320 0.05130 0.01200
C 	C 	0.49360 0.55460 0.16090 0.01400
C 	C 	0.52780 0.75560 0.56440 0.06200
C 	C 	0.59290 0.73250 0.56700 -0.11600
C 	C 	0.65420 0.75800 0.56620 -0.01200
C 	C 	0.47920 0.70220 0.67690 0.05800
C 	C 	0.46560 0.75800 0.70610 -0.11400
C 	C 	0.48060 0.78600 0.76300 -0.01700
C 	C 	0.28740 0.68810 0.63680 0.01200
C 	C 	0.49360 0.60630 0.44540 0.01400
C 	C 	0.02780 0.19120 0.75560 0.06000
C 	C 	0.09290 0.16550 0.73250 -0.11600
C 	C 	0.15420 0.19180 0.75800 -0.01300
C 	C 	0.97920 0.02530 0.70220 0.05100
C 	C 	0.96560 0.05190 0.75800 -0.10400
C 	C 	0.98060 0.02300 0.78600 -0.03000
C 	C 	0.78740 0.05130 0.68810 0.01200
C 	C 	0.99360 0.16090 0.60630 0.01600
C 	C 	0.02780 0.56440 0.80880 0.06000
C 	C 	0.09290 0.56700 0.83450 -0.11600
C 	C 	0.15420 0.56620 0.80820 -0.01200
C 	C 	0.97920 0.67690 0.97470 0.07200
C 	C 	0.96560 0.70610 0.94810 -0.13200
C 	C 	0.98060 0.76300 0.97700 0.00900
C 	C 	0.78740 0.63680 0.94870 0.01200
C 	C 	0.99360 0.44540 0.83910 0.01600
C 	C 	0.02780 0.24440 0.43560 0.06000
C 	C 	0.09290 0.26750 0.43300 -0.11600
C 	C 	0.15420 0.24200 0.43380 -0.01200
C 	C 	0.97920 0.29780 0.32310 0.06600
C 	C 	0.96560 0.24200 0.29390 -0.12400
C 	C 	0.98060 0.21400 0.23700 -0.00300
C 	C 	0.78740 0.31190 0.36320 0.01200
C 	C 	0.99360 0.39370 0.55460 0.01600
C 	C 	0.47220 0.56440 0.75560 0.06200
C 	C 	0.40710 0.56700 0.73250 -0.11600
C 	C 	0.34580 0.56620 0.75800 -0.01200
C 	C 	0.52080 0.67690 0.70220 0.05800
C 	C 	0.53440 0.70610 0.75800 -0.11400
C 	C 	0.51940 0.76300 0.78600 -0.01700
C 	C 	0.71260 0.63680 0.68810 0.01200
C 	C 	0.50640 0.44540 0.60630 0.01400
C 	C 	0.47220 0.24440 0.80880 0.06200
C 	C 	0.40710 0.26750 0.83450 -0.11700
C 	C 	0.34580 0.24200 0.80820 -0.01200
C 	C 	0.52080 0.29780 0.97470 0.06500
C 	C 	0.53440 0.24200 0.94810 -0.12400
C 	C 	0.51940 0.21400 0.97700 -0.00400
C 	C 	0.71260 0.31190 0.94870 0.01200
C 	C 	0.50640 0.39370 0.83910 0.01400
C 	C 	0.47220 0.19120 0.43560 0.06200
C 	C 	0.40710 0.16550 0.43300 -0.11600
C 	C 	0.34580 0.19180 0.43380 -0.01200
C 	C 	0.52080 0.02530 0.32310 0.04500
C 	C 	0.53440 0.05190 0.29390 -0.09500
C 	C 	0.51940 0.02300 0.23700 -0.04300
C 	C 	0.71260 0.05130 0.36320 0.01200
C 	C 	0.50640 0.16090 0.55460 0.01400
C 	C 	0.97220 0.43560 0.24440 0.06300
C 	C 	0.90710 0.43300 0.26750 -0.11700
C 	C 	0.84580 0.43380 0.24200 -0.01200
C 	C 	0.02080 0.32310 0.29780 0.05100
C 	C 	0.03440 0.29390 0.24200 -0.10500
C 	C 	0.01940 0.23700 0.21400 -0.03000
C 	C 	0.21260 0.36320 0.31190 0.01200
C 	C 	0.00640 0.55460 0.39370 0.01200
C 	C 	0.97220 0.75560 0.19120 0.06200
C 	C 	0.90710 0.73250 0.16550 -0.11700
C 	C 	0.84580 0.75800 0.19180 -0.01200
C 	C 	0.02080 0.70220 0.02530 0.04500
C 	C 	0.03440 0.75800 0.05190 -0.09600
C 	C 	0.01940 0.78600 0.02300 -0.04200
C 	C 	0.21260 0.68810 0.05130 0.01200
C 	C 	0.00640 0.60630 0.16090 0.01300
C 	C 	0.97220 0.80880 0.56440 0.06300
C 	C 	0.90710 0.83450 0.56700 -0.11700
C 	C 	0.84580 0.80820 0.56620 -0.01200
C 	C 	0.02080 0.97470 0.67690 0.06600
C 	C 	0.03440 0.94810 0.70610 -0.12400
C 	C 	0.01940 0.97700 0.76300 -0.00300
C 	C 	0.21260 0.94870 0.63680 0.01200
C 	C 	0.00640 0.83910 0.44540 0.01300
C 	C 	0.47220 0.19120 0.75560 0.06100
C 	C 	0.40710 0.16550 0.73250 -0.11600
C 	C 	0.34580 0.19180 0.75800 -0.01300
C 	C 	0.52080 0.02530 0.70220 0.04400
C 	C 	0.53440 0.05190 0.75800 -0.09400
C 	C 	0.51940 0.02300 0.78600 -0.04500
C 	C 	0.71260 0.05130 0.68810 0.01200
C 	C 	0.50640 0.16090 0.60630 0.01400
C 	C 	0.47220 0.56440 0.80880 0.06200
C 	C 	0.40710 0.56700 0.83450 -0.11700
C 	C 	0.34580 0.56620 0.80820 -0.01200
C 	C 	0.52080 0.67690 0.97470 0.06600
C 	C 	0.53440 0.70610 0.94810 -0.12400
C 	C 	0.51940 0.76300 0.97700 -0.00200
C 	C 	0.71260 0.63680 0.94870 0.01200
C 	C 	0.50640 0.44540 0.83910 0.01400
C 	C 	0.47220 0.24440 0.43560 0.06200
C 	C 	0.40710 0.26750 0.43300 -0.11700
C 	C 	0.34580 0.24200 0.43380 -0.01200
C 	C 	0.52080 0.29780 0.32310 0.05800
C 	C 	0.53440 0.24200 0.29390 -0.11400
C 	C 	0.51940 0.21400 0.23700 -0.01700
C 	C 	0.71260 0.31190 0.36320 0.01200
C 	C 	0.50640 0.39370 0.55460 0.01400
C 	C 	0.97220 0.80880 0.24440 0.06300
C 	C 	0.90710 0.83450 0.26750 -0.11700
C 	C 	0.84580 0.80820 0.24200 -0.01200
C 	C 	0.02080 0.97470 0.29780 0.06600
C 	C 	0.03440 0.94810 0.24200 -0.12400
C 	C 	0.01940 0.97700 0.21400 -0.00300
C 	C 	0.21260 0.94870 0.31190 0.01200
C 	C 	0.00640 0.83910 0.39370 0.01300
C 	C 	0.97220 0.43560 0.19120 0.06300
C 	C 	0.90710 0.43300 0.16550 -0.11700
C 	C 	0.84580 0.43380 0.19180 -0.01200
C 	C 	0.02080 0.32310 0.02530 0.04400
C 	C 	0.03440 0.29390 0.05190 -0.09500
C 	C 	0.01940 0.23700 0.02300 -0.04400
C 	C 	0.21260 0.36320 0.05130 0.01200
C 	C 	0.00640 0.55460 0.16090 0.01200
C 	C 	0.97220 0.75560 0.56440 0.06300
C 	C 	0.90710 0.73250 0.56700 -0.11700
C 	C 	0.84580 0.75800 0.56620 -0.01200
C 	C 	0.02080 0.70220 0.67690 0.05200
C 	C 	0.03440 0.75800 0.70610 -0.10500
C 	C 	0.01940 0.78600 0.76300 -0.02900
C 	C 	0.21260 0.68810 0.63680 0.01200
C 	C 	0.00640 0.60630 0.44540 0.01200
C 	C 	0.52780 0.43560 0.24440 0.06200
C 	C 	0.59290 0.43300 0.26750 -0.11600
C 	C 	0.65420 0.43380 0.24200 -0.01200
C 	C 	0.47920 0.32310 0.29780 0.05800
C 	C 	0.46560 0.29390 0.24200 -0.11400
C 	C 	0.48060 0.23700 0.21400 -0.01700
C 	C 	0.28740 0.36320 0.31190 0.01200
C 	C 	0.49360 0.55460 0.39370 0.01400
C 	C 	0.52780 0.75560 0.19120 0.06100
C 	C 	0.59290 0.73250 0.16550 -0.11600
C 	C 	0.65420 0.75800 0.19180 -0.01300
C 	C 	0.47920 0.70220 0.02530 0.05100
C 	C 	0.46560 0.75800 0.05190 -0.10400
C 	C 	0.48060 0.78600 0.02300 -0.03100
C 	C 	0.28740 0.68810 0.05130 0.01200
C 	C 	0.49360 0.60630 0.16090 0.01400
C 	C 	0.52780 0.80880 0.56440 0.06200
C 	C 	0.59290 0.83450 0.56700 -0.11700
C 	C 	0.65420 0.80820 0.56620 -0.01200
C 	C 	0.47920 0.97470 0.67690 0.07300
C 	C 	0.46560 0.94810 0.70610 -0.13400
C 	C 	0.48060 0.97700 0.76300 0.01100
C 	C 	0.28740 0.94870 0.63680 0.01200
C 	C 	0.49360 0.83910 0.44540 0.01400
C 	C 	0.02780 0.56440 0.75560 0.06000
C 	C 	0.09290 0.56700 0.73250 -0.11600
C 	C 	0.15420 0.56620 0.75800 -0.01300
C 	C 	0.97920 0.67690 0.70220 0.06500
C 	C 	0.96560 0.70610 0.75800 -0.12300
C 	C 	0.98060 0.76300 0.78600 -0.00500
C 	C 	0.78740 0.63680 0.68810 0.01200
C 	C 	0.99360 0.44540 0.60630 0.01600
C 	C 	0.02780 0.24440 0.80880 0.06000
C 	C 	0.09290 0.26750 0.83450 -0.11600
C 	C 	0.15420 0.24200 0.80820 -0.01200
C 	C 	0.97920 0.29780 0.97470 0.07300
C 	C 	0.96560 0.24200 0.94810 -0.13400
C 	C 	0.98060 0.21400 0.97700 0.01100
C 	C 	0.78740 0.31190 0.94870 0.01200
C 	C 	0.99360 0.39370 0.83910 0.01600
C 	C 	0.02780 0.19120 0.43560 0.06000
C 	C 	0.09290 0.16550 0.43300 -0.11600
C 	C 	0.15420 0.19180 0.43380 -0.01300
C 	C 	0.97920 0.02530 0.32310 0.05100
C 	C 	0.96560 0.05190 0.29390 -0.10400
C 	C 	0.98060 0.02300 0.23700 -0.03100
C 	C 	0.78740 0.05130 0.36320 0.01200
C 	C 	0.99360 0.16090 0.55460 0.01600
C 	C 	0.41860 0.77755 0.22245 0.08800
C 	C 	0.41860 0.44490 0.22245 0.08900
C 	C 	0.41860 0.77755 0.55510 0.08800
C 	C 	0.91860 0.22245 0.77755 0.08900
C 	C 	0.91860 0.55510 0.77755 0.08900
C 	C 	0.91860 0.22245 0.44490 0.08900
C 	C 	0.58140 0.55510 0.77755 0.08800
C 	C 	0.58140 0.22245 0.77755 0.08900
C 	C 	0.58140 0.22245 0.44490 0.08900
C 	C 	0.08140 0.44490 0.22245 0.08800
C 	C 	0.08140 0.77755 0.22245 0.08800
C 	C 	0.08140 0.77755 0.55510 0.08800
C 	C 	0.50000 0.00000 0.38740 0.07700
C 	C 	0.50000 0.38740 -0.00000 0.07900
C 	C 	0.50000 0.61260 0.61260 0.08000
C 	C 	-0.00000 0.00000 0.61260 0.06900
C 	C 	1.00000 0.61260 -0.00000 0.08000
C 	C 	0.00000 0.38740 0.38740 0.07600
C 	C 	0.50000 0.00000 0.61260 0.07200
C 	C 	0.50000 0.61260 -0.00000 0.07800
C 	C 	0.50000 0.38740 0.38740 0.08000
C 	C 	-0.00000 0.00000 0.38740 0.07500
C 	C 	0.00000 0.38740 -0.00000 0.07500
C 	C 	1.00000 0.61260 0.61260 0.08200
C 	C 	0.25000 0.87910 0.31930 0.14900
C 	C 	0.25000 0.44020 0.12090 0.14900
C 	C 	0.25000 0.68070 0.55980 0.14900
C 	C 	0.75000 0.12090 0.68070 0.14900
C 	C 	0.75000 0.55980 0.87910 0.14900
C 	C 	0.75000 0.31930 0.44020 0.14900
C 	C 	0.75000 0.55980 0.68070 0.14900
C 	C 	0.75000 0.31930 0.87910 0.14900
C 	C 	0.75000 0.12090 0.44020 0.14900
C 	C 	0.25000 0.44020 0.31930 0.14900
C 	C 	0.25000 0.68070 0.12090 0.14900
C 	C 	0.25000 0.87910 0.55980 0.14900
C 	C 	0.41890 0.90080 0.45040 0.16200
C 	C 	0.41890 0.54960 0.09920 0.16200
C 	C 	0.41890 0.54960 0.45040 0.16200
C 	C 	0.91890 0.09920 0.54960 0.16200
C 	C 	0.91890 0.45040 0.90080 0.16200
C 	C 	0.91890 0.45040 0.54960 0.16200
C 	C 	0.58110 0.45040 0.54960 0.16200
C 	C 	0.58110 0.45040 0.90080 0.16200
C 	C 	0.58110 0.09920 0.54960 0.16100
C 	C 	0.08110 0.54960 0.45040 0.16200
C 	C 	0.08110 0.54960 0.09920 0.16100
C 	C 	0.08110 0.90080 0.45040 0.16200
N 	N 	0.45830 0.82100 0.26230 -0.28500
N 	N 	0.47130 0.95880 0.33800 -0.27500
N 	N 	0.31150 0.90550 0.31730 -0.26900
N 	N 	0.44590 0.87750 0.39730 -0.27000
N 	N 	0.45830 0.44130 0.17900 -0.28500
N 	N 	0.47130 0.37920 0.04120 -0.27300
N 	N 	0.31150 0.41180 0.09450 -0.26900
N 	N 	0.44590 0.51980 0.12250 -0.27000
N 	N 	0.45830 0.73770 0.55870 -0.28500
N 	N 	0.47130 0.66200 0.62080 -0.27500
N 	N 	0.31150 0.68270 0.58820 -0.26900
N 	N 	0.44590 0.60270 0.48020 -0.27000
N 	N 	0.95830 0.17900 0.73770 -0.28400
N 	N 	0.97130 0.04120 0.66200 -0.27100
N 	N 	0.81150 0.09450 0.68270 -0.26900
N 	N 	0.94590 0.12250 0.60270 -0.27000
N 	N 	0.95830 0.55870 0.82100 -0.28500
N 	N 	0.97130 0.62080 0.95880 -0.27600
N 	N 	0.81150 0.58820 0.90550 -0.26900
N 	N 	0.94590 0.48020 0.87750 -0.27000
N 	N 	0.95830 0.26230 0.44130 -0.28500
N 	N 	0.97130 0.33800 0.37920 -0.27400
N 	N 	0.81150 0.31730 0.41180 -0.26900
N 	N 	0.94590 0.39730 0.51980 -0.27000
N 	N 	0.54170 0.55870 0.73770 -0.28500
N 	N 	0.52870 0.62080 0.66200 -0.27500
N 	N 	0.68850 0.58820 0.68270 -0.26900
N 	N 	0.55410 0.48020 0.60270 -0.27000
N 	N 	0.54170 0.26230 0.82100 -0.28500
N 	N 	0.52870 0.33800 0.95880 -0.27500
N 	N 	0.68850 0.31730 0.90550 -0.26900
N 	N 	0.55410 0.39730 0.87750 -0.27000
N 	N 	0.54170 0.17900 0.44130 -0.28500
N 	N 	0.52870 0.04120 0.37920 -0.27200
N 	N 	0.68850 0.09450 0.41180 -0.26900
N 	N 	0.55410 0.12250 0.51980 -0.27000
N 	N 	0.04170 0.44130 0.26230 -0.28600
N 	N 	0.02870 0.37920 0.33800 -0.27300
N 	N 	0.18850 0.41180 0.31730 -0.26900
N 	N 	0.05410 0.51980 0.39730 -0.27000
N 	N 	0.04170 0.73770 0.17900 -0.28600
N 	N 	0.02870 0.66200 0.04120 -0.27300
N 	N 	0.18850 0.68270 0.09450 -0.26900
N 	N 	0.05410 0.60270 0.12250 -0.27000
N 	N 	0.04170 0.82100 0.55870 -0.28600
N 	N 	0.02870 0.95880 0.62080 -0.27300
N 	N 	0.18850 0.90550 0.58820 -0.26900
N 	N 	0.05410 0.87750 0.48020 -0.27000
N 	N 	0.54170 0.17900 0.73770 -0.28500
N 	N 	0.52870 0.04120 0.66200 -0.27100
N 	N 	0.68850 0.09450 0.68270 -0.26900
N 	N 	0.55410 0.12250 0.60270 -0.27000
N 	N 	0.54170 0.55870 0.82100 -0.28500
N 	N 	0.52870 0.62080 0.95880 -0.27500
N 	N 	0.68850 0.58820 0.90550 -0.26900
N 	N 	0.55410 0.48020 0.87750 -0.27000
N 	N 	0.54170 0.26230 0.44130 -0.28500
N 	N 	0.52870 0.33800 0.37920 -0.27500
N 	N 	0.68850 0.31730 0.41180 -0.26900
N 	N 	0.55410 0.39730 0.51980 -0.27000
N 	N 	0.04170 0.82100 0.26230 -0.28600
N 	N 	0.02870 0.95880 0.33800 -0.27400
N 	N 	0.18850 0.90550 0.31730 -0.26900
N 	N 	0.05410 0.87750 0.39730 -0.27000
N 	N 	0.04170 0.44130 0.17900 -0.28600
N 	N 	0.02870 0.37920 0.04120 -0.27200
N 	N 	0.18850 0.41180 0.09450 -0.26900
N 	N 	0.05410 0.51980 0.12250 -0.27000
N 	N 	0.04170 0.73770 0.55870 -0.28600
N 	N 	0.02870 0.66200 0.62080 -0.27400
N 	N 	0.18850 0.68270 0.58820 -0.26900
N 	N 	0.05410 0.60270 0.48020 -0.27000
N 	N 	0.45830 0.44130 0.26230 -0.28500
N 	N 	0.47130 0.37920 0.33800 -0.27500
N 	N 	0.31150 0.41180 0.31730 -0.26900
N 	N 	0.44590 0.51980 0.39730 -0.27000
N 	N 	0.45830 0.73770 0.17900 -0.28500
N 	N 	0.47130 0.66200 0.04120 -0.27300
N 	N 	0.31150 0.68270 0.09450 -0.26900
N 	N 	0.44590 0.60270 0.12250 -0.27000
N 	N 	0.45830 0.82100 0.55870 -0.28500
N 	N 	0.47130 0.95880 0.62080 -0.27400
N 	N 	0.31150 0.90550 0.58820 -0.26900
N 	N 	0.44590 0.87750 0.48020 -0.27000
N 	N 	0.95830 0.55870 0.73770 -0.28500
N 	N 	0.97130 0.62080 0.66200 -0.27600
N 	N 	0.81150 0.58820 0.68270 -0.26900
N 	N 	0.94590 0.48020 0.60270 -0.27000
N 	N 	0.95830 0.26230 0.82100 -0.28400
N 	N 	0.97130 0.33800 0.95880 -0.27500
N 	N 	0.81150 0.31730 0.90550 -0.26900
N 	N 	0.94590 0.39730 0.87750 -0.27000
N 	N 	0.95830 0.17900 0.44130 -0.28400
N 	N 	0.97130 0.04120 0.37920 -0.27200
N 	N 	0.81150 0.09450 0.41180 -0.26900
N 	N 	0.94590 0.12250 0.51980 -0.27000
N 	N 	0.25000 0.82940 0.32570 -0.02000
N 	N 	0.25000 0.49630 0.17060 -0.02000
N 	N 	0.25000 0.67430 0.50370 -0.02000
N 	N 	0.75000 0.17060 0.67430 -0.02000
N 	N 	0.75000 0.50370 0.82940 -0.02000
N 	N 	0.75000 0.32570 0.49630 -0.02000
N 	N 	0.75000 0.50370 0.67430 -0.02000
N 	N 	0.75000 0.32570 0.82940 -0.02000
N 	N 	0.75000 0.17060 0.49630 -0.02000
N 	N 	0.25000 0.49630 0.32570 -0.02000
N 	N 	0.25000 0.67430 0.17060 -0.02000
N 	N 	0.25000 0.82940 0.50370 -0.02000
N 	N 	0.36500 0.94570 0.47285 -0.02200
N 	N 	0.36500 0.52715 0.05430 -0.02200
N 	N 	0.36500 0.52715 0.47285 -0.02200
N 	N 	0.86500 0.05430 0.52715 -0.02200
N 	N 	0.86500 0.47285 0.94570 -0.02200
N 	N 	0.86500 0.47285 0.52715 -0.02200
N 	N 	0.63500 0.47285 0.52715 -0.02200
N 	N 	0.63500 0.47285 0.94570 -0.02200
N 	N 	0.63500 0.05430 0.52715 -0.02200
N 	N 	0.13500 0.52715 0.47285 -0.02200
N 	N 	0.13500 0.52715 0.05430 -0.02200
N 	N 	0.13500 0.94570 0.47285 -0.02200
O 	O 	0.31030 0.81120 0.32930 -0.16500
O 	O 	0.34630 0.96130 0.43810 -0.17600
O 	O 	0.31030 0.51810 0.18880 -0.16500
O 	O 	0.34630 0.47680 0.03870 -0.17700
O 	O 	0.31030 0.67070 0.48190 -0.16500
O 	O 	0.34630 0.56190 0.52320 -0.17700
O 	O 	0.81030 0.18880 0.67070 -0.16500
O 	O 	0.84630 0.03870 0.56190 -0.17700
O 	O 	0.81030 0.48190 0.81120 -0.16500
O 	O 	0.84630 0.52320 0.96130 -0.17600
O 	O 	0.81030 0.32930 0.51810 -0.16500
O 	O 	0.84630 0.43810 0.47680 -0.17600
O 	O 	0.68970 0.48190 0.67070 -0.16500
O 	O 	0.65370 0.52320 0.56190 -0.17700
O 	O 	0.68970 0.32930 0.81120 -0.16500
O 	O 	0.65370 0.43810 0.96130 -0.17600
O 	O 	0.68970 0.18880 0.51810 -0.16500
O 	O 	0.65370 0.03870 0.47680 -0.17700
O 	O 	0.18970 0.51810 0.32930 -0.16500
O 	O 	0.15370 0.47680 0.43810 -0.17700
O 	O 	0.18970 0.67070 0.18880 -0.16500
O 	O 	0.15370 0.56190 0.03870 -0.17700
O 	O 	0.18970 0.81120 0.48190 -0.16500
O 	O 	0.15370 0.96130 0.52320 -0.17600
O 	O 	0.68970 0.18880 0.67070 -0.16500
O 	O 	0.65370 0.03870 0.56190 -0.17700
O 	O 	0.68970 0.48190 0.81120 -0.16500
O 	O 	0.65370 0.52320 0.96130 -0.17600
O 	O 	0.68970 0.32930 0.51810 -0.16500
O 	O 	0.65370 0.43810 0.47680 -0.17700
O 	O 	0.18970 0.81120 0.32930 -0.16500
O 	O 	0.15370 0.96130 0.43810 -0.17600
O 	O 	0.18970 0.51810 0.18880 -0.16500
O 	O 	0.15370 0.47680 0.03870 -0.17700
O 	O 	0.18970 0.67070 0.48190 -0.16500
O 	O 	0.15370 0.56190 0.52320 -0.17700
O 	O 	0.31030 0.51810 0.32930 -0.16500
O 	O 	0.34630 0.47680 0.43810 -0.17700
O 	O 	0.31030 0.67070 0.18880 -0.16500
O 	O 	0.34630 0.56190 0.03870 -0.17700
O 	O 	0.31030 0.81120 0.48190 -0.16500
O 	O 	0.34630 0.96130 0.52320 -0.17600
O 	O 	0.81030 0.48190 0.67070 -0.16500
O 	O 	0.84630 0.52320 0.56190 -0.17700
O 	O 	0.81030 0.32930 0.81120 -0.16500
O 	O 	0.84630 0.43810 0.96130 -0.17600
O 	O 	0.81030 0.18880 0.51810 -0.16500
O 	O 	0.84630 0.03870 0.47680 -0.17700
