data_crystal

_cell_length_a 14.63600
_cell_length_b 19.26620
_cell_length_c 19.26620
_cell_angle_alpha 101.24100
_cell_angle_beta  92.70000
_cell_angle_gamma 92.70000

_symmetry_space_group_name_	'P 1'
_symmetry_space_group_name_H-M	'P 1'

loop_
_symmetry_equiv_pos_as_xyz
  x,y,z

loop_
_atom_site_label
_atom_site_type_symbol
_atom_site_fract_x
_atom_site_fract_y
_atom_site_fract_z
_atom_site_charge
Gd	Gd	0.36875 0.45527 0.98247 1.57000
Gd	Gd	0.13125 0.01753 0.54473 1.56300
Gd	Gd	0.63125 0.54473 0.01753 1.57000
Gd	Gd	0.86875 0.98247 0.45527 1.56300
H 	H 	0.44740 0.30930 0.13210 0.08700
H 	H 	0.69650 0.40660 0.16540 0.08100
H 	H 	0.75800 0.05830 0.23790 0.12300
H 	H 	0.67270 0.17410 0.41790 0.12500
H 	H 	0.68570 0.43050 0.85970 0.08000
H 	H 	0.51610 0.25800 0.84160 0.09800
H 	H 	0.14330 0.48940 0.99600 -0.00900
H 	H 	0.02760 0.56020 0.98540 0.11500
H 	H 	0.21560 0.71630 0.97770 0.13300
H 	H 	0.32640 0.63870 0.98810 -0.00800
H 	H 	0.05020 0.74410 0.97690 0.06700
H 	H 	0.05260 0.86790 0.69070 0.09200
H 	H 	0.80350 0.83460 0.59340 0.08300
H 	H 	0.74200 0.76210 0.94170 0.12200
H 	H 	0.82730 0.58210 0.82590 0.12500
H 	H 	0.81430 0.14030 0.56950 0.08000
H 	H 	0.98390 0.15840 0.74200 0.09900
H 	H 	0.35670 0.00400 0.51060 -0.00800
H 	H 	0.47240 0.01460 0.43980 0.11600
H 	H 	0.28440 0.02230 0.28370 0.13200
H 	H 	0.17360 0.01190 0.36130 -0.00900
H 	H 	0.44980 0.02310 0.25590 0.06600
H 	H 	0.55260 0.69070 0.86790 0.08800
H 	H 	0.30350 0.59340 0.83460 0.08200
H 	H 	0.24200 0.94170 0.76210 0.12300
H 	H 	0.32730 0.82590 0.58210 0.12500
H 	H 	0.31430 0.56950 0.14030 0.08000
H 	H 	0.48390 0.74200 0.15840 0.09800
H 	H 	0.85670 0.51060 0.00400 -0.00900
H 	H 	0.97240 0.43980 0.01460 0.11500
H 	H 	0.78440 0.28370 0.02230 0.13300
H 	H 	0.67360 0.36130 0.01190 -0.00800
H 	H 	0.94980 0.25590 0.02310 0.06700
H 	H 	0.94740 0.13210 0.30930 0.09200
H 	H 	0.19650 0.16540 0.40660 0.08300
H 	H 	0.25800 0.23790 0.05830 0.12200
H 	H 	0.17270 0.41790 0.17410 0.12500
H 	H 	0.18570 0.85970 0.43050 0.08000
H 	H 	0.01610 0.84160 0.25800 0.09900
H 	H 	0.64330 0.99600 0.48940 -0.00800
H 	H 	0.52760 0.98540 0.56020 0.11600
H 	H 	0.71560 0.97770 0.71630 0.13200
H 	H 	0.82640 0.98810 0.63870 -0.00900
H 	H 	0.55020 0.97690 0.74410 0.06600
C 	C 	0.53900 0.42150 0.09990 0.42400
C 	C 	0.56710 0.36820 0.14180 -0.06400
C 	C 	0.50770 0.31250 0.15050 -0.03900
C 	C 	0.53910 0.26090 0.18730 0.08700
C 	C 	0.62660 0.26300 0.21680 0.01400
C 	C 	0.68450 0.31800 0.20560 0.08800
C 	C 	0.65530 0.36990 0.17010 -0.04500
C 	C 	0.65820 0.20630 0.25610 -0.02000
C 	C 	0.69980 0.14840 0.22540 0.12700
C 	C 	0.73180 0.09860 0.26180 -0.10400
C 	C 	0.72440 0.10940 0.33500 0.03900
C 	C 	0.68070 0.16730 0.36950 -0.11100
C 	C 	0.64940 0.21430 0.33050 0.13000
C 	C 	0.76630 0.05940 0.37740 0.28500
C 	C 	0.52370 0.39140 0.90520 0.39800
C 	C 	0.59190 0.35060 0.85820 -0.04600
C 	C 	0.67160 0.38240 0.84280 -0.05400
C 	C 	0.73160 0.34030 0.80050 0.09100
C 	C 	0.71640 0.27000 0.77500 -0.00000
C 	C 	0.63470 0.23870 0.79110 0.09700
C 	C 	0.57130 0.27910 0.83210 -0.06100
C 	C 	0.15830 0.53580 0.99180 0.12500
C 	C 	0.08810 0.57760 0.98580 -0.16700
C 	C 	0.10900 0.64770 0.98030 0.13400
C 	C 	0.19910 0.67000 0.98120 -0.18000
C 	C 	0.26540 0.62250 0.98730 0.13800
C 	C 	0.03440 0.69720 0.97880 0.05800
C 	C 	0.96100 0.90010 0.57850 0.41700
C 	C 	0.93290 0.85820 0.63180 -0.05900
C 	C 	0.99230 0.84950 0.68750 -0.04600
C 	C 	0.96090 0.81270 0.73910 0.08900
C 	C 	0.87340 0.78320 0.73700 0.01300
C 	C 	0.81550 0.79440 0.68200 0.08900
C 	C 	0.84470 0.82990 0.63010 -0.04800
C 	C 	0.84180 0.74390 0.79370 -0.01900
C 	C 	0.80020 0.77460 0.85160 0.12600
C 	C 	0.76820 0.73820 0.90140 -0.10400
C 	C 	0.77560 0.66500 0.89060 0.03900
C 	C 	0.81930 0.63050 0.83270 -0.11100
C 	C 	0.85060 0.66950 0.78570 0.13000
C 	C 	0.73370 0.62260 0.94060 0.28600
C 	C 	0.97630 0.09480 0.60860 0.40400
C 	C 	0.90810 0.14180 0.64940 -0.04700
C 	C 	0.82840 0.15720 0.61760 -0.05300
C 	C 	0.76840 0.19950 0.65970 0.09100
C 	C 	0.78360 0.22500 0.73000 0.00000
C 	C 	0.86530 0.20890 0.76130 0.09700
C 	C 	0.92870 0.16790 0.72090 -0.06000
C 	C 	0.34170 0.00820 0.46420 0.12500
C 	C 	0.41190 0.01420 0.42240 -0.16700
C 	C 	0.39100 0.01970 0.35230 0.13400
C 	C 	0.30090 0.01880 0.33000 -0.18000
C 	C 	0.23460 0.01270 0.37750 0.13700
C 	C 	0.46560 0.02120 0.30280 0.05900
C 	C 	0.46100 0.57850 0.90010 0.42400
C 	C 	0.43290 0.63180 0.85820 -0.06400
C 	C 	0.49230 0.68750 0.84950 -0.03900
C 	C 	0.46090 0.73910 0.81270 0.08700
C 	C 	0.37340 0.73700 0.78320 0.01400
C 	C 	0.31550 0.68200 0.79440 0.08800
C 	C 	0.34470 0.63010 0.82990 -0.04500
C 	C 	0.34180 0.79370 0.74390 -0.02000
C 	C 	0.30020 0.85160 0.77460 0.12700
C 	C 	0.26820 0.90140 0.73820 -0.10400
C 	C 	0.27560 0.89060 0.66500 0.03900
C 	C 	0.31930 0.83270 0.63050 -0.11100
C 	C 	0.35060 0.78570 0.66950 0.13000
C 	C 	0.23370 0.94060 0.62260 0.28500
C 	C 	0.47630 0.60860 0.09480 0.39800
C 	C 	0.40810 0.64940 0.14180 -0.04600
C 	C 	0.32840 0.61760 0.15720 -0.05400
C 	C 	0.26840 0.65970 0.19950 0.09100
C 	C 	0.28360 0.73000 0.22500 -0.00000
C 	C 	0.36530 0.76130 0.20890 0.09700
C 	C 	0.42870 0.72090 0.16790 -0.06100
C 	C 	0.84170 0.46420 0.00820 0.12500
C 	C 	0.91190 0.42240 0.01420 -0.16700
C 	C 	0.89100 0.35230 0.01970 0.13400
C 	C 	0.80090 0.33000 0.01880 -0.18000
C 	C 	0.73460 0.37750 0.01270 0.13800
C 	C 	0.96560 0.30280 0.02120 0.05800
C 	C 	0.03900 0.09990 0.42150 0.41700
C 	C 	0.06710 0.14180 0.36820 -0.05900
C 	C 	0.00770 0.15050 0.31250 -0.04600
C 	C 	0.03910 0.18730 0.26090 0.08900
C 	C 	0.12660 0.21680 0.26300 0.01300
C 	C 	0.18450 0.20560 0.31800 0.08900
C 	C 	0.15530 0.17010 0.36990 -0.04800
C 	C 	0.15820 0.25610 0.20630 -0.01900
C 	C 	0.19980 0.22540 0.14840 0.12600
C 	C 	0.23180 0.26180 0.09860 -0.10400
C 	C 	0.22440 0.33500 0.10940 0.03900
C 	C 	0.18070 0.36950 0.16730 -0.11100
C 	C 	0.14940 0.33050 0.21430 0.13000
C 	C 	0.26630 0.37740 0.05940 0.28600
C 	C 	0.02370 0.90520 0.39140 0.40400
C 	C 	0.09190 0.85820 0.35060 -0.04700
C 	C 	0.17160 0.84280 0.38240 -0.05300
C 	C 	0.23160 0.80050 0.34030 0.09100
C 	C 	0.21640 0.77500 0.27000 0.00000
C 	C 	0.13470 0.79110 0.23870 0.09700
C 	C 	0.07130 0.83210 0.27910 -0.06000
C 	C 	0.65830 0.99180 0.53580 0.12500
C 	C 	0.58810 0.98580 0.57760 -0.16700
C 	C 	0.60900 0.98030 0.64770 0.13400
C 	C 	0.69910 0.98120 0.67000 -0.18000
C 	C 	0.76540 0.98730 0.62250 0.13700
C 	C 	0.53440 0.97880 0.69720 0.05900
N 	N 	0.46840 0.20480 0.19480 -0.00200
N 	N 	0.78220 0.32430 0.22990 -0.00400
N 	N 	0.71440 0.13280 0.14780 -0.00700
N 	N 	0.60030 0.27280 0.36840 -0.01300
N 	N 	0.81570 0.37970 0.78410 -0.00300
N 	N 	0.61190 0.16310 0.77230 -0.00400
N 	N 	0.24840 0.55500 0.99220 -0.21300
N 	N 	0.03160 0.80520 0.79520 -0.00200
N 	N 	0.71780 0.77010 0.67570 -0.00400
N 	N 	0.78560 0.85220 0.86720 -0.00700
N 	N 	0.89970 0.63160 0.72720 -0.01300
N 	N 	0.68430 0.21590 0.62030 -0.00300
N 	N 	0.88810 0.22770 0.83690 -0.00400
N 	N 	0.25160 0.00780 0.44500 -0.21300
N 	N 	0.53160 0.79520 0.80520 -0.00200
N 	N 	0.21780 0.67570 0.77010 -0.00400
N 	N 	0.28560 0.86720 0.85220 -0.00700
N 	N 	0.39970 0.72720 0.63160 -0.01300
N 	N 	0.18430 0.62030 0.21590 -0.00300
N 	N 	0.38810 0.83690 0.22770 -0.00400
N 	N 	0.75160 0.44500 0.00780 -0.21300
N 	N 	0.96840 0.19480 0.20480 -0.00200
N 	N 	0.28220 0.22990 0.32430 -0.00400
N 	N 	0.21440 0.14780 0.13280 -0.00700
N 	N 	0.10030 0.36840 0.27280 -0.01300
N 	N 	0.31570 0.78410 0.37970 -0.00300
N 	N 	0.11190 0.77230 0.16310 -0.00400
N 	N 	0.74840 0.99220 0.55500 -0.21300
O 	O 	0.46190 0.40930 0.06790 -0.40600
O 	O 	0.59480 0.47180 0.09920 -0.44300
O 	O 	0.76760 0.07500 0.44380 -0.36100
O 	O 	0.79570 0.00360 0.34440 -0.33900
O 	O 	0.40630 0.19060 0.14960 -0.08000
O 	O 	0.47700 0.17730 0.24530 -0.07600
O 	O 	0.83310 0.36580 0.20560 -0.08500
O 	O 	0.80800 0.28720 0.26980 -0.07400
O 	O 	0.70990 0.18310 0.11650 -0.08500
O 	O 	0.73360 0.07310 0.12050 -0.07100
O 	O 	0.59900 0.32850 0.34670 -0.07300
O 	O 	0.56330 0.26450 0.42250 -0.06900
O 	O 	0.55330 0.44730 0.94650 -0.48700
O 	O 	0.44380 0.36730 0.90030 -0.40000
O 	O 	0.84810 0.42710 0.82910 -0.09600
O 	O 	0.84980 0.35800 0.72880 -0.08000
O 	O 	0.67710 0.12420 0.77380 -0.09400
O 	O 	0.53960 0.13960 0.76540 -0.09100
O 	O 	0.95380 0.67950 0.97990 -0.14900
O 	O 	0.03810 0.93210 0.59070 -0.40100
O 	O 	0.90520 0.90080 0.52820 -0.44100
O 	O 	0.73240 0.55620 0.92500 -0.36200
O 	O 	0.70430 0.65560 0.99640 -0.34100
O 	O 	0.09370 0.85040 0.80940 -0.08000
O 	O 	0.02300 0.75470 0.82270 -0.07600
O 	O 	0.66690 0.79440 0.63420 -0.08500
O 	O 	0.69200 0.73020 0.71280 -0.07400
O 	O 	0.79010 0.88350 0.81690 -0.08500
O 	O 	0.76640 0.87950 0.92690 -0.07200
O 	O 	0.90100 0.65330 0.67150 -0.07300
O 	O 	0.93670 0.57750 0.73550 -0.06900
O 	O 	0.94670 0.05350 0.55270 -0.48500
O 	O 	0.05620 0.09970 0.63270 -0.40400
O 	O 	0.65190 0.17090 0.57290 -0.09600
O 	O 	0.65020 0.27120 0.64200 -0.08100
O 	O 	0.82290 0.22620 0.87580 -0.09400
O 	O 	0.96040 0.23460 0.86040 -0.09000
O 	O 	0.54620 0.02010 0.32050 -0.15000
O 	O 	0.53810 0.59070 0.93210 -0.40600
O 	O 	0.40520 0.52820 0.90080 -0.44300
O 	O 	0.23240 0.92500 0.55620 -0.36100
O 	O 	0.20430 0.99640 0.65560 -0.33900
O 	O 	0.59370 0.80940 0.85040 -0.08000
O 	O 	0.52300 0.82270 0.75470 -0.07600
O 	O 	0.16690 0.63420 0.79440 -0.08500
O 	O 	0.19200 0.71280 0.73020 -0.07400
O 	O 	0.29010 0.81690 0.88350 -0.08500
O 	O 	0.26640 0.92690 0.87950 -0.07100
O 	O 	0.40100 0.67150 0.65330 -0.07300
O 	O 	0.43670 0.73550 0.57750 -0.06900
O 	O 	0.44670 0.55270 0.05350 -0.48700
O 	O 	0.55620 0.63270 0.09970 -0.40000
O 	O 	0.15190 0.57290 0.17090 -0.09600
O 	O 	0.15020 0.64200 0.27120 -0.08000
O 	O 	0.32290 0.87580 0.22620 -0.09400
O 	O 	0.46040 0.86040 0.23460 -0.09100
O 	O 	0.04620 0.32050 0.02010 -0.14900
O 	O 	0.96190 0.06790 0.40930 -0.40100
O 	O 	0.09480 0.09920 0.47180 -0.44100
O 	O 	0.26760 0.44380 0.07500 -0.36200
O 	O 	0.29570 0.34440 0.00360 -0.34100
O 	O 	0.90630 0.14960 0.19060 -0.08000
O 	O 	0.97700 0.24530 0.17730 -0.07600
O 	O 	0.33310 0.20560 0.36580 -0.08500
O 	O 	0.30800 0.26980 0.28720 -0.07400
O 	O 	0.20990 0.11650 0.18310 -0.08500
O 	O 	0.23360 0.12050 0.07310 -0.07200
O 	O 	0.09900 0.34670 0.32850 -0.07300
O 	O 	0.06330 0.42250 0.26450 -0.06900
O 	O 	0.05330 0.94650 0.44730 -0.48500
O 	O 	0.94380 0.90030 0.36730 -0.40400
O 	O 	0.34810 0.82910 0.42710 -0.09600
O 	O 	0.34980 0.72880 0.35800 -0.08100
O 	O 	0.17710 0.77380 0.12420 -0.09400
O 	O 	0.03960 0.76540 0.13960 -0.09000
O 	O 	0.45380 0.97990 0.67950 -0.15000
