data_crystal

_cell_length_a 14.39200
_cell_length_b 16.66900
_cell_length_c 19.63700
_cell_angle_alpha 105.47100
_cell_angle_beta  96.28600
_cell_angle_gamma 95.10000

_symmetry_space_group_name_	'P 1'
_symmetry_space_group_name_H-M	'P 1'

loop_
_symmetry_equiv_pos_as_xyz
  x,y,z

loop_
_atom_site_label
_atom_site_type_symbol
_atom_site_fract_x
_atom_site_fract_y
_atom_site_fract_z
_atom_site_charge
Gd	Gd	0.87328 0.95328 0.94255 1.54000
Gd	Gd	0.36170 0.45887 0.49040 1.56400
Gd	Gd	0.12672 0.04672 0.05745 1.54100
Gd	Gd	0.63830 0.54113 0.50960 1.56500
H 	H 	0.92430 0.13080 0.81550 0.09400
H 	H 	0.15650 0.24580 0.94930 0.08200
H 	H 	0.24520 0.24460 0.59720 0.11800
H 	H 	0.14800 0.46360 0.67480 0.12300
H 	H 	0.78640 0.10280 0.07390 0.08700
H 	H 	0.92560 0.08220 0.25620 0.10300
H 	H 	0.65070 0.39160 0.37160 0.06400
H 	H 	0.45400 0.19690 0.33810 0.09300
H 	H 	0.70520 0.42940 0.67870 0.08500
H 	H 	0.43330 0.35260 0.67910 0.09200
H 	H 	0.70150 0.03640 0.75460 0.12400
H 	H 	0.69370 0.19500 0.94570 0.12600
H 	H 	0.71800 0.83960 0.79710 0.02200
H 	H 	0.66050 0.71230 0.71940 0.09500
H 	H 	0.70820 0.59230 0.74240 0.04400
H 	H 	0.87990 0.74200 0.91160 0.02300
H 	H 	0.89630 0.59520 0.88030 0.03300
H 	H 	0.37190 0.66940 0.47610 0.00900
H 	H 	0.28510 0.77430 0.46130 0.12200
H 	H 	0.12500 0.75680 0.46210 0.04700
H 	H 	0.14890 0.53500 0.50130 0.03100
H 	H 	0.98840 0.69770 0.49010 -0.04400
H 	H 	0.07570 0.86920 0.18450 0.09400
H 	H 	0.84350 0.75420 0.05070 0.08200
H 	H 	0.75480 0.75540 0.40280 0.11800
H 	H 	0.85200 0.53640 0.32520 0.12300
H 	H 	0.21360 0.89720 0.92610 0.08700
H 	H 	0.07440 0.91780 0.74380 0.10300
H 	H 	0.34930 0.60840 0.62840 0.06400
H 	H 	0.54600 0.80310 0.66190 0.09300
H 	H 	0.29480 0.57060 0.32130 0.08500
H 	H 	0.56670 0.64740 0.32090 0.09200
H 	H 	0.29850 0.96360 0.24540 0.12400
H 	H 	0.30630 0.80500 0.05430 0.12600
H 	H 	0.28200 0.16040 0.20290 0.02200
H 	H 	0.33950 0.28770 0.28060 0.09500
H 	H 	0.29180 0.40770 0.25760 0.04400
H 	H 	0.12010 0.25800 0.08840 0.02300
H 	H 	0.10370 0.40480 0.11970 0.03300
H 	H 	0.62810 0.33060 0.52390 0.00900
H 	H 	0.71490 0.22570 0.53870 0.12200
H 	H 	0.87500 0.24320 0.53790 0.04700
H 	H 	0.85110 0.46500 0.49870 0.03100
H 	H 	0.01160 0.30230 0.50990 -0.04400
C 	C 	0.01200 0.13000 0.94000 0.38900
C 	C 	0.03700 0.18000 0.89000 -0.04800
C 	C 	0.98000 0.16700 0.82600 -0.05100
C 	C 	0.00600 0.20800 0.77700 0.09400
C 	C 	0.09000 0.26200 0.78900 0.01200
C 	C 	0.14500 0.27300 0.85500 0.09600
C 	C 	0.11900 0.23500 0.90500 -0.05400
C 	C 	0.12600 0.29700 0.73200 -0.01500
C 	C 	0.17500 0.24800 0.68100 0.12400
C 	C 	0.21300 0.27900 0.63000 -0.10500
C 	C 	0.20400 0.35900 0.62800 0.03000
C 	C 	0.15500 0.40900 0.67700 -0.10500
C 	C 	0.11700 0.37800 0.72800 0.12400
C 	C 	0.24900 0.39300 0.57400 0.28100
C 	C 	0.95500 0.07200 0.12300 0.36100
C 	C 	0.86900 0.09100 0.15900 -0.03400
C 	C 	0.79100 0.10900 0.12300 -0.06500
C 	C 	0.71700 0.13800 0.16200 0.10200
C 	C 	0.71900 0.14900 0.23100 -0.00500
C 	C 	0.79800 0.12000 0.26600 0.10600
C 	C 	0.87300 0.09600 0.23200 -0.07100
C 	C 	0.65500 0.19900 0.27600 0.00200
C 	C 	0.68100 0.28100 0.30700 0.08100
C 	C 	0.62900 0.33500 0.35200 -0.04600
C 	C 	0.54500 0.30000 0.36400 -0.05000
C 	C 	0.51300 0.21900 0.33200 -0.06400
C 	C 	0.56800 0.16900 0.28900 0.09400
C 	C 	0.48700 0.35400 0.41300 0.36800
C 	C 	0.53700 0.45200 0.62200 0.40900
C 	C 	0.56400 0.40100 0.67200 -0.05200
C 	C 	0.65900 0.39700 0.69300 -0.05300
C 	C 	0.68400 0.34500 0.73400 0.09700
C 	C 	0.61800 0.29200 0.75400 0.01100
C 	C 	0.52500 0.29900 0.73200 0.09100
C 	C 	0.49700 0.35100 0.69200 -0.05100
C 	C 	0.64600 0.22700 0.79000 -0.01600
C 	C 	0.66400 0.14800 0.75100 0.12500
C 	C 	0.69200 0.08900 0.78300 -0.10100
C 	C 	0.70500 0.10500 0.85500 0.03500
C 	C 	0.68600 0.18300 0.89600 -0.10800
C 	C 	0.65800 0.24000 0.86300 0.12800
C 	C 	0.74500 0.04400 0.89000 0.29100
C 	C 	0.74000 0.79200 0.80600 0.09600
C 	C 	0.70400 0.71600 0.75900 -0.12100
C 	C 	0.73300 0.64500 0.77100 0.03200
C 	C 	0.80100 0.65600 0.82900 -0.04700
C 	C 	0.83400 0.73600 0.87300 0.06800
C 	C 	0.84500 0.58500 0.84500 0.12400
C 	C 	0.30700 0.66200 0.47700 0.09900
C 	C 	0.25600 0.72600 0.46900 -0.13100
C 	C 	0.16200 0.71600 0.47100 0.07500
C 	C 	0.12300 0.64900 0.48500 -0.09500
C 	C 	0.17900 0.58300 0.49300 0.09400
C 	C 	0.02000 0.65200 0.49100 0.31700
C 	C 	0.98800 0.87000 0.06000 0.38900
C 	C 	0.96300 0.82000 0.11000 -0.04800
C 	C 	0.02000 0.83300 0.17400 -0.05100
C 	C 	0.99400 0.79200 0.22300 0.09400
C 	C 	0.91000 0.73800 0.21100 0.01200
C 	C 	0.85500 0.72700 0.14500 0.09600
C 	C 	0.88100 0.76500 0.09500 -0.05400
C 	C 	0.87400 0.70300 0.26800 -0.01500
C 	C 	0.82500 0.75200 0.31900 0.12400
C 	C 	0.78700 0.72100 0.37000 -0.10500
C 	C 	0.79600 0.64100 0.37200 0.03000
C 	C 	0.84500 0.59100 0.32300 -0.10500
C 	C 	0.88300 0.62200 0.27200 0.12400
C 	C 	0.75100 0.60700 0.42600 0.28100
C 	C 	0.04500 0.92800 0.87700 0.36100
C 	C 	0.13100 0.90900 0.84100 -0.03400
C 	C 	0.20900 0.89100 0.87700 -0.06500
C 	C 	0.28300 0.86200 0.83800 0.10200
C 	C 	0.28100 0.85100 0.76900 -0.00500
C 	C 	0.20200 0.88000 0.73400 0.10600
C 	C 	0.12700 0.90400 0.76800 -0.07100
C 	C 	0.34500 0.80100 0.72400 0.00200
C 	C 	0.31900 0.71900 0.69300 0.08100
C 	C 	0.37100 0.66500 0.64800 -0.04600
C 	C 	0.45500 0.70000 0.63600 -0.05000
C 	C 	0.48700 0.78100 0.66800 -0.06400
C 	C 	0.43200 0.83100 0.71100 0.09400
C 	C 	0.51300 0.64600 0.58700 0.36800
C 	C 	0.46300 0.54800 0.37800 0.40900
C 	C 	0.43600 0.59900 0.32800 -0.05200
C 	C 	0.34100 0.60300 0.30700 -0.05300
C 	C 	0.31600 0.65500 0.26600 0.09700
C 	C 	0.38200 0.70800 0.24600 0.01100
C 	C 	0.47500 0.70100 0.26800 0.09100
C 	C 	0.50300 0.64900 0.30800 -0.05100
C 	C 	0.35400 0.77300 0.21000 -0.01600
C 	C 	0.33600 0.85200 0.24900 0.12500
C 	C 	0.30800 0.91100 0.21700 -0.10100
C 	C 	0.29500 0.89500 0.14500 0.03500
C 	C 	0.31400 0.81700 0.10400 -0.10800
C 	C 	0.34200 0.76000 0.13700 0.12800
C 	C 	0.25500 0.95600 0.11000 0.29100
C 	C 	0.26000 0.20800 0.19400 0.09600
C 	C 	0.29600 0.28400 0.24100 -0.12100
C 	C 	0.26700 0.35500 0.22900 0.03200
C 	C 	0.19900 0.34400 0.17100 -0.04700
C 	C 	0.16600 0.26400 0.12700 0.06800
C 	C 	0.15500 0.41500 0.15500 0.12400
C 	C 	0.69300 0.33800 0.52300 0.09900
C 	C 	0.74400 0.27400 0.53100 -0.13100
C 	C 	0.83800 0.28400 0.52900 0.07500
C 	C 	0.87700 0.35100 0.51500 -0.09500
C 	C 	0.82100 0.41700 0.50700 0.09400
C 	C 	0.98000 0.34800 0.50900 0.31700
N 	N 	0.94300 0.19000 0.70900 -0.00300
N 	N 	0.23200 0.33100 0.87500 -0.00800
N 	N 	0.18700 0.16100 0.67900 -0.00900
N 	N 	0.06400 0.43200 0.77600 -0.00900
N 	N 	0.63800 0.15900 0.12100 -0.01000
N 	N 	0.80600 0.12800 0.34300 -0.00600
N 	N 	0.77400 0.32300 0.29800 -0.00200
N 	N 	0.53300 0.07900 0.25700 0.00500
N 	N 	0.78500 0.33900 0.75000 -0.00200
N 	N 	0.44800 0.24900 0.75300 0.00200
N 	N 	0.65200 0.12300 0.67100 -0.00400
N 	N 	0.63600 0.32100 0.91100 -0.00800
N 	N 	0.80300 0.80300 0.86300 -0.20000
N 	N 	0.27000 0.58700 0.48800 -0.20300
N 	N 	0.05700 0.81000 0.29100 -0.00300
N 	N 	0.76800 0.66900 0.12500 -0.00800
N 	N 	0.81300 0.83900 0.32100 -0.00900
N 	N 	0.93600 0.56800 0.22400 -0.00900
N 	N 	0.36200 0.84100 0.87900 -0.01000
N 	N 	0.19400 0.87200 0.65700 -0.00600
N 	N 	0.22600 0.67700 0.70200 -0.00200
N 	N 	0.46700 0.92100 0.74300 0.00500
N 	N 	0.21500 0.66100 0.25000 -0.00200
N 	N 	0.55200 0.75100 0.24700 0.00200
N 	N 	0.34800 0.87700 0.32900 -0.00400
N 	N 	0.36400 0.67900 0.08900 -0.00800
N 	N 	0.19700 0.19700 0.13700 -0.20000
N 	N 	0.73000 0.41300 0.51200 -0.20300
O 	O 	0.93900 0.07800 0.91960 -0.39400
O 	O 	0.06800 0.14100 0.99740 -0.42600
O 	O 	0.28200 0.34200 0.52500 -0.33500
O 	O 	0.25700 0.47000 0.57940 -0.35800
O 	O 	0.86300 0.16000 0.70700 -0.08000
O 	O 	0.97500 0.20000 0.65600 -0.08400
O 	O 	0.29600 0.31600 0.91400 -0.07400
O 	O 	0.24100 0.39300 0.85400 -0.06700
O 	O 	0.19100 0.13900 0.73400 -0.07800
O 	O 	0.19000 0.11300 0.62100 -0.07200
O 	O 	0.03100 0.40900 0.82300 -0.06800
O 	O 	0.05700 0.50000 0.77000 -0.07800
O 	O 	0.94200 0.04000 0.05500 -0.47900
O 	O 	0.03400 0.09100 0.15800 -0.36700
O 	O 	0.52800 0.41900 0.45940 -0.48300
O 	O 	0.40100 0.33200 0.41010 -0.38700
O 	O 	0.65700 0.19400 0.07500 -0.08400
O 	O 	0.56000 0.14600 0.13500 -0.08700
O 	O 	0.88300 0.14300 0.37700 -0.08900
O 	O 	0.73500 0.11800 0.36900 -0.08100
O 	O 	0.79400 0.30600 0.23600 -0.08300
O 	O 	0.82500 0.36100 0.34600 -0.09200
O 	O 	0.57700 0.02900 0.23600 -0.07400
O 	O 	0.45200 0.06100 0.24800 -0.09800
O 	O 	0.60200 0.49700 0.61010 -0.44300
O 	O 	0.45100 0.44000 0.59400 -0.40200
O 	O 	0.75900 0.06200 0.95620 -0.33400
O 	O 	0.76700 0.97700 0.85020 -0.36300
O 	O 	0.83700 0.35400 0.70800 -0.08000
O 	O 	0.81200 0.32000 0.80400 -0.07300
O 	O 	0.46100 0.20400 0.78300 -0.07000
O 	O 	0.37300 0.27300 0.75300 -0.07800
O 	O 	0.64900 0.17600 0.64000 -0.09200
O 	O 	0.65500 0.04900 0.64100 -0.07700
O 	O 	0.63600 0.38200 0.89000 -0.07000
O 	O 	0.62000 0.32100 0.97000 -0.06700
O 	O 	0.81500 0.51200 0.81100 -0.14900
O 	O 	0.99000 0.59700 0.49800 -0.27300
O 	O 	0.06100 0.92200 0.08040 -0.39400
O 	O 	0.93200 0.85900 0.00260 -0.42600
O 	O 	0.71800 0.65800 0.47500 -0.33500
O 	O 	0.74300 0.53000 0.42060 -0.35800
O 	O 	0.13700 0.84000 0.29300 -0.08000
O 	O 	0.02500 0.80000 0.34400 -0.08400
O 	O 	0.70400 0.68400 0.08600 -0.07400
O 	O 	0.75900 0.60700 0.14600 -0.06700
O 	O 	0.80900 0.86100 0.26600 -0.07800
O 	O 	0.81000 0.88700 0.37900 -0.07200
O 	O 	0.96900 0.59100 0.17700 -0.06800
O 	O 	0.94300 0.50000 0.23000 -0.07800
O 	O 	0.05800 0.96000 0.94500 -0.47900
O 	O 	0.96600 0.90900 0.84200 -0.36700
O 	O 	0.47200 0.58100 0.54060 -0.48300
O 	O 	0.59900 0.66800 0.58990 -0.38700
O 	O 	0.34300 0.80600 0.92500 -0.08400
O 	O 	0.44000 0.85400 0.86500 -0.08700
O 	O 	0.11700 0.85700 0.62300 -0.08900
O 	O 	0.26500 0.88200 0.63100 -0.08100
O 	O 	0.20600 0.69400 0.76400 -0.08300
O 	O 	0.17500 0.63900 0.65400 -0.09200
O 	O 	0.42300 0.97100 0.76400 -0.07400
O 	O 	0.54800 0.93900 0.75200 -0.09800
O 	O 	0.39800 0.50300 0.38990 -0.44300
O 	O 	0.54900 0.56000 0.40600 -0.40200
O 	O 	0.24100 0.93800 0.04380 -0.33400
O 	O 	0.23300 0.02300 0.14980 -0.36300
O 	O 	0.16300 0.64600 0.29200 -0.08000
O 	O 	0.18800 0.68000 0.19600 -0.07300
O 	O 	0.53900 0.79600 0.21700 -0.07000
O 	O 	0.62700 0.72700 0.24700 -0.07800
O 	O 	0.35100 0.82400 0.36000 -0.09200
O 	O 	0.34500 0.95100 0.35900 -0.07700
O 	O 	0.36400 0.61800 0.11000 -0.07000
O 	O 	0.38000 0.67900 0.03000 -0.06700
O 	O 	0.18500 0.48800 0.18900 -0.14900
O 	O 	0.01000 0.40300 0.50200 -0.27300
