data_crystal

_cell_length_a 9.90470
_cell_length_b 11.40070
_cell_length_c 14.53570
_cell_angle_alpha 91.31700
_cell_angle_beta  90.00000
_cell_angle_gamma 90.00000

_symmetry_space_group_name_	'P 1'
_symmetry_space_group_name_H-M	'P 1'

loop_
_symmetry_equiv_pos_as_xyz
  x,y,z

loop_
_atom_site_label
_atom_site_type_symbol
_atom_site_fract_x
_atom_site_fract_y
_atom_site_fract_z
_atom_site_charge
Mg	Mg	0.57920 0.74472 0.36509 1.48000
Mg	Mg	0.38763 0.76127 0.19041 1.48300
Mg	Mg	0.07920 0.75528 0.13491 1.46400
Mg	Mg	0.88763 0.73873 0.30959 1.48700
Mg	Mg	0.42080 0.25528 0.63491 1.47800
Mg	Mg	0.61237 0.23873 0.80959 1.48000
Mg	Mg	0.92080 0.24472 0.86509 1.49000
Mg	Mg	0.11237 0.26127 0.69041 1.47500
Mg	Mg	0.50000 0.00000 0.50000 1.47500
Mg	Mg	-0.00000 0.50000 -0.00000 1.45200
Mg	Mg	0.50000 0.50000 0.50000 1.48300
Mg	Mg	-0.00000 0.00000 -0.00000 1.44700
H 	H 	0.46300 0.02240 0.23760 -0.30400
H 	H 	0.87750 0.93770 0.45810 -0.06400
H 	H 	0.78690 0.49480 0.47150 -0.10000
H 	H 	0.73970 0.65540 0.12720 -0.17700
H 	H 	0.34780 0.80230 0.57230 -0.12600
H 	H 	0.29170 0.53350 0.27850 -0.19200
H 	H 	0.96300 0.47760 0.26240 -0.10500
H 	H 	0.37750 0.56230 0.04190 -0.18200
H 	H 	0.28690 0.00520 0.02850 -0.29200
H 	H 	0.23970 0.84460 0.37280 -0.14700
H 	H 	0.84780 0.69770 0.92770 -0.14800
H 	H 	0.79170 0.96650 0.22150 -0.17700
H 	H 	0.53700 0.97760 0.76240 0.03400
H 	H 	0.12250 0.06230 0.54190 -0.20700
H 	H 	0.21310 0.50520 0.52850 -0.15100
H 	H 	0.26030 0.34460 0.87280 -0.10900
H 	H 	0.65220 0.19770 0.42770 -0.13900
H 	H 	0.70830 0.46650 0.72150 -0.13000
H 	H 	0.03700 0.52240 0.73760 -0.16300
H 	H 	0.62250 0.43770 0.95810 -0.08700
H 	H 	0.71310 0.99480 0.97150 0.03900
H 	H 	0.76030 0.15540 0.62720 -0.14300
H 	H 	0.15220 0.30230 0.07230 -0.10500
H 	H 	0.20830 0.03350 0.77850 -0.13300
C 	C 	0.48288 0.98074 0.29011 0.89900
C 	C 	0.78649 0.92043 0.44998 0.55900
C 	C 	0.77126 0.56076 0.43652 0.54500
C 	C 	0.67057 0.68066 0.16617 0.58300
C 	C 	0.40410 0.75920 0.53305 0.57300
C 	C 	0.35896 0.55715 0.31954 0.60800
C 	C 	0.98288 0.51926 0.20989 0.57600
C 	C 	0.28649 0.57957 0.05002 0.60800
C 	C 	0.27126 0.93924 0.06348 0.75300
C 	C 	0.17057 0.81934 0.33383 0.58900
C 	C 	0.90410 0.74080 0.96695 0.77700
C 	C 	0.85896 0.94285 0.18046 0.72000
C 	C 	0.51712 0.01926 0.70989 0.28200
C 	C 	0.21351 0.07957 0.55002 0.60600
C 	C 	0.22874 0.43924 0.56348 0.57800
C 	C 	0.32943 0.31934 0.83383 0.56500
C 	C 	0.59590 0.24080 0.46695 0.58400
C 	C 	0.64104 0.44285 0.68046 0.59700
C 	C 	0.01712 0.48074 0.79011 0.60400
C 	C 	0.71351 0.42043 0.94998 0.55700
C 	C 	0.72874 0.06076 0.93652 0.36800
C 	C 	0.82943 0.18066 0.66617 0.55900
C 	C 	0.09590 0.25920 0.03305 0.32200
C 	C 	0.14104 0.05715 0.81954 0.45800
O 	O 	0.49325 0.86979 0.28084 -0.74600
O 	O 	0.49690 0.03790 0.36259 -0.66100
O 	O 	0.75652 0.84016 0.38999 -0.64100
O 	O 	0.70513 0.97653 0.49770 -0.45200
O 	O 	0.64981 0.59784 0.43271 -0.65300
O 	O 	0.87029 0.60432 0.39804 -0.45700
O 	O 	0.69972 0.69600 0.25121 -0.66900
O 	O 	0.55814 0.69648 0.13101 -0.53800
O 	O 	0.47524 0.81631 0.47550 -0.64700
O 	O 	0.40442 0.65166 0.54047 -0.51500
O 	O 	0.42025 0.65267 0.30280 -0.68500
O 	O 	0.38076 0.49330 0.38521 -0.53700
O 	O 	0.99325 0.63021 0.21916 -0.60800
O 	O 	0.99690 0.46210 0.13741 -0.46100
O 	O 	0.25652 0.65984 0.11001 -0.72800
O 	O 	0.20513 0.52347 0.00230 -0.62900
O 	O 	0.14981 0.90216 0.06729 -0.79000
O 	O 	0.37029 0.89568 0.10196 -0.56700
O 	O 	0.19972 0.80400 0.24879 -0.70300
O 	O 	0.05814 0.80352 0.36899 -0.59800
O 	O 	0.97524 0.68369 0.02450 -0.72500
O 	O 	0.90442 0.84834 0.95953 -0.44200
O 	O 	0.92025 0.84733 0.19720 -0.65600
O 	O 	0.88076 0.00670 0.11479 -0.60600
O 	O 	0.50675 0.13021 0.71916 -0.60700
O 	O 	0.50310 0.96210 0.63741 -0.36300
O 	O 	0.24348 0.15984 0.61001 -0.70800
O 	O 	0.29487 0.02347 0.50230 -0.56800
O 	O 	0.35019 0.40216 0.56729 -0.67100
O 	O 	0.12971 0.39568 0.60196 -0.55600
O 	O 	0.30028 0.30400 0.74879 -0.66300
O 	O 	0.44186 0.30352 0.86899 -0.48000
O 	O 	0.52476 0.18369 0.52450 -0.67500
O 	O 	0.59558 0.34834 0.45953 -0.51900
O 	O 	0.57975 0.34733 0.69720 -0.67700
O 	O 	0.61924 0.50670 0.61479 -0.50000
O 	O 	0.00675 0.36979 0.78084 -0.73800
O 	O 	0.00310 0.53790 0.86259 -0.54200
O 	O 	0.74348 0.34016 0.88999 -0.62500
O 	O 	0.79487 0.47653 0.99770 -0.39600
O 	O 	0.85019 0.09784 0.93271 -0.53400
O 	O 	0.62971 0.10432 0.89804 -0.44700
O 	O 	0.80028 0.19600 0.75121 -0.63400
O 	O 	0.94186 0.19648 0.63101 -0.42500
O 	O 	0.02476 0.31631 0.97550 -0.55200
O 	O 	0.09558 0.15166 0.04047 -0.57900
O 	O 	0.07975 0.15267 0.80280 -0.69300
O 	O 	0.11924 0.99330 0.88521 -0.39000
