data_crystal

_cell_length_a 9.98310
_cell_length_b 11.37620
_cell_length_c 15.03580
_cell_angle_alpha 91.20300
_cell_angle_beta  90.00000
_cell_angle_gamma 90.00000

_symmetry_space_group_name_	'P 1'
_symmetry_space_group_name_H-M	'P 1'

loop_
_symmetry_equiv_pos_as_xyz
  x,y,z

loop_
_atom_site_label
_atom_site_type_symbol
_atom_site_fract_x
_atom_site_fract_y
_atom_site_fract_z
_atom_site_charge
Mg	Mg	0.57062 0.74503 0.36448 1.47900
Mg	Mg	0.37374 0.76002 0.19824 1.48200
Mg	Mg	0.07062 0.75497 0.13552 1.46300
Mg	Mg	0.87374 0.73998 0.30176 1.48600
Mg	Mg	0.42938 0.25497 0.63552 1.47700
Mg	Mg	0.62626 0.23998 0.80176 1.47900
Mg	Mg	0.92938 0.24503 0.86448 1.49000
Mg	Mg	0.12626 0.26002 0.69824 1.47500
Mg	Mg	0.50000 0.00000 0.50000 1.47500
Mg	Mg	-0.00000 0.50000 -0.00000 1.45300
Mg	Mg	0.50000 0.50000 0.50000 1.48200
Mg	Mg	-0.00000 0.00000 -0.00000 1.44700
H 	H 	0.43920 0.02340 0.24550 -0.28300
H 	H 	0.86850 0.95980 0.42620 -0.05600
H 	H 	0.78520 0.49910 0.46760 -0.08900
H 	H 	0.71850 0.64300 0.13200 -0.16200
H 	H 	0.36890 0.80440 0.57990 -0.11000
H 	H 	0.27090 0.53710 0.29410 -0.17400
H 	H 	0.93920 0.47660 0.25450 -0.09700
H 	H 	0.36850 0.54020 0.07380 -0.16100
H 	H 	0.28520 0.00090 0.03240 -0.27400
H 	H 	0.21850 0.85700 0.36800 -0.13600
H 	H 	0.86890 0.69560 0.92010 -0.13100
H 	H 	0.77090 0.96290 0.20590 -0.16100
H 	H 	0.56080 0.97660 0.75450 0.03600
H 	H 	0.13150 0.04020 0.57380 -0.19200
H 	H 	0.21480 0.50090 0.53240 -0.13700
H 	H 	0.28150 0.35700 0.86800 -0.10100
H 	H 	0.63110 0.19560 0.42010 -0.13000
H 	H 	0.72910 0.46290 0.70590 -0.11400
H 	H 	0.06080 0.52340 0.74550 -0.14600
H 	H 	0.63150 0.45980 0.92620 -0.08600
H 	H 	0.71480 0.99910 0.96760 0.04600
H 	H 	0.78150 0.14300 0.63200 -0.13000
H 	H 	0.13110 0.30440 0.07990 -0.09700
H 	H 	0.22910 0.03710 0.79410 -0.11700
C 	C 	0.46238 0.97965 0.29644 0.86200
C 	C 	0.77790 0.93435 0.42830 0.55100
C 	C 	0.76540 0.56451 0.43163 0.52600
C 	C 	0.65159 0.67254 0.17149 0.56500
C 	C 	0.41630 0.75906 0.53637 0.54800
C 	C 	0.34455 0.55990 0.33054 0.57900
C 	C 	0.96238 0.52035 0.20356 0.55900
C 	C 	0.27790 0.56565 0.07170 0.58800
C 	C 	0.26540 0.93549 0.06837 0.72000
C 	C 	0.15159 0.82746 0.32851 0.57300
C 	C 	0.91630 0.74094 0.96363 0.74700
C 	C 	0.84455 0.94010 0.16946 0.69000
C 	C 	0.53762 0.02035 0.70356 0.27500
C 	C 	0.22210 0.06565 0.57170 0.58900
C 	C 	0.23460 0.43549 0.56837 0.55400
C 	C 	0.34841 0.32746 0.82851 0.55000
C 	C 	0.58370 0.24094 0.46363 0.55900
C 	C 	0.65545 0.44010 0.66946 0.56900
C 	C 	0.03762 0.47965 0.79644 0.57600
C 	C 	0.72210 0.43435 0.92830 0.55100
C 	C 	0.73460 0.06451 0.93163 0.36000
C 	C 	0.84841 0.17254 0.67149 0.54300
C 	C 	0.08370 0.25906 0.03637 0.30600
C 	C 	0.15545 0.05990 0.83054 0.43500
O 	O 	0.47951 0.86897 0.28517 -0.73700
O 	O 	0.47329 0.03450 0.36755 -0.65800
O 	O 	0.74609 0.84576 0.37884 -0.63600
O 	O 	0.70201 0.98967 0.47830 -0.45000
O 	O 	0.64359 0.59905 0.42995 -0.64700
O 	O 	0.86002 0.60843 0.39063 -0.45600
O 	O 	0.68590 0.69259 0.25193 -0.66800
O 	O 	0.53813 0.68835 0.14028 -0.53500
O 	O 	0.48039 0.81573 0.47720 -0.64100
O 	O 	0.41024 0.65103 0.54223 -0.51300
O 	O 	0.40608 0.65380 0.31000 -0.67200
O 	O 	0.37167 0.49584 0.39330 -0.52700
O 	O 	0.97951 0.63103 0.21483 -0.60600
O 	O 	0.97329 0.46550 0.13245 -0.46600
O 	O 	0.24609 0.65424 0.12116 -0.72100
O 	O 	0.20201 0.51033 0.02170 -0.62000
O 	O 	0.14359 0.90095 0.07005 -0.78000
O 	O 	0.36002 0.89157 0.10937 -0.56000
O 	O 	0.18590 0.80741 0.24807 -0.70100
O 	O 	0.03813 0.81165 0.35972 -0.60100
O 	O 	0.98039 0.68427 0.02280 -0.72000
O 	O 	0.91024 0.84897 0.95777 -0.43900
O 	O 	0.90608 0.84620 0.19000 -0.64500
O 	O 	0.87167 0.00416 0.10670 -0.60100
O 	O 	0.52049 0.13103 0.71483 -0.60800
O 	O 	0.52671 0.96550 0.63245 -0.36100
O 	O 	0.25391 0.15424 0.62116 -0.70100
O 	O 	0.29799 0.01033 0.52170 -0.56600
O 	O 	0.35641 0.40095 0.57005 -0.66400
O 	O 	0.13998 0.39157 0.60937 -0.55200
O 	O 	0.31410 0.30741 0.74807 -0.66400
O 	O 	0.46187 0.31165 0.85972 -0.48600
O 	O 	0.51961 0.18427 0.52280 -0.67200
O 	O 	0.58976 0.34897 0.45777 -0.51800
O 	O 	0.59392 0.34620 0.69000 -0.66500
O 	O 	0.62833 0.50416 0.60670 -0.49200
O 	O 	0.02049 0.36897 0.78517 -0.73200
O 	O 	0.02671 0.53450 0.86755 -0.53300
O 	O 	0.75391 0.34576 0.87884 -0.62100
O 	O 	0.79799 0.48967 0.97830 -0.40200
O 	O 	0.85641 0.09905 0.92995 -0.53100
O 	O 	0.63998 0.10843 0.89063 -0.44900
O 	O 	0.81410 0.19259 0.75193 -0.63500
O 	O 	0.96187 0.18835 0.64028 -0.42400
O 	O 	0.01961 0.31573 0.97720 -0.54800
O 	O 	0.08976 0.15103 0.04223 -0.57900
O 	O 	0.09392 0.15380 0.81000 -0.67900
O 	O 	0.12833 0.99584 0.89330 -0.37900
