data_crystal

_cell_length_a 9.81790
_cell_length_b 11.28880
_cell_length_c 14.54650
_cell_angle_alpha 91.62200
_cell_angle_beta  90.00000
_cell_angle_gamma 90.00000

_symmetry_space_group_name_	'P 1'
_symmetry_space_group_name_H-M	'P 1'

loop_
_symmetry_equiv_pos_as_xyz
  x,y,z

loop_
_atom_site_label
_atom_site_type_symbol
_atom_site_fract_x
_atom_site_fract_y
_atom_site_fract_z
_atom_site_charge
Mg	Mg	0.58127 0.74389 0.36503 1.47800
Mg	Mg	0.39120 0.76039 0.18958 1.48000
Mg	Mg	0.08127 0.75611 0.13497 1.46200
Mg	Mg	0.89120 0.73961 0.31042 1.48500
Mg	Mg	0.41873 0.25611 0.63497 1.47600
Mg	Mg	0.60880 0.23961 0.81042 1.48000
Mg	Mg	0.91873 0.24389 0.86503 1.49100
Mg	Mg	0.10880 0.26039 0.68958 1.47500
Mg	Mg	0.50000 -0.00000 0.50000 1.47300
Mg	Mg	-0.00000 0.50000 -0.00000 1.45200
Mg	Mg	0.50000 0.50000 0.50000 1.48200
Mg	Mg	-0.00000 0.00000 -0.00000 1.44400
H 	H 	0.46390 0.02450 0.23630 -0.32600
H 	H 	0.88250 0.94540 0.45430 -0.04400
H 	H 	0.79630 0.50760 0.48660 -0.08600
H 	H 	0.74210 0.63250 0.13250 -0.16300
H 	H 	0.34080 0.80410 0.56900 -0.10800
H 	H 	0.30740 0.52000 0.26900 -0.17400
H 	H 	0.96390 0.47550 0.26370 -0.09800
H 	H 	0.38250 0.55460 0.04570 -0.17000
H 	H 	0.29630 0.99240 0.01340 -0.14200
H 	H 	0.24210 0.86750 0.36750 -0.12600
H 	H 	0.84080 0.69590 0.93100 -0.12900
H 	H 	0.80740 0.98000 0.23100 -0.15900
H 	H 	0.53610 0.97550 0.76370 0.06900
H 	H 	0.11750 0.05460 0.54570 -0.20000
H 	H 	0.20370 0.49240 0.51340 -0.14400
H 	H 	0.25790 0.36750 0.86750 -0.09400
H 	H 	0.65920 0.19590 0.43100 -0.13000
H 	H 	0.69260 0.48000 0.73100 -0.11500
H 	H 	0.03610 0.52450 0.73630 -0.15300
H 	H 	0.61750 0.44540 0.95430 -0.07300
H 	H 	0.70370 0.00760 0.98660 -0.08600
H 	H 	0.75790 0.13250 0.63250 -0.13400
H 	H 	0.15920 0.30410 0.06900 -0.09700
H 	H 	0.19260 0.02000 0.76900 -0.12000
C 	C 	0.48510 0.98130 0.28954 0.94500
C 	C 	0.78890 0.92580 0.44759 0.54300
C 	C 	0.77780 0.56950 0.44559 0.53000
C 	C 	0.67290 0.66720 0.17016 0.56600
C 	C 	0.39880 0.75870 0.52939 0.55400
C 	C 	0.36940 0.54860 0.31452 0.58300
C 	C 	0.98510 0.51870 0.21046 0.56500
C 	C 	0.28890 0.57420 0.05241 0.59100
C 	C 	0.27780 0.93050 0.05441 0.56800
C 	C 	0.17290 0.83280 0.32984 0.57000
C 	C 	0.89880 0.74130 0.97061 0.76000
C 	C 	0.86940 0.95140 0.18548 0.72700
C 	C 	0.51490 0.01870 0.71046 0.21600
C 	C 	0.21110 0.07420 0.55241 0.59000
C 	C 	0.22220 0.43050 0.55441 0.56200
C 	C 	0.32710 0.33280 0.82984 0.54900
C 	C 	0.60120 0.24130 0.47061 0.56900
C 	C 	0.63060 0.45140 0.68548 0.57900
C 	C 	0.01490 0.48130 0.78954 0.58900
C 	C 	0.71110 0.42580 0.94759 0.54200
C 	C 	0.72220 0.06950 0.94559 0.52200
C 	C 	0.82710 0.16720 0.67016 0.54600
C 	C 	0.10120 0.25870 0.02939 0.30400
C 	C 	0.13060 0.04860 0.81452 0.41200
O 	O 	0.49696 0.86967 0.27961 -0.76300
O 	O 	0.49890 0.03833 0.36243 -0.68900
O 	O 	0.75846 0.84392 0.38875 -0.63600
O 	O 	0.70690 0.98172 0.49647 -0.43500
O 	O 	0.65341 0.60122 0.43775 -0.65100
O 	O 	0.87634 0.61174 0.40492 -0.45500
O 	O 	0.70321 0.69043 0.25370 -0.67400
O 	O 	0.56111 0.68565 0.13327 -0.53400
O 	O 	0.47416 0.81579 0.47420 -0.64400
O 	O 	0.39470 0.65010 0.53593 -0.51300
O 	O 	0.42000 0.65051 0.30322 -0.67800
O 	O 	0.39310 0.48297 0.37895 -0.52900
O 	O 	0.99696 0.63033 0.22039 -0.61000
O 	O 	0.99890 0.46167 0.13757 -0.45800
O 	O 	0.25846 0.65608 0.11125 -0.72600
O 	O 	0.20690 0.51828 0.00353 -0.62700
O 	O 	0.15341 0.89878 0.06225 -0.74300
O 	O 	0.37634 0.88826 0.09508 -0.52000
O 	O 	0.20321 0.80957 0.24630 -0.70600
O 	O 	0.06111 0.81435 0.36673 -0.59100
O 	O 	0.97416 0.68421 0.02580 -0.73000
O 	O 	0.89470 0.84990 0.96407 -0.42600
O 	O 	0.92000 0.84949 0.19678 -0.65800
O 	O 	0.89310 0.01703 0.12105 -0.61100
O 	O 	0.50304 0.13033 0.72039 -0.59700
O 	O 	0.50110 0.96167 0.63757 -0.32800
O 	O 	0.24154 0.15608 0.61125 -0.70700
O 	O 	0.29310 0.01828 0.50353 -0.57400
O 	O 	0.34659 0.39878 0.56225 -0.67000
O 	O 	0.12366 0.38826 0.59508 -0.55900
O 	O 	0.29679 0.30957 0.74630 -0.66900
O 	O 	0.43889 0.31435 0.86673 -0.47600
O 	O 	0.52584 0.18421 0.52580 -0.68000
O 	O 	0.60530 0.34990 0.46407 -0.51600
O 	O 	0.58000 0.34949 0.69678 -0.67100
O 	O 	0.60690 0.51703 0.62105 -0.49300
O 	O 	0.00304 0.36967 0.77961 -0.74200
O 	O 	0.00110 0.53833 0.86243 -0.53800
O 	O 	0.74154 0.34392 0.88875 -0.62200
O 	O 	0.79310 0.48172 0.99647 -0.38800
O 	O 	0.84659 0.10122 0.93775 -0.57400
O 	O 	0.62366 0.11174 0.90492 -0.49300
O 	O 	0.79679 0.19043 0.75370 -0.64100
O 	O 	0.93889 0.18565 0.63327 -0.42400
O 	O 	0.02584 0.31579 0.97420 -0.54900
O 	O 	0.10530 0.15010 0.03593 -0.59100
O 	O 	0.08000 0.15051 0.80322 -0.67800
O 	O 	0.10690 0.98297 0.87895 -0.37100
