data_crystal

_cell_length_a 12.44860
_cell_length_b 15.03600
_cell_length_c 16.59610
_cell_angle_alpha 90.00000
_cell_angle_beta  92.07400
_cell_angle_gamma 90.00000

_symmetry_space_group_name_	'P 1'
_symmetry_space_group_name_H-M	'P 1'

loop_
_symmetry_equiv_pos_as_xyz
  x,y,z

loop_
_atom_site_label
_atom_site_type_symbol
_atom_site_fract_x
_atom_site_fract_y
_atom_site_fract_z
_atom_site_charge
Al	Al	0.51823 0.51679 0.25377 2.39800
Al	Al	0.51823 0.98321 0.75377 2.39800
Cu	Cu	0.97741 0.47863 0.76851 0.86800
Cu	Cu	0.97741 0.02137 0.26851 0.86700
H 	H 	0.56270 0.47890 0.44120 0.17100
H 	H 	0.65870 0.46040 0.56180 -0.05800
H 	H 	0.92010 0.57160 0.46510 -0.04600
H 	H 	0.82340 0.59060 0.34420 0.16400
H 	H 	0.30190 0.43040 0.19530 0.13600
H 	H 	0.16430 0.32660 0.18320 -0.04700
H 	H 	0.25750 0.22320 0.40040 -0.03500
H 	H 	0.39240 0.32940 0.41310 0.16100
H 	H 	0.28000 0.59050 0.29270 0.16100
H 	H 	0.14770 0.69580 0.31240 -0.06700
H 	H 	0.31070 0.87190 0.18050 -0.07200
H 	H 	0.44450 0.76770 0.16230 0.18700
H 	H 	0.85940 0.54190 0.07000 -0.05700
H 	H 	0.74000 0.53250 0.17370 0.14600
H 	H 	0.64550 0.41410 0.92110 -0.03500
H 	H 	0.52720 0.40350 0.02510 0.16700
H 	H 	0.56270 0.02110 0.94120 0.15300
H 	H 	0.65870 0.03960 0.06180 -0.04100
H 	H 	0.92010 0.92840 0.96510 -0.03400
H 	H 	0.82340 0.90940 0.84420 0.15100
H 	H 	0.30190 0.06960 0.69530 0.13700
H 	H 	0.16430 0.17340 0.68320 -0.04600
H 	H 	0.25750 0.27680 0.90040 -0.03500
H 	H 	0.39240 0.17060 0.91310 0.16200
H 	H 	0.28000 0.90950 0.79270 0.15900
H 	H 	0.14770 0.80420 0.81240 -0.06700
H 	H 	0.31070 0.62810 0.68050 -0.07400
H 	H 	0.44450 0.73230 0.66230 0.18700
H 	H 	0.85940 0.95810 0.57000 -0.05700
H 	H 	0.74000 0.96750 0.67370 0.14700
H 	H 	0.64550 0.08590 0.42110 -0.03500
H 	H 	0.52720 0.09650 0.52510 0.16800
C 	C 	0.68317 0.53733 0.38059 0.50800
C 	C 	0.63530 0.49811 0.44600 -0.44900
C 	C 	0.69240 0.48705 0.51740 0.24300
C 	C 	0.79870 0.51413 0.52574 -0.22600
C 	C 	0.84720 0.55290 0.46038 0.21400
C 	C 	0.78970 0.56414 0.38875 -0.40200
C 	C 	0.85730 0.50102 0.60050 0.15900
C 	C 	0.36168 0.38979 0.30468 0.46400
C 	C 	0.29270 0.38818 0.23704 -0.41000
C 	C 	0.21150 0.32651 0.22949 0.19500
C 	C 	0.19857 0.26361 0.29045 -0.20000
C 	C 	0.26650 0.26544 0.35863 0.18600
C 	C 	0.34680 0.32813 0.36592 -0.36900
C 	C 	0.11920 0.19476 0.28202 0.13900
C 	C 	0.37730 0.66937 0.22774 0.53200
C 	C 	0.28720 0.64844 0.27072 -0.46500
C 	C 	0.20830 0.71053 0.28188 0.24700
C 	C 	0.21690 0.79477 0.24869 -0.24300
C 	C 	0.30490 0.81460 0.20416 0.24200
C 	C 	0.38450 0.75299 0.19339 -0.43300
C 	C 	0.13640 0.86128 0.26007 0.16600
C 	C 	0.62140 0.46610 0.11074 0.47100
C 	C 	0.79180 0.51363 0.06097 0.21200
C 	C 	0.72090 0.50778 0.12249 -0.41400
C 	C 	0.76440 0.47817 0.98563 -0.20800
C 	C 	0.66500 0.43766 0.97274 0.19000
C 	C 	0.59480 0.43158 0.03445 -0.37100
C 	C 	0.83670 0.48256 0.92009 0.14400
C 	C 	0.68317 0.96267 0.88059 0.46900
C 	C 	0.63530 0.00189 0.94600 -0.39100
C 	C 	0.69240 0.01295 0.01740 0.18000
C 	C 	0.79870 0.98587 0.02574 -0.17700
C 	C 	0.84720 0.94710 0.96038 0.16700
C 	C 	0.78970 0.93586 0.88875 -0.36500
C 	C 	0.85730 0.99898 0.10050 0.15500
C 	C 	0.36168 0.11021 0.80468 0.46400
C 	C 	0.29270 0.11182 0.73704 -0.40900
C 	C 	0.21150 0.17349 0.72949 0.19600
C 	C 	0.19857 0.23639 0.79045 -0.19900
C 	C 	0.26650 0.23456 0.85863 0.18600
C 	C 	0.34680 0.17187 0.86592 -0.36900
C 	C 	0.11920 0.30524 0.78202 0.13900
C 	C 	0.37730 0.83063 0.72774 0.53100
C 	C 	0.28720 0.85156 0.77072 -0.46600
C 	C 	0.20830 0.78947 0.78188 0.24700
C 	C 	0.21690 0.70523 0.74869 -0.24400
C 	C 	0.30490 0.68540 0.70416 0.24200
C 	C 	0.38450 0.74701 0.69339 -0.43400
C 	C 	0.13640 0.63872 0.76007 0.16600
C 	C 	0.62140 0.03390 0.61074 0.47300
C 	C 	0.79180 0.98637 0.56097 0.21500
C 	C 	0.72090 0.99222 0.62249 -0.41700
C 	C 	0.76440 0.02183 0.48563 -0.20900
C 	C 	0.66500 0.06234 0.47274 0.18900
C 	C 	0.59480 0.06842 0.53445 -0.37000
C 	C 	0.83670 0.01744 0.42009 0.14300
N 	N 	0.89007 0.48242 0.86547 -0.27100
N 	N 	0.05957 0.13692 0.27700 -0.26600
N 	N 	0.07577 0.91690 0.26718 -0.27200
N 	N 	0.90158 0.48886 0.66084 -0.27200
N 	N 	0.89007 0.01758 0.36547 -0.27200
N 	N 	0.05957 0.36308 0.77700 -0.26600
N 	N 	0.07577 0.58310 0.76718 -0.27400
N 	N 	0.90158 0.01114 0.16084 -0.27500
O 	O 	0.63096 0.55062 0.31018 -0.79600
O 	O 	0.44082 0.44976 0.31385 -0.79400
O 	O 	0.45565 0.61111 0.21652 -0.81100
O 	O 	0.55234 0.45609 0.16921 -0.77600
O 	O 	0.63096 0.94938 0.81018 -0.78900
O 	O 	0.44082 0.05024 0.81385 -0.79100
O 	O 	0.45565 0.88889 0.71652 -0.81200
O 	O 	0.55234 0.04391 0.66921 -0.77500
Al	Al	0.48177 0.01679 0.24623 2.39700
Al	Al	0.48177 0.48321 0.74623 2.39700
Cu	Cu	0.02259 0.97863 0.73149 0.86600
Cu	Cu	0.02259 0.52137 0.23149 0.86700
H 	H 	0.43730 0.97890 0.05880 0.15300
H 	H 	0.34130 0.96040 0.93820 -0.04100
H 	H 	0.07990 0.07160 0.03490 -0.03400
H 	H 	0.17660 0.09060 0.15580 0.15100
H 	H 	0.69810 0.93040 0.30470 0.13700
H 	H 	0.83570 0.82660 0.31680 -0.04600
H 	H 	0.74250 0.72320 0.09960 -0.03500
H 	H 	0.60760 0.82940 0.08690 0.16200
H 	H 	0.72000 0.09050 0.20730 0.15900
H 	H 	0.85230 0.19580 0.18760 -0.06700
H 	H 	0.68930 0.37190 0.31950 -0.07400
H 	H 	0.55550 0.26770 0.33770 0.18700
H 	H 	0.14060 0.04190 0.43000 -0.05700
H 	H 	0.26000 0.03250 0.32630 0.14700
H 	H 	0.35450 0.91410 0.57890 -0.03500
H 	H 	0.47280 0.90350 0.47490 0.16800
H 	H 	0.43730 0.52110 0.55880 0.17000
H 	H 	0.34130 0.53960 0.43820 -0.05900
H 	H 	0.07990 0.42840 0.53490 -0.04700
H 	H 	0.17660 0.40940 0.65580 0.16300
H 	H 	0.69810 0.56960 0.80470 0.13600
H 	H 	0.83570 0.67340 0.81680 -0.04700
H 	H 	0.74250 0.77680 0.59960 -0.03500
H 	H 	0.60760 0.67060 0.58690 0.16100
H 	H 	0.72000 0.40950 0.70730 0.16100
H 	H 	0.85230 0.30420 0.68760 -0.06700
H 	H 	0.68930 0.12810 0.81950 -0.07200
H 	H 	0.55550 0.23230 0.83770 0.18700
H 	H 	0.14060 0.45810 0.93000 -0.05700
H 	H 	0.26000 0.46750 0.82630 0.14600
H 	H 	0.35450 0.58590 0.07890 -0.03500
H 	H 	0.47280 0.59650 0.97490 0.16700
C 	C 	0.31683 0.03733 0.11941 0.46900
C 	C 	0.36470 0.99811 0.05400 -0.39100
C 	C 	0.30760 0.98705 0.98260 0.18000
C 	C 	0.20130 0.01413 0.97426 -0.17700
C 	C 	0.15280 0.05290 0.03962 0.16700
C 	C 	0.21030 0.06414 0.11125 -0.36500
C 	C 	0.14270 0.00102 0.89950 0.15500
C 	C 	0.63832 0.88979 0.19532 0.46400
C 	C 	0.70730 0.88818 0.26296 -0.40900
C 	C 	0.78850 0.82651 0.27051 0.19600
C 	C 	0.80143 0.76361 0.20955 -0.19900
C 	C 	0.73350 0.76544 0.14137 0.18600
C 	C 	0.65320 0.82813 0.13408 -0.36900
C 	C 	0.88080 0.69476 0.21798 0.13900
C 	C 	0.62270 0.16937 0.27226 0.53100
C 	C 	0.71280 0.14844 0.22928 -0.46600
C 	C 	0.79170 0.21053 0.21812 0.24700
C 	C 	0.78310 0.29477 0.25131 -0.24400
C 	C 	0.69510 0.31460 0.29584 0.24200
C 	C 	0.61550 0.25299 0.30661 -0.43400
C 	C 	0.86360 0.36128 0.23993 0.16600
C 	C 	0.37860 0.96610 0.38926 0.47300
C 	C 	0.20820 0.01363 0.43903 0.21500
C 	C 	0.27910 0.00778 0.37751 -0.41700
C 	C 	0.23560 0.97817 0.51437 -0.20900
C 	C 	0.33500 0.93766 0.52726 0.18900
C 	C 	0.40520 0.93158 0.46555 -0.37000
C 	C 	0.16330 0.98256 0.57991 0.14300
C 	C 	0.31683 0.46267 0.61941 0.50800
C 	C 	0.36470 0.50189 0.55400 -0.44900
C 	C 	0.30760 0.51295 0.48260 0.24300
C 	C 	0.20130 0.48587 0.47426 -0.22600
C 	C 	0.15280 0.44710 0.53962 0.21400
C 	C 	0.21030 0.43586 0.61125 -0.40200
C 	C 	0.14270 0.49898 0.39950 0.15900
C 	C 	0.63832 0.61021 0.69532 0.46400
C 	C 	0.70730 0.61182 0.76296 -0.41000
C 	C 	0.78850 0.67349 0.77051 0.19500
C 	C 	0.80143 0.73639 0.70955 -0.20000
C 	C 	0.73350 0.73456 0.64137 0.18600
C 	C 	0.65320 0.67187 0.63408 -0.36900
C 	C 	0.88080 0.80524 0.71798 0.13900
C 	C 	0.62270 0.33063 0.77226 0.53200
C 	C 	0.71280 0.35156 0.72928 -0.46500
C 	C 	0.79170 0.28947 0.71812 0.24700
C 	C 	0.78310 0.20523 0.75131 -0.24300
C 	C 	0.69510 0.18540 0.79584 0.24200
C 	C 	0.61550 0.24701 0.80661 -0.43300
C 	C 	0.86360 0.13872 0.73993 0.16600
C 	C 	0.37860 0.53390 0.88926 0.47100
C 	C 	0.20820 0.48637 0.93903 0.21200
C 	C 	0.27910 0.49222 0.87751 -0.41400
C 	C 	0.23560 0.52183 0.01437 -0.20800
C 	C 	0.33500 0.56234 0.02726 0.19000
C 	C 	0.40520 0.56842 0.96555 -0.37100
C 	C 	0.16330 0.51744 0.07991 0.14400
N 	N 	0.10993 0.98242 0.63453 -0.27200
N 	N 	0.94043 0.63692 0.22300 -0.26600
N 	N 	0.92423 0.41690 0.23282 -0.27400
N 	N 	0.09842 0.98886 0.83916 -0.27500
N 	N 	0.10993 0.51758 0.13453 -0.27100
N 	N 	0.94043 0.86308 0.72300 -0.26600
N 	N 	0.92423 0.08310 0.73282 -0.27200
N 	N 	0.09842 0.51114 0.33916 -0.27200
O 	O 	0.36904 0.05062 0.18982 -0.78900
O 	O 	0.55918 0.94976 0.18615 -0.79100
O 	O 	0.54435 0.11111 0.28348 -0.81200
O 	O 	0.44766 0.95609 0.33079 -0.77500
O 	O 	0.36904 0.44938 0.68982 -0.79600
O 	O 	0.55918 0.55024 0.68615 -0.79400
O 	O 	0.54435 0.38889 0.78348 -0.81100
O 	O 	0.44766 0.54391 0.83079 -0.77600
