data_crystal

_cell_length_a 6.73100
_cell_length_b 22.18600
_cell_length_c 7.57500
_cell_angle_alpha 90.00000
_cell_angle_beta  90.00000
_cell_angle_gamma 90.00000

_symmetry_space_group_name_	'P 1'
_symmetry_space_group_name_H-M	'P 1'

loop_
_symmetry_equiv_pos_as_xyz
  x,y,z

loop_
_atom_site_label
_atom_site_type_symbol
_atom_site_fract_x
_atom_site_fract_y
_atom_site_fract_z
_atom_site_charge
Ni	Ni	0.45767 0.28894 0.24597 1.13700
Ni	Ni	0.54233 0.71106 0.24597 1.13700
Ni	Ni	0.95767 0.21106 0.75403 1.13200
Ni	Ni	0.04233 0.78894 0.75403 1.13200
H 	H 	0.36410 0.11550 0.37090 0.16000
H 	H 	0.17090 0.12280 0.25130 0.15900
H 	H 	0.46940 0.12890 0.08690 0.01100
H 	H 	0.70650 0.18740 0.24740 0.19600
H 	H 	0.03060 0.32860 0.30390 0.02200
H 	H 	0.83640 0.41530 0.29290 0.08200
H 	H 	0.32370 0.50990 0.13860 0.06900
H 	H 	0.50540 0.42070 0.14390 0.00700
H 	H 	0.63590 0.88450 0.37090 0.16000
H 	H 	0.82910 0.87720 0.25130 0.15900
H 	H 	0.53060 0.87110 0.08690 0.01100
H 	H 	0.29350 0.81260 0.24740 0.19600
H 	H 	0.96940 0.67140 0.30390 0.02200
H 	H 	0.16360 0.58470 0.29290 0.08200
H 	H 	0.67630 0.49010 0.13860 0.06900
H 	H 	0.49460 0.57930 0.14390 0.00700
H 	H 	0.86410 0.38450 0.62910 0.15800
H 	H 	0.67090 0.37720 0.74870 0.15700
H 	H 	0.96940 0.37110 0.91310 0.01300
H 	H 	0.20650 0.31260 0.75260 0.19600
H 	H 	0.53060 0.17140 0.69610 0.02200
H 	H 	0.33640 0.08470 0.70710 0.07800
H 	H 	0.82370 0.99010 0.86140 0.06700
H 	H 	0.00540 0.07930 0.85610 0.01500
H 	H 	0.13590 0.61550 0.62910 0.15800
H 	H 	0.32910 0.62280 0.74870 0.15700
H 	H 	0.03060 0.62890 0.91310 0.01300
H 	H 	0.79350 0.68740 0.75260 0.19600
H 	H 	0.46940 0.82860 0.69610 0.02200
H 	H 	0.66360 0.91530 0.70710 0.07800
H 	H 	0.17630 0.00990 0.86140 0.06700
H 	H 	0.99460 0.92070 0.85610 0.01500
C 	C 	0.20830 0.19330 0.42570 0.46200
C 	C 	0.28650 0.14470 0.30040 -0.41700
C 	C 	0.41400 0.16510 0.14850 0.11800
C 	C 	0.28920 0.20220 0.01620 0.27900
C 	C 	0.08990 0.36570 0.26920 0.07400
C 	C 	0.97310 0.41720 0.26240 -0.13000
C 	C 	0.05810 0.47200 0.21030 0.05200
C 	C 	0.26070 0.47310 0.17000 -0.12000
C 	C 	0.36910 0.41980 0.17600 0.06500
C 	C 	0.79170 0.80670 0.42570 0.46200
C 	C 	0.71350 0.85530 0.30040 -0.41700
C 	C 	0.58600 0.83490 0.14850 0.11800
C 	C 	0.71080 0.79780 0.01620 0.27900
C 	C 	0.91010 0.63430 0.26920 0.07400
C 	C 	0.02690 0.58280 0.26240 -0.13000
C 	C 	0.94190 0.52800 0.21030 0.05200
C 	C 	0.73930 0.52690 0.17000 -0.12000
C 	C 	0.63090 0.58020 0.17600 0.06500
C 	C 	0.70830 0.30670 0.57430 0.46000
C 	C 	0.78650 0.35530 0.69960 -0.41300
C 	C 	0.91400 0.33490 0.85150 0.10700
C 	C 	0.78920 0.29780 0.98380 0.28200
C 	C 	0.58990 0.13430 0.73080 0.06200
C 	C 	0.47310 0.08280 0.73760 -0.11500
C 	C 	0.55810 0.02800 0.78970 0.04500
C 	C 	0.76070 0.02690 0.83000 -0.11200
C 	C 	0.86910 0.08020 0.82400 0.05100
C 	C 	0.29170 0.69330 0.57430 0.46000
C 	C 	0.21350 0.64470 0.69960 -0.41300
C 	C 	0.08600 0.66510 0.85150 0.10700
C 	C 	0.21080 0.70220 0.98380 0.28200
C 	C 	0.41010 0.86570 0.73080 0.06200
C 	C 	0.52690 0.91720 0.73760 -0.11500
C 	C 	0.44190 0.97200 0.78970 0.04500
C 	C 	0.23930 0.97310 0.83000 -0.11200
C 	C 	0.13090 0.91980 0.82400 0.05100
N 	N 	0.28730 0.36649 0.22750 -0.21000
N 	N 	0.71270 0.63351 0.22750 -0.21000
N 	N 	0.78730 0.13351 0.77250 -0.20800
N 	N 	0.21270 0.86649 0.77250 -0.20800
O 	O 	0.24940 0.24825 0.40290 -0.43100
O 	O 	0.10130 0.17298 0.54700 -0.43100
O 	O 	0.57610 0.20062 0.21920 -0.41200
O 	O 	0.31320 0.25901 0.02060 -0.36100
O 	O 	0.17500 0.17454 0.91770 -0.36800
O 	O 	0.75060 0.75175 0.40290 -0.43100
O 	O 	0.89870 0.82702 0.54700 -0.43100
O 	O 	0.42390 0.79938 0.21920 -0.41200
O 	O 	0.68680 0.74099 0.02060 -0.36100
O 	O 	0.82500 0.82546 0.91770 -0.36800
O 	O 	0.74940 0.25175 0.59710 -0.43400
O 	O 	0.60130 0.32702 0.45300 -0.43500
O 	O 	0.07610 0.29938 0.78080 -0.40200
O 	O 	0.81320 0.24099 0.97940 -0.36500
O 	O 	0.67500 0.32546 0.08230 -0.37400
O 	O 	0.25060 0.74825 0.59710 -0.43400
O 	O 	0.39870 0.67298 0.45300 -0.43500
O 	O 	0.92390 0.70062 0.78080 -0.40200
O 	O 	0.18680 0.75901 0.97940 -0.36500
O 	O 	0.32500 0.67454 0.08230 -0.37400
