data_crystal

_cell_length_a 19.42810
_cell_length_b 26.85870
_cell_length_c 34.72700
_cell_angle_alpha 90.00000
_cell_angle_beta  90.00000
_cell_angle_gamma 90.00000

_symmetry_space_group_name_	'P 1'
_symmetry_space_group_name_H-M	'P 1'

loop_
_symmetry_equiv_pos_as_xyz
  x,y,z

loop_
_atom_site_label
_atom_site_type_symbol
_atom_site_fract_x
_atom_site_fract_y
_atom_site_fract_z
_atom_site_charge
K 	K 	0.56064 0.63482 0.48373 0.61400
Nd	Nd	0.74386 0.55814 0.93202 1.11300
Nd	Nd	0.74277 0.56895 0.25988 1.05200
Pt	Pt	0.75291 0.56444 0.09628 0.28200
Pt	Pt	0.99205 0.56166 0.84474 0.29700
Pt	Pt	0.50065 0.56362 0.83943 0.27800
Pt	Pt	0.24478 0.55765 0.09495 0.29000
C 	C 	0.65180 0.56490 0.09840 -0.07800
C 	C 	0.74890 0.56200 0.03920 -0.04300
C 	C 	0.85550 0.56220 0.09420 -0.06600
C 	C 	0.75760 0.56870 0.15300 -0.05800
C 	C 	0.03950 0.56050 0.89510 -0.07700
C 	C 	0.08230 0.56780 0.81670 -0.05800
C 	C 	0.94660 0.56190 0.79390 -0.08500
C 	C 	0.90200 0.55490 0.87120 -0.04900
C 	C 	0.58670 0.56300 0.87130 -0.04700
C 	C 	0.56010 0.56380 0.79250 -0.06500
C 	C 	0.41870 0.56540 0.80740 -0.07300
C 	C 	0.44450 0.56320 0.88770 -0.07200
C 	C 	0.17530 0.56140 0.13400 -0.09400
C 	C 	0.31540 0.55510 0.13770 -0.07500
C 	C 	0.31550 0.55430 0.05580 -0.08600
C 	C 	0.17270 0.55850 0.05300 -0.07300
N 	N 	0.59260 0.55860 0.10030 -0.18500
N 	N 	0.74660 0.56060 0.00600 -0.23400
N 	N 	0.91440 0.56350 0.09070 -0.16800
N 	N 	0.76160 0.57070 0.18620 -0.24000
N 	N 	0.06990 0.56350 0.92310 -0.16300
N 	N 	0.13050 0.56780 0.79950 -0.24400
N 	N 	0.92320 0.55930 0.76280 -0.18900
N 	N 	0.85100 0.55190 0.88790 -0.23700
N 	N 	0.63600 0.56300 0.88800 -0.24500
N 	N 	0.59160 0.56550 0.76560 -0.15000
N 	N 	0.36900 0.56760 0.78670 -0.23200
N 	N 	0.41460 0.56180 0.91510 -0.16000
N 	N 	0.13150 0.56140 0.15740 -0.14700
N 	N 	0.34960 0.55270 0.16270 -0.19800
N 	N 	0.35840 0.54840 0.03200 -0.15100
N 	N 	0.12770 0.55890 0.03130 -0.19200
O 	O 	0.45910 0.55690 0.48390 -0.30800
K 	K 	0.56064 0.13482 0.98373 0.61100
Nd	Nd	0.74386 0.05814 0.43202 1.10500
Nd	Nd	0.74277 0.06895 0.75988 1.03400
Pt	Pt	0.75291 0.06444 0.59628 0.27700
Pt	Pt	0.99205 0.06166 0.34474 0.29300
Pt	Pt	0.50065 0.06362 0.33943 0.27400
Pt	Pt	0.24478 0.05765 0.59495 0.28600
C 	C 	0.65180 0.06490 0.59840 -0.08200
C 	C 	0.74890 0.06200 0.53920 -0.04900
C 	C 	0.85550 0.06220 0.59420 -0.07100
C 	C 	0.75760 0.06870 0.65300 -0.06200
C 	C 	0.03950 0.06050 0.39510 -0.08300
C 	C 	0.08230 0.06780 0.31670 -0.06300
C 	C 	0.94660 0.06190 0.29390 -0.08900
C 	C 	0.90200 0.05490 0.37120 -0.05400
C 	C 	0.58670 0.06300 0.37130 -0.05100
C 	C 	0.56010 0.06380 0.29250 -0.07000
C 	C 	0.41870 0.06540 0.30740 -0.07800
C 	C 	0.44450 0.06320 0.38770 -0.07600
C 	C 	0.17530 0.06140 0.63400 -0.09900
C 	C 	0.31540 0.05510 0.63770 -0.08000
C 	C 	0.31550 0.05430 0.55580 -0.09100
C 	C 	0.17270 0.05850 0.55300 -0.08000
N 	N 	0.59260 0.05860 0.60030 -0.18900
N 	N 	0.74660 0.06060 0.50600 -0.23800
N 	N 	0.91440 0.06350 0.59070 -0.17100
N 	N 	0.76160 0.07070 0.68620 -0.24100
N 	N 	0.06990 0.06350 0.42310 -0.16500
N 	N 	0.13050 0.06780 0.29950 -0.24500
N 	N 	0.92320 0.05930 0.26280 -0.19200
N 	N 	0.85100 0.05190 0.38790 -0.23800
N 	N 	0.63600 0.06300 0.38800 -0.24500
N 	N 	0.59160 0.06550 0.26560 -0.15300
N 	N 	0.36900 0.06760 0.28670 -0.23300
N 	N 	0.41460 0.06180 0.41510 -0.16200
N 	N 	0.13150 0.06140 0.65740 -0.15000
N 	N 	0.34960 0.05270 0.66270 -0.20100
N 	N 	0.35840 0.04840 0.53200 -0.15600
N 	N 	0.12770 0.05890 0.53130 -0.19600
O 	O 	0.45910 0.05690 0.98390 -0.31700
K 	K 	0.06064 0.63482 0.98373 0.60900
Nd	Nd	0.24386 0.55814 0.43202 1.11700
Nd	Nd	0.24277 0.56895 0.75988 1.04700
Pt	Pt	0.25291 0.56444 0.59628 0.28000
Pt	Pt	0.49205 0.56166 0.34474 0.27700
Pt	Pt	0.00065 0.56362 0.33943 0.25900
Pt	Pt	0.74478 0.55765 0.59495 0.29100
C 	C 	0.15180 0.56490 0.59840 -0.08000
C 	C 	0.24890 0.56200 0.53920 -0.04500
C 	C 	0.35550 0.56220 0.59420 -0.06800
C 	C 	0.25760 0.56870 0.65300 -0.05900
C 	C 	0.53950 0.56050 0.39510 -0.06200
C 	C 	0.58230 0.56780 0.31670 -0.04500
C 	C 	0.44660 0.56190 0.29390 -0.09000
C 	C 	0.40200 0.55490 0.37120 -0.05100
C 	C 	0.08670 0.56300 0.37130 -0.04900
C 	C 	0.06010 0.56380 0.29250 -0.07100
C 	C 	0.91870 0.56540 0.30740 -0.06000
C 	C 	0.94450 0.56320 0.38770 -0.05600
C 	C 	0.67530 0.56140 0.63400 -0.09200
C 	C 	0.81540 0.55510 0.63770 -0.07300
C 	C 	0.81550 0.55430 0.55580 -0.08500
C 	C 	0.67270 0.55850 0.55300 -0.07300
N 	N 	0.09260 0.55860 0.60030 -0.18900
N 	N 	0.24660 0.56060 0.50600 -0.23800
N 	N 	0.41440 0.56350 0.59070 -0.17300
N 	N 	0.26160 0.57070 0.68620 -0.24000
N 	N 	0.56990 0.56350 0.42310 -0.16300
N 	N 	0.63050 0.56780 0.29950 -0.24700
N 	N 	0.42320 0.55930 0.26280 -0.19200
N 	N 	0.35100 0.55190 0.38790 -0.23700
N 	N 	0.13600 0.56300 0.38800 -0.24500
N 	N 	0.09160 0.56550 0.26560 -0.15300
N 	N 	0.86900 0.56760 0.28670 -0.23400
N 	N 	0.91460 0.56180 0.41510 -0.15900
N 	N 	0.63150 0.56140 0.65740 -0.14400
N 	N 	0.84960 0.55270 0.66270 -0.19500
N 	N 	0.85840 0.54840 0.53200 -0.15000
N 	N 	0.62770 0.55890 0.53130 -0.19100
O 	O 	0.95910 0.55690 0.98390 -0.30200
K 	K 	0.06064 0.13482 0.48373 0.61000
Nd	Nd	0.24386 0.05814 0.93202 1.08900
Nd	Nd	0.24277 0.06895 0.25988 1.02900
Pt	Pt	0.25291 0.06444 0.09628 0.27700
Pt	Pt	0.49205 0.06166 0.84474 0.27300
Pt	Pt	0.00065 0.06362 0.83943 0.25500
Pt	Pt	0.74478 0.05765 0.09495 0.28700
C 	C 	0.15180 0.06490 0.09840 -0.08400
C 	C 	0.24890 0.06200 0.03920 -0.05000
C 	C 	0.35550 0.06220 0.09420 -0.07200
C 	C 	0.25760 0.06870 0.15300 -0.06300
C 	C 	0.53950 0.06050 0.89510 -0.06700
C 	C 	0.58230 0.06780 0.81670 -0.05000
C 	C 	0.44660 0.06190 0.79390 -0.09400
C 	C 	0.40200 0.05490 0.87120 -0.05700
C 	C 	0.08670 0.06300 0.87130 -0.05400
C 	C 	0.06010 0.06380 0.79250 -0.07600
C 	C 	0.91870 0.06540 0.80740 -0.06500
C 	C 	0.94450 0.06320 0.88770 -0.06100
C 	C 	0.67530 0.06140 0.13400 -0.09700
C 	C 	0.81540 0.05510 0.13770 -0.07800
C 	C 	0.81550 0.05430 0.05580 -0.09000
C 	C 	0.67270 0.05850 0.05300 -0.07700
N 	N 	0.09260 0.05860 0.10030 -0.19300
N 	N 	0.24660 0.06060 0.00600 -0.23500
N 	N 	0.41440 0.06350 0.09070 -0.17500
N 	N 	0.26160 0.07070 0.18620 -0.24100
N 	N 	0.56990 0.06350 0.92310 -0.16700
N 	N 	0.63050 0.06780 0.79950 -0.24800
N 	N 	0.42320 0.05930 0.76280 -0.19500
N 	N 	0.35100 0.05190 0.88790 -0.23800
N 	N 	0.13600 0.06300 0.88800 -0.24600
N 	N 	0.09160 0.06550 0.76560 -0.15600
N 	N 	0.86900 0.06760 0.78670 -0.23500
N 	N 	0.91460 0.06180 0.91510 -0.16400
N 	N 	0.63150 0.06140 0.15740 -0.14700
N 	N 	0.84960 0.05270 0.16270 -0.19800
N 	N 	0.85840 0.04840 0.03200 -0.15300
N 	N 	0.62770 0.05890 0.03130 -0.19200
O 	O 	0.95910 0.05690 0.48390 -0.30300
K 	K 	0.43936 0.36518 0.48373 0.61300
Nd	Nd	0.25614 0.44186 0.93202 1.10900
Nd	Nd	0.25723 0.43105 0.25988 1.04800
Pt	Pt	0.24709 0.43556 0.09628 0.28100
Pt	Pt	0.00795 0.43834 0.84474 0.25800
Pt	Pt	0.49935 0.43638 0.83943 0.27800
Pt	Pt	0.75522 0.44235 0.09495 0.29100
C 	C 	0.34820 0.43510 0.09840 -0.07800
C 	C 	0.25110 0.43800 0.03920 -0.04400
C 	C 	0.14450 0.43780 0.09420 -0.06800
C 	C 	0.24240 0.43130 0.15300 -0.05900
C 	C 	0.96050 0.43950 0.89510 -0.04600
C 	C 	0.91770 0.43220 0.81670 -0.03200
C 	C 	0.05340 0.43810 0.79390 -0.09400
C 	C 	0.09800 0.44510 0.87120 -0.05300
C 	C 	0.41330 0.43700 0.87130 -0.04700
C 	C 	0.43990 0.43620 0.79250 -0.06500
C 	C 	0.58130 0.43460 0.80740 -0.07300
C 	C 	0.55550 0.43680 0.88770 -0.07200
C 	C 	0.82470 0.43860 0.13400 -0.09100
C 	C 	0.68460 0.44490 0.13770 -0.07400
C 	C 	0.68450 0.44570 0.05580 -0.08500
C 	C 	0.82730 0.44150 0.05300 -0.07000
N 	N 	0.40740 0.44140 0.10030 -0.18500
N 	N 	0.25340 0.43940 0.00600 -0.23400
N 	N 	0.08560 0.43650 0.09070 -0.17600
N 	N 	0.23840 0.42930 0.18620 -0.24000
N 	N 	0.93010 0.43650 0.92310 -0.16400
N 	N 	0.86950 0.43220 0.79950 -0.24900
N 	N 	0.07680 0.44070 0.76280 -0.19400
N 	N 	0.14900 0.44810 0.88790 -0.23700
N 	N 	0.36400 0.43700 0.88800 -0.24400
N 	N 	0.40840 0.43450 0.76560 -0.15000
N 	N 	0.63100 0.43240 0.78670 -0.23300
N 	N 	0.58540 0.43820 0.91510 -0.16000
N 	N 	0.86850 0.43860 0.15740 -0.14000
N 	N 	0.65040 0.44730 0.16270 -0.19800
N 	N 	0.64160 0.45160 0.03200 -0.15100
N 	N 	0.87230 0.44110 0.03130 -0.18600
O 	O 	0.54090 0.44310 0.48390 -0.30800
K 	K 	0.43936 0.86518 0.98373 0.61200
Nd	Nd	0.25614 0.94186 0.43202 1.13700
Nd	Nd	0.25723 0.93105 0.75988 1.06600
Pt	Pt	0.24709 0.93556 0.59628 0.28400
Pt	Pt	0.00795 0.93834 0.34474 0.26200
Pt	Pt	0.49935 0.93638 0.33943 0.28200
Pt	Pt	0.75522 0.94235 0.59495 0.29500
C 	C 	0.34820 0.93510 0.59840 -0.07300
C 	C 	0.25110 0.93800 0.53920 -0.04000
C 	C 	0.14450 0.93780 0.59420 -0.06300
C 	C 	0.24240 0.93130 0.65300 -0.05400
C 	C 	0.96050 0.93950 0.39510 -0.04100
C 	C 	0.91770 0.93220 0.31670 -0.02800
C 	C 	0.05340 0.93810 0.29390 -0.08900
C 	C 	0.09800 0.94510 0.37120 -0.04700
C 	C 	0.41330 0.93700 0.37130 -0.04100
C 	C 	0.43990 0.93620 0.29250 -0.06100
C 	C 	0.58130 0.93460 0.30740 -0.06800
C 	C 	0.55550 0.93680 0.38770 -0.06700
C 	C 	0.82470 0.93860 0.63400 -0.08600
C 	C 	0.68460 0.94490 0.63770 -0.06900
C 	C 	0.68450 0.94570 0.55580 -0.08100
C 	C 	0.82730 0.94150 0.55300 -0.06600
N 	N 	0.40740 0.94140 0.60030 -0.18100
N 	N 	0.25340 0.93940 0.50600 -0.23700
N 	N 	0.08560 0.93650 0.59070 -0.17300
N 	N 	0.23840 0.92930 0.68620 -0.24000
N 	N 	0.93010 0.93650 0.42310 -0.16000
N 	N 	0.86950 0.93220 0.29950 -0.24800
N 	N 	0.07680 0.94070 0.26280 -0.19100
N 	N 	0.14900 0.94810 0.38790 -0.23700
N 	N 	0.36400 0.93700 0.38800 -0.24400
N 	N 	0.40840 0.93450 0.26560 -0.14700
N 	N 	0.63100 0.93240 0.28670 -0.23200
N 	N 	0.58540 0.93820 0.41510 -0.15500
N 	N 	0.86850 0.93860 0.65740 -0.13700
N 	N 	0.65040 0.94730 0.66270 -0.19400
N 	N 	0.64160 0.95160 0.53200 -0.14800
N 	N 	0.87230 0.94110 0.53130 -0.18500
O 	O 	0.54090 0.94310 0.98390 -0.30600
K 	K 	0.93936 0.36518 0.98373 0.61400
Nd	Nd	0.75614 0.44186 0.43202 1.12400
Nd	Nd	0.75723 0.43105 0.75988 1.05300
Pt	Pt	0.74709 0.43556 0.59628 0.28100
Pt	Pt	0.50795 0.43834 0.34474 0.27700
Pt	Pt	0.99935 0.43638 0.33943 0.29900
Pt	Pt	0.25522 0.44235 0.59495 0.29000
C 	C 	0.84820 0.43510 0.59840 -0.07600
C 	C 	0.75110 0.43800 0.53920 -0.04300
C 	C 	0.64450 0.43780 0.59420 -0.06800
C 	C 	0.74240 0.43130 0.65300 -0.05700
C 	C 	0.46050 0.43950 0.39510 -0.06200
C 	C 	0.41770 0.43220 0.31670 -0.04500
C 	C 	0.55340 0.43810 0.29390 -0.09000
C 	C 	0.59800 0.44510 0.37120 -0.05100
C 	C 	0.91330 0.43700 0.37130 -0.04300
C 	C 	0.93990 0.43620 0.29250 -0.06000
C 	C 	0.08130 0.43460 0.30740 -0.08500
C 	C 	0.05550 0.43680 0.38770 -0.08700
C 	C 	0.32470 0.43860 0.63400 -0.09200
C 	C 	0.18460 0.44490 0.63770 -0.07600
C 	C 	0.18450 0.44570 0.55580 -0.08700
C 	C 	0.32730 0.44150 0.55300 -0.07300
N 	N 	0.90740 0.44140 0.60030 -0.18000
N 	N 	0.75340 0.43940 0.50600 -0.23700
N 	N 	0.58560 0.43650 0.59070 -0.17300
N 	N 	0.73840 0.42930 0.68620 -0.24000
N 	N 	0.43010 0.43650 0.42310 -0.16300
N 	N 	0.36950 0.43220 0.29950 -0.24700
N 	N 	0.57680 0.44070 0.26280 -0.19200
N 	N 	0.64900 0.44810 0.38790 -0.23800
N 	N 	0.86400 0.43700 0.38800 -0.24400
N 	N 	0.90840 0.43450 0.26560 -0.14800
N 	N 	0.13100 0.43240 0.28670 -0.23100
N 	N 	0.08540 0.43820 0.41510 -0.15700
N 	N 	0.36850 0.43860 0.65740 -0.14400
N 	N 	0.15040 0.44730 0.66270 -0.20000
N 	N 	0.14160 0.45160 0.53200 -0.15400
N 	N 	0.37230 0.44110 0.53130 -0.19100
O 	O 	0.04090 0.44310 0.98390 -0.32100
K 	K 	0.93936 0.86518 0.48373 0.61700
Nd	Nd	0.75614 0.94186 0.93202 1.13200
Nd	Nd	0.75723 0.93105 0.25988 1.07100
Pt	Pt	0.74709 0.93556 0.09628 0.28500
Pt	Pt	0.50795 0.93834 0.84474 0.28100
Pt	Pt	0.99935 0.93638 0.83943 0.30200
Pt	Pt	0.25522 0.94235 0.09495 0.29500
C 	C 	0.84820 0.93510 0.09840 -0.07100
C 	C 	0.75110 0.93800 0.03920 -0.03800
C 	C 	0.64450 0.93780 0.09420 -0.06200
C 	C 	0.74240 0.93130 0.15300 -0.05300
C 	C 	0.46050 0.93950 0.89510 -0.05600
C 	C 	0.41770 0.93220 0.81670 -0.04000
C 	C 	0.55340 0.93810 0.79390 -0.08500
C 	C 	0.59800 0.94510 0.87120 -0.04600
C 	C 	0.91330 0.93700 0.87130 -0.03900
C 	C 	0.93990 0.93620 0.79250 -0.05500
C 	C 	0.08130 0.93460 0.80740 -0.07900
C 	C 	0.05550 0.93680 0.88770 -0.08200
C 	C 	0.32470 0.93860 0.13400 -0.08800
C 	C 	0.18460 0.94490 0.13770 -0.07000
C 	C 	0.18450 0.94570 0.05580 -0.08100
C 	C 	0.32730 0.94150 0.05300 -0.06600
N 	N 	0.90740 0.94140 0.10030 -0.17600
N 	N 	0.75340 0.93940 0.00600 -0.23300
N 	N 	0.58560 0.93650 0.09070 -0.16900
N 	N 	0.73840 0.92930 0.18620 -0.23900
N 	N 	0.43010 0.93650 0.92310 -0.16100
N 	N 	0.36950 0.93220 0.79950 -0.24600
N 	N 	0.57680 0.94070 0.76280 -0.18800
N 	N 	0.64900 0.94810 0.88790 -0.23600
N 	N 	0.86400 0.93700 0.88800 -0.24300
N 	N 	0.90840 0.93450 0.76560 -0.14500
N 	N 	0.13100 0.93240 0.78670 -0.23000
N 	N 	0.08540 0.93820 0.91510 -0.15500
N 	N 	0.36850 0.93860 0.15740 -0.14000
N 	N 	0.15040 0.94730 0.16270 -0.19600
N 	N 	0.14160 0.95160 0.03200 -0.14800
N 	N 	0.37230 0.94110 0.03130 -0.18600
O 	O 	0.04090 0.94310 0.48390 -0.31000
K 	K 	0.81064 0.61518 0.73373 0.61400
Nd	Nd	0.99386 0.69186 0.18202 1.15400
Nd	Nd	0.99277 0.68105 0.50988 1.09000
Pt	Pt	0.00291 0.68556 0.34628 0.26200
Pt	Pt	0.24205 0.68834 0.09474 0.27700
Pt	Pt	0.75065 0.68638 0.08943 0.27800
Pt	Pt	0.49478 0.69235 0.34495 0.29000
C 	C 	0.90180 0.68510 0.34840 -0.06600
C 	C 	0.99890 0.68800 0.28920 -0.02700
C 	C 	0.10550 0.68780 0.34420 -0.06900
C 	C 	0.00760 0.68130 0.40300 -0.06400
C 	C 	0.28950 0.68950 0.14510 -0.06200
C 	C 	0.33230 0.68220 0.06670 -0.04400
C 	C 	0.19660 0.68810 0.04390 -0.09000
C 	C 	0.15200 0.69510 0.12120 -0.05200
C 	C 	0.83670 0.68700 0.12130 -0.04400
C 	C 	0.81010 0.68620 0.04250 -0.06300
C 	C 	0.66870 0.68460 0.05740 -0.07200
C 	C 	0.69450 0.68680 0.13770 -0.07200
C 	C 	0.42530 0.68860 0.38400 -0.09300
C 	C 	0.56540 0.69490 0.38770 -0.07500
C 	C 	0.56550 0.69570 0.30580 -0.08600
C 	C 	0.42270 0.69150 0.30300 -0.07300
N 	N 	0.84260 0.69140 0.35030 -0.18800
N 	N 	0.99660 0.68940 0.25600 -0.23900
N 	N 	0.16440 0.68650 0.34070 -0.17300
N 	N 	0.01160 0.67930 0.43620 -0.24900
N 	N 	0.31990 0.68650 0.17310 -0.16300
N 	N 	0.38050 0.68220 0.04950 -0.24700
N 	N 	0.17320 0.69070 0.01280 -0.19100
N 	N 	0.10100 0.69810 0.13790 -0.24500
N 	N 	0.88600 0.68700 0.13800 -0.24500
N 	N 	0.84160 0.68450 0.01560 -0.14600
N 	N 	0.61900 0.68240 0.03670 -0.23200
N 	N 	0.66460 0.68820 0.16510 -0.15900
N 	N 	0.38150 0.68860 0.40740 -0.14400
N 	N 	0.59960 0.69730 0.41270 -0.19800
N 	N 	0.60840 0.70160 0.28200 -0.15200
N 	N 	0.37770 0.69110 0.28130 -0.19100
O 	O 	0.70910 0.69310 0.73390 -0.30800
K 	K 	0.81064 0.11518 0.23373 0.61300
Nd	Nd	0.99386 0.19186 0.68202 1.15200
Nd	Nd	0.99277 0.18105 0.00988 1.09800
Pt	Pt	0.00291 0.18556 0.84628 0.26200
Pt	Pt	0.24205 0.18834 0.59474 0.27700
Pt	Pt	0.75065 0.18638 0.58943 0.27900
Pt	Pt	0.49478 0.19235 0.84495 0.29100
C 	C 	0.90180 0.18510 0.84840 -0.06700
C 	C 	0.99890 0.18800 0.78920 -0.02600
C 	C 	0.10550 0.18780 0.84420 -0.06900
C 	C 	0.00760 0.18130 0.90300 -0.06500
C 	C 	0.28950 0.18950 0.64510 -0.06200
C 	C 	0.33230 0.18220 0.56670 -0.04500
C 	C 	0.19660 0.18810 0.54390 -0.09100
C 	C 	0.15200 0.19510 0.62120 -0.05200
C 	C 	0.83670 0.18700 0.62130 -0.04400
C 	C 	0.81010 0.18620 0.54250 -0.06400
C 	C 	0.66870 0.18460 0.55740 -0.07200
C 	C 	0.69450 0.18680 0.63770 -0.07100
C 	C 	0.42530 0.18860 0.88400 -0.09300
C 	C 	0.56540 0.19490 0.88770 -0.07500
C 	C 	0.56550 0.19570 0.80580 -0.08600
C 	C 	0.42270 0.19150 0.80300 -0.07300
N 	N 	0.84260 0.19140 0.85030 -0.18800
N 	N 	0.99660 0.18940 0.75600 -0.23900
N 	N 	0.16440 0.18650 0.84070 -0.17400
N 	N 	0.01160 0.17930 0.93620 -0.25200
N 	N 	0.31990 0.18650 0.67310 -0.16300
N 	N 	0.38050 0.18220 0.54950 -0.24700
N 	N 	0.17320 0.19070 0.51280 -0.19300
N 	N 	0.10100 0.19810 0.63790 -0.24500
N 	N 	0.88600 0.18700 0.63800 -0.24500
N 	N 	0.84160 0.18450 0.51560 -0.14800
N 	N 	0.61900 0.18240 0.53670 -0.23200
N 	N 	0.66460 0.18820 0.66510 -0.15900
N 	N 	0.38150 0.18860 0.90740 -0.14500
N 	N 	0.59960 0.19730 0.91270 -0.20000
N 	N 	0.60840 0.20160 0.78200 -0.15200
N 	N 	0.37770 0.19110 0.78130 -0.19200
O 	O 	0.70910 0.19310 0.23390 -0.30800
K 	K 	0.31064 0.61518 0.23373 0.61300
Nd	Nd	0.49386 0.69186 0.68202 1.12100
Nd	Nd	0.49277 0.68105 0.00988 1.06100
Pt	Pt	0.50291 0.68556 0.84628 0.28000
Pt	Pt	0.74205 0.68834 0.59474 0.27700
Pt	Pt	0.25065 0.68638 0.58943 0.27800
Pt	Pt	0.99478 0.69235 0.84495 0.30900
C 	C 	0.40180 0.68510 0.84840 -0.07800
C 	C 	0.49890 0.68800 0.78920 -0.04400
C 	C 	0.60550 0.68780 0.84420 -0.06800
C 	C 	0.50760 0.68130 0.90300 -0.05900
C 	C 	0.78950 0.68950 0.64510 -0.06000
C 	C 	0.83230 0.68220 0.56670 -0.04300
C 	C 	0.69660 0.68810 0.54390 -0.09000
C 	C 	0.65200 0.69510 0.62120 -0.05100
C 	C 	0.33670 0.68700 0.62130 -0.04600
C 	C 	0.31010 0.68620 0.54250 -0.06600
C 	C 	0.16870 0.68460 0.55740 -0.07400
C 	C 	0.19450 0.68680 0.63770 -0.07300
C 	C 	0.92530 0.68860 0.88400 -0.09000
C 	C 	0.06540 0.69490 0.88770 -0.08900
C 	C 	0.06550 0.69570 0.80580 -0.10000
C 	C 	0.92270 0.69150 0.80300 -0.06800
N 	N 	0.34260 0.69140 0.85030 -0.18600
N 	N 	0.49660 0.68940 0.75600 -0.23700
N 	N 	0.66440 0.68650 0.84070 -0.17300
N 	N 	0.51160 0.67930 0.93620 -0.24300
N 	N 	0.81990 0.68650 0.67310 -0.16100
N 	N 	0.88050 0.68220 0.54950 -0.24800
N 	N 	0.67320 0.69070 0.51280 -0.19200
N 	N 	0.60100 0.69810 0.63790 -0.23700
N 	N 	0.38600 0.68700 0.63800 -0.24500
N 	N 	0.34160 0.68450 0.51560 -0.15000
N 	N 	0.11900 0.68240 0.53670 -0.24000
N 	N 	0.16460 0.68820 0.66510 -0.15900
N 	N 	0.88150 0.68860 0.90740 -0.14300
N 	N 	0.09960 0.69730 0.91270 -0.19800
N 	N 	0.10840 0.70160 0.78200 -0.15000
N 	N 	0.87770 0.69110 0.78130 -0.19000
O 	O 	0.20910 0.69310 0.23390 -0.31100
K 	K 	0.31064 0.11518 0.73373 0.61200
Nd	Nd	0.49386 0.19186 0.18202 1.11900
Nd	Nd	0.49277 0.18105 0.50988 1.04700
Pt	Pt	0.50291 0.18556 0.34628 0.28100
Pt	Pt	0.74205 0.18834 0.09474 0.27700
Pt	Pt	0.25065 0.18638 0.08943 0.27800
Pt	Pt	0.99478 0.19235 0.34495 0.31000
C 	C 	0.40180 0.18510 0.34840 -0.07800
C 	C 	0.49890 0.18800 0.28920 -0.04400
C 	C 	0.60550 0.18780 0.34420 -0.06700
C 	C 	0.50760 0.18130 0.40300 -0.05800
C 	C 	0.78950 0.18950 0.14510 -0.06100
C 	C 	0.83230 0.18220 0.06670 -0.04300
C 	C 	0.69660 0.18810 0.04390 -0.08900
C 	C 	0.65200 0.19510 0.12120 -0.05100
C 	C 	0.33670 0.18700 0.12130 -0.04600
C 	C 	0.31010 0.18620 0.04250 -0.06500
C 	C 	0.16870 0.18460 0.05740 -0.07300
C 	C 	0.19450 0.18680 0.13770 -0.07300
C 	C 	0.92530 0.18860 0.38400 -0.08900
C 	C 	0.06540 0.19490 0.38770 -0.08900
C 	C 	0.06550 0.19570 0.30580 -0.10000
C 	C 	0.92270 0.19150 0.30300 -0.06800
N 	N 	0.34260 0.19140 0.35030 -0.18600
N 	N 	0.49660 0.18940 0.25600 -0.23700
N 	N 	0.66440 0.18650 0.34070 -0.17300
N 	N 	0.51160 0.17930 0.43620 -0.24000
N 	N 	0.81990 0.18650 0.17310 -0.16100
N 	N 	0.88050 0.18220 0.04950 -0.24800
N 	N 	0.67320 0.19070 0.01280 -0.19000
N 	N 	0.60100 0.19810 0.13790 -0.23800
N 	N 	0.38600 0.18700 0.13800 -0.24500
N 	N 	0.34160 0.18450 0.01560 -0.14800
N 	N 	0.11900 0.18240 0.03670 -0.24000
N 	N 	0.16460 0.18820 0.16510 -0.15900
N 	N 	0.88150 0.18860 0.40740 -0.14200
N 	N 	0.09960 0.19730 0.41270 -0.19700
N 	N 	0.10840 0.20160 0.28200 -0.15000
N 	N 	0.87770 0.19110 0.28130 -0.19000
O 	O 	0.20910 0.19310 0.73390 -0.31200
K 	K 	0.68936 0.88482 0.73373 0.61400
Nd	Nd	0.50614 0.80814 0.18202 1.12300
Nd	Nd	0.50723 0.81895 0.50988 1.05300
Pt	Pt	0.49709 0.81444 0.34628 0.28000
Pt	Pt	0.25795 0.81166 0.09474 0.27700
Pt	Pt	0.74935 0.81362 0.08943 0.27800
Pt	Pt	0.00522 0.80765 0.34495 0.27200
C 	C 	0.59820 0.81490 0.34840 -0.07800
C 	C 	0.50110 0.81200 0.28920 -0.04500
C 	C 	0.39450 0.81220 0.34420 -0.06800
C 	C 	0.49240 0.81870 0.40300 -0.05800
C 	C 	0.21050 0.81050 0.14510 -0.06200
C 	C 	0.16770 0.81780 0.06670 -0.04600
C 	C 	0.30340 0.81190 0.04390 -0.08900
C 	C 	0.34800 0.80490 0.12120 -0.05100
C 	C 	0.66330 0.81300 0.12130 -0.04600
C 	C 	0.68990 0.81380 0.04250 -0.06400
C 	C 	0.83130 0.81540 0.05740 -0.07000
C 	C 	0.80550 0.81320 0.13770 -0.07000
C 	C 	0.07470 0.81140 0.38400 -0.09500
C 	C 	0.93460 0.80510 0.38770 -0.06000
C 	C 	0.93450 0.80430 0.30580 -0.07200
C 	C 	0.07730 0.80850 0.30300 -0.07700
N 	N 	0.65740 0.80860 0.35030 -0.18500
N 	N 	0.50340 0.81060 0.25600 -0.23700
N 	N 	0.33560 0.81350 0.34070 -0.17300
N 	N 	0.48840 0.82070 0.43620 -0.24000
N 	N 	0.18010 0.81350 0.17310 -0.16500
N 	N 	0.11950 0.81780 0.04950 -0.24600
N 	N 	0.32680 0.80930 0.01280 -0.19000
N 	N 	0.39900 0.80190 0.13790 -0.23700
N 	N 	0.61400 0.81300 0.13800 -0.24400
N 	N 	0.65840 0.81550 0.01560 -0.14800
N 	N 	0.88100 0.81760 0.03670 -0.22500
N 	N 	0.83540 0.81180 0.16510 -0.15700
N 	N 	0.11850 0.81140 0.40740 -0.14500
N 	N 	0.90040 0.80270 0.41270 -0.19900
N 	N 	0.89160 0.79840 0.28200 -0.15400
N 	N 	0.12230 0.80890 0.28130 -0.19200
O 	O 	0.79090 0.80690 0.73390 -0.30400
K 	K 	0.68936 0.38482 0.23373 0.61300
Nd	Nd	0.50614 0.30814 0.68202 1.12000
Nd	Nd	0.50723 0.31895 0.00988 1.06100
Pt	Pt	0.49709 0.31444 0.84628 0.28000
Pt	Pt	0.25795 0.31166 0.59474 0.27700
Pt	Pt	0.74935 0.31362 0.58943 0.27900
Pt	Pt	0.00522 0.30765 0.84495 0.27200
C 	C 	0.59820 0.31490 0.84840 -0.07800
C 	C 	0.50110 0.31200 0.78920 -0.04400
C 	C 	0.39450 0.31220 0.84420 -0.06800
C 	C 	0.49240 0.31870 0.90300 -0.05900
C 	C 	0.21050 0.31050 0.64510 -0.06200
C 	C 	0.16770 0.31780 0.56670 -0.04700
C 	C 	0.30340 0.31190 0.54390 -0.09000
C 	C 	0.34800 0.30490 0.62120 -0.05100
C 	C 	0.66330 0.31300 0.62130 -0.04600
C 	C 	0.68990 0.31380 0.54250 -0.06500
C 	C 	0.83130 0.31540 0.55740 -0.07100
C 	C 	0.80550 0.31320 0.63770 -0.07000
C 	C 	0.07470 0.31140 0.88400 -0.09600
C 	C 	0.93460 0.30510 0.88770 -0.06000
C 	C 	0.93450 0.30430 0.80580 -0.07200
C 	C 	0.07730 0.30850 0.80300 -0.07700
N 	N 	0.65740 0.30860 0.85030 -0.18600
N 	N 	0.50340 0.31060 0.75600 -0.23700
N 	N 	0.33560 0.31350 0.84070 -0.17300
N 	N 	0.48840 0.32070 0.93620 -0.24300
N 	N 	0.18010 0.31350 0.67310 -0.16500
N 	N 	0.11950 0.31780 0.54950 -0.24600
N 	N 	0.32680 0.30930 0.51280 -0.19200
N 	N 	0.39900 0.30190 0.63790 -0.23800
N 	N 	0.61400 0.31300 0.63800 -0.24500
N 	N 	0.65840 0.31550 0.51560 -0.15000
N 	N 	0.88100 0.31760 0.53670 -0.22500
N 	N 	0.83540 0.31180 0.66510 -0.15700
N 	N 	0.11850 0.31140 0.90740 -0.14600
N 	N 	0.90040 0.30270 0.91270 -0.20100
N 	N 	0.89160 0.29840 0.78200 -0.15400
N 	N 	0.12230 0.30890 0.78130 -0.19300
O 	O 	0.79090 0.30690 0.23390 -0.30500
K 	K 	0.18936 0.88482 0.23373 0.61400
Nd	Nd	0.00614 0.80814 0.68202 1.09400
Nd	Nd	0.00723 0.81895 0.00988 1.02800
Pt	Pt	0.99709 0.81444 0.84628 0.29900
Pt	Pt	0.75795 0.81166 0.59474 0.27700
Pt	Pt	0.24935 0.81362 0.58943 0.27800
Pt	Pt	0.50522 0.80765 0.84495 0.29000
C 	C 	0.09820 0.81490 0.84840 -0.09000
C 	C 	0.00110 0.81200 0.78920 -0.06100
C 	C 	0.89450 0.81220 0.84420 -0.06700
C 	C 	0.99240 0.81870 0.90300 -0.05200
C 	C 	0.71050 0.81050 0.64510 -0.06100
C 	C 	0.66770 0.81780 0.56670 -0.04500
C 	C 	0.80340 0.81190 0.54390 -0.08800
C 	C 	0.84800 0.80490 0.62120 -0.04900
C 	C 	0.16330 0.81300 0.62130 -0.04800
C 	C 	0.18990 0.81380 0.54250 -0.06700
C 	C 	0.33130 0.81540 0.55740 -0.07300
C 	C 	0.30550 0.81320 0.63770 -0.07100
C 	C 	0.57470 0.81140 0.88400 -0.09300
C 	C 	0.43460 0.80510 0.88770 -0.07500
C 	C 	0.43450 0.80430 0.80580 -0.08600
C 	C 	0.57730 0.80850 0.80300 -0.07300
N 	N 	0.15740 0.80860 0.85030 -0.18400
N 	N 	0.00340 0.81060 0.75600 -0.23600
N 	N 	0.83560 0.81350 0.84070 -0.17200
N 	N 	0.98840 0.82070 0.93620 -0.23400
N 	N 	0.68010 0.81350 0.67310 -0.16200
N 	N 	0.61950 0.81780 0.54950 -0.24600
N 	N 	0.82680 0.80930 0.51280 -0.19100
N 	N 	0.89900 0.80190 0.63790 -0.23000
N 	N 	0.11400 0.81300 0.63800 -0.24400
N 	N 	0.15840 0.81550 0.51560 -0.15300
N 	N 	0.38100 0.81760 0.53670 -0.23200
N 	N 	0.33540 0.81180 0.66510 -0.15800
N 	N 	0.61850 0.81140 0.90740 -0.14500
N 	N 	0.40040 0.80270 0.91270 -0.19900
N 	N 	0.39160 0.79840 0.78200 -0.15200
N 	N 	0.62230 0.80890 0.78130 -0.19100
O 	O 	0.29090 0.80690 0.23390 -0.30800
K 	K 	0.18936 0.38482 0.73373 0.61300
Nd	Nd	0.00614 0.30814 0.18202 1.09100
Nd	Nd	0.00723 0.31895 0.50988 1.01400
Pt	Pt	0.99709 0.31444 0.34628 0.30000
Pt	Pt	0.75795 0.31166 0.09474 0.27800
Pt	Pt	0.24935 0.31362 0.08943 0.27800
Pt	Pt	0.50522 0.30765 0.34495 0.29100
C 	C 	0.09820 0.31490 0.34840 -0.09000
C 	C 	0.00110 0.31200 0.28920 -0.06200
C 	C 	0.89450 0.31220 0.34420 -0.06600
C 	C 	0.99240 0.31870 0.40300 -0.05100
C 	C 	0.71050 0.31050 0.14510 -0.06100
C 	C 	0.66770 0.31780 0.06670 -0.04500
C 	C 	0.80340 0.31190 0.04390 -0.08800
C 	C 	0.84800 0.30490 0.12120 -0.04900
C 	C 	0.16330 0.31300 0.12130 -0.04700
C 	C 	0.18990 0.31380 0.04250 -0.06600
C 	C 	0.33130 0.31540 0.05740 -0.07200
C 	C 	0.30550 0.31320 0.13770 -0.07100
C 	C 	0.57470 0.31140 0.38400 -0.09200
C 	C 	0.43460 0.30510 0.38770 -0.07500
C 	C 	0.43450 0.30430 0.30580 -0.08600
C 	C 	0.57730 0.30850 0.30300 -0.07300
N 	N 	0.15740 0.30860 0.35030 -0.18300
N 	N 	0.00340 0.31060 0.25600 -0.23600
N 	N 	0.83560 0.31350 0.34070 -0.17200
N 	N 	0.98840 0.32070 0.43620 -0.23100
N 	N 	0.68010 0.31350 0.17310 -0.16300
N 	N 	0.61950 0.31780 0.04950 -0.24700
N 	N 	0.82680 0.30930 0.01280 -0.18900
N 	N 	0.89900 0.30190 0.13790 -0.23000
N 	N 	0.11400 0.31300 0.13800 -0.24400
N 	N 	0.15840 0.31550 0.01560 -0.15000
N 	N 	0.38100 0.31760 0.03670 -0.23200
N 	N 	0.33540 0.31180 0.16510 -0.15800
N 	N 	0.61850 0.31140 0.40740 -0.14300
N 	N 	0.40040 0.30270 0.41270 -0.19800
N 	N 	0.39160 0.29840 0.28200 -0.15200
N 	N 	0.62230 0.30890 0.28130 -0.19100
O 	O 	0.29090 0.30690 0.73390 -0.30900
K 	K 	0.50000 0.50000 0.14436 0.60400
K 	K 	0.50000 0.50000 0.54515 0.63100
K 	K 	0.50000 0.00000 0.64436 0.59900
K 	K 	0.50000 0.00000 0.04515 0.62800
K 	K 	-0.00000 0.50000 0.64436 0.60000
K 	K 	-0.00000 0.50000 0.04515 0.62800
K 	K 	0.00000 0.00000 0.14436 0.59600
K 	K 	0.00000 0.00000 0.54515 0.62200
K 	K 	0.75000 0.75000 0.39436 0.60400
K 	K 	0.75000 0.75000 0.79515 0.63100
K 	K 	0.75000 0.25000 0.89436 0.60300
K 	K 	0.75000 0.25000 0.29515 0.63100
K 	K 	0.25000 0.75000 0.89436 0.60300
K 	K 	0.25000 0.75000 0.29515 0.63100
K 	K 	0.25000 0.25000 0.39436 0.60400
K 	K 	0.25000 0.25000 0.79515 0.63100
