data_crystal

_cell_length_a 19.44980
_cell_length_b 26.85720
_cell_length_c 34.81200
_cell_angle_alpha 90.00000
_cell_angle_beta  90.00000
_cell_angle_gamma 90.00000

_symmetry_space_group_name_	'P 1'
_symmetry_space_group_name_H-M	'P 1'

loop_
_symmetry_equiv_pos_as_xyz
  x,y,z

loop_
_atom_site_label
_atom_site_type_symbol
_atom_site_fract_x
_atom_site_fract_y
_atom_site_fract_z
_atom_site_charge
K 	K 	0.56103 0.63510 0.48398 0.59800
Pr	Pr	0.74395 0.55811 0.93212 1.84000
Pr	Pr	0.74305 0.56895 0.25993 1.82500
Pt	Pt	0.75305 0.56435 0.09633 0.26800
Pt	Pt	0.99201 0.56164 0.84466 0.28200
Pt	Pt	0.50081 0.56367 0.83944 0.26600
Pt	Pt	0.24479 0.55767 0.09485 0.27400
C 	C 	0.65160 0.56300 0.09870 -0.10300
C 	C 	0.74770 0.56190 0.03940 -0.05900
C 	C 	0.85450 0.56310 0.09290 -0.08700
C 	C 	0.75940 0.56810 0.15370 -0.07300
C 	C 	0.04100 0.56270 0.89520 -0.09600
C 	C 	0.08140 0.56690 0.81680 -0.08200
C 	C 	0.94570 0.56100 0.79330 -0.10500
C 	C 	0.90230 0.55550 0.87210 -0.06400
C 	C 	0.58610 0.56280 0.87100 -0.07500
C 	C 	0.55920 0.56450 0.79350 -0.10500
C 	C 	0.41820 0.56600 0.80700 -0.09000
C 	C 	0.44520 0.56210 0.88790 -0.11000
C 	C 	0.17150 0.56040 0.13420 -0.09700
C 	C 	0.31500 0.55540 0.13740 -0.10200
C 	C 	0.31710 0.55320 0.05550 -0.10100
C 	C 	0.17230 0.55890 0.05300 -0.09300
N 	N 	0.59310 0.55840 0.10020 -0.21700
N 	N 	0.74670 0.56060 0.00638 -0.34700
N 	N 	0.91290 0.56360 0.09080 -0.19000
N 	N 	0.76170 0.57110 0.18625 -0.36300
N 	N 	0.07020 0.56310 0.92290 -0.18500
N 	N 	0.13080 0.56780 0.79993 -0.36300
N 	N 	0.92350 0.56030 0.76300 -0.21900
N 	N 	0.85120 0.55190 0.88749 -0.34800
N 	N 	0.63540 0.56340 0.88850 -0.35900
N 	N 	0.59280 0.56550 0.76630 -0.18600
N 	N 	0.37100 0.56810 0.78720 -0.35000
N 	N 	0.41400 0.56300 0.91510 -0.20800
N 	N 	0.13310 0.56150 0.15750 -0.18800
N 	N 	0.35150 0.55290 0.16210 -0.22100
N 	N 	0.35710 0.54920 0.03190 -0.20100
N 	N 	0.12890 0.55850 0.03130 -0.20800
O 	O 	0.45810 0.55830 0.48401 -0.35100
K 	K 	0.56103 0.13510 0.98398 0.59500
Pr	Pr	0.74395 0.05811 0.43212 1.83700
Pr	Pr	0.74305 0.06895 0.75993 1.82100
Pt	Pt	0.75305 0.06435 0.59633 0.26300
Pt	Pt	0.99201 0.06164 0.34466 0.27700
Pt	Pt	0.50081 0.06367 0.33944 0.26100
Pt	Pt	0.24479 0.05767 0.59485 0.26900
C 	C 	0.65160 0.06300 0.59870 -0.10900
C 	C 	0.74770 0.06190 0.53940 -0.06500
C 	C 	0.85450 0.06310 0.59290 -0.09300
C 	C 	0.75940 0.06810 0.65370 -0.07800
C 	C 	0.04100 0.06270 0.39520 -0.10000
C 	C 	0.08140 0.06690 0.31680 -0.08700
C 	C 	0.94570 0.06100 0.29330 -0.11000
C 	C 	0.90230 0.05550 0.37210 -0.06900
C 	C 	0.58610 0.06280 0.37100 -0.07900
C 	C 	0.55920 0.06450 0.29350 -0.11000
C 	C 	0.41820 0.06600 0.30700 -0.09500
C 	C 	0.44520 0.06210 0.38790 -0.11500
C 	C 	0.17150 0.06040 0.63420 -0.10200
C 	C 	0.31500 0.05540 0.63740 -0.10700
C 	C 	0.31710 0.05320 0.55550 -0.10700
C 	C 	0.17230 0.05890 0.55300 -0.09900
N 	N 	0.59310 0.05840 0.60020 -0.22000
N 	N 	0.74670 0.06060 0.50638 -0.35100
N 	N 	0.91290 0.06360 0.59080 -0.19300
N 	N 	0.76170 0.07110 0.68625 -0.36600
N 	N 	0.07020 0.06310 0.42290 -0.18700
N 	N 	0.13080 0.06780 0.29993 -0.36500
N 	N 	0.92350 0.06030 0.26300 -0.22200
N 	N 	0.85120 0.05190 0.38749 -0.35100
N 	N 	0.63540 0.06340 0.38850 -0.36000
N 	N 	0.59280 0.06550 0.26630 -0.18900
N 	N 	0.37100 0.06810 0.28720 -0.35300
N 	N 	0.41400 0.06300 0.41510 -0.21000
N 	N 	0.13310 0.06150 0.65750 -0.19000
N 	N 	0.35150 0.05290 0.66210 -0.22400
N 	N 	0.35710 0.04920 0.53190 -0.20600
N 	N 	0.12890 0.05850 0.53130 -0.21300
O 	O 	0.45810 0.05830 0.98401 -0.36000
K 	K 	0.06103 0.63510 0.98398 0.59300
Pr	Pr	0.24395 0.55811 0.43212 1.84000
Pr	Pr	0.24305 0.56895 0.75993 1.82300
Pt	Pt	0.25305 0.56435 0.59633 0.26600
Pt	Pt	0.49201 0.56164 0.34466 0.26000
Pt	Pt	0.00081 0.56367 0.33944 0.24400
Pt	Pt	0.74479 0.55767 0.59485 0.27400
C 	C 	0.15160 0.56300 0.59870 -0.10600
C 	C 	0.24770 0.56190 0.53940 -0.06100
C 	C 	0.35450 0.56310 0.59290 -0.08900
C 	C 	0.25940 0.56810 0.65370 -0.07400
C 	C 	0.54100 0.56270 0.39520 -0.07900
C 	C 	0.58140 0.56690 0.31680 -0.06800
C 	C 	0.44570 0.56100 0.29330 -0.11100
C 	C 	0.40230 0.55550 0.37210 -0.06600
C 	C 	0.08610 0.56280 0.37100 -0.07700
C 	C 	0.05920 0.56450 0.29350 -0.11100
C 	C 	0.91820 0.56600 0.30700 -0.07600
C 	C 	0.94520 0.56210 0.38790 -0.09200
C 	C 	0.67150 0.56040 0.63420 -0.09600
C 	C 	0.81500 0.55540 0.63740 -0.10000
C 	C 	0.81710 0.55320 0.55550 -0.09900
C 	C 	0.67230 0.55890 0.55300 -0.09200
N 	N 	0.09310 0.55840 0.60020 -0.22100
N 	N 	0.24670 0.56060 0.50638 -0.35000
N 	N 	0.41290 0.56360 0.59080 -0.19500
N 	N 	0.26170 0.57110 0.68625 -0.36400
N 	N 	0.57020 0.56310 0.42290 -0.18500
N 	N 	0.63080 0.56780 0.29993 -0.36500
N 	N 	0.42350 0.56030 0.26300 -0.22200
N 	N 	0.35120 0.55190 0.38749 -0.34900
N 	N 	0.13540 0.56340 0.38850 -0.35900
N 	N 	0.09280 0.56550 0.26630 -0.18900
N 	N 	0.87100 0.56810 0.28720 -0.35200
N 	N 	0.91400 0.56300 0.41510 -0.20700
N 	N 	0.63310 0.56150 0.65750 -0.18500
N 	N 	0.85150 0.55290 0.66210 -0.21800
N 	N 	0.85710 0.54920 0.53190 -0.19900
N 	N 	0.62890 0.55850 0.53130 -0.20700
O 	O 	0.95810 0.55830 0.98401 -0.34400
K 	K 	0.06103 0.13510 0.48398 0.59400
Pr	Pr	0.24395 0.05811 0.93212 1.83500
Pr	Pr	0.24305 0.06895 0.25993 1.82000
Pt	Pt	0.25305 0.06435 0.09633 0.26200
Pt	Pt	0.49201 0.06164 0.84466 0.25500
Pt	Pt	0.00081 0.06367 0.83944 0.24100
Pt	Pt	0.74479 0.05767 0.09485 0.27000
C 	C 	0.15160 0.06300 0.09870 -0.11000
C 	C 	0.24770 0.06190 0.03940 -0.06500
C 	C 	0.35450 0.06310 0.09290 -0.09400
C 	C 	0.25940 0.06810 0.15370 -0.07900
C 	C 	0.54100 0.06270 0.89520 -0.08400
C 	C 	0.58140 0.06690 0.81680 -0.07300
C 	C 	0.44570 0.06100 0.79330 -0.11600
C 	C 	0.40230 0.05550 0.87210 -0.07100
C 	C 	0.08610 0.06280 0.87100 -0.08200
C 	C 	0.05920 0.06450 0.79350 -0.11600
C 	C 	0.91820 0.06600 0.80700 -0.08100
C 	C 	0.94520 0.06210 0.88790 -0.09800
C 	C 	0.67150 0.06040 0.13420 -0.10000
C 	C 	0.81500 0.05540 0.13740 -0.10500
C 	C 	0.81710 0.05320 0.05550 -0.10400
C 	C 	0.67230 0.05890 0.05300 -0.09700
N 	N 	0.09310 0.05840 0.10020 -0.22300
N 	N 	0.24670 0.06060 0.00638 -0.35000
N 	N 	0.41290 0.06360 0.09080 -0.19700
N 	N 	0.26170 0.07110 0.18625 -0.36700
N 	N 	0.57020 0.06310 0.92290 -0.18800
N 	N 	0.63080 0.06780 0.79993 -0.36700
N 	N 	0.42350 0.06030 0.76300 -0.22500
N 	N 	0.35120 0.05190 0.88749 -0.35200
N 	N 	0.13540 0.06340 0.88850 -0.36200
N 	N 	0.09280 0.06550 0.76630 -0.19200
N 	N 	0.87100 0.06810 0.78720 -0.35400
N 	N 	0.91400 0.06300 0.91510 -0.21100
N 	N 	0.63310 0.06150 0.15750 -0.18800
N 	N 	0.85150 0.05290 0.16210 -0.22100
N 	N 	0.85710 0.04920 0.03190 -0.20100
N 	N 	0.62890 0.05850 0.03130 -0.20800
O 	O 	0.95810 0.05830 0.48401 -0.34600
K 	K 	0.43897 0.36490 0.48398 0.59700
Pr	Pr	0.25605 0.44189 0.93212 1.83800
Pr	Pr	0.25695 0.43105 0.25993 1.82300
Pt	Pt	0.24695 0.43565 0.09633 0.26600
Pt	Pt	0.00799 0.43836 0.84466 0.24000
Pt	Pt	0.49919 0.43633 0.83944 0.26500
Pt	Pt	0.75521 0.44233 0.09485 0.27400
C 	C 	0.34840 0.43700 0.09870 -0.10400
C 	C 	0.25230 0.43810 0.03940 -0.06000
C 	C 	0.14550 0.43690 0.09290 -0.09000
C 	C 	0.24060 0.43190 0.15370 -0.07400
C 	C 	0.95900 0.43730 0.89520 -0.06200
C 	C 	0.91860 0.43310 0.81680 -0.05400
C 	C 	0.05430 0.43900 0.79330 -0.11600
C 	C 	0.09770 0.44450 0.87210 -0.06800
C 	C 	0.41390 0.43720 0.87100 -0.07500
C 	C 	0.44080 0.43550 0.79350 -0.10500
C 	C 	0.58180 0.43400 0.80700 -0.09000
C 	C 	0.55480 0.43790 0.88790 -0.11000
C 	C 	0.82850 0.43960 0.13420 -0.09400
C 	C 	0.68500 0.44460 0.13740 -0.10100
C 	C 	0.68290 0.44680 0.05550 -0.10000
C 	C 	0.82770 0.44110 0.05300 -0.09000
N 	N 	0.40690 0.44160 0.10020 -0.21700
N 	N 	0.25330 0.43940 0.00638 -0.34700
N 	N 	0.08710 0.43640 0.09080 -0.19800
N 	N 	0.23830 0.42890 0.18625 -0.36500
N 	N 	0.92980 0.43690 0.92290 -0.18600
N 	N 	0.86920 0.43220 0.79993 -0.36700
N 	N 	0.07650 0.43970 0.76300 -0.22500
N 	N 	0.14880 0.44810 0.88749 -0.34900
N 	N 	0.36460 0.43660 0.88850 -0.35900
N 	N 	0.40720 0.43450 0.76630 -0.18700
N 	N 	0.62900 0.43190 0.78720 -0.35000
N 	N 	0.58600 0.43700 0.91510 -0.20800
N 	N 	0.86690 0.43850 0.15750 -0.18100
N 	N 	0.64850 0.44710 0.16210 -0.22100
N 	N 	0.64290 0.45080 0.03190 -0.20100
N 	N 	0.87110 0.44150 0.03130 -0.20200
O 	O 	0.54190 0.44170 0.48401 -0.35100
K 	K 	0.43897 0.86490 0.98398 0.59600
Pr	Pr	0.25605 0.94189 0.43212 1.84400
Pr	Pr	0.25695 0.93105 0.75993 1.82700
Pt	Pt	0.24695 0.93565 0.59633 0.27000
Pt	Pt	0.00799 0.93836 0.34466 0.24400
Pt	Pt	0.49919 0.93633 0.33944 0.26900
Pt	Pt	0.75521 0.94233 0.59485 0.27800
C 	C 	0.34840 0.93700 0.59870 -0.09900
C 	C 	0.25230 0.93810 0.53940 -0.05600
C 	C 	0.14550 0.93690 0.59290 -0.08500
C 	C 	0.24060 0.93190 0.65370 -0.06900
C 	C 	0.95900 0.93730 0.39520 -0.05700
C 	C 	0.91860 0.93310 0.31680 -0.04900
C 	C 	0.05430 0.93900 0.29330 -0.11100
C 	C 	0.09770 0.94450 0.37210 -0.06300
C 	C 	0.41390 0.93720 0.37100 -0.07000
C 	C 	0.44080 0.93550 0.29350 -0.10100
C 	C 	0.58180 0.93400 0.30700 -0.08500
C 	C 	0.55480 0.93790 0.38790 -0.10400
C 	C 	0.82850 0.93960 0.63420 -0.08900
C 	C 	0.68500 0.94460 0.63740 -0.09600
C 	C 	0.68290 0.94680 0.55550 -0.09500
C 	C 	0.82770 0.94110 0.55300 -0.08500
N 	N 	0.40690 0.94160 0.60020 -0.21300
N 	N 	0.25330 0.93940 0.50638 -0.34700
N 	N 	0.08710 0.93640 0.59080 -0.19600
N 	N 	0.23830 0.92890 0.68625 -0.36200
N 	N 	0.92980 0.93690 0.42290 -0.18200
N 	N 	0.86920 0.93220 0.29993 -0.36400
N 	N 	0.07650 0.93970 0.26300 -0.22100
N 	N 	0.14880 0.94810 0.38749 -0.34600
N 	N 	0.36460 0.93660 0.38850 -0.35600
N 	N 	0.40720 0.93450 0.26630 -0.18400
N 	N 	0.62900 0.93190 0.28720 -0.34800
N 	N 	0.58600 0.93700 0.41510 -0.20300
N 	N 	0.86690 0.93850 0.65750 -0.17900
N 	N 	0.64850 0.94710 0.66210 -0.21700
N 	N 	0.64290 0.95080 0.53190 -0.19800
N 	N 	0.87110 0.94150 0.53130 -0.20100
O 	O 	0.54190 0.94170 0.98401 -0.34800
K 	K 	0.93897 0.36490 0.98398 0.59900
Pr	Pr	0.75605 0.44189 0.43212 1.84100
Pr	Pr	0.75695 0.43105 0.75993 1.82500
Pt	Pt	0.74695 0.43565 0.59633 0.26700
Pt	Pt	0.50799 0.43836 0.34466 0.26000
Pt	Pt	0.99919 0.43633 0.33944 0.28700
Pt	Pt	0.25521 0.44233 0.59485 0.27300
C 	C 	0.84840 0.43700 0.59870 -0.10200
C 	C 	0.75230 0.43810 0.53940 -0.06000
C 	C 	0.64550 0.43690 0.59290 -0.08900
C 	C 	0.74060 0.43190 0.65370 -0.07300
C 	C 	0.45900 0.43730 0.39520 -0.07900
C 	C 	0.41860 0.43310 0.31680 -0.06800
C 	C 	0.55430 0.43900 0.29330 -0.11100
C 	C 	0.59770 0.44450 0.37210 -0.06600
C 	C 	0.91390 0.43720 0.37100 -0.07200
C 	C 	0.94080 0.43550 0.29350 -0.10000
C 	C 	0.08180 0.43400 0.30700 -0.10300
C 	C 	0.05480 0.43790 0.38790 -0.12600
C 	C 	0.32850 0.43960 0.63420 -0.09600
C 	C 	0.18500 0.44460 0.63740 -0.10300
C 	C 	0.18290 0.44680 0.55550 -0.10200
C 	C 	0.32770 0.44110 0.55300 -0.09300
N 	N 	0.90690 0.44160 0.60020 -0.21100
N 	N 	0.75330 0.43940 0.50638 -0.34900
N 	N 	0.58710 0.43640 0.59080 -0.19500
N 	N 	0.73830 0.42890 0.68625 -0.36300
N 	N 	0.42980 0.43690 0.42290 -0.18500
N 	N 	0.36920 0.43220 0.29993 -0.36500
N 	N 	0.57650 0.43970 0.26300 -0.22200
N 	N 	0.64880 0.44810 0.38749 -0.34800
N 	N 	0.86460 0.43660 0.38850 -0.35700
N 	N 	0.90720 0.43450 0.26630 -0.18400
N 	N 	0.12900 0.43190 0.28720 -0.34800
N 	N 	0.08600 0.43700 0.41510 -0.20600
N 	N 	0.36690 0.43850 0.65750 -0.18500
N 	N 	0.14850 0.44710 0.66210 -0.22300
N 	N 	0.14290 0.45080 0.53190 -0.20400
N 	N 	0.37110 0.44150 0.53130 -0.20800
O 	O 	0.04190 0.44170 0.98401 -0.36400
K 	K 	0.93897 0.86490 0.48398 0.60100
Pr	Pr	0.75605 0.94189 0.93212 1.84300
Pr	Pr	0.75695 0.93105 0.25993 1.82800
Pt	Pt	0.74695 0.93565 0.09633 0.27100
Pt	Pt	0.50799 0.93836 0.84466 0.26400
Pt	Pt	0.99919 0.93633 0.83944 0.29000
Pt	Pt	0.25521 0.94233 0.09485 0.27700
C 	C 	0.84840 0.93700 0.09870 -0.09700
C 	C 	0.75230 0.93810 0.03940 -0.05400
C 	C 	0.64550 0.93690 0.09290 -0.08400
C 	C 	0.74060 0.93190 0.15370 -0.06800
C 	C 	0.45900 0.93730 0.89520 -0.07400
C 	C 	0.41860 0.93310 0.81680 -0.06300
C 	C 	0.55430 0.93900 0.79330 -0.10600
C 	C 	0.59770 0.94450 0.87210 -0.06100
C 	C 	0.91390 0.93720 0.87100 -0.06800
C 	C 	0.94080 0.93550 0.79350 -0.09500
C 	C 	0.08180 0.93400 0.80700 -0.09800
C 	C 	0.05480 0.93790 0.88790 -0.12100
C 	C 	0.32850 0.93960 0.13420 -0.09100
C 	C 	0.18500 0.94460 0.13740 -0.09700
C 	C 	0.18290 0.94680 0.05550 -0.09600
C 	C 	0.32770 0.94110 0.05300 -0.08600
N 	N 	0.90690 0.94160 0.10020 -0.20700
N 	N 	0.75330 0.93940 0.00638 -0.34400
N 	N 	0.58710 0.93640 0.09080 -0.19200
N 	N 	0.73830 0.92890 0.18625 -0.36100
N 	N 	0.42980 0.93690 0.92290 -0.18300
N 	N 	0.36920 0.93220 0.79993 -0.36200
N 	N 	0.57650 0.93970 0.76300 -0.21900
N 	N 	0.64880 0.94810 0.88749 -0.34600
N 	N 	0.86460 0.93660 0.88850 -0.35600
N 	N 	0.90720 0.93450 0.76630 -0.18100
N 	N 	0.12900 0.93190 0.78720 -0.34600
N 	N 	0.08600 0.93700 0.91510 -0.20400
N 	N 	0.36690 0.93850 0.15750 -0.18200
N 	N 	0.14850 0.94710 0.16210 -0.21900
N 	N 	0.14290 0.95080 0.03190 -0.19900
N 	N 	0.37110 0.94150 0.03130 -0.20200
O 	O 	0.04190 0.94170 0.48401 -0.35400
K 	K 	0.81103 0.61490 0.73398 0.59800
Pr	Pr	0.99395 0.69189 0.18212 1.84800
Pr	Pr	0.99305 0.68105 0.50993 1.83300
Pt	Pt	0.00305 0.68565 0.34633 0.24700
Pt	Pt	0.24201 0.68836 0.09466 0.25900
Pt	Pt	0.75081 0.68633 0.08944 0.26600
Pt	Pt	0.49479 0.69233 0.34485 0.27300
C 	C 	0.90160 0.68700 0.34870 -0.09100
C 	C 	0.99770 0.68810 0.28940 -0.04100
C 	C 	0.10450 0.68690 0.34290 -0.09100
C 	C 	0.00940 0.68190 0.40370 -0.08000
C 	C 	0.29100 0.68730 0.14520 -0.07900
C 	C 	0.33140 0.68310 0.06680 -0.06800
C 	C 	0.19570 0.68900 0.04330 -0.11100
C 	C 	0.15230 0.69450 0.12210 -0.06700
C 	C 	0.83610 0.68720 0.12100 -0.07300
C 	C 	0.80920 0.68550 0.04350 -0.10300
C 	C 	0.66820 0.68400 0.05700 -0.08900
C 	C 	0.69520 0.68790 0.13790 -0.10900
C 	C 	0.42150 0.68960 0.38420 -0.09600
C 	C 	0.56500 0.69460 0.38740 -0.10100
C 	C 	0.56710 0.69680 0.30550 -0.10100
C 	C 	0.42230 0.69110 0.30300 -0.09200
N 	N 	0.84310 0.69160 0.35020 -0.21900
N 	N 	0.99670 0.68940 0.25638 -0.34700
N 	N 	0.16290 0.68640 0.34080 -0.19600
N 	N 	0.01170 0.67890 0.43625 -0.36900
N 	N 	0.32020 0.68690 0.17290 -0.18500
N 	N 	0.38080 0.68220 0.04993 -0.36400
N 	N 	0.17350 0.68970 0.01300 -0.22200
N 	N 	0.10120 0.69810 0.13749 -0.35300
N 	N 	0.88540 0.68660 0.13850 -0.35500
N 	N 	0.84280 0.68450 0.01630 -0.18200
N 	N 	0.62100 0.68190 0.03720 -0.34900
N 	N 	0.66400 0.68700 0.16510 -0.20600
N 	N 	0.38310 0.68850 0.40750 -0.18500
N 	N 	0.60150 0.69710 0.41210 -0.22100
N 	N 	0.60710 0.70080 0.28190 -0.20200
N 	N 	0.37890 0.69150 0.28130 -0.20800
O 	O 	0.70810 0.69170 0.73401 -0.35100
K 	K 	0.81103 0.11490 0.23398 0.59700
Pr	Pr	0.99395 0.19189 0.68212 1.84700
Pr	Pr	0.99305 0.18105 0.00993 1.83400
Pt	Pt	0.00305 0.18565 0.84633 0.24700
Pt	Pt	0.24201 0.18836 0.59466 0.25900
Pt	Pt	0.75081 0.18633 0.58944 0.26600
Pt	Pt	0.49479 0.19233 0.84485 0.27300
C 	C 	0.90160 0.18700 0.84870 -0.09200
C 	C 	0.99770 0.18810 0.78940 -0.04100
C 	C 	0.10450 0.18690 0.84290 -0.09100
C 	C 	0.00940 0.18190 0.90370 -0.08100
C 	C 	0.29100 0.18730 0.64520 -0.07900
C 	C 	0.33140 0.18310 0.56680 -0.06800
C 	C 	0.19570 0.18900 0.54330 -0.11200
C 	C 	0.15230 0.19450 0.62210 -0.06800
C 	C 	0.83610 0.18720 0.62100 -0.07300
C 	C 	0.80920 0.18550 0.54350 -0.10400
C 	C 	0.66820 0.18400 0.55700 -0.09000
C 	C 	0.69520 0.18790 0.63790 -0.10900
C 	C 	0.42150 0.18960 0.88420 -0.09600
C 	C 	0.56500 0.19460 0.88740 -0.10200
C 	C 	0.56710 0.19680 0.80550 -0.10100
C 	C 	0.42230 0.19110 0.80300 -0.09300
N 	N 	0.84310 0.19160 0.85020 -0.22000
N 	N 	0.99670 0.18940 0.75638 -0.34800
N 	N 	0.16290 0.18640 0.84080 -0.19600
N 	N 	0.01170 0.17890 0.93625 -0.37200
N 	N 	0.32020 0.18690 0.67290 -0.18500
N 	N 	0.38080 0.18220 0.54993 -0.36500
N 	N 	0.17350 0.18970 0.51300 -0.22400
N 	N 	0.10120 0.19810 0.63749 -0.35300
N 	N 	0.88540 0.18660 0.63850 -0.35600
N 	N 	0.84280 0.18450 0.51630 -0.18400
N 	N 	0.62100 0.18190 0.53720 -0.35100
N 	N 	0.66400 0.18700 0.66510 -0.20700
N 	N 	0.38310 0.18850 0.90750 -0.18600
N 	N 	0.60150 0.19710 0.91210 -0.22200
N 	N 	0.60710 0.20080 0.78190 -0.20200
N 	N 	0.37890 0.19150 0.78130 -0.20800
O 	O 	0.70810 0.19170 0.23401 -0.35200
K 	K 	0.31103 0.61490 0.23398 0.59700
Pr	Pr	0.49395 0.69189 0.68212 1.84100
Pr	Pr	0.49305 0.68105 0.00993 1.82600
Pt	Pt	0.50305 0.68565 0.84633 0.26600
Pt	Pt	0.74201 0.68836 0.59466 0.26000
Pt	Pt	0.25081 0.68633 0.58944 0.26500
Pt	Pt	0.99479 0.69233 0.84485 0.29400
C 	C 	0.40160 0.68700 0.84870 -0.10500
C 	C 	0.49770 0.68810 0.78940 -0.06000
C 	C 	0.60450 0.68690 0.84290 -0.09000
C 	C 	0.50940 0.68190 0.90370 -0.07400
C 	C 	0.79100 0.68730 0.64520 -0.07800
C 	C 	0.83140 0.68310 0.56680 -0.06600
C 	C 	0.69570 0.68900 0.54330 -0.11100
C 	C 	0.65230 0.69450 0.62210 -0.06600
C 	C 	0.33610 0.68720 0.62100 -0.07400
C 	C 	0.30920 0.68550 0.54350 -0.10600
C 	C 	0.16820 0.68400 0.55700 -0.09100
C 	C 	0.19520 0.68790 0.63790 -0.11100
C 	C 	0.92150 0.68960 0.88420 -0.09300
C 	C 	0.06500 0.69460 0.88740 -0.11800
C 	C 	0.06710 0.69680 0.80550 -0.11600
C 	C 	0.92230 0.69110 0.80300 -0.08800
N 	N 	0.34310 0.69160 0.85020 -0.21700
N 	N 	0.49670 0.68940 0.75638 -0.34900
N 	N 	0.66290 0.68640 0.84080 -0.19500
N 	N 	0.51170 0.67890 0.93625 -0.36600
N 	N 	0.82020 0.68690 0.67290 -0.18300
N 	N 	0.88080 0.68220 0.54993 -0.36200
N 	N 	0.67350 0.68970 0.51300 -0.22200
N 	N 	0.60120 0.69810 0.63749 -0.34800
N 	N 	0.38540 0.68660 0.63850 -0.35800
N 	N 	0.34280 0.68450 0.51630 -0.18700
N 	N 	0.12100 0.68190 0.53720 -0.35400
N 	N 	0.16400 0.68700 0.66510 -0.20800
N 	N 	0.88310 0.68850 0.90750 -0.18400
N 	N 	0.10150 0.69710 0.91210 -0.22100
N 	N 	0.10710 0.70080 0.78190 -0.20000
N 	N 	0.87890 0.69150 0.78130 -0.20600
O 	O 	0.20810 0.69170 0.23401 -0.35400
K 	K 	0.31103 0.11490 0.73398 0.59600
Pr	Pr	0.49395 0.19189 0.18212 1.84000
Pr	Pr	0.49305 0.18105 0.50993 1.82300
Pt	Pt	0.50305 0.18565 0.34633 0.26700
Pt	Pt	0.74201 0.18836 0.09466 0.26000
Pt	Pt	0.25081 0.18633 0.08944 0.26500
Pt	Pt	0.99479 0.19233 0.34485 0.29400
C 	C 	0.40160 0.18700 0.34870 -0.10500
C 	C 	0.49770 0.18810 0.28940 -0.06100
C 	C 	0.60450 0.18690 0.34290 -0.08900
C 	C 	0.50940 0.18190 0.40370 -0.07400
C 	C 	0.79100 0.18730 0.14520 -0.07800
C 	C 	0.83140 0.18310 0.06680 -0.06600
C 	C 	0.69570 0.18900 0.04330 -0.11000
C 	C 	0.65230 0.19450 0.12210 -0.06600
C 	C 	0.33610 0.18720 0.12100 -0.07400
C 	C 	0.30920 0.18550 0.04350 -0.10500
C 	C 	0.16820 0.18400 0.05700 -0.09100
C 	C 	0.19520 0.18790 0.13790 -0.11100
C 	C 	0.92150 0.18960 0.38420 -0.09300
C 	C 	0.06500 0.19460 0.38740 -0.11700
C 	C 	0.06710 0.19680 0.30550 -0.11600
C 	C 	0.92230 0.19110 0.30300 -0.08800
N 	N 	0.34310 0.19160 0.35020 -0.21700
N 	N 	0.49670 0.18940 0.25638 -0.35000
N 	N 	0.66290 0.18640 0.34080 -0.19600
N 	N 	0.51170 0.17890 0.43625 -0.36500
N 	N 	0.82020 0.18690 0.17290 -0.18300
N 	N 	0.88080 0.18220 0.04993 -0.36100
N 	N 	0.67350 0.18970 0.01300 -0.22000
N 	N 	0.60120 0.19810 0.13749 -0.34900
N 	N 	0.38540 0.18660 0.13850 -0.35800
N 	N 	0.34280 0.18450 0.01630 -0.18500
N 	N 	0.12100 0.18190 0.03720 -0.35300
N 	N 	0.16400 0.18700 0.16510 -0.20900
N 	N 	0.88310 0.18850 0.40750 -0.18400
N 	N 	0.10150 0.19710 0.41210 -0.22000
N 	N 	0.10710 0.20080 0.28190 -0.20100
N 	N 	0.87890 0.19150 0.28130 -0.20700
O 	O 	0.20810 0.19170 0.73401 -0.35500
K 	K 	0.68897 0.88510 0.73398 0.59800
Pr	Pr	0.50605 0.80811 0.18212 1.84100
Pr	Pr	0.50695 0.81895 0.50993 1.82500
Pt	Pt	0.49695 0.81435 0.34633 0.26600
Pt	Pt	0.25799 0.81164 0.09466 0.25900
Pt	Pt	0.74919 0.81367 0.08944 0.26600
Pt	Pt	0.00521 0.80767 0.34485 0.25400
C 	C 	0.59840 0.81300 0.34870 -0.10400
C 	C 	0.50230 0.81190 0.28940 -0.06000
C 	C 	0.39550 0.81310 0.34290 -0.08900
C 	C 	0.49060 0.81810 0.40370 -0.07300
C 	C 	0.20900 0.81270 0.14520 -0.08000
C 	C 	0.16860 0.81690 0.06680 -0.06900
C 	C 	0.30430 0.81100 0.04330 -0.11000
C 	C 	0.34770 0.80550 0.12210 -0.06500
C 	C 	0.66390 0.81280 0.12100 -0.07400
C 	C 	0.69080 0.81450 0.04350 -0.10400
C 	C 	0.83180 0.81600 0.05700 -0.08700
C 	C 	0.80480 0.81210 0.13790 -0.10800
C 	C 	0.07850 0.81040 0.38420 -0.09800
C 	C 	0.93500 0.80540 0.38740 -0.08500
C 	C 	0.93290 0.80320 0.30550 -0.08600
C 	C 	0.07770 0.80890 0.30300 -0.09600
N 	N 	0.65690 0.80840 0.35020 -0.21600
N 	N 	0.50330 0.81060 0.25638 -0.34900
N 	N 	0.33710 0.81360 0.34080 -0.19500
N 	N 	0.48830 0.82110 0.43625 -0.36300
N 	N 	0.17980 0.81310 0.17290 -0.18600
N 	N 	0.11920 0.81780 0.04993 -0.36600
N 	N 	0.32650 0.81030 0.01300 -0.22000
N 	N 	0.39880 0.80190 0.13749 -0.34800
N 	N 	0.61460 0.81340 0.13850 -0.35800
N 	N 	0.65720 0.81550 0.01630 -0.18400
N 	N 	0.87900 0.81810 0.03720 -0.34400
N 	N 	0.83600 0.81300 0.16510 -0.20400
N 	N 	0.11690 0.81150 0.40750 -0.18600
N 	N 	0.89850 0.80290 0.41210 -0.22200
N 	N 	0.89290 0.79920 0.28190 -0.20300
N 	N 	0.12110 0.80850 0.28130 -0.20800
O 	O 	0.79190 0.80830 0.73401 -0.34800
K 	K 	0.68897 0.38510 0.23398 0.59700
Pr	Pr	0.50605 0.30811 0.68212 1.84000
Pr	Pr	0.50695 0.31895 0.00993 1.82600
Pt	Pt	0.49695 0.31435 0.84633 0.26600
Pt	Pt	0.25799 0.31164 0.59466 0.25900
Pt	Pt	0.74919 0.31367 0.58944 0.26600
Pt	Pt	0.00521 0.30767 0.84485 0.25400
C 	C 	0.59840 0.31300 0.84870 -0.10400
C 	C 	0.50230 0.31190 0.78940 -0.06000
C 	C 	0.39550 0.31310 0.84290 -0.09000
C 	C 	0.49060 0.31810 0.90370 -0.07400
C 	C 	0.20900 0.31270 0.64520 -0.08000
C 	C 	0.16860 0.31690 0.56680 -0.07000
C 	C 	0.30430 0.31100 0.54330 -0.11100
C 	C 	0.34770 0.30550 0.62210 -0.06600
C 	C 	0.66390 0.31280 0.62100 -0.07400
C 	C 	0.69080 0.31450 0.54350 -0.10500
C 	C 	0.83180 0.31600 0.55700 -0.08800
C 	C 	0.80480 0.31210 0.63790 -0.10800
C 	C 	0.07850 0.31040 0.88420 -0.09900
C 	C 	0.93500 0.30540 0.88740 -0.08600
C 	C 	0.93290 0.30320 0.80550 -0.08600
C 	C 	0.07770 0.30890 0.80300 -0.09700
N 	N 	0.65690 0.30840 0.85020 -0.21700
N 	N 	0.50330 0.31060 0.75638 -0.34900
N 	N 	0.33710 0.31360 0.84080 -0.19600
N 	N 	0.48830 0.32110 0.93625 -0.36600
N 	N 	0.17980 0.31310 0.67290 -0.18600
N 	N 	0.11920 0.31780 0.54993 -0.36700
N 	N 	0.32650 0.31030 0.51300 -0.22200
N 	N 	0.39880 0.30190 0.63749 -0.34800
N 	N 	0.61460 0.31340 0.63850 -0.35800
N 	N 	0.65720 0.31550 0.51630 -0.18600
N 	N 	0.87900 0.31810 0.53720 -0.34600
N 	N 	0.83600 0.31300 0.66510 -0.20400
N 	N 	0.11690 0.31150 0.90750 -0.18700
N 	N 	0.89850 0.30290 0.91210 -0.22300
N 	N 	0.89290 0.29920 0.78190 -0.20300
N 	N 	0.12110 0.30850 0.78130 -0.20900
O 	O 	0.79190 0.30830 0.23401 -0.34900
K 	K 	0.18897 0.88510 0.23398 0.59700
Pr	Pr	0.00605 0.80811 0.68212 1.83500
Pr	Pr	0.00695 0.81895 0.00993 1.81900
Pt	Pt	0.99695 0.81435 0.84633 0.28600
Pt	Pt	0.75799 0.81164 0.59466 0.26000
Pt	Pt	0.24919 0.81367 0.58944 0.26500
Pt	Pt	0.50521 0.80767 0.84485 0.27300
C 	C 	0.09840 0.81300 0.84870 -0.11700
C 	C 	0.00230 0.81190 0.78940 -0.07800
C 	C 	0.89550 0.81310 0.84290 -0.08800
C 	C 	0.99060 0.81810 0.90370 -0.06700
C 	C 	0.70900 0.81270 0.64520 -0.07800
C 	C 	0.66860 0.81690 0.56680 -0.06800
C 	C 	0.80430 0.81100 0.54330 -0.10900
C 	C 	0.84770 0.80550 0.62210 -0.06400
C 	C 	0.16390 0.81280 0.62100 -0.07600
C 	C 	0.19080 0.81450 0.54350 -0.10700
C 	C 	0.33180 0.81600 0.55700 -0.08900
C 	C 	0.30480 0.81210 0.63790 -0.11000
C 	C 	0.57850 0.81040 0.88420 -0.09600
C 	C 	0.43500 0.80540 0.88740 -0.10200
C 	C 	0.43290 0.80320 0.80550 -0.10100
C 	C 	0.57770 0.80890 0.80300 -0.09200
N 	N 	0.15690 0.80840 0.85020 -0.21400
N 	N 	0.00330 0.81060 0.75638 -0.35000
N 	N 	0.83710 0.81360 0.84080 -0.19500
N 	N 	0.98830 0.82110 0.93625 -0.35900
N 	N 	0.67980 0.81310 0.67290 -0.18400
N 	N 	0.61920 0.81780 0.54993 -0.36400
N 	N 	0.82650 0.81030 0.51300 -0.22000
N 	N 	0.89880 0.80190 0.63749 -0.34300
N 	N 	0.11460 0.81340 0.63850 -0.36000
N 	N 	0.15720 0.81550 0.51630 -0.18800
N 	N 	0.37900 0.81810 0.53720 -0.35000
N 	N 	0.33600 0.81300 0.66510 -0.20600
N 	N 	0.61690 0.81150 0.90750 -0.18600
N 	N 	0.39850 0.80290 0.91210 -0.22200
N 	N 	0.39290 0.79920 0.78190 -0.20200
N 	N 	0.62110 0.80850 0.78130 -0.20700
O 	O 	0.29190 0.80830 0.23401 -0.35100
K 	K 	0.18897 0.38510 0.73398 0.59600
Pr	Pr	0.00605 0.30811 0.18212 1.83400
Pr	Pr	0.00695 0.31895 0.50993 1.81600
Pt	Pt	0.99695 0.31435 0.34633 0.28700
Pt	Pt	0.75799 0.31164 0.09466 0.26000
Pt	Pt	0.24919 0.31367 0.08944 0.26500
Pt	Pt	0.50521 0.30767 0.34485 0.27300
C 	C 	0.09840 0.31300 0.34870 -0.11800
C 	C 	0.00230 0.31190 0.28940 -0.07900
C 	C 	0.89550 0.31310 0.34290 -0.08800
C 	C 	0.99060 0.31810 0.40370 -0.06600
C 	C 	0.70900 0.31270 0.14520 -0.07900
C 	C 	0.66860 0.31690 0.06680 -0.06800
C 	C 	0.80430 0.31100 0.04330 -0.10800
C 	C 	0.84770 0.30550 0.12210 -0.06400
C 	C 	0.16390 0.31280 0.12100 -0.07600
C 	C 	0.19080 0.31450 0.04350 -0.10600
C 	C 	0.33180 0.31600 0.05700 -0.08900
C 	C 	0.30480 0.31210 0.13790 -0.11000
C 	C 	0.57850 0.31040 0.38420 -0.09600
C 	C 	0.43500 0.30540 0.38740 -0.10200
C 	C 	0.43290 0.30320 0.30550 -0.10100
C 	C 	0.57770 0.30890 0.30300 -0.09200
N 	N 	0.15690 0.30840 0.35020 -0.21500
N 	N 	0.00330 0.31060 0.25638 -0.35000
N 	N 	0.83710 0.31360 0.34080 -0.19500
N 	N 	0.98830 0.32110 0.43625 -0.35800
N 	N 	0.67980 0.31310 0.17290 -0.18500
N 	N 	0.61920 0.31780 0.04993 -0.36400
N 	N 	0.82650 0.31030 0.01300 -0.21900
N 	N 	0.89880 0.30190 0.13749 -0.34300
N 	N 	0.11460 0.31340 0.13850 -0.36000
N 	N 	0.15720 0.31550 0.01630 -0.18700
N 	N 	0.37900 0.31810 0.03720 -0.34900
N 	N 	0.33600 0.31300 0.16510 -0.20700
N 	N 	0.61690 0.31150 0.40750 -0.18500
N 	N 	0.39850 0.30290 0.41210 -0.22100
N 	N 	0.39290 0.29920 0.28190 -0.20200
N 	N 	0.62110 0.30850 0.28130 -0.20800
O 	O 	0.29190 0.30830 0.73401 -0.35200
K 	K 	0.50000 0.50000 0.14427 0.58700
K 	K 	0.50000 0.50000 0.54530 0.62100
K 	K 	0.50000 0.00000 0.64427 0.58300
K 	K 	0.50000 0.00000 0.04530 0.61800
K 	K 	-0.00000 0.50000 0.64427 0.58300
K 	K 	0.00000 0.50000 0.04530 0.61800
K 	K 	0.00000 0.00000 0.14427 0.57900
K 	K 	0.00000 0.00000 0.54530 0.61300
K 	K 	0.75000 0.75000 0.39427 0.58800
K 	K 	0.75000 0.75000 0.79530 0.62200
K 	K 	0.75000 0.25000 0.89427 0.58700
K 	K 	0.75000 0.25000 0.29530 0.62200
K 	K 	0.25000 0.75000 0.89427 0.58600
K 	K 	0.25000 0.75000 0.29530 0.62100
K 	K 	0.25000 0.25000 0.39427 0.58700
K 	K 	0.25000 0.25000 0.79530 0.62100
