data_crystal

_cell_length_a 10.23700
_cell_length_b 11.25790
_cell_length_c 22.18980
_cell_angle_alpha 90.00000
_cell_angle_beta  97.27000
_cell_angle_gamma 90.00000

_symmetry_space_group_name_	'P 1'
_symmetry_space_group_name_H-M	'P 1'

loop_
_symmetry_equiv_pos_as_xyz
  x,y,z

loop_
_atom_site_label
_atom_site_type_symbol
_atom_site_fract_x
_atom_site_fract_y
_atom_site_fract_z
_atom_site_charge
Eu	Eu	0.61029 0.68452 0.72588 1.96900
Eu	Eu	0.74058 0.58975 0.43592 1.73900
Eu	Eu	0.88971 0.18452 0.77412 1.96300
Eu	Eu	0.75942 0.08975 0.06408 1.72800
Eu	Eu	0.38971 0.31548 0.27412 1.96800
Eu	Eu	0.25942 0.41025 0.56408 1.73800
Eu	Eu	0.11029 0.81548 0.22588 1.96300
Eu	Eu	0.24058 0.91025 0.93592 1.72800
H 	H 	0.11850 0.61900 0.66300 0.13900
H 	H 	0.15640 0.96430 0.66440 0.13200
H 	H 	0.01460 0.57660 0.79050 0.27500
H 	H 	0.11820 0.66830 0.77250 0.26600
H 	H 	0.98500 0.71310 0.79220 0.27200
H 	H 	0.27840 0.77120 0.58330 0.26200
H 	H 	0.27150 0.90960 0.57570 0.25200
H 	H 	0.40830 0.84640 0.59030 0.25800
H 	H 	0.38150 0.11900 0.83700 0.13900
H 	H 	0.34360 0.46430 0.83560 0.13400
H 	H 	0.48540 0.07660 0.70950 0.27200
H 	H 	0.38180 0.16830 0.72750 0.26300
H 	H 	0.51500 0.21310 0.70780 0.26800
H 	H 	0.22160 0.27120 0.91670 0.26400
H 	H 	0.22850 0.40960 0.92430 0.25400
H 	H 	0.09170 0.34640 0.90970 0.26000
H 	H 	0.88150 0.38100 0.33700 0.13900
H 	H 	0.84360 0.03570 0.33560 0.13200
H 	H 	0.98540 0.42340 0.20950 0.27500
H 	H 	0.88180 0.33170 0.22750 0.26600
H 	H 	0.01500 0.28690 0.20780 0.27200
H 	H 	0.72160 0.22880 0.41670 0.26200
H 	H 	0.72850 0.09040 0.42430 0.25200
H 	H 	0.59170 0.15360 0.40970 0.25800
H 	H 	0.61850 0.88100 0.16300 0.13900
H 	H 	0.65640 0.53570 0.16440 0.13400
H 	H 	0.51460 0.92340 0.29050 0.27200
H 	H 	0.61820 0.83170 0.27250 0.26300
H 	H 	0.48500 0.78690 0.29220 0.26800
H 	H 	0.77840 0.72880 0.08330 0.26400
H 	H 	0.77150 0.59040 0.07570 0.25400
H 	H 	0.90830 0.65360 0.09030 0.26000
C 	C 	0.82680 0.64790 0.62389 -0.07500
C 	C 	0.94980 0.62880 0.60640 -0.03200
C 	C 	0.96400 0.64670 0.70685 0.34700
C 	C 	0.69350 0.65100 0.58817 0.43200
C 	C 	0.00710 0.61440 0.54882 0.41600
C 	C 	0.02590 0.65160 0.77120 -0.85400
C 	C 	0.24080 0.92320 0.74847 -0.04300
C 	C 	0.34770 0.85020 0.76200 -0.08600
C 	C 	0.30990 0.85840 0.66357 0.31900
C 	C 	0.15770 0.00150 0.78348 0.40300
C 	C 	0.41890 0.80980 0.82080 0.41800
C 	C 	0.31770 0.84530 0.59740 -0.81900
C 	C 	0.76420 0.45190 0.78508 0.25000
C 	C 	0.70490 0.40680 0.72154 0.25000
C 	C 	0.67320 0.14790 0.87611 -0.07400
C 	C 	0.55020 0.12880 0.89360 -0.03500
C 	C 	0.53600 0.14670 0.79315 0.34200
C 	C 	0.80650 0.15100 0.91183 0.43100
C 	C 	0.49290 0.11440 0.95118 0.42200
C 	C 	0.47410 0.15160 0.72880 -0.84200
C 	C 	0.25920 0.42320 0.75153 -0.03700
C 	C 	0.15230 0.35020 0.73800 -0.08800
C 	C 	0.19010 0.35840 0.83643 0.32100
C 	C 	0.34230 0.50150 0.71652 0.39900
C 	C 	0.08110 0.30980 0.67920 0.42300
C 	C 	0.18230 0.34530 0.90260 -0.82300
C 	C 	0.73580 0.95190 0.71492 0.25200
C 	C 	0.79510 0.90680 0.77846 0.24900
C 	C 	0.17320 0.35210 0.37611 -0.07500
C 	C 	0.05020 0.37120 0.39360 -0.03200
C 	C 	0.03600 0.35330 0.29315 0.34700
C 	C 	0.30650 0.34900 0.41183 0.43200
C 	C 	0.99290 0.38560 0.45118 0.41600
C 	C 	0.97410 0.34840 0.22880 -0.85400
C 	C 	0.75920 0.07680 0.25153 -0.04300
C 	C 	0.65230 0.14980 0.23800 -0.08600
C 	C 	0.69010 0.14160 0.33643 0.31900
C 	C 	0.84230 0.99850 0.21652 0.40300
C 	C 	0.58110 0.19020 0.17920 0.41800
C 	C 	0.68230 0.15470 0.40260 -0.81900
C 	C 	0.23580 0.54810 0.21492 0.25000
C 	C 	0.29510 0.59320 0.27846 0.25000
C 	C 	0.32680 0.85210 0.12389 -0.07400
C 	C 	0.44980 0.87120 0.10640 -0.03500
C 	C 	0.46400 0.85330 0.20685 0.34200
C 	C 	0.19350 0.84900 0.08817 0.43100
C 	C 	0.50710 0.88560 0.04882 0.42200
C 	C 	0.52590 0.84840 0.27120 -0.84200
C 	C 	0.74080 0.57680 0.24847 -0.03700
C 	C 	0.84770 0.64980 0.26200 -0.08800
C 	C 	0.80990 0.64160 0.16357 0.32100
C 	C 	0.65770 0.49850 0.28348 0.39900
C 	C 	0.91890 0.69020 0.32080 0.42300
C 	C 	0.81770 0.65470 0.09740 -0.82300
C 	C 	0.26420 0.04810 0.28508 0.25200
C 	C 	0.20490 0.09320 0.22154 0.24900
N 	N 	0.83700 0.65930 0.68633 -0.25100
N 	N 	0.03460 0.62880 0.65991 -0.25100
N 	N 	0.39140 0.81040 0.70895 -0.24600
N 	N 	0.21850 0.92590 0.68577 -0.24700
N 	N 	0.66300 0.15930 0.81367 -0.25000
N 	N 	0.46540 0.12880 0.84009 -0.24900
N 	N 	0.10860 0.31040 0.79105 -0.24500
N 	N 	0.28150 0.42590 0.81423 -0.24800
N 	N 	0.16300 0.34070 0.31367 -0.25100
N 	N 	0.96540 0.37120 0.34009 -0.25100
N 	N 	0.60860 0.18960 0.29105 -0.24600
N 	N 	0.78150 0.07410 0.31423 -0.24700
N 	N 	0.33700 0.84070 0.18633 -0.25000
N 	N 	0.53460 0.87120 0.15991 -0.24900
N 	N 	0.89140 0.68960 0.20895 -0.24500
N 	N 	0.71850 0.57410 0.18577 -0.24800
O 	O 	0.59770 0.67540 0.61647 -0.49300
O 	O 	0.68000 0.62730 0.53256 -0.53900
O 	O 	0.94000 0.63790 0.49930 -0.45900
O 	O 	0.12610 0.58370 0.55438 -0.47600
O 	O 	0.06990 0.05720 0.75146 -0.45900
O 	O 	0.18500 0.01130 0.84006 -0.49700
O 	O 	0.37550 0.83250 0.86921 -0.49500
O 	O 	0.52440 0.75250 0.81820 -0.43100
O 	O 	0.84270 0.38390 0.81563 -0.41300
O 	O 	0.72890 0.55290 0.80080 -0.40200
O 	O 	0.63330 0.47740 0.68848 -0.41000
O 	O 	0.73100 0.30200 0.70822 -0.41400
O 	O 	0.90230 0.17540 0.88353 -0.49400
O 	O 	0.82000 0.12730 0.96744 -0.53700
O 	O 	0.56000 0.13790 0.00070 -0.46200
O 	O 	0.37390 0.08370 0.94562 -0.47400
O 	O 	0.43010 0.55720 0.74854 -0.46200
O 	O 	0.31500 0.51130 0.65994 -0.50000
O 	O 	0.12450 0.33250 0.63079 -0.49600
O 	O 	0.97560 0.25250 0.68180 -0.43400
O 	O 	0.65730 0.88390 0.68437 -0.41300
O 	O 	0.77110 0.05290 0.69920 -0.40300
O 	O 	0.86670 0.97740 0.81152 -0.40900
O 	O 	0.76900 0.80200 0.79178 -0.41500
O 	O 	0.40230 0.32460 0.38353 -0.49300
O 	O 	0.32000 0.37270 0.46744 -0.53900
O 	O 	0.06000 0.36210 0.50070 -0.45900
O 	O 	0.87390 0.41630 0.44562 -0.47600
O 	O 	0.93010 0.94280 0.24854 -0.45900
O 	O 	0.81500 0.98870 0.15994 -0.49700
O 	O 	0.62450 0.16750 0.13079 -0.49500
O 	O 	0.47560 0.24750 0.18180 -0.43100
O 	O 	0.15730 0.61610 0.18437 -0.41300
O 	O 	0.27110 0.44710 0.19920 -0.40200
O 	O 	0.36670 0.52260 0.31152 -0.41000
O 	O 	0.26900 0.69800 0.29178 -0.41400
O 	O 	0.09770 0.82460 0.11647 -0.49400
O 	O 	0.18000 0.87270 0.03256 -0.53700
O 	O 	0.44000 0.86210 0.99930 -0.46200
O 	O 	0.62610 0.91630 0.05438 -0.47400
O 	O 	0.56990 0.44280 0.25146 -0.46200
O 	O 	0.68500 0.48870 0.34006 -0.50000
O 	O 	0.87550 0.66750 0.36921 -0.49600
O 	O 	0.02440 0.74750 0.31820 -0.43400
O 	O 	0.34270 0.11610 0.31563 -0.41300
O 	O 	0.22890 0.94710 0.30080 -0.40300
O 	O 	0.13330 0.02260 0.18848 -0.40900
O 	O 	0.23100 0.19800 0.20822 -0.41500
