data_crystal

_cell_length_a 22.31750
_cell_length_b 22.31750
_cell_length_c 21.04290
_cell_angle_alpha 90.00000
_cell_angle_beta  90.00000
_cell_angle_gamma 90.00000

_symmetry_space_group_name_	'P 1'
_symmetry_space_group_name_H-M	'P 1'

loop_
_symmetry_equiv_pos_as_xyz
  x,y,z

loop_
_atom_site_label
_atom_site_type_symbol
_atom_site_fract_x
_atom_site_fract_y
_atom_site_fract_z
_atom_site_charge
N 	N 	0.97343 0.46622 0.09350 -0.24900
N 	N 	0.96930 0.50470 0.14340 -0.21700
H 	H 	0.98460 0.53880 0.13830 0.08000
N 	N 	0.82342 0.31481 0.24780 -0.24800
N 	N 	0.87130 0.30970 0.28720 -0.22300
H 	H 	0.03570 0.38360 0.93580 0.09500
C 	C 	0.95060 0.41440 0.11540 0.24100
C 	C 	0.93120 0.42070 0.17840 -0.16500
C 	C 	0.94450 0.47950 0.19520 0.25700
C 	C 	0.93450 0.51290 0.25530 -0.72900
H 	H 	0.95010 0.55270 0.25110 0.21700
H 	H 	0.89220 0.51480 0.26330 0.21900
H 	H 	0.95400 0.49300 0.29000 0.22000
C 	C 	0.94950 0.35820 0.07730 -0.71600
H 	H 	0.96550 0.36550 0.03570 0.19700
H 	H 	0.97290 0.32810 0.09820 0.22500
H 	H 	0.90880 0.34480 0.07360 0.20600
C 	C 	0.91730 0.34520 0.26960 0.19800
C 	C 	0.89860 0.37570 0.21690 -0.12200
C 	C 	0.10520 0.40990 0.04620 0.22400
C 	C 	0.12520 0.44940 0.09890 -0.66500
H 	H 	0.10440 0.48690 0.09580 0.16000
H 	H 	0.16760 0.45630 0.09610 0.19200
H 	H 	0.11600 0.43070 0.13870 0.19400
C 	C 	0.09570 0.27490 0.94470 -0.74100
H 	H 	0.06780 0.27680 0.91000 0.20700
H 	H 	0.08520 0.24230 0.97220 0.22300
H 	H 	0.13540 0.26880 0.92840 0.21800
N 	N 	0.47343 0.96622 0.59350 -0.24600
N 	N 	0.46930 0.00470 0.64340 -0.24700
H 	H 	0.48460 0.03880 0.63830 0.07700
N 	N 	0.32342 0.81481 0.74780 -0.25000
N 	N 	0.37130 0.80970 0.78720 -0.23300
H 	H 	0.53570 0.88360 0.43580 0.09700
C 	C 	0.45060 0.91440 0.61540 0.24400
C 	C 	0.43120 0.92070 0.67840 -0.18700
C 	C 	0.44450 0.97950 0.69520 0.32100
C 	C 	0.43450 0.01290 0.75530 -0.88700
H 	H 	0.45010 0.05270 0.75110 0.25500
H 	H 	0.39220 0.01480 0.76330 0.25700
H 	H 	0.45400 0.99300 0.79000 0.27300
C 	C 	0.44950 0.85820 0.57730 -0.72200
H 	H 	0.46550 0.86550 0.53570 0.20000
H 	H 	0.47290 0.82810 0.59820 0.22100
H 	H 	0.40880 0.84480 0.57360 0.21200
C 	C 	0.41730 0.84520 0.76960 0.23600
C 	C 	0.39860 0.87570 0.71690 -0.13600
C 	C 	0.60520 0.90990 0.54620 0.22600
C 	C 	0.62520 0.94940 0.59890 -0.68300
H 	H 	0.60440 0.98690 0.59580 0.17900
H 	H 	0.66760 0.95630 0.59610 0.20600
H 	H 	0.61600 0.93070 0.63870 0.20500
C 	C 	0.59570 0.77490 0.44470 -0.69100
H 	H 	0.56780 0.77680 0.41000 0.19900
H 	H 	0.58520 0.74230 0.47220 0.20300
H 	H 	0.63540 0.76880 0.42840 0.20200
N 	N 	0.52657 0.53378 0.59350 -0.25400
N 	N 	0.53070 0.49530 0.64340 -0.21600
H 	H 	0.51540 0.46120 0.63830 0.07400
N 	N 	0.67658 0.68519 0.74780 -0.25100
N 	N 	0.62870 0.69030 0.78720 -0.23500
H 	H 	0.46430 0.61640 0.43580 0.09400
C 	C 	0.54940 0.58560 0.61540 0.22900
C 	C 	0.56880 0.57930 0.67840 -0.15300
C 	C 	0.55550 0.52050 0.69520 0.24300
C 	C 	0.56550 0.48710 0.75530 -0.71100
H 	H 	0.54990 0.44730 0.75110 0.20800
H 	H 	0.60780 0.48520 0.76330 0.21400
H 	H 	0.54600 0.50700 0.79000 0.21000
C 	C 	0.55050 0.64180 0.57730 -0.70400
H 	H 	0.53450 0.63450 0.53570 0.19300
H 	H 	0.52710 0.67190 0.59820 0.21600
H 	H 	0.59120 0.65520 0.57360 0.20600
C 	C 	0.58270 0.65480 0.76960 0.24400
C 	C 	0.60140 0.62430 0.71690 -0.15100
C 	C 	0.39480 0.59010 0.54620 0.21900
C 	C 	0.37480 0.55060 0.59890 -0.66500
H 	H 	0.39560 0.51310 0.59580 0.16900
H 	H 	0.33240 0.54370 0.59610 0.19600
H 	H 	0.38400 0.56930 0.63870 0.19800
C 	C 	0.40430 0.72510 0.44470 -0.68800
H 	H 	0.43220 0.72320 0.41000 0.19700
H 	H 	0.41480 0.75770 0.47220 0.20300
H 	H 	0.36460 0.73120 0.42840 0.20000
N 	N 	0.02657 0.03378 0.09350 -0.26400
N 	N 	0.03070 0.99530 0.14340 -0.17600
H 	H 	0.01540 0.96120 0.13830 0.06100
N 	N 	0.17658 0.18519 0.24780 -0.25300
N 	N 	0.12870 0.19030 0.28720 -0.24600
H 	H 	0.96430 0.11640 0.93580 0.10600
C 	C 	0.04940 0.08560 0.11540 0.18300
C 	C 	0.06880 0.07930 0.17840 -0.09600
C 	C 	0.05550 0.02050 0.19520 0.13000
C 	C 	0.06550 0.98710 0.25530 -0.46600
H 	H 	0.04990 0.94730 0.25110 0.13600
H 	H 	0.10780 0.98520 0.26330 0.14800
H 	H 	0.04600 0.00700 0.29000 0.11700
C 	C 	0.05050 0.14180 0.07730 -0.62200
H 	H 	0.03450 0.13450 0.03570 0.15100
H 	H 	0.02710 0.17190 0.09820 0.18000
H 	H 	0.09120 0.15520 0.07360 0.17400
C 	C 	0.08270 0.15480 0.26960 0.28900
C 	C 	0.10140 0.12430 0.21690 -0.19300
C 	C 	0.89480 0.09010 0.04620 0.23800
C 	C 	0.87480 0.05060 0.09890 -0.68600
H 	H 	0.89560 0.01310 0.09580 0.17400
H 	H 	0.83240 0.04370 0.09610 0.19800
H 	H 	0.88400 0.06930 0.13870 0.20700
C 	C 	0.90430 0.22510 0.94470 -0.77400
H 	H 	0.93220 0.22320 0.91000 0.22800
H 	H 	0.91480 0.25770 0.97220 0.24000
H 	H 	0.86460 0.23120 0.92840 0.23000
N 	N 	0.28378 0.22343 0.34350 -0.25400
N 	N 	0.24530 0.21930 0.39340 -0.21400
H 	H 	0.21120 0.23460 0.38830 0.07100
N 	N 	0.43519 0.07342 0.49780 -0.25300
N 	N 	0.44030 0.12130 0.53720 -0.23300
H 	H 	0.36640 0.28570 0.18580 0.09200
C 	C 	0.33560 0.20060 0.36540 0.22700
C 	C 	0.32930 0.18120 0.42840 -0.15200
C 	C 	0.27050 0.19450 0.44520 0.23300
C 	C 	0.23710 0.18450 0.50530 -0.68500
H 	H 	0.19730 0.20010 0.50110 0.19500
H 	H 	0.23520 0.14220 0.51330 0.20000
H 	H 	0.25700 0.20400 0.54000 0.19800
C 	C 	0.39180 0.19950 0.32730 -0.70200
H 	H 	0.38450 0.21550 0.28570 0.19200
H 	H 	0.42190 0.22290 0.34820 0.21500
H 	H 	0.40520 0.15880 0.32360 0.20400
C 	C 	0.40480 0.16730 0.51960 0.23600
C 	C 	0.37430 0.14860 0.46690 -0.14700
C 	C 	0.34010 0.35520 0.29620 0.21600
C 	C 	0.30060 0.37520 0.34890 -0.66000
H 	H 	0.26310 0.35440 0.34580 0.16600
H 	H 	0.29370 0.41760 0.34610 0.19400
H 	H 	0.31930 0.36600 0.38870 0.19600
C 	C 	0.47510 0.34570 0.19470 -0.67500
H 	H 	0.47320 0.31780 0.16000 0.19000
H 	H 	0.50770 0.33520 0.22220 0.19800
H 	H 	0.48120 0.38540 0.17840 0.19300
N 	N 	0.78378 0.72343 0.84350 -0.25600
N 	N 	0.74530 0.71930 0.89340 -0.22500
H 	H 	0.71120 0.73460 0.88830 0.08100
N 	N 	0.93519 0.57342 0.99780 -0.22900
N 	N 	0.94030 0.62130 0.03720 -0.23600
H 	H 	0.86640 0.78570 0.68580 0.09200
C 	C 	0.83560 0.70060 0.86540 0.24700
C 	C 	0.82930 0.68120 0.92840 -0.18100
C 	C 	0.77050 0.69450 0.94520 0.29000
C 	C 	0.73710 0.68450 0.00530 -0.78500
H 	H 	0.69730 0.70010 0.00110 0.22000
H 	H 	0.73520 0.64220 0.01330 0.22500
H 	H 	0.75700 0.70400 0.04000 0.22600
C 	C 	0.89180 0.69950 0.82730 -0.73500
H 	H 	0.88450 0.71550 0.78570 0.20400
H 	H 	0.92190 0.72290 0.84820 0.23100
H 	H 	0.90520 0.65880 0.82360 0.21800
C 	C 	0.90480 0.66730 0.01960 0.19700
C 	C 	0.87430 0.64860 0.96690 -0.10400
C 	C 	0.84010 0.85520 0.79620 0.21000
C 	C 	0.80060 0.87520 0.84890 -0.66700
H 	H 	0.76310 0.85440 0.84580 0.17200
H 	H 	0.79370 0.91760 0.84610 0.20300
H 	H 	0.81930 0.86600 0.88870 0.20300
C 	C 	0.97510 0.84570 0.69470 -0.54900
H 	H 	0.97320 0.81780 0.66000 0.16400
H 	H 	0.00770 0.83520 0.72220 0.14300
H 	H 	0.98120 0.88540 0.67840 0.16600
N 	N 	0.21622 0.77657 0.84350 -0.25500
N 	N 	0.25470 0.78070 0.89340 -0.22600
H 	H 	0.28880 0.76540 0.88830 0.08100
N 	N 	0.06481 0.92658 0.99780 -0.23300
N 	N 	0.05970 0.87870 0.03720 -0.23300
H 	H 	0.13360 0.71430 0.68580 0.09600
C 	C 	0.16440 0.79940 0.86540 0.24000
C 	C 	0.17070 0.81880 0.92840 -0.18400
C 	C 	0.22950 0.80550 0.94520 0.29500
C 	C 	0.26290 0.81550 0.00530 -0.79400
H 	H 	0.30270 0.79990 0.00110 0.22200
H 	H 	0.26480 0.85780 0.01330 0.23000
H 	H 	0.24300 0.79600 0.04000 0.22800
C 	C 	0.10820 0.80050 0.82730 -0.70900
H 	H 	0.11550 0.78450 0.78570 0.19300
H 	H 	0.07810 0.77710 0.84820 0.21400
H 	H 	0.09480 0.84120 0.82360 0.20400
C 	C 	0.09520 0.83270 0.01960 0.17200
C 	C 	0.12570 0.85140 0.96690 -0.09200
C 	C 	0.15990 0.64480 0.79620 0.23200
C 	C 	0.19940 0.62480 0.84890 -0.68900
H 	H 	0.23690 0.64560 0.84580 0.17700
H 	H 	0.20630 0.58240 0.84610 0.20600
H 	H 	0.18070 0.63400 0.88870 0.20800
C 	C 	0.02490 0.65430 0.69470 -0.82100
H 	H 	0.02680 0.68220 0.66000 0.23000
H 	H 	0.99230 0.66480 0.72220 0.26200
H 	H 	0.01880 0.61460 0.67840 0.23300
N 	N 	0.71622 0.27657 0.34350 -0.25400
N 	N 	0.75470 0.28070 0.39340 -0.21600
H 	H 	0.78880 0.26540 0.38830 0.07500
N 	N 	0.56481 0.42658 0.49780 -0.25100
N 	N 	0.55970 0.37870 0.53720 -0.23400
H 	H 	0.63360 0.21430 0.18580 0.09200
C 	C 	0.66440 0.29940 0.36540 0.22900
C 	C 	0.67070 0.31880 0.42840 -0.15400
C 	C 	0.72950 0.30550 0.44520 0.24300
C 	C 	0.76290 0.31550 0.50530 -0.71000
H 	H 	0.80270 0.29990 0.50110 0.20800
H 	H 	0.76480 0.35780 0.51330 0.21300
H 	H 	0.74300 0.29600 0.54000 0.20800
C 	C 	0.60820 0.30050 0.32730 -0.70400
H 	H 	0.61550 0.28450 0.28570 0.19300
H 	H 	0.57810 0.27710 0.34820 0.21600
H 	H 	0.59480 0.34120 0.32360 0.20500
C 	C 	0.59520 0.33270 0.51960 0.23900
C 	C 	0.62570 0.35140 0.46690 -0.14800
C 	C 	0.65990 0.14480 0.29620 0.22300
C 	C 	0.69940 0.12480 0.34890 -0.66900
H 	H 	0.73690 0.14560 0.34580 0.17000
H 	H 	0.70630 0.08240 0.34610 0.19600
H 	H 	0.68070 0.13400 0.38870 0.19800
C 	C 	0.52490 0.15430 0.19470 -0.68400
H 	H 	0.52680 0.18220 0.16000 0.19200
H 	H 	0.49230 0.16480 0.22220 0.20000
H 	H 	0.51880 0.11460 0.17840 0.19600
N 	N 	0.02657 0.53378 0.90650 -0.25200
N 	N 	0.03070 0.49530 0.85660 -0.21300
H 	H 	0.01540 0.46120 0.86170 0.07000
N 	N 	0.17658 0.68519 0.75220 -0.25400
N 	N 	0.12870 0.69030 0.71280 -0.24300
H 	H 	0.96430 0.61640 0.06420 0.09700
C 	C 	0.04940 0.58560 0.88460 0.22100
C 	C 	0.06880 0.57930 0.82160 -0.14300
C 	C 	0.05550 0.52050 0.80480 0.22600
C 	C 	0.06550 0.48710 0.74470 -0.67700
H 	H 	0.04990 0.44730 0.74890 0.19200
H 	H 	0.10780 0.48520 0.73670 0.20100
H 	H 	0.04600 0.50700 0.71000 0.19200
C 	C 	0.05050 0.64180 0.92270 -0.69800
H 	H 	0.03450 0.63450 0.96430 0.19400
H 	H 	0.02710 0.67190 0.90180 0.20900
H 	H 	0.09120 0.65520 0.92640 0.20800
C 	C 	0.08270 0.65480 0.73040 0.27600
C 	C 	0.10140 0.62430 0.78310 -0.17300
C 	C 	0.89480 0.59010 0.95380 0.21700
C 	C 	0.87480 0.55060 0.90110 -0.67100
H 	H 	0.89560 0.51310 0.90420 0.18000
H 	H 	0.83240 0.54370 0.90390 0.20300
H 	H 	0.88400 0.56930 0.86130 0.20300
C 	C 	0.90430 0.72510 0.05530 -0.64500
H 	H 	0.93220 0.72320 0.09000 0.19000
H 	H 	0.91480 0.75770 0.02780 0.18700
H 	H 	0.86460 0.73120 0.07160 0.18500
N 	N 	0.52657 0.03378 0.40650 -0.26000
N 	N 	0.53070 0.99530 0.35660 -0.18200
H 	H 	0.51540 0.96120 0.36170 0.07000
N 	N 	0.67658 0.18519 0.25220 -0.25300
N 	N 	0.62870 0.19030 0.21280 -0.23400
H 	H 	0.46430 0.11640 0.56420 0.09100
C 	C 	0.54940 0.08560 0.38460 0.21300
C 	C 	0.56880 0.07930 0.32160 -0.11800
C 	C 	0.55550 0.02050 0.30480 0.15400
C 	C 	0.56550 0.98710 0.24470 -0.50500
H 	H 	0.54990 0.94730 0.24890 0.15000
H 	H 	0.60780 0.98520 0.23670 0.15900
H 	H 	0.54600 0.00700 0.21000 0.13300
C 	C 	0.55050 0.14180 0.42270 -0.68600
H 	H 	0.53450 0.13450 0.46430 0.18700
H 	H 	0.52710 0.17190 0.40180 0.21000
H 	H 	0.59120 0.15520 0.42640 0.19900
C 	C 	0.58270 0.15480 0.23040 0.24200
C 	C 	0.60140 0.12430 0.28310 -0.16300
C 	C 	0.39480 0.09010 0.45380 0.21200
C 	C 	0.37480 0.05060 0.40110 -0.64900
H 	H 	0.39560 0.01310 0.40420 0.15900
H 	H 	0.33240 0.04370 0.40390 0.18800
H 	H 	0.38400 0.06930 0.36130 0.19100
C 	C 	0.40430 0.22510 0.55530 -0.68200
H 	H 	0.43220 0.22320 0.59000 0.19500
H 	H 	0.41480 0.25770 0.52780 0.20100
H 	H 	0.36460 0.23120 0.57160 0.19700
N 	N 	0.47343 0.46622 0.40650 -0.25400
N 	N 	0.46930 0.50470 0.35660 -0.21500
H 	H 	0.48460 0.53880 0.36170 0.07300
N 	N 	0.32342 0.31481 0.25220 -0.25200
N 	N 	0.37130 0.30970 0.21280 -0.23300
H 	H 	0.53570 0.38360 0.56420 0.09400
C 	C 	0.45060 0.41440 0.38460 0.22900
C 	C 	0.43120 0.42070 0.32160 -0.15300
C 	C 	0.44450 0.47950 0.30480 0.23700
C 	C 	0.43450 0.51290 0.24470 -0.69300
H 	H 	0.45010 0.55270 0.24890 0.20000
H 	H 	0.39220 0.51480 0.23670 0.20500
H 	H 	0.45400 0.49300 0.21000 0.20100
C 	C 	0.44950 0.35820 0.42270 -0.70400
H 	H 	0.46550 0.36550 0.46430 0.19300
H 	H 	0.47290 0.32810 0.40180 0.21600
H 	H 	0.40880 0.34480 0.42640 0.20600
C 	C 	0.41730 0.34520 0.23040 0.23400
C 	C 	0.39860 0.37570 0.28310 -0.14700
C 	C 	0.60520 0.40990 0.45380 0.21900
C 	C 	0.62520 0.44940 0.40110 -0.66600
H 	H 	0.60440 0.48690 0.40420 0.16900
H 	H 	0.66760 0.45630 0.40390 0.19700
H 	H 	0.61600 0.43070 0.36130 0.19800
C 	C 	0.59570 0.27490 0.55530 -0.68500
H 	H 	0.56780 0.27680 0.59000 0.19600
H 	H 	0.58520 0.24230 0.52780 0.20100
H 	H 	0.63540 0.26880 0.57160 0.19900
N 	N 	0.97343 0.96622 0.90650 -0.23900
N 	N 	0.96930 0.00470 0.85660 -0.24600
H 	H 	0.98460 0.03880 0.86170 0.08600
N 	N 	0.82342 0.81481 0.75220 -0.25000
N 	N 	0.87130 0.80970 0.71280 -0.22400
H 	H 	0.03570 0.88360 0.06420 0.08600
C 	C 	0.95060 0.91440 0.88460 0.26900
C 	C 	0.93120 0.92070 0.82160 -0.20000
C 	C 	0.94450 0.97950 0.80480 0.32900
C 	C 	0.93450 0.01290 0.74470 -0.89300
H 	H 	0.95010 0.05270 0.74890 0.26000
H 	H 	0.89220 0.01480 0.73670 0.26000
H 	H 	0.95400 0.99300 0.71000 0.27800
C 	C 	0.94950 0.85820 0.92270 -0.77700
H 	H 	0.96550 0.86550 0.96430 0.23300
H 	H 	0.97290 0.82810 0.90180 0.24800
H 	H 	0.90880 0.84480 0.92640 0.23400
C 	C 	0.91730 0.84520 0.73040 0.19700
C 	C 	0.89860 0.87570 0.78310 -0.11300
C 	C 	0.10520 0.90990 0.95380 0.20300
C 	C 	0.12520 0.94940 0.90110 -0.65100
H 	H 	0.10440 0.98690 0.90420 0.16900
H 	H 	0.16760 0.95630 0.90390 0.19900
H 	H 	0.11600 0.93070 0.86130 0.19200
C 	C 	0.09570 0.77490 0.05530 -0.60000
H 	H 	0.06780 0.77680 0.09000 0.16600
H 	H 	0.08520 0.74230 0.02780 0.16400
H 	H 	0.13540 0.76880 0.07160 0.16900
N 	N 	0.71622 0.77657 0.65650 -0.25400
N 	N 	0.75470 0.78070 0.60660 -0.21700
H 	H 	0.78880 0.76540 0.61170 0.07600
N 	N 	0.56481 0.92658 0.50220 -0.24800
N 	N 	0.55970 0.87870 0.46280 -0.23500
H 	H 	0.63360 0.71430 0.81420 0.09600
C 	C 	0.66440 0.79940 0.63460 0.23000
C 	C 	0.67070 0.81880 0.57160 -0.15500
C 	C 	0.72950 0.80550 0.55480 0.24700
C 	C 	0.76290 0.81550 0.49470 -0.71900
H 	H 	0.80270 0.79990 0.49890 0.21300
H 	H 	0.76480 0.85780 0.48670 0.21900
H 	H 	0.74300 0.79600 0.46000 0.21300
C 	C 	0.60820 0.80050 0.67270 -0.70600
H 	H 	0.61550 0.78450 0.71430 0.19400
H 	H 	0.57810 0.77710 0.65180 0.21600
H 	H 	0.59480 0.84120 0.67640 0.20700
C 	C 	0.59520 0.83270 0.48040 0.24200
C 	C 	0.62570 0.85140 0.53310 -0.15100
C 	C 	0.65990 0.64480 0.70380 0.22100
C 	C 	0.69940 0.62480 0.65110 -0.67100
H 	H 	0.73690 0.64560 0.65420 0.17100
H 	H 	0.70630 0.58240 0.65390 0.20000
H 	H 	0.68070 0.63400 0.61130 0.20000
C 	C 	0.52490 0.65430 0.80530 -0.69800
H 	H 	0.52680 0.68220 0.84000 0.20300
H 	H 	0.49230 0.66480 0.77780 0.20600
H 	H 	0.51880 0.61460 0.82160 0.20500
N 	N 	0.21622 0.27657 0.15650 -0.25200
N 	N 	0.25470 0.28070 0.10660 -0.20500
H 	H 	0.28880 0.26540 0.11170 0.06500
N 	N 	0.06481 0.42658 0.00220 -0.27000
N 	N 	0.05970 0.37870 0.96280 -0.23200
H 	H 	0.13360 0.21430 0.31420 0.09600
C 	C 	0.16440 0.29940 0.13460 0.20800
C 	C 	0.17070 0.31880 0.07160 -0.12200
C 	C 	0.22950 0.30550 0.05480 0.18300
C 	C 	0.26290 0.31550 0.99470 -0.60900
H 	H 	0.30270 0.29990 0.99890 0.18600
H 	H 	0.26480 0.35780 0.98670 0.19100
H 	H 	0.24300 0.29600 0.96000 0.18300
C 	C 	0.10820 0.30050 0.17270 -0.66900
H 	H 	0.11550 0.28450 0.21430 0.18100
H 	H 	0.07810 0.27710 0.15180 0.19900
H 	H 	0.09480 0.34120 0.17640 0.19100
C 	C 	0.09520 0.33270 0.98040 0.29000
C 	C 	0.12570 0.35140 0.03310 -0.20300
C 	C 	0.15990 0.14480 0.20380 0.23000
C 	C 	0.19940 0.12480 0.15110 -0.66700
H 	H 	0.23690 0.14560 0.15420 0.16500
H 	H 	0.20630 0.08240 0.15390 0.19200
H 	H 	0.18070 0.13400 0.11130 0.19400
C 	C 	0.02490 0.15430 0.30530 -0.84600
H 	H 	0.02680 0.18220 0.34000 0.23500
H 	H 	0.99230 0.16480 0.27780 0.27100
H 	H 	0.01880 0.11460 0.32160 0.23900
N 	N 	0.78378 0.22343 0.15650 -0.25300
N 	N 	0.74530 0.21930 0.10660 -0.20500
H 	H 	0.71120 0.23460 0.11170 0.06600
N 	N 	0.93519 0.07342 0.00220 -0.26100
N 	N 	0.94030 0.12130 0.96280 -0.23600
H 	H 	0.86640 0.28570 0.31420 0.09200
C 	C 	0.83560 0.20060 0.13460 0.21900
C 	C 	0.82930 0.18120 0.07160 -0.12300
C 	C 	0.77050 0.19450 0.05480 0.18500
C 	C 	0.73710 0.18450 0.99470 -0.61100
H 	H 	0.69730 0.20010 0.99890 0.18700
H 	H 	0.73520 0.14220 0.98670 0.19000
H 	H 	0.75700 0.20400 0.96000 0.18300
C 	C 	0.89180 0.19950 0.17270 -0.70300
H 	H 	0.88450 0.21550 0.21430 0.19400
H 	H 	0.92190 0.22290 0.15180 0.22000
H 	H 	0.90520 0.15880 0.17640 0.20800
C 	C 	0.90480 0.16730 0.98040 0.30700
C 	C 	0.87430 0.14860 0.03310 -0.20600
C 	C 	0.84010 0.35520 0.20380 0.20600
C 	C 	0.80060 0.37520 0.15110 -0.64300
H 	H 	0.76310 0.35440 0.15420 0.16000
H 	H 	0.79370 0.41760 0.15390 0.18800
H 	H 	0.81930 0.36600 0.11130 0.18800
C 	C 	0.97510 0.34570 0.30530 -0.53800
H 	H 	0.97320 0.31780 0.34000 0.16000
H 	H 	0.00770 0.33520 0.27780 0.13700
H 	H 	0.98120 0.38540 0.32160 0.16300
N 	N 	0.28378 0.72343 0.65650 -0.25400
N 	N 	0.24530 0.71930 0.60660 -0.21500
H 	H 	0.21120 0.73460 0.61170 0.07200
N 	N 	0.43519 0.57342 0.50220 -0.25200
N 	N 	0.44030 0.62130 0.46280 -0.23400
H 	H 	0.36640 0.78570 0.81420 0.09600
C 	C 	0.33560 0.70060 0.63460 0.22800
C 	C 	0.32930 0.68120 0.57160 -0.15200
C 	C 	0.27050 0.69450 0.55480 0.23700
C 	C 	0.23710 0.68450 0.49470 -0.69500
H 	H 	0.19730 0.70010 0.49890 0.20000
H 	H 	0.23520 0.64220 0.48670 0.20600
H 	H 	0.25700 0.70400 0.46000 0.20300
C 	C 	0.39180 0.69950 0.67270 -0.70400
H 	H 	0.38450 0.71550 0.71430 0.19400
H 	H 	0.42190 0.72290 0.65180 0.21600
H 	H 	0.40520 0.65880 0.67640 0.20600
C 	C 	0.40480 0.66730 0.48040 0.23900
C 	C 	0.37430 0.64860 0.53310 -0.15000
C 	C 	0.34010 0.85520 0.70380 0.21500
C 	C 	0.30060 0.87520 0.65110 -0.66400
H 	H 	0.26310 0.85440 0.65420 0.16900
H 	H 	0.29370 0.91760 0.65390 0.19900
H 	H 	0.31930 0.86600 0.61130 0.19900
C 	C 	0.47510 0.84570 0.80530 -0.68900
H 	H 	0.47320 0.81780 0.84000 0.20100
H 	H 	0.50770 0.83520 0.77780 0.20400
H 	H 	0.48120 0.88540 0.82160 0.20300
Co	Co	-0.00000 0.50000 -0.00000 1.02800
Co	Co	0.50000 -0.00000 0.50000 1.04400
Co	Co	0.50000 0.50000 0.50000 1.05200
Co	Co	-0.00000 0.00000 -0.00000 1.02000
Co	Co	0.25000 0.25000 0.25000 1.05100
Co	Co	0.75000 0.75000 0.75000 1.05200
Co	Co	0.25000 0.75000 0.75000 1.05200
Co	Co	0.75000 0.25000 0.25000 1.05200
