data_crystal

_cell_length_a 7.04650
_cell_length_b 15.64600
_cell_length_c 17.39600
_cell_angle_alpha 90.00000
_cell_angle_beta  90.00000
_cell_angle_gamma 90.00000

_symmetry_space_group_name_	'P 1'
_symmetry_space_group_name_H-M	'P 1'

loop_
_symmetry_equiv_pos_as_xyz
  x,y,z

loop_
_atom_site_label
_atom_site_type_symbol
_atom_site_fract_x
_atom_site_fract_y
_atom_site_fract_z
_atom_site_charge
P 	P 	0.25330 0.13322 0.40057 0.52700
O 	O 	0.29240 0.14630 0.31510 -0.52100
O 	O 	0.43430 0.10430 0.44170 -0.49300
O 	O 	0.09020 0.07110 0.41260 -0.55900
O 	O 	0.35940 0.35990 0.46080 -0.29700
O 	O 	0.29910 0.32490 0.34170 -0.54900
C 	C 	0.28900 0.31160 0.41430 0.50000
C 	C 	0.17940 0.23380 0.44030 -0.60200
H 	H 	0.04680 0.24240 0.42750 0.15300
H 	H 	0.18830 0.23020 0.49580 0.19400
P 	P 	0.24670 0.86678 0.40057 0.54300
O 	O 	0.20760 0.85370 0.31510 -0.49000
O 	O 	0.06570 0.89570 0.44170 -0.48700
O 	O 	0.40980 0.92890 0.41260 -0.40700
O 	O 	0.14060 0.64010 0.46080 -0.34400
O 	O 	0.20090 0.67510 0.34170 -0.56600
C 	C 	0.21100 0.68840 0.41430 0.52700
C 	C 	0.32060 0.76620 0.44030 -0.65200
H 	H 	0.45320 0.75760 0.42750 0.22600
H 	H 	0.31170 0.76980 0.49580 0.22800
P 	P 	0.24670 0.63322 0.09943 0.52700
O 	O 	0.20760 0.64630 0.18490 -0.51000
O 	O 	0.06570 0.60430 0.05830 -0.58700
O 	O 	0.40980 0.57110 0.08740 -0.50000
O 	O 	0.14060 0.85990 0.03920 -0.37200
O 	O 	0.20090 0.82490 0.15830 -0.55400
C 	C 	0.21100 0.81160 0.08570 0.50700
C 	C 	0.32060 0.73380 0.05970 -0.62700
H 	H 	0.45320 0.74240 0.07250 0.19100
H 	H 	0.31170 0.73020 0.00420 0.16300
P 	P 	0.25330 0.36678 0.09943 0.51500
O 	O 	0.29240 0.35370 0.18490 -0.49800
O 	O 	0.43430 0.39570 0.05830 -0.52500
O 	O 	0.09020 0.42890 0.08740 -0.55100
O 	O 	0.35940 0.14010 0.03920 -0.39000
O 	O 	0.29910 0.17510 0.15830 -0.57800
C 	C 	0.28900 0.18840 0.08570 0.48800
C 	C 	0.17940 0.26620 0.05970 -0.58400
H 	H 	0.04680 0.25760 0.07250 0.11500
H 	H 	0.18830 0.26980 0.00420 0.13100
P 	P 	0.74670 0.86678 0.59943 0.54900
O 	O 	0.70760 0.85370 0.68490 -0.46600
O 	O 	0.56570 0.89570 0.55830 -0.43700
O 	O 	0.90980 0.92890 0.58740 -0.35800
O 	O 	0.64060 0.64010 0.53920 -0.28400
O 	O 	0.70090 0.67510 0.65830 -0.54700
C 	C 	0.71100 0.68840 0.58570 0.54200
C 	C 	0.82060 0.76620 0.55970 -0.66800
H 	H 	0.95320 0.75760 0.57250 0.26400
H 	H 	0.81170 0.76980 0.50420 0.27900
P 	P 	0.75330 0.13322 0.59943 0.53300
O 	O 	0.79240 0.14630 0.68490 -0.49700
O 	O 	0.93430 0.10430 0.55830 -0.42600
O 	O 	0.59020 0.07110 0.58740 -0.52200
O 	O 	0.85940 0.35990 0.53920 -0.23700
O 	O 	0.79910 0.32490 0.65830 -0.53000
C 	C 	0.78900 0.31160 0.58570 0.51600
C 	C 	0.67940 0.23380 0.55970 -0.61900
H 	H 	0.54680 0.24240 0.57250 0.19300
H 	H 	0.68830 0.23020 0.50420 0.24800
P 	P 	0.75330 0.36678 0.90057 0.54800
O 	O 	0.79240 0.35370 0.81510 -0.48100
O 	O 	0.93430 0.39570 0.94170 -0.35100
O 	O 	0.59020 0.42890 0.91260 -0.45100
O 	O 	0.85940 0.14010 0.96080 -0.20800
O 	O 	0.79910 0.17510 0.84170 -0.54100
C 	C 	0.78900 0.18840 0.91430 0.53500
C 	C 	0.67940 0.26620 0.94030 -0.64500
H 	H 	0.54680 0.25760 0.92750 0.22700
H 	H 	0.68830 0.26980 0.99580 0.31000
P 	P 	0.74670 0.63322 0.90057 0.55900
O 	O 	0.70760 0.64630 0.81510 -0.49200
O 	O 	0.56570 0.60430 0.94170 -0.42800
O 	O 	0.90980 0.57110 0.91260 -0.38600
O 	O 	0.64060 0.85990 0.96080 -0.19100
O 	O 	0.70090 0.82490 0.84170 -0.51800
C 	C 	0.71100 0.81160 0.91430 0.55300
C 	C 	0.82060 0.73380 0.94030 -0.68600
H 	H 	0.95320 0.74240 0.92750 0.30000
H 	H 	0.81170 0.73020 0.99580 0.33900
V 	V 	0.24690 0.25000 0.25000 1.70100
V 	V 	0.25310 0.75000 0.25000 1.71200
V 	V 	0.75310 0.75000 0.75000 1.72300
V 	V 	0.74690 0.25000 0.75000 1.71200
V 	V 	0.50000 0.00000 0.50000 1.77600
V 	V 	0.00000 0.00000 0.50000 1.72100
V 	V 	-0.00000 0.50000 -0.00000 1.70000
V 	V 	0.50000 0.50000 -0.00000 1.75300
O 	O 	0.75000 0.00000 0.45820 -0.64900
O 	O 	0.75000 0.50000 0.04180 -0.64000
O 	O 	0.25000 0.00000 0.54180 -0.74300
O 	O 	0.25000 0.50000 0.95820 -0.58400
