data_crystal

_cell_length_a 26.17900
_cell_length_b 26.17900
_cell_length_c 26.17900
_cell_angle_alpha 90.00000
_cell_angle_beta  90.00000
_cell_angle_gamma 90.00000

_symmetry_space_group_name_	'P 1'
_symmetry_space_group_name_H-M	'P 1'

loop_
_symmetry_equiv_pos_as_xyz
  x,y,z

loop_
_atom_site_label
_atom_site_type_symbol
_atom_site_fract_x
_atom_site_fract_y
_atom_site_fract_z
_atom_site_charge
C 	C 	0.00950 0.37410 0.99900 0.61900
C 	C 	0.00340 0.36770 0.05460 -0.62300
H 	H 	0.03230 0.38260 0.07220 0.20100
H 	H 	0.97270 0.38510 0.06590 0.28300
O 	O 	0.01410 0.41740 0.97910 -0.44900
O 	O 	0.00870 0.33540 0.97030 -0.39400
C 	C 	0.00950 0.87410 0.49900 0.47300
C 	C 	0.00340 0.86770 0.55460 -0.44400
H 	H 	0.03230 0.88260 0.57220 0.16200
H 	H 	0.97270 0.88510 0.56590 0.24400
O 	O 	0.01410 0.91740 0.47910 -0.42700
O 	O 	0.00870 0.83540 0.47030 -0.41700
C 	C 	0.50950 0.37410 0.49900 0.43300
C 	C 	0.50340 0.36770 0.55460 -0.26600
H 	H 	0.53230 0.38260 0.57220 0.11700
H 	H 	0.47270 0.38510 0.56590 0.11800
O 	O 	0.51410 0.41740 0.47910 -0.41200
O 	O 	0.50870 0.33540 0.47030 -0.39800
C 	C 	0.50950 0.87410 0.99900 0.56200
C 	C 	0.50340 0.86770 0.05460 -0.42900
H 	H 	0.53230 0.88260 0.07220 0.16000
H 	H 	0.47270 0.88510 0.06590 0.16100
O 	O 	0.51410 0.91740 0.97910 -0.36900
O 	O 	0.50870 0.83540 0.97030 -0.36300
C 	C 	0.24050 0.37590 0.49900 0.43300
C 	C 	0.24660 0.38230 0.55460 -0.26500
H 	H 	0.21770 0.36740 0.57220 0.11600
H 	H 	0.27730 0.36490 0.56590 0.11800
O 	O 	0.23590 0.33260 0.47910 -0.41200
O 	O 	0.24130 0.41460 0.47030 -0.39800
C 	C 	0.24050 0.87590 0.99900 0.55400
C 	C 	0.24660 0.88230 0.05460 -0.41700
H 	H 	0.21770 0.86740 0.07220 0.15300
H 	H 	0.27730 0.86490 0.06590 0.15400
O 	O 	0.23590 0.83260 0.97910 -0.39200
O 	O 	0.24130 0.91460 0.97030 -0.31400
C 	C 	0.74050 0.37590 0.99900 0.57000
C 	C 	0.74660 0.38230 0.05460 -0.43400
H 	H 	0.71770 0.36740 0.07220 0.15700
H 	H 	0.77730 0.36490 0.06590 0.15800
O 	O 	0.73590 0.33260 0.97910 -0.39800
O 	O 	0.74130 0.41460 0.97030 -0.36800
C 	C 	0.74050 0.87590 0.49900 0.42200
C 	C 	0.74660 0.88230 0.55460 -0.25300
H 	H 	0.71770 0.86740 0.57220 0.11500
H 	H 	0.77730 0.86490 0.56590 0.11900
O 	O 	0.73590 0.83260 0.47910 -0.40300
O 	O 	0.74130 0.91460 0.47030 -0.34200
C 	C 	0.74050 0.87410 0.25100 0.43000
C 	C 	0.74660 0.86770 0.19540 -0.26600
H 	H 	0.71770 0.88260 0.17780 0.12100
H 	H 	0.77730 0.88510 0.18410 0.12500
O 	O 	0.73590 0.91740 0.27090 -0.37900
O 	O 	0.74130 0.83540 0.27970 -0.39100
C 	C 	0.74050 0.37410 0.75100 0.43400
C 	C 	0.74660 0.36770 0.69540 -0.26700
H 	H 	0.71770 0.38260 0.67780 0.11700
H 	H 	0.77730 0.38510 0.68410 0.12000
O 	O 	0.73590 0.41740 0.77090 -0.40900
O 	O 	0.74130 0.33540 0.77970 -0.39400
C 	C 	0.24050 0.87410 0.75100 0.42800
C 	C 	0.24660 0.86770 0.69540 -0.26400
H 	H 	0.21770 0.88260 0.67780 0.11900
H 	H 	0.27730 0.88510 0.68410 0.12400
O 	O 	0.23590 0.91740 0.77090 -0.37800
O 	O 	0.24130 0.83540 0.77970 -0.39000
C 	C 	0.24050 0.37410 0.25100 0.43300
C 	C 	0.24660 0.36770 0.19540 -0.26500
H 	H 	0.21770 0.38260 0.17780 0.11600
H 	H 	0.27730 0.38510 0.18410 0.11800
O 	O 	0.23590 0.41740 0.27090 -0.41200
O 	O 	0.24130 0.33540 0.27970 -0.39800
C 	C 	0.50950 0.87590 0.75100 0.42000
C 	C 	0.50340 0.88230 0.69540 -0.25200
H 	H 	0.53230 0.86740 0.67780 0.11400
H 	H 	0.47270 0.86490 0.68410 0.11700
O 	O 	0.51410 0.83260 0.77090 -0.40200
O 	O 	0.50870 0.91460 0.77970 -0.34100
C 	C 	0.50950 0.37590 0.25100 0.43300
C 	C 	0.50340 0.38230 0.19540 -0.26600
H 	H 	0.53230 0.36740 0.17780 0.11700
H 	H 	0.47270 0.36490 0.18410 0.11800
O 	O 	0.51410 0.33260 0.27090 -0.41100
O 	O 	0.50870 0.41460 0.27970 -0.39800
C 	C 	0.00950 0.87590 0.25100 0.46700
C 	C 	0.00340 0.88230 0.19540 -0.43300
H 	H 	0.03230 0.86740 0.17780 0.15800
H 	H 	0.97270 0.86490 0.18410 0.24100
O 	O 	0.01410 0.83260 0.27090 -0.45200
O 	O 	0.00870 0.91460 0.27970 -0.36600
C 	C 	0.00950 0.37590 0.75100 0.48000
C 	C 	0.00340 0.38230 0.69540 -0.44800
H 	H 	0.03230 0.36740 0.67780 0.16000
H 	H 	0.97270 0.36490 0.68410 0.24300
O 	O 	0.01410 0.33260 0.77090 -0.45800
O 	O 	0.00870 0.41460 0.77970 -0.42000
C 	C 	0.99900 0.00950 0.37410 0.62000
C 	C 	0.05460 0.00340 0.36770 -0.62200
H 	H 	0.07220 0.03230 0.38260 0.20200
H 	H 	0.06590 0.97270 0.38510 0.28400
O 	O 	0.97910 0.01410 0.41740 -0.44800
O 	O 	0.97030 0.00870 0.33540 -0.39300
C 	C 	0.99900 0.50950 0.87410 0.56200
C 	C 	0.05460 0.50340 0.86770 -0.42900
H 	H 	0.07220 0.53230 0.88260 0.16000
H 	H 	0.06590 0.47270 0.88510 0.16100
O 	O 	0.97910 0.51410 0.91740 -0.36900
O 	O 	0.97030 0.50870 0.83540 -0.36300
C 	C 	0.49900 0.00950 0.87410 0.47400
C 	C 	0.55460 0.00340 0.86770 -0.44300
H 	H 	0.57220 0.03230 0.88260 0.16300
H 	H 	0.56590 0.97270 0.88510 0.24500
O 	O 	0.47910 0.01410 0.91740 -0.42700
O 	O 	0.47030 0.00870 0.83540 -0.41700
C 	C 	0.49900 0.50950 0.37410 0.43300
C 	C 	0.55460 0.50340 0.36770 -0.26600
H 	H 	0.57220 0.53230 0.38260 0.11700
H 	H 	0.56590 0.47270 0.38510 0.11800
O 	O 	0.47910 0.51410 0.41740 -0.41200
O 	O 	0.47030 0.50870 0.33540 -0.39800
C 	C 	0.49900 0.24050 0.37590 0.43300
C 	C 	0.55460 0.24660 0.38230 -0.26500
H 	H 	0.57220 0.21770 0.36740 0.11600
H 	H 	0.56590 0.27730 0.36490 0.11800
O 	O 	0.47910 0.23590 0.33260 -0.41200
O 	O 	0.47030 0.24130 0.41460 -0.39800
C 	C 	0.49900 0.74050 0.87590 0.42200
C 	C 	0.55460 0.74660 0.88230 -0.25300
H 	H 	0.57220 0.71770 0.86740 0.11500
H 	H 	0.56590 0.77730 0.86490 0.11900
O 	O 	0.47910 0.73590 0.83260 -0.40300
O 	O 	0.47030 0.74130 0.91460 -0.34200
C 	C 	0.99900 0.24050 0.87590 0.55400
C 	C 	0.05460 0.24660 0.88230 -0.41700
H 	H 	0.07220 0.21770 0.86740 0.15300
H 	H 	0.06590 0.27730 0.86490 0.15400
O 	O 	0.97910 0.23590 0.83260 -0.39200
O 	O 	0.97030 0.24130 0.91460 -0.31400
C 	C 	0.99900 0.74050 0.37590 0.57000
C 	C 	0.05460 0.74660 0.38230 -0.43400
H 	H 	0.07220 0.71770 0.36740 0.15700
H 	H 	0.06590 0.77730 0.36490 0.15800
O 	O 	0.97910 0.73590 0.33260 -0.39800
O 	O 	0.97030 0.74130 0.41460 -0.36800
C 	C 	0.25100 0.74050 0.87410 0.43000
C 	C 	0.19540 0.74660 0.86770 -0.26600
H 	H 	0.17780 0.71770 0.88260 0.12100
H 	H 	0.18410 0.77730 0.88510 0.12500
O 	O 	0.27090 0.73590 0.91740 -0.37900
O 	O 	0.27970 0.74130 0.83540 -0.39100
C 	C 	0.25100 0.24050 0.37410 0.43300
C 	C 	0.19540 0.24660 0.36770 -0.26500
H 	H 	0.17780 0.21770 0.38260 0.11600
H 	H 	0.18410 0.27730 0.38510 0.11800
O 	O 	0.27090 0.23590 0.41740 -0.41200
O 	O 	0.27970 0.24130 0.33540 -0.39800
C 	C 	0.75100 0.74050 0.37410 0.43400
C 	C 	0.69540 0.74660 0.36770 -0.26700
H 	H 	0.67780 0.71770 0.38260 0.11700
H 	H 	0.68410 0.77730 0.38510 0.12000
O 	O 	0.77090 0.73590 0.41740 -0.40900
O 	O 	0.77970 0.74130 0.33540 -0.39400
C 	C 	0.75100 0.24050 0.87410 0.42800
C 	C 	0.69540 0.24660 0.86770 -0.26400
H 	H 	0.67780 0.21770 0.88260 0.11900
H 	H 	0.68410 0.27730 0.88510 0.12400
O 	O 	0.77090 0.23590 0.91740 -0.37800
O 	O 	0.77970 0.24130 0.83540 -0.39000
C 	C 	0.75100 0.50950 0.87590 0.42000
C 	C 	0.69540 0.50340 0.88230 -0.25200
H 	H 	0.67780 0.53230 0.86740 0.11400
H 	H 	0.68410 0.47270 0.86490 0.11700
O 	O 	0.77090 0.51410 0.83260 -0.40200
O 	O 	0.77970 0.50870 0.91460 -0.34100
C 	C 	0.75100 0.00950 0.37590 0.48000
C 	C 	0.69540 0.00340 0.38230 -0.44800
H 	H 	0.67780 0.03230 0.36740 0.16000
H 	H 	0.68410 0.97270 0.36490 0.24300
O 	O 	0.77090 0.01410 0.33260 -0.45800
O 	O 	0.77970 0.00870 0.41460 -0.42000
C 	C 	0.25100 0.50950 0.37590 0.43300
C 	C 	0.19540 0.50340 0.38230 -0.26600
H 	H 	0.17780 0.53230 0.36740 0.11700
H 	H 	0.18410 0.47270 0.36490 0.11800
O 	O 	0.27090 0.51410 0.33260 -0.41100
O 	O 	0.27970 0.50870 0.41460 -0.39800
C 	C 	0.25100 0.00950 0.87590 0.46700
C 	C 	0.19540 0.00340 0.88230 -0.43300
H 	H 	0.17780 0.03230 0.86740 0.15800
H 	H 	0.18410 0.97270 0.86490 0.24100
O 	O 	0.27090 0.01410 0.83260 -0.45200
O 	O 	0.27970 0.00870 0.91460 -0.36600
C 	C 	0.37410 0.99900 0.00950 0.62000
C 	C 	0.36770 0.05460 0.00340 -0.62200
H 	H 	0.38260 0.07220 0.03230 0.20200
H 	H 	0.38510 0.06590 0.97270 0.28400
O 	O 	0.41740 0.97910 0.01410 -0.44800
O 	O 	0.33540 0.97030 0.00870 -0.39300
C 	C 	0.37410 0.49900 0.50950 0.43300
C 	C 	0.36770 0.55460 0.50340 -0.26600
H 	H 	0.38260 0.57220 0.53230 0.11700
H 	H 	0.38510 0.56590 0.47270 0.11800
O 	O 	0.41740 0.47910 0.51410 -0.41200
O 	O 	0.33540 0.47030 0.50870 -0.39800
C 	C 	0.87410 0.99900 0.50950 0.56200
C 	C 	0.86770 0.05460 0.50340 -0.42900
H 	H 	0.88260 0.07220 0.53230 0.16000
H 	H 	0.88510 0.06590 0.47270 0.16100
O 	O 	0.91740 0.97910 0.51410 -0.36900
O 	O 	0.83540 0.97030 0.50870 -0.36300
C 	C 	0.87410 0.49900 0.00950 0.47400
C 	C 	0.86770 0.55460 0.00340 -0.44300
H 	H 	0.88260 0.57220 0.03230 0.16300
H 	H 	0.88510 0.56590 0.97270 0.24500
O 	O 	0.91740 0.47910 0.01410 -0.42700
O 	O 	0.83540 0.47030 0.00870 -0.41700
C 	C 	0.37590 0.49900 0.24050 0.43300
C 	C 	0.38230 0.55460 0.24660 -0.26500
H 	H 	0.36740 0.57220 0.21770 0.11600
H 	H 	0.36490 0.56590 0.27730 0.11800
O 	O 	0.33260 0.47910 0.23590 -0.41200
O 	O 	0.41460 0.47030 0.24130 -0.39800
C 	C 	0.37590 0.99900 0.74050 0.57000
C 	C 	0.38230 0.05460 0.74660 -0.43400
H 	H 	0.36740 0.07220 0.71770 0.15700
H 	H 	0.36490 0.06590 0.77730 0.15800
O 	O 	0.33260 0.97910 0.73590 -0.39800
O 	O 	0.41460 0.97030 0.74130 -0.36800
C 	C 	0.87590 0.49900 0.74050 0.42200
C 	C 	0.88230 0.55460 0.74660 -0.25300
H 	H 	0.86740 0.57220 0.71770 0.11500
H 	H 	0.86490 0.56590 0.77730 0.11900
O 	O 	0.83260 0.47910 0.73590 -0.40300
O 	O 	0.91460 0.47030 0.74130 -0.34200
C 	C 	0.87590 0.99900 0.24050 0.55400
C 	C 	0.88230 0.05460 0.24660 -0.41700
H 	H 	0.86740 0.07220 0.21770 0.15300
H 	H 	0.86490 0.06590 0.27730 0.15400
O 	O 	0.83260 0.97910 0.23590 -0.39200
O 	O 	0.91460 0.97030 0.24130 -0.31400
C 	C 	0.87410 0.25100 0.74050 0.43000
C 	C 	0.86770 0.19540 0.74660 -0.26600
H 	H 	0.88260 0.17780 0.71770 0.12100
H 	H 	0.88510 0.18410 0.77730 0.12500
O 	O 	0.91740 0.27090 0.73590 -0.37900
O 	O 	0.83540 0.27970 0.74130 -0.39100
C 	C 	0.87410 0.75100 0.24050 0.42800
C 	C 	0.86770 0.69540 0.24660 -0.26400
H 	H 	0.88260 0.67780 0.21770 0.11900
H 	H 	0.88510 0.68410 0.27730 0.12400
O 	O 	0.91740 0.77090 0.23590 -0.37800
O 	O 	0.83540 0.77970 0.24130 -0.39000
C 	C 	0.37410 0.25100 0.24050 0.43300
C 	C 	0.36770 0.19540 0.24660 -0.26500
H 	H 	0.38260 0.17780 0.21770 0.11600
H 	H 	0.38510 0.18410 0.27730 0.11800
O 	O 	0.41740 0.27090 0.23590 -0.41200
O 	O 	0.33540 0.27970 0.24130 -0.39800
C 	C 	0.37410 0.75100 0.74050 0.43400
C 	C 	0.36770 0.69540 0.74660 -0.26700
H 	H 	0.38260 0.67780 0.71770 0.11700
H 	H 	0.38510 0.68410 0.77730 0.12000
O 	O 	0.41740 0.77090 0.73590 -0.40900
O 	O 	0.33540 0.77970 0.74130 -0.39400
C 	C 	0.87590 0.75100 0.50950 0.42000
C 	C 	0.88230 0.69540 0.50340 -0.25200
H 	H 	0.86740 0.67780 0.53230 0.11400
H 	H 	0.86490 0.68410 0.47270 0.11700
O 	O 	0.83260 0.77090 0.51410 -0.40200
O 	O 	0.91460 0.77970 0.50870 -0.34100
C 	C 	0.87590 0.25100 0.00950 0.46700
C 	C 	0.88230 0.19540 0.00340 -0.43300
H 	H 	0.86740 0.17780 0.03230 0.15800
H 	H 	0.86490 0.18410 0.97270 0.24100
O 	O 	0.83260 0.27090 0.01410 -0.45200
O 	O 	0.91460 0.27970 0.00870 -0.36600
C 	C 	0.37590 0.75100 0.00950 0.48000
C 	C 	0.38230 0.69540 0.00340 -0.44800
H 	H 	0.36740 0.67780 0.03230 0.16000
H 	H 	0.36490 0.68410 0.97270 0.24300
O 	O 	0.33260 0.77090 0.01410 -0.45800
O 	O 	0.41460 0.77970 0.00870 -0.42000
C 	C 	0.37590 0.25100 0.50950 0.43300
C 	C 	0.38230 0.19540 0.50340 -0.26600
H 	H 	0.36740 0.17780 0.53230 0.11700
H 	H 	0.36490 0.18410 0.47270 0.11800
O 	O 	0.33260 0.27090 0.51410 -0.41100
O 	O 	0.41460 0.27970 0.50870 -0.39800
C 	C 	0.12410 0.25950 0.00100 0.29500
C 	C 	0.11770 0.25340 0.94540 -0.12800
H 	H 	0.13260 0.28230 0.92780 0.09100
H 	H 	0.13510 0.22270 0.93410 0.09100
O 	O 	0.16740 0.26410 0.02090 -0.41400
O 	O 	0.08540 0.25870 0.02970 -0.37700
C 	C 	0.12410 0.75950 0.50100 0.43900
C 	C 	0.11770 0.75340 0.44540 -0.29000
H 	H 	0.13260 0.78230 0.42780 0.12600
H 	H 	0.13510 0.72270 0.43410 0.12500
O 	O 	0.16740 0.76410 0.52090 -0.41500
O 	O 	0.08540 0.75870 0.52970 -0.39600
C 	C 	0.62410 0.25950 0.50100 0.43300
C 	C 	0.61770 0.25340 0.44540 -0.26600
H 	H 	0.63260 0.28230 0.42780 0.11700
H 	H 	0.63510 0.22270 0.43410 0.11700
O 	O 	0.66740 0.26410 0.52090 -0.41300
O 	O 	0.58540 0.25870 0.52970 -0.39900
C 	C 	0.62410 0.75950 0.00100 0.29600
C 	C 	0.61770 0.75340 0.94540 -0.11300
H 	H 	0.63260 0.78230 0.92780 0.08700
H 	H 	0.63510 0.72270 0.93410 0.08700
O 	O 	0.66740 0.76410 0.02090 -0.41000
O 	O 	0.58540 0.75870 0.02970 -0.38000
C 	C 	0.12590 0.49050 0.50100 0.43600
C 	C 	0.13230 0.49660 0.44540 -0.26700
H 	H 	0.11740 0.46770 0.42780 0.11500
H 	H 	0.11490 0.52730 0.43410 0.11700
O 	O 	0.08260 0.48590 0.52090 -0.43200
O 	O 	0.16460 0.49130 0.52970 -0.40200
C 	C 	0.12590 0.99050 0.00100 0.18100
C 	C 	0.13230 0.99660 0.94540 0.27900
H 	H 	0.11740 0.96770 0.92780 -0.01300
H 	H 	0.11490 0.02730 0.93410 -0.09100
O 	O 	0.08260 0.98590 0.02090 -0.34900
O 	O 	0.16460 0.99130 0.02970 -0.28100
C 	C 	0.62590 0.49050 0.00100 0.29400
C 	C 	0.63230 0.49660 0.94540 -0.10900
H 	H 	0.61740 0.46770 0.92780 0.08500
H 	H 	0.61490 0.52730 0.93410 0.08600
O 	O 	0.58260 0.48590 0.02090 -0.41000
O 	O 	0.66460 0.49130 0.02970 -0.38000
C 	C 	0.62590 0.99050 0.50100 0.31300
C 	C 	0.63230 0.99660 0.44540 0.13500
H 	H 	0.61740 0.96770 0.42780 0.01800
H 	H 	0.61490 0.02730 0.43410 -0.06100
O 	O 	0.58260 0.98590 0.52090 -0.33000
O 	O 	0.66460 0.99130 0.52970 -0.29700
C 	C 	0.62410 0.99050 0.74900 0.31700
C 	C 	0.61770 0.99660 0.80460 0.12400
H 	H 	0.63260 0.96770 0.82220 0.02200
H 	H 	0.63510 0.02730 0.81590 -0.05600
O 	O 	0.66740 0.98590 0.72910 -0.33200
O 	O 	0.58540 0.99130 0.72030 -0.29800
C 	C 	0.62410 0.49050 0.24900 0.43400
C 	C 	0.61770 0.49660 0.30460 -0.26600
H 	H 	0.63260 0.46770 0.32220 0.11700
H 	H 	0.63510 0.52730 0.31590 0.11800
O 	O 	0.66740 0.48590 0.22910 -0.41300
O 	O 	0.58540 0.49130 0.22030 -0.40000
C 	C 	0.12410 0.99050 0.24900 0.31600
C 	C 	0.11770 0.99660 0.30460 0.12100
H 	H 	0.13260 0.96770 0.32220 0.02300
H 	H 	0.13510 0.02730 0.31590 -0.05900
O 	O 	0.16740 0.98590 0.22910 -0.33300
O 	O 	0.08540 0.99130 0.22030 -0.29300
C 	C 	0.12410 0.49050 0.74900 0.44000
C 	C 	0.11770 0.49660 0.80460 -0.29100
H 	H 	0.13260 0.46770 0.82220 0.12700
H 	H 	0.13510 0.52730 0.81590 0.12600
O 	O 	0.16740 0.48590 0.72910 -0.41500
O 	O 	0.08540 0.49130 0.72030 -0.39600
C 	C 	0.62590 0.75950 0.24900 0.43400
C 	C 	0.63230 0.75340 0.30460 -0.26800
H 	H 	0.61740 0.78230 0.32220 0.11900
H 	H 	0.61490 0.72270 0.31590 0.11900
O 	O 	0.58260 0.76410 0.22910 -0.41300
O 	O 	0.66460 0.75870 0.22030 -0.40000
C 	C 	0.62590 0.25950 0.74900 0.43400
C 	C 	0.63230 0.25340 0.80460 -0.26800
H 	H 	0.61740 0.28230 0.82220 0.12000
H 	H 	0.61490 0.22270 0.81590 0.11900
O 	O 	0.58260 0.26410 0.72910 -0.41300
O 	O 	0.66460 0.25870 0.72030 -0.40000
C 	C 	0.12590 0.75950 0.74900 0.43800
C 	C 	0.13230 0.75340 0.80460 -0.27100
H 	H 	0.11740 0.78230 0.82220 0.12000
H 	H 	0.11490 0.72270 0.81590 0.11900
O 	O 	0.08260 0.76410 0.72910 -0.43100
O 	O 	0.16460 0.75870 0.72030 -0.40200
C 	C 	0.12590 0.25950 0.24900 0.43600
C 	C 	0.13230 0.25340 0.30460 -0.26700
H 	H 	0.11740 0.28230 0.32220 0.11500
H 	H 	0.11490 0.22270 0.31590 0.11600
O 	O 	0.08260 0.26410 0.22910 -0.43400
O 	O 	0.16460 0.25870 0.22030 -0.40500
C 	C 	0.75950 0.24900 0.62590 0.43400
C 	C 	0.75340 0.30460 0.63230 -0.26800
H 	H 	0.78230 0.32220 0.61740 0.11900
H 	H 	0.72270 0.31590 0.61490 0.11900
O 	O 	0.76410 0.22910 0.58260 -0.41300
O 	O 	0.75870 0.22030 0.66460 -0.40000
C 	C 	0.75950 0.74900 0.12590 0.43800
C 	C 	0.75340 0.80460 0.13230 -0.27100
H 	H 	0.78230 0.82220 0.11740 0.12000
H 	H 	0.72270 0.81590 0.11490 0.11900
O 	O 	0.76410 0.72910 0.08260 -0.43100
O 	O 	0.75870 0.72030 0.16460 -0.40200
C 	C 	0.25950 0.24900 0.12590 0.43600
C 	C 	0.25340 0.30460 0.13230 -0.26700
H 	H 	0.28230 0.32220 0.11740 0.11500
H 	H 	0.22270 0.31590 0.11490 0.11600
O 	O 	0.26410 0.22910 0.08260 -0.43400
O 	O 	0.25870 0.22030 0.16460 -0.40500
C 	C 	0.25950 0.74900 0.62590 0.43400
C 	C 	0.25340 0.80460 0.63230 -0.26800
H 	H 	0.28230 0.82220 0.61740 0.12000
H 	H 	0.22270 0.81590 0.61490 0.11900
O 	O 	0.26410 0.72910 0.58260 -0.41300
O 	O 	0.25870 0.72030 0.66460 -0.40000
C 	C 	0.99050 0.74900 0.62410 0.31700
C 	C 	0.99660 0.80460 0.61770 0.12400
H 	H 	0.96770 0.82220 0.63260 0.02200
H 	H 	0.02730 0.81590 0.63510 -0.05600
O 	O 	0.98590 0.72910 0.66740 -0.33200
O 	O 	0.99130 0.72030 0.58540 -0.29800
C 	C 	0.99050 0.24900 0.12410 0.31600
C 	C 	0.99660 0.30460 0.11770 0.12100
H 	H 	0.96770 0.32220 0.13260 0.02300
H 	H 	0.02730 0.31590 0.13510 -0.05900
O 	O 	0.98590 0.22910 0.16740 -0.33300
O 	O 	0.99130 0.22030 0.08540 -0.29300
C 	C 	0.49050 0.74900 0.12410 0.44000
C 	C 	0.49660 0.80460 0.11770 -0.29100
H 	H 	0.46770 0.82220 0.13260 0.12700
H 	H 	0.52730 0.81590 0.13510 0.12600
O 	O 	0.48590 0.72910 0.16740 -0.41500
O 	O 	0.49130 0.72030 0.08540 -0.39600
C 	C 	0.49050 0.24900 0.62410 0.43400
C 	C 	0.49660 0.30460 0.61770 -0.26600
H 	H 	0.46770 0.32220 0.63260 0.11700
H 	H 	0.52730 0.31590 0.63510 0.11800
O 	O 	0.48590 0.22910 0.66740 -0.41300
O 	O 	0.49130 0.22030 0.58540 -0.40000
C 	C 	0.49050 0.50100 0.12590 0.43600
C 	C 	0.49660 0.44540 0.13230 -0.26700
H 	H 	0.46770 0.42780 0.11740 0.11500
H 	H 	0.52730 0.43410 0.11490 0.11700
O 	O 	0.48590 0.52090 0.08260 -0.43200
O 	O 	0.49130 0.52970 0.16460 -0.40200
C 	C 	0.49050 0.00100 0.62590 0.29400
C 	C 	0.49660 0.94540 0.63230 -0.10900
H 	H 	0.46770 0.92780 0.61740 0.08500
H 	H 	0.52730 0.93410 0.61490 0.08600
O 	O 	0.48590 0.02090 0.58260 -0.41000
O 	O 	0.49130 0.02970 0.66460 -0.38000
C 	C 	0.99050 0.50100 0.62590 0.31300
C 	C 	0.99660 0.44540 0.63230 0.13500
H 	H 	0.96770 0.42780 0.61740 0.01800
H 	H 	0.02730 0.43410 0.61490 -0.06100
O 	O 	0.98590 0.52090 0.58260 -0.33000
O 	O 	0.99130 0.52970 0.66460 -0.29700
C 	C 	0.99050 0.00100 0.12590 0.18100
C 	C 	0.99660 0.94540 0.13230 0.27900
H 	H 	0.96770 0.92780 0.11740 -0.01300
H 	H 	0.02730 0.93410 0.11490 -0.09100
O 	O 	0.98590 0.02090 0.08260 -0.34900
O 	O 	0.99130 0.02970 0.16460 -0.28100
C 	C 	0.25950 0.00100 0.12410 0.29500
C 	C 	0.25340 0.94540 0.11770 -0.12800
H 	H 	0.28230 0.92780 0.13260 0.09100
H 	H 	0.22270 0.93410 0.13510 0.09100
O 	O 	0.26410 0.02090 0.16740 -0.41400
O 	O 	0.25870 0.02970 0.08540 -0.37700
C 	C 	0.25950 0.50100 0.62410 0.43300
C 	C 	0.25340 0.44540 0.61770 -0.26600
H 	H 	0.28230 0.42780 0.63260 0.11700
H 	H 	0.22270 0.43410 0.63510 0.11700
O 	O 	0.26410 0.52090 0.66740 -0.41300
O 	O 	0.25870 0.52970 0.58540 -0.39900
C 	C 	0.75950 0.00100 0.62410 0.29600
C 	C 	0.75340 0.94540 0.61770 -0.11300
H 	H 	0.78230 0.92780 0.63260 0.08700
H 	H 	0.72270 0.93410 0.63510 0.08700
O 	O 	0.76410 0.02090 0.66740 -0.41000
O 	O 	0.75870 0.02970 0.58540 -0.38000
C 	C 	0.75950 0.50100 0.12410 0.43900
C 	C 	0.75340 0.44540 0.11770 -0.29000
H 	H 	0.78230 0.42780 0.13260 0.12600
H 	H 	0.72270 0.43410 0.13510 0.12500
O 	O 	0.76410 0.52090 0.16740 -0.41500
O 	O 	0.75870 0.52970 0.08540 -0.39600
C 	C 	0.74900 0.62410 0.99050 0.31700
C 	C 	0.80460 0.61770 0.99660 0.12400
H 	H 	0.82220 0.63260 0.96770 0.02200
H 	H 	0.81590 0.63510 0.02730 -0.05600
O 	O 	0.72910 0.66740 0.98590 -0.33200
O 	O 	0.72030 0.58540 0.99130 -0.29800
C 	C 	0.74900 0.12410 0.49050 0.44000
C 	C 	0.80460 0.11770 0.49660 -0.29100
H 	H 	0.82220 0.13260 0.46770 0.12700
H 	H 	0.81590 0.13510 0.52730 0.12600
O 	O 	0.72910 0.16740 0.48590 -0.41500
O 	O 	0.72030 0.08540 0.49130 -0.39600
C 	C 	0.24900 0.62410 0.49050 0.43400
C 	C 	0.30460 0.61770 0.49660 -0.26600
H 	H 	0.32220 0.63260 0.46770 0.11700
H 	H 	0.31590 0.63510 0.52730 0.11800
O 	O 	0.22910 0.66740 0.48590 -0.41300
O 	O 	0.22030 0.58540 0.49130 -0.40000
C 	C 	0.24900 0.12410 0.99050 0.31600
C 	C 	0.30460 0.11770 0.99660 0.12100
H 	H 	0.32220 0.13260 0.96770 0.02300
H 	H 	0.31590 0.13510 0.02730 -0.05900
O 	O 	0.22910 0.16740 0.98590 -0.33300
O 	O 	0.22030 0.08540 0.99130 -0.29300
C 	C 	0.24900 0.62590 0.75950 0.43400
C 	C 	0.30460 0.63230 0.75340 -0.26800
H 	H 	0.32220 0.61740 0.78230 0.11900
H 	H 	0.31590 0.61490 0.72270 0.11900
O 	O 	0.22910 0.58260 0.76410 -0.41300
O 	O 	0.22030 0.66460 0.75870 -0.40000
C 	C 	0.24900 0.12590 0.25950 0.43600
C 	C 	0.30460 0.13230 0.25340 -0.26700
H 	H 	0.32220 0.11740 0.28230 0.11500
H 	H 	0.31590 0.11490 0.22270 0.11600
O 	O 	0.22910 0.08260 0.26410 -0.43400
O 	O 	0.22030 0.16460 0.25870 -0.40500
C 	C 	0.74900 0.62590 0.25950 0.43400
C 	C 	0.80460 0.63230 0.25340 -0.26800
H 	H 	0.82220 0.61740 0.28230 0.12000
H 	H 	0.81590 0.61490 0.22270 0.11900
O 	O 	0.72910 0.58260 0.26410 -0.41300
O 	O 	0.72030 0.66460 0.25870 -0.40000
C 	C 	0.74900 0.12590 0.75950 0.43800
C 	C 	0.80460 0.13230 0.75340 -0.27100
H 	H 	0.82220 0.11740 0.78230 0.12000
H 	H 	0.81590 0.11490 0.72270 0.11900
O 	O 	0.72910 0.08260 0.76410 -0.43100
O 	O 	0.72030 0.16460 0.75870 -0.40200
C 	C 	0.00100 0.12410 0.25950 0.29500
C 	C 	0.94540 0.11770 0.25340 -0.12800
H 	H 	0.92780 0.13260 0.28230 0.09100
H 	H 	0.93410 0.13510 0.22270 0.09100
O 	O 	0.02090 0.16740 0.26410 -0.41400
O 	O 	0.02970 0.08540 0.25870 -0.37700
C 	C 	0.00100 0.62410 0.75950 0.29600
C 	C 	0.94540 0.61770 0.75340 -0.11300
H 	H 	0.92780 0.63260 0.78230 0.08700
H 	H 	0.93410 0.63510 0.72270 0.08700
O 	O 	0.02090 0.66740 0.76410 -0.41000
O 	O 	0.02970 0.58540 0.75870 -0.38000
C 	C 	0.50100 0.12410 0.75950 0.43900
C 	C 	0.44540 0.11770 0.75340 -0.29000
H 	H 	0.42780 0.13260 0.78230 0.12600
H 	H 	0.43410 0.13510 0.72270 0.12500
O 	O 	0.52090 0.16740 0.76410 -0.41500
O 	O 	0.52970 0.08540 0.75870 -0.39600
C 	C 	0.50100 0.62410 0.25950 0.43300
C 	C 	0.44540 0.61770 0.25340 -0.26600
H 	H 	0.42780 0.63260 0.28230 0.11700
H 	H 	0.43410 0.63510 0.22270 0.11700
O 	O 	0.52090 0.66740 0.26410 -0.41300
O 	O 	0.52970 0.58540 0.25870 -0.39900
C 	C 	0.50100 0.12590 0.49050 0.43600
C 	C 	0.44540 0.13230 0.49660 -0.26700
H 	H 	0.42780 0.11740 0.46770 0.11500
H 	H 	0.43410 0.11490 0.52730 0.11700
O 	O 	0.52090 0.08260 0.48590 -0.43200
O 	O 	0.52970 0.16460 0.49130 -0.40200
C 	C 	0.50100 0.62590 0.99050 0.31300
C 	C 	0.44540 0.63230 0.99660 0.13500
H 	H 	0.42780 0.61740 0.96770 0.01800
H 	H 	0.43410 0.61490 0.02730 -0.06100
O 	O 	0.52090 0.58260 0.98590 -0.33000
O 	O 	0.52970 0.66460 0.99130 -0.29700
C 	C 	0.00100 0.12590 0.99050 0.18100
C 	C 	0.94540 0.13230 0.99660 0.27900
H 	H 	0.92780 0.11740 0.96770 -0.01300
H 	H 	0.93410 0.11490 0.02730 -0.09100
O 	O 	0.02090 0.08260 0.98590 -0.34900
O 	O 	0.02970 0.16460 0.99130 -0.28100
C 	C 	0.00100 0.62590 0.49050 0.29400
C 	C 	0.94540 0.63230 0.49660 -0.10900
H 	H 	0.92780 0.61740 0.46770 0.08500
H 	H 	0.93410 0.61490 0.52730 0.08600
O 	O 	0.02090 0.58260 0.48590 -0.41000
O 	O 	0.02970 0.66460 0.49130 -0.38000
C 	C 	0.99050 0.62590 0.00100 0.18200
C 	C 	0.99660 0.63230 0.94540 0.27100
H 	H 	0.96770 0.61740 0.92780 -0.01000
H 	H 	0.02730 0.61490 0.93410 -0.08600
O 	O 	0.98590 0.58260 0.02090 -0.33000
O 	O 	0.99130 0.66460 0.02970 -0.28000
C 	C 	0.99050 0.12590 0.50100 0.31400
C 	C 	0.99660 0.13230 0.44540 0.14100
H 	H 	0.96770 0.11740 0.42780 0.01400
H 	H 	0.02730 0.11490 0.43410 -0.06600
O 	O 	0.98590 0.08260 0.52090 -0.34900
O 	O 	0.99130 0.16460 0.52970 -0.29900
C 	C 	0.49050 0.62590 0.50100 0.43300
C 	C 	0.49660 0.63230 0.44540 -0.26600
H 	H 	0.46770 0.61740 0.42780 0.11700
H 	H 	0.52730 0.61490 0.43410 0.11800
O 	O 	0.48590 0.58260 0.52090 -0.41200
O 	O 	0.49130 0.66460 0.52970 -0.39800
C 	C 	0.49050 0.12590 0.00100 0.29400
C 	C 	0.49660 0.13230 0.94540 -0.10800
H 	H 	0.46770 0.11740 0.92780 0.08300
H 	H 	0.52730 0.11490 0.93410 0.08400
O 	O 	0.48590 0.08260 0.02090 -0.43000
O 	O 	0.49130 0.16460 0.02970 -0.38300
C 	C 	0.75950 0.62410 0.50100 0.43400
C 	C 	0.75340 0.61770 0.44540 -0.26800
H 	H 	0.78230 0.63260 0.42780 0.11900
H 	H 	0.72270 0.63510 0.43410 0.11900
O 	O 	0.76410 0.66740 0.52090 -0.41200
O 	O 	0.75870 0.58540 0.52970 -0.39800
C 	C 	0.75950 0.12410 0.00100 0.30000
C 	C 	0.75340 0.11770 0.94540 -0.13300
H 	H 	0.78230 0.13260 0.92780 0.09400
H 	H 	0.72270 0.13510 0.93410 0.09300
O 	O 	0.76410 0.16740 0.02090 -0.41300
O 	O 	0.75870 0.08540 0.02970 -0.37700
C 	C 	0.25950 0.62410 0.00100 0.29200
C 	C 	0.25340 0.61770 0.94540 -0.10800
H 	H 	0.28230 0.63260 0.92780 0.08500
H 	H 	0.22270 0.63510 0.93410 0.08500
O 	O 	0.26410 0.66740 0.02090 -0.41100
O 	O 	0.25870 0.58540 0.02970 -0.38000
C 	C 	0.25950 0.12410 0.50100 0.43800
C 	C 	0.25340 0.11770 0.44540 -0.28800
H 	H 	0.28230 0.13260 0.42780 0.12400
H 	H 	0.22270 0.13510 0.43410 0.12400
O 	O 	0.26410 0.16740 0.52090 -0.41600
O 	O 	0.25870 0.08540 0.52970 -0.39700
C 	C 	0.25950 0.12590 0.74900 0.43700
C 	C 	0.25340 0.13230 0.80460 -0.27000
H 	H 	0.28230 0.11740 0.82220 0.11800
H 	H 	0.22270 0.11490 0.81590 0.11800
O 	O 	0.26410 0.08260 0.72910 -0.43300
O 	O 	0.25870 0.16460 0.72030 -0.40400
C 	C 	0.25950 0.62590 0.24900 0.43300
C 	C 	0.25340 0.63230 0.30460 -0.26600
H 	H 	0.28230 0.61740 0.32220 0.11700
H 	H 	0.22270 0.61490 0.31590 0.11700
O 	O 	0.26410 0.58260 0.22910 -0.41400
O 	O 	0.25870 0.66460 0.22030 -0.40100
C 	C 	0.75950 0.12590 0.24900 0.43700
C 	C 	0.75340 0.13230 0.30460 -0.26900
H 	H 	0.78230 0.11740 0.32220 0.11700
H 	H 	0.72270 0.11490 0.31590 0.11700
O 	O 	0.76410 0.08260 0.22910 -0.43300
O 	O 	0.75870 0.16460 0.22030 -0.40400
C 	C 	0.75950 0.62590 0.74900 0.43500
C 	C 	0.75340 0.63230 0.80460 -0.27000
H 	H 	0.78230 0.61740 0.82220 0.12200
H 	H 	0.72270 0.61490 0.81590 0.12100
O 	O 	0.76410 0.58260 0.72910 -0.41200
O 	O 	0.75870 0.66460 0.72030 -0.39900
C 	C 	0.49050 0.12410 0.24900 0.43900
C 	C 	0.49660 0.11770 0.30460 -0.28900
H 	H 	0.46770 0.13260 0.32220 0.12400
H 	H 	0.52730 0.13510 0.31590 0.12400
O 	O 	0.48590 0.16740 0.22910 -0.41600
O 	O 	0.49130 0.08540 0.22030 -0.39700
C 	C 	0.49050 0.62410 0.74900 0.43500
C 	C 	0.49660 0.61770 0.80460 -0.26900
H 	H 	0.46770 0.63260 0.82220 0.12000
H 	H 	0.52730 0.63510 0.81590 0.12000
O 	O 	0.48590 0.66740 0.72910 -0.41200
O 	O 	0.49130 0.58540 0.72030 -0.39900
C 	C 	0.99050 0.12410 0.74900 0.32000
C 	C 	0.99660 0.11770 0.80460 0.10800
H 	H 	0.96770 0.13260 0.82220 0.02800
H 	H 	0.02730 0.13510 0.81590 -0.05300
O 	O 	0.98590 0.16740 0.72910 -0.33400
O 	O 	0.99130 0.08540 0.72030 -0.29400
C 	C 	0.99050 0.62410 0.24900 0.31200
C 	C 	0.99660 0.61770 0.30460 0.13700
H 	H 	0.96770 0.63260 0.32220 0.01700
H 	H 	0.02730 0.63510 0.31590 -0.06200
O 	O 	0.98590 0.66740 0.22910 -0.33100
O 	O 	0.99130 0.58540 0.22030 -0.29700
C 	C 	0.00100 0.99050 0.62590 0.18200
C 	C 	0.94540 0.99660 0.63230 0.27100
H 	H 	0.92780 0.96770 0.61740 -0.01000
H 	H 	0.93410 0.02730 0.61490 -0.08600
O 	O 	0.02090 0.98590 0.58260 -0.33000
O 	O 	0.02970 0.99130 0.66460 -0.28000
C 	C 	0.00100 0.49050 0.12590 0.29400
C 	C 	0.94540 0.49660 0.13230 -0.10800
H 	H 	0.92780 0.46770 0.11740 0.08300
H 	H 	0.93410 0.52730 0.11490 0.08400
O 	O 	0.02090 0.48590 0.08260 -0.43000
O 	O 	0.02970 0.49130 0.16460 -0.38300
C 	C 	0.50100 0.99050 0.12590 0.31400
C 	C 	0.44540 0.99660 0.13230 0.14100
H 	H 	0.42780 0.96770 0.11740 0.01400
H 	H 	0.43410 0.02730 0.11490 -0.06600
O 	O 	0.52090 0.98590 0.08260 -0.34900
O 	O 	0.52970 0.99130 0.16460 -0.29900
C 	C 	0.50100 0.49050 0.62590 0.43300
C 	C 	0.44540 0.49660 0.63230 -0.26600
H 	H 	0.42780 0.46770 0.61740 0.11700
H 	H 	0.43410 0.52730 0.61490 0.11800
O 	O 	0.52090 0.48590 0.58260 -0.41200
O 	O 	0.52970 0.49130 0.66460 -0.39800
C 	C 	0.50100 0.75950 0.62410 0.43400
C 	C 	0.44540 0.75340 0.61770 -0.26800
H 	H 	0.42780 0.78230 0.63260 0.11900
H 	H 	0.43410 0.72270 0.63510 0.11900
O 	O 	0.52090 0.76410 0.66740 -0.41200
O 	O 	0.52970 0.75870 0.58540 -0.39800
C 	C 	0.50100 0.25950 0.12410 0.43800
C 	C 	0.44540 0.25340 0.11770 -0.28800
H 	H 	0.42780 0.28230 0.13260 0.12400
H 	H 	0.43410 0.22270 0.13510 0.12400
O 	O 	0.52090 0.26410 0.16740 -0.41600
O 	O 	0.52970 0.25870 0.08540 -0.39700
C 	C 	0.00100 0.75950 0.12410 0.30000
C 	C 	0.94540 0.75340 0.11770 -0.13300
H 	H 	0.92780 0.78230 0.13260 0.09400
H 	H 	0.93410 0.72270 0.13510 0.09300
O 	O 	0.02090 0.76410 0.16740 -0.41300
O 	O 	0.02970 0.75870 0.08540 -0.37700
C 	C 	0.00100 0.25950 0.62410 0.29200
C 	C 	0.94540 0.25340 0.61770 -0.10800
H 	H 	0.92780 0.28230 0.63260 0.08500
H 	H 	0.93410 0.22270 0.63510 0.08500
O 	O 	0.02090 0.26410 0.66740 -0.41100
O 	O 	0.02970 0.25870 0.58540 -0.38000
C 	C 	0.74900 0.25950 0.12590 0.43700
C 	C 	0.80460 0.25340 0.13230 -0.27000
H 	H 	0.82220 0.28230 0.11740 0.11800
H 	H 	0.81590 0.22270 0.11490 0.11800
O 	O 	0.72910 0.26410 0.08260 -0.43300
O 	O 	0.72030 0.25870 0.16460 -0.40400
C 	C 	0.74900 0.75950 0.62590 0.43500
C 	C 	0.80460 0.75340 0.63230 -0.27000
H 	H 	0.82220 0.78230 0.61740 0.12200
H 	H 	0.81590 0.72270 0.61490 0.12100
O 	O 	0.72910 0.76410 0.58260 -0.41200
O 	O 	0.72030 0.75870 0.66460 -0.39900
C 	C 	0.24900 0.25950 0.62590 0.43300
C 	C 	0.30460 0.25340 0.63230 -0.26600
H 	H 	0.32220 0.28230 0.61740 0.11700
H 	H 	0.31590 0.22270 0.61490 0.11700
O 	O 	0.22910 0.26410 0.58260 -0.41400
O 	O 	0.22030 0.25870 0.66460 -0.40100
C 	C 	0.24900 0.75950 0.12590 0.43700
C 	C 	0.30460 0.75340 0.13230 -0.26900
H 	H 	0.32220 0.78230 0.11740 0.11700
H 	H 	0.31590 0.72270 0.11490 0.11700
O 	O 	0.22910 0.76410 0.08260 -0.43300
O 	O 	0.22030 0.75870 0.16460 -0.40400
C 	C 	0.24900 0.49050 0.12410 0.43900
C 	C 	0.30460 0.49660 0.11770 -0.28900
H 	H 	0.32220 0.46770 0.13260 0.12400
H 	H 	0.31590 0.52730 0.13510 0.12400
O 	O 	0.22910 0.48590 0.16740 -0.41600
O 	O 	0.22030 0.49130 0.08540 -0.39700
C 	C 	0.24900 0.99050 0.62410 0.31200
C 	C 	0.30460 0.99660 0.61770 0.13700
H 	H 	0.32220 0.96770 0.63260 0.01700
H 	H 	0.31590 0.02730 0.63510 -0.06200
O 	O 	0.22910 0.98590 0.66740 -0.33100
O 	O 	0.22030 0.99130 0.58540 -0.29700
C 	C 	0.74900 0.49050 0.62410 0.43500
C 	C 	0.80460 0.49660 0.61770 -0.26900
H 	H 	0.82220 0.46770 0.63260 0.12000
H 	H 	0.81590 0.52730 0.63510 0.12000
O 	O 	0.72910 0.48590 0.66740 -0.41200
O 	O 	0.72030 0.49130 0.58540 -0.39900
C 	C 	0.74900 0.99050 0.12410 0.32000
C 	C 	0.80460 0.99660 0.11770 0.10800
H 	H 	0.82220 0.96770 0.13260 0.02800
H 	H 	0.81590 0.02730 0.13510 -0.05300
O 	O 	0.72910 0.98590 0.16740 -0.33400
O 	O 	0.72030 0.99130 0.08540 -0.29400
C 	C 	0.62590 0.00100 0.99050 0.18200
C 	C 	0.63230 0.94540 0.99660 0.27100
H 	H 	0.61740 0.92780 0.96770 -0.01000
H 	H 	0.61490 0.93410 0.02730 -0.08600
O 	O 	0.58260 0.02090 0.98590 -0.33000
O 	O 	0.66460 0.02970 0.99130 -0.28000
C 	C 	0.62590 0.50100 0.49050 0.43300
C 	C 	0.63230 0.44540 0.49660 -0.26600
H 	H 	0.61740 0.42780 0.46770 0.11700
H 	H 	0.61490 0.43410 0.52730 0.11800
O 	O 	0.58260 0.52090 0.48590 -0.41200
O 	O 	0.66460 0.52970 0.49130 -0.39800
C 	C 	0.12590 0.00100 0.49050 0.29400
C 	C 	0.13230 0.94540 0.49660 -0.10800
H 	H 	0.11740 0.92780 0.46770 0.08300
H 	H 	0.11490 0.93410 0.52730 0.08400
O 	O 	0.08260 0.02090 0.48590 -0.43000
O 	O 	0.16460 0.02970 0.49130 -0.38300
C 	C 	0.12590 0.50100 0.99050 0.31400
C 	C 	0.13230 0.44540 0.99660 0.14100
H 	H 	0.11740 0.42780 0.96770 0.01400
H 	H 	0.11490 0.43410 0.02730 -0.06600
O 	O 	0.08260 0.52090 0.98590 -0.34900
O 	O 	0.16460 0.52970 0.99130 -0.29900
C 	C 	0.62410 0.50100 0.75950 0.43400
C 	C 	0.61770 0.44540 0.75340 -0.26800
H 	H 	0.63260 0.42780 0.78230 0.11900
H 	H 	0.63510 0.43410 0.72270 0.11900
O 	O 	0.66740 0.52090 0.76410 -0.41200
O 	O 	0.58540 0.52970 0.75870 -0.39800
C 	C 	0.62410 0.00100 0.25950 0.29200
C 	C 	0.61770 0.94540 0.25340 -0.10800
H 	H 	0.63260 0.92780 0.28230 0.08500
H 	H 	0.63510 0.93410 0.22270 0.08500
O 	O 	0.66740 0.02090 0.26410 -0.41100
O 	O 	0.58540 0.02970 0.25870 -0.38000
C 	C 	0.12410 0.50100 0.25950 0.43800
C 	C 	0.11770 0.44540 0.25340 -0.28800
H 	H 	0.13260 0.42780 0.28230 0.12400
H 	H 	0.13510 0.43410 0.22270 0.12400
O 	O 	0.16740 0.52090 0.26410 -0.41600
O 	O 	0.08540 0.52970 0.25870 -0.39700
C 	C 	0.12410 0.00100 0.75950 0.30000
C 	C 	0.11770 0.94540 0.75340 -0.13300
H 	H 	0.13260 0.92780 0.78230 0.09400
H 	H 	0.13510 0.93410 0.72270 0.09300
O 	O 	0.16740 0.02090 0.76410 -0.41300
O 	O 	0.08540 0.02970 0.75870 -0.37700
C 	C 	0.12590 0.74900 0.25950 0.43700
C 	C 	0.13230 0.80460 0.25340 -0.27000
H 	H 	0.11740 0.82220 0.28230 0.11800
H 	H 	0.11490 0.81590 0.22270 0.11800
O 	O 	0.08260 0.72910 0.26410 -0.43300
O 	O 	0.16460 0.72030 0.25870 -0.40400
C 	C 	0.12590 0.24900 0.75950 0.43700
C 	C 	0.13230 0.30460 0.75340 -0.26900
H 	H 	0.11740 0.32220 0.78230 0.11700
H 	H 	0.11490 0.31590 0.72270 0.11700
O 	O 	0.08260 0.22910 0.76410 -0.43300
O 	O 	0.16460 0.22030 0.75870 -0.40400
C 	C 	0.62590 0.74900 0.75950 0.43500
C 	C 	0.63230 0.80460 0.75340 -0.27000
H 	H 	0.61740 0.82220 0.78230 0.12200
H 	H 	0.61490 0.81590 0.72270 0.12100
O 	O 	0.58260 0.72910 0.76410 -0.41200
O 	O 	0.66460 0.72030 0.75870 -0.39900
C 	C 	0.62590 0.24900 0.25950 0.43300
C 	C 	0.63230 0.30460 0.25340 -0.26600
H 	H 	0.61740 0.32220 0.28230 0.11700
H 	H 	0.61490 0.31590 0.22270 0.11700
O 	O 	0.58260 0.22910 0.26410 -0.41400
O 	O 	0.66460 0.22030 0.25870 -0.40100
C 	C 	0.12410 0.24900 0.49050 0.43900
C 	C 	0.11770 0.30460 0.49660 -0.28900
H 	H 	0.13260 0.32220 0.46770 0.12400
H 	H 	0.13510 0.31590 0.52730 0.12400
O 	O 	0.16740 0.22910 0.48590 -0.41600
O 	O 	0.08540 0.22030 0.49130 -0.39700
C 	C 	0.12410 0.74900 0.99050 0.32000
C 	C 	0.11770 0.80460 0.99660 0.10800
H 	H 	0.13260 0.82220 0.96770 0.02800
H 	H 	0.13510 0.81590 0.02730 -0.05300
O 	O 	0.16740 0.72910 0.98590 -0.33400
O 	O 	0.08540 0.72030 0.99130 -0.29400
C 	C 	0.62410 0.24900 0.99050 0.31200
C 	C 	0.61770 0.30460 0.99660 0.13700
H 	H 	0.63260 0.32220 0.96770 0.01700
H 	H 	0.63510 0.31590 0.02730 -0.06200
O 	O 	0.66740 0.22910 0.98590 -0.33100
O 	O 	0.58540 0.22030 0.99130 -0.29700
C 	C 	0.62410 0.74900 0.49050 0.43500
C 	C 	0.61770 0.80460 0.49660 -0.26900
H 	H 	0.63260 0.82220 0.46770 0.12000
H 	H 	0.63510 0.81590 0.52730 0.12000
O 	O 	0.66740 0.72910 0.48590 -0.41200
O 	O 	0.58540 0.72030 0.49130 -0.39900
C 	C 	0.87590 0.74050 0.99900 0.55200
C 	C 	0.88230 0.74660 0.05460 -0.41500
H 	H 	0.86740 0.71770 0.07220 0.15300
H 	H 	0.86490 0.77730 0.06590 0.15500
O 	O 	0.83260 0.73590 0.97910 -0.39100
O 	O 	0.91460 0.74130 0.97030 -0.31400
C 	C 	0.87590 0.24050 0.49900 0.42000
C 	C 	0.88230 0.24660 0.55460 -0.25100
H 	H 	0.86740 0.21770 0.57220 0.11300
H 	H 	0.86490 0.27730 0.56590 0.11700
O 	O 	0.83260 0.23590 0.47910 -0.40400
O 	O 	0.91460 0.24130 0.47030 -0.34200
C 	C 	0.37590 0.74050 0.49900 0.43500
C 	C 	0.38230 0.74660 0.55460 -0.26700
H 	H 	0.36740 0.71770 0.57220 0.11700
H 	H 	0.36490 0.77730 0.56590 0.12000
O 	O 	0.33260 0.73590 0.47910 -0.41100
O 	O 	0.41460 0.74130 0.47030 -0.39700
C 	C 	0.37590 0.24050 0.99900 0.57100
C 	C 	0.38230 0.24660 0.05460 -0.43600
H 	H 	0.36740 0.21770 0.07220 0.15700
H 	H 	0.36490 0.27730 0.06590 0.15700
O 	O 	0.33260 0.23590 0.97910 -0.39900
O 	O 	0.41460 0.24130 0.97030 -0.36900
C 	C 	0.87410 0.50950 0.49900 0.42900
C 	C 	0.86770 0.50340 0.55460 -0.26500
H 	H 	0.88260 0.53230 0.57220 0.12000
H 	H 	0.88510 0.47270 0.56590 0.12400
O 	O 	0.91740 0.51410 0.47910 -0.38000
O 	O 	0.83540 0.50870 0.47030 -0.39200
C 	C 	0.87410 0.00950 0.99900 0.60900
C 	C 	0.86770 0.00340 0.05460 -0.61000
H 	H 	0.88260 0.03230 0.07220 0.20300
H 	H 	0.88510 0.97270 0.06590 0.28400
O 	O 	0.91740 0.01410 0.97910 -0.41600
O 	O 	0.83540 0.00870 0.97030 -0.38700
C 	C 	0.37410 0.50950 0.99900 0.57100
C 	C 	0.36770 0.50340 0.05460 -0.43500
H 	H 	0.38260 0.53230 0.07220 0.15700
H 	H 	0.38510 0.47270 0.06590 0.15600
O 	O 	0.41740 0.51410 0.97910 -0.39900
O 	O 	0.33540 0.50870 0.97030 -0.36800
C 	C 	0.37410 0.00950 0.49900 0.48100
C 	C 	0.36770 0.00340 0.55460 -0.45000
H 	H 	0.38260 0.03230 0.57220 0.16100
H 	H 	0.38510 0.97270 0.56590 0.24400
O 	O 	0.41740 0.01410 0.47910 -0.46000
O 	O 	0.33540 0.00870 0.47030 -0.42300
C 	C 	0.37590 0.00950 0.25100 0.48100
C 	C 	0.38230 0.00340 0.19540 -0.45100
H 	H 	0.36740 0.03230 0.17780 0.16100
H 	H 	0.36490 0.97270 0.18410 0.24500
O 	O 	0.33260 0.01410 0.27090 -0.46100
O 	O 	0.41460 0.00870 0.27970 -0.42300
C 	C 	0.37590 0.50950 0.75100 0.43300
C 	C 	0.38230 0.50340 0.69540 -0.26600
H 	H 	0.36740 0.53230 0.67780 0.11700
H 	H 	0.36490 0.47270 0.68410 0.11900
O 	O 	0.33260 0.51410 0.77090 -0.40900
O 	O 	0.41460 0.50870 0.77970 -0.39500
C 	C 	0.87590 0.00950 0.75100 0.46600
C 	C 	0.88230 0.00340 0.69540 -0.43000
H 	H 	0.86740 0.03230 0.67780 0.15700
H 	H 	0.86490 0.97270 0.68410 0.23900
O 	O 	0.83260 0.01410 0.77090 -0.44900
O 	O 	0.91460 0.00870 0.77970 -0.36500
C 	C 	0.87590 0.50950 0.25100 0.42000
C 	C 	0.88230 0.50340 0.19540 -0.25100
H 	H 	0.86740 0.53230 0.17780 0.11400
H 	H 	0.86490 0.47270 0.18410 0.11700
O 	O 	0.83260 0.51410 0.27090 -0.40400
O 	O 	0.91460 0.50870 0.27970 -0.34200
C 	C 	0.37410 0.24050 0.75100 0.43300
C 	C 	0.36770 0.24660 0.69540 -0.26500
H 	H 	0.38260 0.21770 0.67780 0.11600
H 	H 	0.38510 0.27730 0.68410 0.11800
O 	O 	0.41740 0.23590 0.77090 -0.40900
O 	O 	0.33540 0.24130 0.77970 -0.39500
C 	C 	0.37410 0.74050 0.25100 0.43400
C 	C 	0.36770 0.74660 0.19540 -0.26700
H 	H 	0.38260 0.71770 0.17780 0.11700
H 	H 	0.38510 0.77730 0.18410 0.12000
O 	O 	0.41740 0.73590 0.27090 -0.41100
O 	O 	0.33540 0.74130 0.27970 -0.39700
C 	C 	0.87410 0.24050 0.25100 0.42800
C 	C 	0.86770 0.24660 0.19540 -0.26400
H 	H 	0.88260 0.21770 0.17780 0.11900
H 	H 	0.88510 0.27730 0.18410 0.12300
O 	O 	0.91740 0.23590 0.27090 -0.37900
O 	O 	0.83540 0.24130 0.27970 -0.39200
C 	C 	0.87410 0.74050 0.75100 0.43000
C 	C 	0.86770 0.74660 0.69540 -0.26600
H 	H 	0.88260 0.71770 0.67780 0.12100
H 	H 	0.88510 0.77730 0.68410 0.12600
O 	O 	0.91740 0.73590 0.77090 -0.37800
O 	O 	0.83540 0.74130 0.77970 -0.38900
C 	C 	0.24050 0.75100 0.37410 0.43300
C 	C 	0.24660 0.69540 0.36770 -0.26500
H 	H 	0.21770 0.67780 0.38260 0.11600
H 	H 	0.27730 0.68410 0.38510 0.11800
O 	O 	0.23590 0.77090 0.41740 -0.40900
O 	O 	0.24130 0.77970 0.33540 -0.39500
C 	C 	0.24050 0.25100 0.87410 0.42800
C 	C 	0.24660 0.19540 0.86770 -0.26400
H 	H 	0.21770 0.17780 0.88260 0.11900
H 	H 	0.27730 0.18410 0.88510 0.12300
O 	O 	0.23590 0.27090 0.91740 -0.37900
O 	O 	0.24130 0.27970 0.83540 -0.39200
C 	C 	0.74050 0.75100 0.87410 0.43000
C 	C 	0.74660 0.69540 0.86770 -0.26600
H 	H 	0.71770 0.67780 0.88260 0.12100
H 	H 	0.77730 0.68410 0.88510 0.12600
O 	O 	0.73590 0.77090 0.91740 -0.37800
O 	O 	0.74130 0.77970 0.83540 -0.38900
C 	C 	0.74050 0.25100 0.37410 0.43400
C 	C 	0.74660 0.19540 0.36770 -0.26700
H 	H 	0.71770 0.17780 0.38260 0.11700
H 	H 	0.77730 0.18410 0.38510 0.12000
O 	O 	0.73590 0.27090 0.41740 -0.41100
O 	O 	0.74130 0.27970 0.33540 -0.39700
C 	C 	0.00950 0.25100 0.37590 0.48100
C 	C 	0.00340 0.19540 0.38230 -0.45100
H 	H 	0.03230 0.17780 0.36740 0.16100
H 	H 	0.97270 0.18410 0.36490 0.24500
O 	O 	0.01410 0.27090 0.33260 -0.46100
O 	O 	0.00870 0.27970 0.41460 -0.42300
C 	C 	0.00950 0.75100 0.87590 0.46600
C 	C 	0.00340 0.69540 0.88230 -0.43000
H 	H 	0.03230 0.67780 0.86740 0.15700
H 	H 	0.97270 0.68410 0.86490 0.23900
O 	O 	0.01410 0.77090 0.83260 -0.44900
O 	O 	0.00870 0.77970 0.91460 -0.36500
C 	C 	0.50950 0.25100 0.87590 0.42000
C 	C 	0.50340 0.19540 0.88230 -0.25100
H 	H 	0.53230 0.17780 0.86740 0.11400
H 	H 	0.47270 0.18410 0.86490 0.11700
O 	O 	0.51410 0.27090 0.83260 -0.40400
O 	O 	0.50870 0.27970 0.91460 -0.34200
C 	C 	0.50950 0.75100 0.37590 0.43300
C 	C 	0.50340 0.69540 0.38230 -0.26600
H 	H 	0.53230 0.67780 0.36740 0.11700
H 	H 	0.47270 0.68410 0.36490 0.11900
O 	O 	0.51410 0.77090 0.33260 -0.40900
O 	O 	0.50870 0.77970 0.41460 -0.39500
C 	C 	0.50950 0.49900 0.87410 0.42900
C 	C 	0.50340 0.55460 0.86770 -0.26500
H 	H 	0.53230 0.57220 0.88260 0.12000
H 	H 	0.47270 0.56590 0.88510 0.12400
O 	O 	0.51410 0.47910 0.91740 -0.38000
O 	O 	0.50870 0.47030 0.83540 -0.39200
C 	C 	0.50950 0.99900 0.37410 0.57100
C 	C 	0.50340 0.05460 0.36770 -0.43500
H 	H 	0.53230 0.07220 0.38260 0.15700
H 	H 	0.47270 0.06590 0.38510 0.15600
O 	O 	0.51410 0.97910 0.41740 -0.39900
O 	O 	0.50870 0.97030 0.33540 -0.36800
C 	C 	0.00950 0.49900 0.37410 0.48100
C 	C 	0.00340 0.55460 0.36770 -0.45000
H 	H 	0.03230 0.57220 0.38260 0.16100
H 	H 	0.97270 0.56590 0.38510 0.24400
O 	O 	0.01410 0.47910 0.41740 -0.46000
O 	O 	0.00870 0.47030 0.33540 -0.42300
C 	C 	0.00950 0.99900 0.87410 0.60900
C 	C 	0.00340 0.05460 0.86770 -0.61000
H 	H 	0.03230 0.07220 0.88260 0.20300
H 	H 	0.97270 0.06590 0.88510 0.28400
O 	O 	0.01410 0.97910 0.91740 -0.41600
O 	O 	0.00870 0.97030 0.83540 -0.38700
C 	C 	0.74050 0.99900 0.87590 0.55200
C 	C 	0.74660 0.05460 0.88230 -0.41500
H 	H 	0.71770 0.07220 0.86740 0.15300
H 	H 	0.77730 0.06590 0.86490 0.15500
O 	O 	0.73590 0.97910 0.83260 -0.39100
O 	O 	0.74130 0.97030 0.91460 -0.31400
C 	C 	0.74050 0.49900 0.37590 0.43500
C 	C 	0.74660 0.55460 0.38230 -0.26700
H 	H 	0.71770 0.57220 0.36740 0.11700
H 	H 	0.77730 0.56590 0.36490 0.12000
O 	O 	0.73590 0.47910 0.33260 -0.41100
O 	O 	0.74130 0.47030 0.41460 -0.39700
C 	C 	0.24050 0.99900 0.37590 0.57100
C 	C 	0.24660 0.05460 0.38230 -0.43600
H 	H 	0.21770 0.07220 0.36740 0.15700
H 	H 	0.27730 0.06590 0.36490 0.15700
O 	O 	0.23590 0.97910 0.33260 -0.39900
O 	O 	0.24130 0.97030 0.41460 -0.36900
C 	C 	0.24050 0.49900 0.87590 0.42000
C 	C 	0.24660 0.55460 0.88230 -0.25100
H 	H 	0.21770 0.57220 0.86740 0.11300
H 	H 	0.27730 0.56590 0.86490 0.11700
O 	O 	0.23590 0.47910 0.83260 -0.40400
O 	O 	0.24130 0.47030 0.91460 -0.34200
C 	C 	0.25100 0.37590 0.00950 0.48100
C 	C 	0.19540 0.38230 0.00340 -0.45100
H 	H 	0.17780 0.36740 0.03230 0.16100
H 	H 	0.18410 0.36490 0.97270 0.24500
O 	O 	0.27090 0.33260 0.01410 -0.46100
O 	O 	0.27970 0.41460 0.00870 -0.42300
C 	C 	0.25100 0.87590 0.50950 0.42000
C 	C 	0.19540 0.88230 0.50340 -0.25100
H 	H 	0.17780 0.86740 0.53230 0.11400
H 	H 	0.18410 0.86490 0.47270 0.11700
O 	O 	0.27090 0.83260 0.51410 -0.40400
O 	O 	0.27970 0.91460 0.50870 -0.34200
C 	C 	0.75100 0.37590 0.50950 0.43300
C 	C 	0.69540 0.38230 0.50340 -0.26600
H 	H 	0.67780 0.36740 0.53230 0.11700
H 	H 	0.68410 0.36490 0.47270 0.11900
O 	O 	0.77090 0.33260 0.51410 -0.40900
O 	O 	0.77970 0.41460 0.50870 -0.39500
C 	C 	0.75100 0.87590 0.00950 0.46600
C 	C 	0.69540 0.88230 0.00340 -0.43000
H 	H 	0.67780 0.86740 0.03230 0.15700
H 	H 	0.68410 0.86490 0.97270 0.23900
O 	O 	0.77090 0.83260 0.01410 -0.44900
O 	O 	0.77970 0.91460 0.00870 -0.36500
C 	C 	0.75100 0.37410 0.24050 0.43300
C 	C 	0.69540 0.36770 0.24660 -0.26500
H 	H 	0.67780 0.38260 0.21770 0.11600
H 	H 	0.68410 0.38510 0.27730 0.11800
O 	O 	0.77090 0.41740 0.23590 -0.40900
O 	O 	0.77970 0.33540 0.24130 -0.39500
C 	C 	0.75100 0.87410 0.74050 0.43000
C 	C 	0.69540 0.86770 0.74660 -0.26600
H 	H 	0.67780 0.88260 0.71770 0.12100
H 	H 	0.68410 0.88510 0.77730 0.12600
O 	O 	0.77090 0.91740 0.73590 -0.37800
O 	O 	0.77970 0.83540 0.74130 -0.38900
C 	C 	0.25100 0.37410 0.74050 0.43400
C 	C 	0.19540 0.36770 0.74660 -0.26700
H 	H 	0.17780 0.38260 0.71770 0.11700
H 	H 	0.18410 0.38510 0.77730 0.12000
O 	O 	0.27090 0.41740 0.73590 -0.41100
O 	O 	0.27970 0.33540 0.74130 -0.39700
C 	C 	0.25100 0.87410 0.24050 0.42800
C 	C 	0.19540 0.86770 0.24660 -0.26400
H 	H 	0.17780 0.88260 0.21770 0.11900
H 	H 	0.18410 0.88510 0.27730 0.12300
O 	O 	0.27090 0.91740 0.23590 -0.37900
O 	O 	0.27970 0.83540 0.24130 -0.39200
C 	C 	0.99900 0.87590 0.74050 0.55200
C 	C 	0.05460 0.88230 0.74660 -0.41500
H 	H 	0.07220 0.86740 0.71770 0.15300
H 	H 	0.06590 0.86490 0.77730 0.15500
O 	O 	0.97910 0.83260 0.73590 -0.39100
O 	O 	0.97030 0.91460 0.74130 -0.31400
C 	C 	0.99900 0.37590 0.24050 0.57100
C 	C 	0.05460 0.38230 0.24660 -0.43600
H 	H 	0.07220 0.36740 0.21770 0.15700
H 	H 	0.06590 0.36490 0.27730 0.15700
O 	O 	0.97910 0.33260 0.23590 -0.39900
O 	O 	0.97030 0.41460 0.24130 -0.36900
C 	C 	0.49900 0.87590 0.24050 0.42000
C 	C 	0.55460 0.88230 0.24660 -0.25100
H 	H 	0.57220 0.86740 0.21770 0.11300
H 	H 	0.56590 0.86490 0.27730 0.11700
O 	O 	0.47910 0.83260 0.23590 -0.40400
O 	O 	0.47030 0.91460 0.24130 -0.34200
C 	C 	0.49900 0.37590 0.74050 0.43500
C 	C 	0.55460 0.38230 0.74660 -0.26700
H 	H 	0.57220 0.36740 0.71770 0.11700
H 	H 	0.56590 0.36490 0.77730 0.12000
O 	O 	0.47910 0.33260 0.73590 -0.41100
O 	O 	0.47030 0.41460 0.74130 -0.39700
C 	C 	0.49900 0.87410 0.50950 0.42900
C 	C 	0.55460 0.86770 0.50340 -0.26500
H 	H 	0.57220 0.88260 0.53230 0.12000
H 	H 	0.56590 0.88510 0.47270 0.12400
O 	O 	0.47910 0.91740 0.51410 -0.38000
O 	O 	0.47030 0.83540 0.50870 -0.39200
C 	C 	0.49900 0.37410 0.00950 0.48100
C 	C 	0.55460 0.36770 0.00340 -0.45000
H 	H 	0.57220 0.38260 0.03230 0.16100
H 	H 	0.56590 0.38510 0.97270 0.24400
O 	O 	0.47910 0.41740 0.01410 -0.46000
O 	O 	0.47030 0.33540 0.00870 -0.42300
C 	C 	0.99900 0.87410 0.00950 0.60900
C 	C 	0.05460 0.86770 0.00340 -0.61000
H 	H 	0.07220 0.88260 0.03230 0.20300
H 	H 	0.06590 0.88510 0.97270 0.28400
O 	O 	0.97910 0.91740 0.01410 -0.41600
O 	O 	0.97030 0.83540 0.00870 -0.38700
C 	C 	0.99900 0.37410 0.50950 0.57100
C 	C 	0.05460 0.36770 0.50340 -0.43500
H 	H 	0.07220 0.38260 0.53230 0.15700
H 	H 	0.06590 0.38510 0.47270 0.15600
O 	O 	0.97910 0.41740 0.51410 -0.39900
O 	O 	0.97030 0.33540 0.50870 -0.36800
Gd	Gd	-0.00000 0.25000 -0.00000 1.33300
Gd	Gd	0.00000 0.75000 0.50000 1.53700
Gd	Gd	0.50000 0.25000 0.50000 1.73100
Gd	Gd	0.25000 0.50000 0.50000 1.73100
Gd	Gd	0.75000 0.00000 0.50000 1.53800
Gd	Gd	0.75000 0.75000 0.25000 1.73200
Gd	Gd	0.50000 0.00000 0.75000 1.53700
Gd	Gd	0.00000 0.00000 0.25000 1.33300
Gd	Gd	0.00000 0.50000 0.75000 1.53800
Gd	Gd	0.50000 0.50000 0.25000 1.73100
Gd	Gd	0.50000 0.75000 -0.00000 1.53800
Gd	Gd	0.25000 0.75000 0.75000 1.73200
Gd	Gd	0.25000 0.25000 0.25000 1.73100
Gd	Gd	0.75000 0.50000 -0.00000 1.53700
Gd	Gd	0.25000 0.00000 -0.00000 1.33300
Gd	Gd	0.75000 0.25000 0.75000 1.73200
Gd	Gd	0.00000 0.75000 -0.00000 1.34200
Gd	Gd	0.75000 0.50000 0.50000 1.73200
Gd	Gd	0.25000 0.25000 0.75000 1.73200
Gd	Gd	0.75000 0.75000 0.75000 1.73300
Gd	Gd	0.50000 0.00000 0.25000 1.53300
Gd	Gd	0.00000 0.00000 0.75000 1.34200
Gd	Gd	0.00000 0.50000 0.25000 1.53300
Gd	Gd	0.50000 0.75000 0.50000 1.73200
Gd	Gd	0.50000 0.25000 -0.00000 1.53300
Gd	Gd	0.75000 0.25000 0.25000 1.73200
Gd	Gd	0.25000 0.50000 -0.00000 1.53300
Gd	Gd	0.25000 0.00000 0.50000 1.53300
Gd	Gd	0.75000 0.00000 -0.00000 1.34200
Gd	Gd	0.50000 0.50000 0.75000 1.73200
Gd	Gd	0.25000 0.75000 0.25000 1.73200
Gd	Gd	0.00000 0.25000 0.50000 1.53300
Cd	Cd	-0.00000 0.50000 -0.00000 1.19500
Cd	Cd	0.50000 0.50000 0.50000 1.26200
Cd	Cd	0.25000 0.25000 0.50000 1.26200
Cd	Cd	0.25000 0.75000 -0.00000 1.22800
Cd	Cd	0.75000 0.00000 0.25000 1.22800
Cd	Cd	0.50000 0.75000 0.75000 1.26200
Cd	Cd	0.00000 0.25000 0.75000 1.22800
Cd	Cd	0.00000 0.00000 0.50000 1.19500
Cd	Cd	0.50000 0.25000 0.25000 1.26200
Cd	Cd	0.75000 0.50000 0.75000 1.26200
Cd	Cd	0.50000 0.00000 -0.00000 1.19500
Cd	Cd	0.25000 0.50000 0.25000 1.26200
Cd	Cd	0.75000 0.75000 0.50000 1.26200
Cd	Cd	0.25000 0.25000 -0.00000 1.22800
Cd	Cd	0.00000 0.50000 0.50000 1.22800
Cd	Cd	-0.00000 0.00000 -0.00000 1.16100
Cd	Cd	0.75000 0.00000 0.75000 1.22900
Cd	Cd	0.50000 0.75000 0.25000 1.26200
Cd	Cd	0.00000 0.75000 0.75000 1.22900
Cd	Cd	0.00000 0.25000 0.25000 1.22800
Cd	Cd	0.75000 0.25000 0.50000 1.26200
Cd	Cd	0.75000 0.75000 -0.00000 1.22900
Cd	Cd	0.50000 0.50000 -0.00000 1.22800
Cd	Cd	0.25000 0.00000 0.25000 1.22800
Cd	Cd	0.25000 0.50000 0.75000 1.26200
Cd	Cd	0.50000 0.00000 0.50000 1.22800
Cd	Cd	0.25000 0.00000 0.75000 1.22800
Cd	Cd	0.75000 0.25000 -0.00000 1.22800
Cd	Cd	0.00000 0.75000 0.25000 1.22800
Cd	Cd	0.25000 0.75000 0.50000 1.26200
Cd	Cd	0.75000 0.50000 0.25000 1.26200
Cd	Cd	0.50000 0.25000 0.75000 1.26200
O 	O 	0.00000 0.31600 0.06600 -0.24500
O 	O 	0.00000 0.81600 0.56600 -0.27700
O 	O 	0.50000 0.31600 0.56600 -0.18500
O 	O 	0.25000 0.43400 0.56600 -0.18500
O 	O 	0.75000 0.43400 0.06600 -0.14800
O 	O 	0.75000 0.81600 0.18400 -0.18300
O 	O 	0.25000 0.81600 0.68400 -0.18400
O 	O 	0.50000 0.93400 0.68400 -0.17700
O 	O 	-0.00000 0.93400 0.18400 -0.26800
O 	O 	-0.00000 0.43400 0.68400 -0.28000
O 	O 	0.06600 0.00000 0.31600 -0.24500
O 	O 	0.06600 0.50000 0.81600 -0.14800
O 	O 	0.56600 0.00000 0.81600 -0.27700
O 	O 	0.56600 0.25000 0.43400 -0.18500
O 	O 	0.56600 0.75000 0.93400 -0.17600
O 	O 	0.06600 0.75000 0.43400 -0.14800
O 	O 	0.18400 0.75000 0.81600 -0.18300
O 	O 	0.18400 0.25000 0.31600 -0.18500
O 	O 	0.68400 0.50000 0.93400 -0.17700
O 	O 	0.68400 0.00000 0.43400 -0.28000
O 	O 	0.31600 0.06600 -0.00000 -0.24500
O 	O 	0.31600 0.56600 0.50000 -0.18500
O 	O 	0.81600 0.56600 -0.00000 -0.27700
O 	O 	0.43400 0.56600 0.25000 -0.18500
O 	O 	0.43400 0.06600 0.75000 -0.14800
O 	O 	0.81600 0.18400 0.75000 -0.18300
O 	O 	0.81600 0.68400 0.25000 -0.18400
O 	O 	0.93400 0.68400 0.50000 -0.17700
O 	O 	0.93400 0.18400 -0.00000 -0.26800
O 	O 	0.43400 0.68400 -0.00000 -0.28000
O 	O 	0.06600 0.25000 0.93400 -0.14100
O 	O 	0.18400 0.50000 0.43400 -0.18500
O 	O 	0.18400 0.00000 0.93400 -0.26800
O 	O 	0.56600 0.50000 0.31600 -0.18500
O 	O 	0.68400 0.75000 0.31600 -0.18400
O 	O 	0.68400 0.25000 0.81600 -0.18400
O 	O 	0.75000 0.31600 0.68400 -0.18400
O 	O 	0.25000 0.31600 0.18400 -0.18500
O 	O 	0.50000 0.81600 0.06600 -0.14800
O 	O 	0.50000 0.43400 0.18400 -0.18500
O 	O 	0.25000 0.93400 0.06600 -0.14100
O 	O 	0.75000 0.93400 0.56600 -0.17600
O 	O 	0.81600 0.06600 0.50000 -0.14800
O 	O 	0.31600 0.68400 0.75000 -0.18400
O 	O 	0.31600 0.18400 0.25000 -0.18500
O 	O 	0.93400 0.06600 0.25000 -0.14100
O 	O 	0.93400 0.56600 0.75000 -0.17600
O 	O 	0.43400 0.18400 0.50000 -0.18500
O 	O 	0.00000 0.68400 0.93400 -0.26700
O 	O 	0.00000 0.18400 0.43400 -0.28100
O 	O 	0.50000 0.68400 0.43400 -0.18500
O 	O 	0.75000 0.56600 0.43400 -0.18400
O 	O 	0.25000 0.56600 0.93400 -0.17700
O 	O 	0.25000 0.18400 0.81600 -0.18400
O 	O 	0.75000 0.18400 0.31600 -0.18400
O 	O 	0.75000 0.68400 0.81600 -0.18300
O 	O 	0.50000 0.06600 0.31600 -0.14800
O 	O 	0.00000 0.06600 0.81600 -0.24200
O 	O 	0.93400 0.00000 0.68400 -0.26700
O 	O 	0.93400 0.50000 0.18400 -0.17700
O 	O 	0.43400 0.00000 0.18400 -0.28100
O 	O 	0.43400 0.75000 0.56600 -0.18400
O 	O 	0.43400 0.25000 0.06600 -0.14800
O 	O 	0.81600 0.25000 0.18400 -0.18400
O 	O 	0.81600 0.75000 0.68400 -0.18300
O 	O 	0.31600 0.50000 0.06600 -0.14800
O 	O 	0.31600 0.00000 0.56600 -0.28000
O 	O 	0.81600 0.00000 0.06600 -0.24200
O 	O 	0.68400 0.93400 -0.00000 -0.26700
O 	O 	0.68400 0.43400 0.50000 -0.18500
O 	O 	0.18400 0.43400 -0.00000 -0.28100
O 	O 	0.56600 0.43400 0.75000 -0.18400
O 	O 	0.56600 0.93400 0.25000 -0.17700
O 	O 	0.18400 0.81600 0.25000 -0.18400
O 	O 	0.18400 0.31600 0.75000 -0.18400
O 	O 	0.68400 0.81600 0.75000 -0.18300
O 	O 	0.06600 0.31600 0.50000 -0.14800
O 	O 	0.06600 0.81600 -0.00000 -0.24200
O 	O 	0.93400 0.75000 0.06600 -0.14000
O 	O 	0.93400 0.25000 0.56600 -0.17700
O 	O 	0.81600 0.50000 0.56600 -0.18400
O 	O 	0.43400 0.50000 0.68400 -0.18500
O 	O 	0.31600 0.25000 0.68400 -0.18500
O 	O 	0.31600 0.75000 0.18400 -0.18400
O 	O 	0.25000 0.68400 0.31600 -0.18500
O 	O 	0.50000 0.18400 0.93400 -0.17700
O 	O 	0.50000 0.56600 0.81600 -0.18400
O 	O 	0.00000 0.56600 0.31600 -0.28000
O 	O 	0.75000 0.06600 0.93400 -0.14000
O 	O 	0.25000 0.06600 0.43400 -0.14800
O 	O 	0.18400 0.93400 0.50000 -0.17700
O 	O 	0.68400 0.31600 0.25000 -0.18500
O 	O 	0.06600 0.93400 0.75000 -0.14000
O 	O 	0.06600 0.43400 0.25000 -0.14800
O 	O 	0.56600 0.81600 0.50000 -0.18400
O 	O 	0.56600 0.31600 -0.00000 -0.28000
