data_crystal

_cell_length_a 8.47380
_cell_length_b 16.68530
_cell_length_c 16.21480
_cell_angle_alpha 90.00000
_cell_angle_beta  95.91900
_cell_angle_gamma 90.00000

_symmetry_space_group_name_	'P 1'
_symmetry_space_group_name_H-M	'P 1'

loop_
_symmetry_equiv_pos_as_xyz
  x,y,z

loop_
_atom_site_label
_atom_site_type_symbol
_atom_site_fract_x
_atom_site_fract_y
_atom_site_fract_z
_atom_site_charge
P 	P 	0.81365 0.53488 0.76918 0.59800
H 	H 	0.76960 0.49970 0.80940 -0.13000
P 	P 	0.30060 0.23584 0.70784 0.58900
H 	H 	0.40380 0.25330 0.73460 -0.12000
P 	P 	0.01817 0.28537 0.89068 0.56200
H 	H 	0.13330 0.28790 0.90480 -0.12100
P 	P 	0.80155 0.24924 0.66253 0.56000
H 	H 	0.74810 0.25210 0.71330 -0.13300
O 	O 	0.20160 0.31037 0.69233 -0.39900
O 	O 	0.91240 0.48385 0.71646 -0.36700
O 	O 	0.97390 0.34365 0.82036 -0.39500
O 	O 	0.87560 0.33088 0.64918 -0.35000
O 	O 	0.22240 0.44349 0.80046 -0.31000
O 	O 	0.16280 0.45961 0.63569 -0.28000
O 	O 	0.33160 0.19757 0.62548 -0.37000
O 	O 	0.91330 0.59837 0.81689 -0.40200
O 	O 	0.67620 0.23060 0.59037 -0.36100
O 	O 	0.93900 0.30763 0.96742 -0.34700
O 	O 	0.35280 0.05230 0.54403 -0.28900
O 	O 	0.34360 0.93250 0.48112 -0.29800
O 	O 	0.97460 0.19969 0.86495 -0.36300
O 	O 	0.67630 0.57030 0.71327 -0.36800
O 	O 	0.92600 0.18325 0.67393 -0.38000
O 	O 	0.23280 0.17864 0.76728 -0.38600
O 	O 	0.40460 0.54032 0.80164 -0.30400
O 	O 	0.35290 0.55306 0.63809 -0.28700
C 	C 	0.26800 0.50290 0.67140 0.22100
C 	C 	0.30050 0.49470 0.76620 0.23200
C 	C 	0.41180 0.99530 0.50735 0.22600
Fe	Fe	0.04622 0.38793 0.71993 1.26000
Fe	Fe	0.50940 0.14865 0.57818 1.26300
Fe	Fe	0.02136 0.12854 0.77519 1.25500
P 	P 	0.68635 0.03488 0.73082 0.60100
H 	H 	0.73040 0.99970 0.69060 -0.13300
P 	P 	0.19940 0.73584 0.79216 0.58900
H 	H 	0.09620 0.75330 0.76540 -0.12000
P 	P 	0.48183 0.78537 0.60932 0.58400
H 	H 	0.36670 0.78790 0.59520 -0.12400
P 	P 	0.69845 0.74924 0.83747 0.56000
H 	H 	0.75190 0.75210 0.78670 -0.13400
O 	O 	0.29840 0.81037 0.80767 -0.39800
O 	O 	0.58760 0.98385 0.78354 -0.37000
O 	O 	0.52610 0.84365 0.67964 -0.40400
O 	O 	0.62440 0.83088 0.85082 -0.35200
O 	O 	0.27760 0.94349 0.69954 -0.31000
O 	O 	0.33720 0.95961 0.86431 -0.27500
O 	O 	0.16840 0.69757 0.87452 -0.37100
O 	O 	0.58670 0.09837 0.68311 -0.40300
O 	O 	0.82380 0.73060 0.90963 -0.36200
O 	O 	0.56100 0.80763 0.53258 -0.35600
O 	O 	0.14720 0.55230 0.95597 -0.28800
O 	O 	0.15640 0.43250 0.01888 -0.29500
O 	O 	0.52540 0.69969 0.63505 -0.37300
O 	O 	0.82370 0.07030 0.78673 -0.36600
O 	O 	0.57400 0.68325 0.82607 -0.38400
O 	O 	0.26720 0.67864 0.73272 -0.38500
O 	O 	0.09540 0.04032 0.69836 -0.31000
O 	O 	0.14710 0.05306 0.86191 -0.28900
C 	C 	0.23200 0.00290 0.82860 0.21200
C 	C 	0.19950 0.99470 0.73380 0.24300
C 	C 	0.08820 0.49530 0.99265 0.22000
Fe	Fe	0.45378 0.88793 0.78007 1.26300
Fe	Fe	0.99060 0.64865 0.92182 1.26400
Fe	Fe	0.47864 0.62854 0.72481 1.26000
P 	P 	0.18635 0.46512 0.23082 0.59800
H 	H 	0.23040 0.50030 0.19060 -0.13000
P 	P 	0.69940 0.76416 0.29216 0.58900
H 	H 	0.59620 0.74670 0.26540 -0.12000
P 	P 	0.98183 0.71463 0.10932 0.56200
H 	H 	0.86670 0.71210 0.09520 -0.12100
P 	P 	0.19845 0.75076 0.33747 0.56000
H 	H 	0.25190 0.74790 0.28670 -0.13300
O 	O 	0.79840 0.68963 0.30767 -0.39900
O 	O 	0.08760 0.51615 0.28354 -0.36700
O 	O 	0.02610 0.65635 0.17964 -0.39500
O 	O 	0.12440 0.66912 0.35082 -0.35000
O 	O 	0.77760 0.55651 0.19954 -0.31000
O 	O 	0.83720 0.54039 0.36431 -0.28000
O 	O 	0.66840 0.80243 0.37452 -0.37000
O 	O 	0.08670 0.40163 0.18311 -0.40200
O 	O 	0.32380 0.76940 0.40963 -0.36100
O 	O 	0.06100 0.69237 0.03258 -0.34700
O 	O 	0.64720 0.94770 0.45597 -0.28900
O 	O 	0.65640 0.06750 0.51888 -0.29800
O 	O 	0.02540 0.80031 0.13505 -0.36300
O 	O 	0.32370 0.42970 0.28673 -0.36800
O 	O 	0.07400 0.81675 0.32607 -0.38000
O 	O 	0.76720 0.82136 0.23272 -0.38600
O 	O 	0.59540 0.45968 0.19836 -0.30400
O 	O 	0.64710 0.44694 0.36191 -0.28700
C 	C 	0.73200 0.49710 0.32860 0.22100
C 	C 	0.69950 0.50530 0.23380 0.23200
C 	C 	0.58820 0.00470 0.49265 0.22600
Fe	Fe	0.95378 0.61207 0.28007 1.26000
Fe	Fe	0.49060 0.85135 0.42182 1.26300
Fe	Fe	0.97864 0.87146 0.22481 1.25500
P 	P 	0.31365 0.96512 0.26918 0.60100
H 	H 	0.26960 0.00030 0.30940 -0.13300
P 	P 	0.80060 0.26416 0.20784 0.58900
H 	H 	0.90380 0.24670 0.23460 -0.12000
P 	P 	0.51817 0.21463 0.39068 0.58400
H 	H 	0.63330 0.21210 0.40480 -0.12400
P 	P 	0.30155 0.25076 0.16253 0.56000
H 	H 	0.24810 0.24790 0.21330 -0.13400
O 	O 	0.70160 0.18963 0.19233 -0.39800
O 	O 	0.41240 0.01615 0.21646 -0.37000
O 	O 	0.47390 0.15635 0.32036 -0.40400
O 	O 	0.37560 0.16912 0.14918 -0.35200
O 	O 	0.72240 0.05651 0.30046 -0.31000
O 	O 	0.66280 0.04039 0.13569 -0.27500
O 	O 	0.83160 0.30243 0.12548 -0.37100
O 	O 	0.41330 0.90163 0.31689 -0.40300
O 	O 	0.17620 0.26940 0.09037 -0.36200
O 	O 	0.43900 0.19237 0.46742 -0.35600
O 	O 	0.85280 0.44770 0.04403 -0.28800
O 	O 	0.84360 0.56750 0.98112 -0.29500
O 	O 	0.47460 0.30031 0.36495 -0.37300
O 	O 	0.17630 0.92970 0.21327 -0.36600
O 	O 	0.42600 0.31675 0.17393 -0.38400
O 	O 	0.73280 0.32136 0.26728 -0.38500
O 	O 	0.90460 0.95968 0.30164 -0.31000
O 	O 	0.85290 0.94694 0.13809 -0.28900
C 	C 	0.76800 0.99710 0.17140 0.21200
C 	C 	0.80050 0.00530 0.26620 0.24300
C 	C 	0.91180 0.50470 0.00735 0.22000
Fe	Fe	0.54622 0.11207 0.21993 1.26300
Fe	Fe	0.00940 0.35135 0.07818 1.26400
Fe	Fe	0.52136 0.37146 0.27519 1.26000
