data_crystal

_cell_length_a 8.84920
_cell_length_b 17.24500
_cell_length_c 17.79100
_cell_angle_alpha 115.27500
_cell_angle_beta  95.66200
_cell_angle_gamma 103.86500

_symmetry_space_group_name_	'P 1'
_symmetry_space_group_name_H-M	'P 1'

loop_
_symmetry_equiv_pos_as_xyz
  x,y,z

loop_
_atom_site_label
_atom_site_type_symbol
_atom_site_fract_x
_atom_site_fract_y
_atom_site_fract_z
_atom_site_charge
Gd	Gd	0.18578 0.21965 0.37528 1.54800
Gd	Gd	0.81422 0.78035 0.62472 1.56600
Cu	Cu	-0.00000 0.50000 0.50000 0.88500
Cu	Cu	0.50000 0.00000 0.50000 0.89500
Cu	Cu	0.50000 0.00000 -0.00000 0.86500
H 	H 	0.98090 0.36530 0.61590 0.15700
H 	H 	0.14540 0.44120 0.64750 0.14200
H 	H 	0.94000 0.58900 0.68160 0.08100
H 	H 	0.98790 0.53440 0.72590 0.09400
H 	H 	0.19720 0.66050 0.76800 0.04900
H 	H 	0.24870 0.57740 0.71160 0.05300
H 	H 	0.34120 0.70000 0.68130 0.08100
H 	H 	0.16360 0.69240 0.65040 0.06200
H 	H 	0.32010 0.50860 0.59750 0.12000
H 	H 	0.35330 0.50380 0.51110 0.12500
H 	H 	0.76650 0.39760 0.61350 0.06700
H 	H 	0.73610 0.47290 0.59210 0.06100
H 	H 	0.62070 0.32890 0.47170 0.09200
H 	H 	0.79010 0.31520 0.47170 0.06800
H 	H 	0.65700 0.08790 0.38270 0.10300
H 	H 	0.75800 0.15780 0.47450 0.11900
H 	H 	0.95230 0.08470 0.51850 0.10500
H 	H 	0.85640 0.99870 0.52400 0.11200
H 	H 	0.90000 0.13090 0.65060 0.05100
H 	H 	0.79760 0.16440 0.60050 0.05100
H 	H 	0.61340 0.97100 0.66690 0.15700
H 	H 	0.78050 0.98390 0.64400 0.17000
H 	H 	0.38040 0.82740 0.32850 0.05800
H 	H 	0.30700 0.85790 0.26600 0.05500
H 	H 	0.56220 0.96450 0.29360 0.06700
H 	H 	0.56820 0.86550 0.25120 0.05800
H 	H 	0.80580 0.94430 0.35460 0.07900
H 	H 	0.69740 0.89610 0.39680 0.06500
H 	H 	0.22440 0.04450 0.09700 0.11200
H 	H 	0.30570 0.99550 0.13680 0.14800
H 	H 	0.58330 0.11890 0.24090 0.06700
H 	H 	0.69860 0.13930 0.18520 0.05600
H 	H 	0.46860 0.22010 0.18000 0.07000
H 	H 	0.58020 0.20100 0.11590 0.04800
H 	H 	0.35990 0.23870 0.07120 0.08200
H 	H 	0.24570 0.14910 0.06240 0.08600
H 	H 	0.46780 0.15610 0.96030 0.04300
H 	H 	0.28380 0.13420 0.92940 0.03800
H 	H 	0.29040 0.99110 0.80540 0.03200
H 	H 	0.47410 0.03640 0.84730 -0.01000
H 	H 	0.10920 0.95880 0.86780 0.11300
H 	H 	0.12790 0.01710 0.96590 0.07800
H 	H 	0.01910 0.63470 0.38410 0.10800
H 	H 	0.85460 0.55880 0.35250 0.11200
H 	H 	0.06000 0.41100 0.31840 0.01000
H 	H 	0.01210 0.46560 0.27410 0.01600
H 	H 	0.80280 0.33950 0.23200 0.08200
H 	H 	0.75130 0.42260 0.28840 0.08200
H 	H 	0.65880 0.30000 0.31870 0.06800
H 	H 	0.83640 0.30760 0.34960 0.05500
H 	H 	0.67990 0.49140 0.40250 0.11800
H 	H 	0.64670 0.49620 0.48890 0.12400
H 	H 	0.23350 0.60240 0.38650 0.06000
H 	H 	0.26390 0.52710 0.40790 0.05600
H 	H 	0.37930 0.67110 0.52830 0.09400
H 	H 	0.20990 0.68480 0.52830 0.06600
H 	H 	0.34300 0.91210 0.61730 0.11100
H 	H 	0.24200 0.84220 0.52550 0.10800
H 	H 	0.04770 0.91530 0.48150 0.04600
H 	H 	0.14360 0.00130 0.47600 0.00800
H 	H 	0.10000 0.86910 0.34940 0.07800
H 	H 	0.20240 0.83560 0.39950 0.07000
H 	H 	0.38660 0.02900 0.33310 0.15000
H 	H 	0.21950 0.01610 0.35600 0.16700
H 	H 	0.61960 0.17260 0.67150 0.06800
H 	H 	0.69300 0.14210 0.73400 0.06300
H 	H 	0.43780 0.03550 0.70640 0.03600
H 	H 	0.43180 0.13450 0.74880 0.05200
H 	H 	0.19420 0.05570 0.64540 0.07100
H 	H 	0.30260 0.10390 0.60320 0.07600
H 	H 	0.77560 0.95550 0.90300 0.11300
H 	H 	0.69430 0.00450 0.86320 0.08100
H 	H 	0.41670 0.88110 0.75910 0.10100
H 	H 	0.30140 0.86070 0.81480 0.08200
H 	H 	0.53140 0.77990 0.82000 0.08700
H 	H 	0.41980 0.79900 0.88410 0.07300
H 	H 	0.64010 0.76130 0.92880 0.05800
H 	H 	0.75430 0.85090 0.93760 0.06600
H 	H 	0.53220 0.84390 0.03970 0.06200
H 	H 	0.71620 0.86580 0.07060 0.07900
H 	H 	0.70960 0.00890 0.19460 0.08200
H 	H 	0.52590 0.96360 0.15270 0.09200
H 	H 	0.89080 0.04120 0.13220 0.17300
H 	H 	0.87210 0.98290 0.03410 0.17200
C 	C 	0.09740 0.35450 0.52130 0.38000
C 	C 	0.04990 0.40740 0.60170 -0.37100
C 	C 	0.00920 0.55350 0.68300 -0.16400
C 	C 	0.17990 0.61310 0.71010 -0.07400
C 	C 	0.23390 0.65810 0.65400 -0.10800
C 	C 	0.35350 0.54480 0.56910 -0.29100
C 	C 	0.52660 0.60740 0.61530 0.40600
C 	C 	0.79080 0.42780 0.57890 -0.09900
C 	C 	0.73440 0.35980 0.48510 -0.10600
C 	C 	0.89760 0.12300 0.38780 0.37800
C 	C 	0.75190 0.10250 0.42470 -0.26700
C 	C 	0.84950 0.05370 0.52310 -0.17800
C 	C 	0.81280 0.11130 0.60250 -0.07100
C 	C 	0.66840 0.97370 0.62310 -0.40000
C 	C 	0.60470 0.88440 0.54600 0.51200
C 	C 	0.38610 0.87870 0.31800 -0.08200
C 	C 	0.55770 0.91280 0.30330 -0.11500
C 	C 	0.71020 0.94120 0.37700 -0.07700
C 	C 	0.27580 0.10940 0.22690 0.37000
C 	C 	0.31030 0.05430 0.14150 -0.33200
C 	C 	0.60220 0.09700 0.18380 -0.07000
C 	C 	0.47510 0.17790 0.12390 -0.06000
C 	C 	0.35110 0.17680 0.05760 -0.18900
C 	C 	0.36360 0.12720 0.96540 -0.01300
C 	C 	0.37720 0.99440 0.84570 0.04200
C 	C 	0.17210 0.97680 0.92380 -0.20800
C 	C 	0.15530 0.89470 0.93570 0.33000
C 	C 	0.90260 0.64550 0.47870 0.35500
C 	C 	0.95010 0.59260 0.39830 -0.27100
C 	C 	0.99080 0.44650 0.31700 0.01900
C 	C 	0.82010 0.38690 0.28990 -0.17300
C 	C 	0.76610 0.34190 0.34600 -0.06200
C 	C 	0.64650 0.45520 0.43090 -0.29000
C 	C 	0.47340 0.39260 0.38470 0.40600
C 	C 	0.20920 0.57220 0.42110 -0.08700
C 	C 	0.26560 0.64020 0.51490 -0.11300
C 	C 	0.10240 0.87700 0.61220 0.35200
C 	C 	0.24810 0.89750 0.57530 -0.24800
C 	C 	0.15050 0.94630 0.47690 0.00600
C 	C 	0.18720 0.88870 0.39750 -0.15200
C 	C 	0.33160 0.02630 0.37690 -0.45500
C 	C 	0.39530 0.11560 0.45400 0.52600
C 	C 	0.61390 0.12130 0.68200 -0.10400
C 	C 	0.44230 0.08720 0.69670 -0.08800
C 	C 	0.28980 0.05880 0.62300 -0.13800
C 	C 	0.72420 0.89060 0.77310 0.34100
C 	C 	0.68970 0.94570 0.85850 -0.20800
C 	C 	0.39780 0.90300 0.81620 -0.16400
C 	C 	0.52490 0.82210 0.87610 -0.11800
C 	C 	0.64890 0.82320 0.94240 -0.04600
C 	C 	0.63640 0.87280 0.03460 -0.15300
C 	C 	0.62280 0.00560 0.15430 -0.19600
C 	C 	0.82790 0.02320 0.07620 -0.43200
C 	C 	0.84470 0.10530 0.06430 0.38700
N 	N 	0.96590 0.47180 0.59850 -0.11200
N 	N 	0.23240 0.59160 0.56580 -0.12200
N 	N 	0.65450 0.05440 0.61250 -0.14100
N 	N 	0.72740 0.03090 0.44990 -0.10700
N 	N 	0.34190 0.02800 0.93140 -0.18400
N 	N 	0.46260 0.09040 0.12320 -0.12400
N 	N 	0.03410 0.52820 0.40150 -0.16300
N 	N 	0.76760 0.40840 0.43420 -0.12700
N 	N 	0.34550 0.94560 0.38750 -0.10300
N 	N 	0.27260 0.96910 0.55010 -0.09800
N 	N 	0.65810 0.97200 0.06860 -0.08700
N 	N 	0.53740 0.90960 0.87680 -0.10200
O 	O 	0.08570 0.37010 0.45980 -0.43300
O 	O 	0.15190 0.29080 0.52070 -0.38300
O 	O 	0.60050 0.64890 0.57880 -0.42600
O 	O 	0.58640 0.60970 0.68240 -0.30500
O 	O 	0.89670 0.17110 0.35250 -0.41500
O 	O 	0.01490 0.09600 0.39790 -0.39500
O 	O 	0.63300 0.81660 0.55310 -0.43400
O 	O 	0.52840 0.87650 0.48610 -0.44900
O 	O 	0.14340 0.08020 0.23960 -0.42200
O 	O 	0.37800 0.18260 0.28390 -0.38200
O 	O 	0.27400 0.88950 0.97580 -0.32800
O 	O 	0.01850 0.83520 0.90410 -0.26900
O 	O 	0.91430 0.62990 0.54020 -0.41700
O 	O 	0.84810 0.70920 0.47930 -0.37100
O 	O 	0.39950 0.35110 0.42120 -0.42400
O 	O 	0.41360 0.39030 0.31760 -0.30800
O 	O 	0.10330 0.82890 0.64750 -0.41900
O 	O 	0.98510 0.90400 0.60210 -0.35600
O 	O 	0.36700 0.18340 0.44690 -0.43600
O 	O 	0.47160 0.12350 0.51390 -0.46300
O 	O 	0.85660 0.91980 0.76040 -0.38300
O 	O 	0.62200 0.81740 0.71610 -0.37500
O 	O 	0.72600 0.11050 0.02420 -0.38600
O 	O 	0.98150 0.16480 0.09590 -0.28800
