data_crystal

_cell_length_a 27.66200
_cell_length_b 27.66200
_cell_length_c 27.66200
_cell_angle_alpha 60.00000
_cell_angle_beta  60.00000
_cell_angle_gamma 60.00000

_symmetry_space_group_name_	'P 1'
_symmetry_space_group_name_H-M	'P 1'

loop_
_symmetry_equiv_pos_as_xyz
  x,y,z

loop_
_atom_site_label
_atom_site_type_symbol
_atom_site_fract_x
_atom_site_fract_y
_atom_site_fract_z
_atom_site_charge
Zr	Zr	0.45476 0.45475 0.98152 3.19700
Zr	Zr	0.45476 0.45475 0.10897 3.17300
Zr	Zr	0.98153 0.10897 0.45475 3.19000
Zr	Zr	0.10898 0.98152 0.45475 3.19600
Zr	Zr	0.45476 0.98152 0.10897 3.19600
Zr	Zr	0.45476 0.10897 0.98152 3.19600
Zr	Zr	0.98153 0.45475 0.45475 3.19100
Zr	Zr	0.10898 0.45475 0.45475 3.17300
Zr	Zr	0.45476 0.10897 0.45475 3.17300
Zr	Zr	0.45476 0.98152 0.45475 3.19600
Zr	Zr	0.98153 0.45475 0.10897 3.19000
Zr	Zr	0.10898 0.45475 0.98152 3.19600
Zr	Zr	0.54524 0.54525 0.01848 3.15300
Zr	Zr	0.54524 0.54525 0.89103 3.17600
Zr	Zr	0.89102 0.01848 0.54525 3.15400
Zr	Zr	0.01847 0.89103 0.54525 3.15900
Zr	Zr	0.01847 0.54525 0.89103 3.15900
Zr	Zr	0.89102 0.54525 0.01848 3.15400
Zr	Zr	0.54524 0.01848 0.54525 3.15300
Zr	Zr	0.54524 0.89103 0.54525 3.17600
Zr	Zr	0.89102 0.54525 0.54525 3.17600
Zr	Zr	0.01847 0.54525 0.54525 3.15900
Zr	Zr	0.54524 0.01848 0.89103 3.15400
Zr	Zr	0.54524 0.89103 0.01848 3.15400
Zr	Zr	0.58911 0.41089 -0.00000 3.17800
Zr	Zr	0.41089 0.58911 -0.00000 3.17900
Zr	Zr	-0.00000 0.00000 0.58911 3.15300
Zr	Zr	-0.00000 -0.00000 0.41089 3.15300
Zr	Zr	0.58911 0.00000 -0.00000 3.14400
Zr	Zr	0.41089 0.00000 -0.00000 3.14500
Zr	Zr	0.00000 0.58911 0.41089 3.18700
Zr	Zr	-0.00000 0.41089 0.58911 3.18700
Zr	Zr	0.58911 -0.00000 0.41089 3.17900
Zr	Zr	0.41089 0.00000 0.58911 3.17900
Zr	Zr	1.00000 0.41089 -0.00000 3.20500
Zr	Zr	-0.00000 0.58911 -0.00000 3.15400
H 	H 	0.65590 0.21990 0.13210 -0.01500
H 	H 	0.21990 0.65590 0.99210 0.08600
H 	H 	0.13210 0.99210 0.65590 0.06100
H 	H 	0.99210 0.13210 0.21990 0.01800
H 	H 	0.65590 0.13210 0.99210 0.04900
H 	H 	0.21990 0.99210 0.13210 0.03400
H 	H 	0.13210 0.65590 0.21990 -0.00100
H 	H 	0.99210 0.21990 0.65590 0.07200
H 	H 	0.65590 0.99210 0.21990 0.08200
H 	H 	0.21990 0.13210 0.65590 -0.01000
H 	H 	0.13210 0.21990 0.99210 0.04100
H 	H 	0.99210 0.65590 0.13210 0.03800
H 	H 	0.78010 0.34410 0.86790 0.08400
H 	H 	0.34410 0.78010 0.00790 -0.00700
H 	H 	0.00790 0.86790 0.34410 0.03600
H 	H 	0.86790 0.00790 0.78010 0.03300
H 	H 	0.86790 0.34410 0.00790 0.01300
H 	H 	0.00790 0.78010 0.86790 0.05500
H 	H 	0.34410 0.86790 0.78010 0.08800
H 	H 	0.78010 0.00790 0.34410 -0.01200
H 	H 	0.00790 0.34410 0.78010 0.00200
H 	H 	0.86790 0.78010 0.34410 0.07500
H 	H 	0.78010 0.86790 0.00790 0.04100
H 	H 	0.34410 0.00790 0.86790 0.02600
H 	H 	0.34410 0.78010 0.86790 0.08800
H 	H 	0.78010 0.34410 0.00790 -0.01300
H 	H 	0.86790 0.00790 0.34410 0.01300
H 	H 	0.00790 0.86790 0.78010 0.05500
H 	H 	0.34410 0.86790 0.00790 0.02600
H 	H 	0.78010 0.00790 0.86790 0.04200
H 	H 	0.86790 0.34410 0.78010 0.07600
H 	H 	0.00790 0.78010 0.34410 0.00300
H 	H 	0.34410 0.00790 0.78010 -0.00800
H 	H 	0.78010 0.86790 0.34410 0.08300
H 	H 	0.86790 0.78010 0.00790 0.03300
H 	H 	0.00790 0.34410 0.86790 0.03600
H 	H 	0.21990 0.65590 0.13210 -0.00900
H 	H 	0.65590 0.21990 0.99210 0.08200
H 	H 	0.99210 0.13210 0.65590 0.03900
H 	H 	0.13210 0.99210 0.21990 0.04200
H 	H 	0.13210 0.65590 0.99210 0.06100
H 	H 	0.99210 0.21990 0.13210 0.01800
H 	H 	0.65590 0.13210 0.21990 -0.01500
H 	H 	0.21990 0.99210 0.65590 0.08600
H 	H 	0.99210 0.65590 0.21990 0.07100
H 	H 	0.13210 0.21990 0.65590 -0.00200
H 	H 	0.21990 0.13210 0.99210 0.03300
H 	H 	0.65590 0.99210 0.13210 0.04800
C 	C 	0.55955 0.32625 0.13441 0.53600
C 	C 	0.57598 0.26642 0.17770 -0.17900
C 	C 	0.62539 0.21881 0.16839 -0.01200
C 	C 	0.32625 0.55955 0.97979 0.53100
C 	C 	0.26642 0.57598 0.97990 -0.12300
C 	C 	0.21881 0.62539 0.98741 0.00900
C 	C 	0.13441 0.97979 0.55955 0.54000
C 	C 	0.17770 0.97990 0.57598 -0.14400
C 	C 	0.16839 0.98741 0.62539 0.02800
C 	C 	0.97979 0.13441 0.32625 0.53700
C 	C 	0.97990 0.17770 0.26642 -0.15900
C 	C 	0.98741 0.16839 0.21881 0.00200
C 	C 	0.55955 0.13441 0.97979 0.54100
C 	C 	0.57598 0.17770 0.97990 -0.15100
C 	C 	0.62539 0.16839 0.98741 0.02800
C 	C 	0.32625 0.97979 0.13441 0.53900
C 	C 	0.26642 0.97990 0.17770 -0.15200
C 	C 	0.21881 0.98741 0.16839 0.01200
C 	C 	0.13441 0.55955 0.32625 0.53400
C 	C 	0.17770 0.57598 0.26642 -0.17200
C 	C 	0.16839 0.62539 0.21881 -0.01300
C 	C 	0.97979 0.32625 0.55955 0.52900
C 	C 	0.97990 0.26642 0.57598 -0.13000
C 	C 	0.98741 0.21881 0.62539 -0.00100
C 	C 	0.55955 0.97979 0.32625 0.53000
C 	C 	0.57598 0.97990 0.26642 -0.12400
C 	C 	0.62539 0.98741 0.21881 0.00400
C 	C 	0.32625 0.13441 0.55955 0.53700
C 	C 	0.26642 0.17770 0.57598 -0.17900
C 	C 	0.21881 0.16839 0.62539 -0.00700
C 	C 	0.13441 0.32625 0.97979 0.53800
C 	C 	0.17770 0.26642 0.97990 -0.14700
C 	C 	0.16839 0.21881 0.98741 0.00600
C 	C 	0.97979 0.55955 0.13441 0.54100
C 	C 	0.97990 0.57598 0.17770 -0.15700
C 	C 	0.98741 0.62539 0.16839 0.02400
C 	C 	0.67375 0.44045 0.86559 0.52800
C 	C 	0.73358 0.42402 0.82230 -0.12700
C 	C 	0.78119 0.37461 0.83161 0.01600
C 	C 	0.44045 0.67375 0.02021 0.53500
C 	C 	0.42402 0.73358 0.02010 -0.18200
C 	C 	0.37461 0.78119 0.01259 0.00600
C 	C 	0.02021 0.86559 0.44045 0.52200
C 	C 	0.02010 0.82230 0.42402 -0.14700
C 	C 	0.01259 0.83161 0.37461 -0.01500
C 	C 	0.86559 0.02021 0.67375 0.52700
C 	C 	0.82230 0.02010 0.73358 -0.15900
C 	C 	0.83161 0.01259 0.78119 0.00400
C 	C 	0.86559 0.44045 0.02021 0.52500
C 	C 	0.82230 0.42402 0.02010 -0.16200
C 	C 	0.83161 0.37461 0.01259 -0.01800
C 	C 	0.02021 0.67375 0.86559 0.52500
C 	C 	0.02010 0.73358 0.82230 -0.14600
C 	C 	0.01259 0.78119 0.83161 0.00700
C 	C 	0.44045 0.86559 0.67375 0.52900
C 	C 	0.42402 0.82230 0.73358 -0.12600
C 	C 	0.37461 0.83161 0.78119 0.02100
C 	C 	0.67375 0.02021 0.44045 0.53400
C 	C 	0.73358 0.02010 0.42402 -0.18200
C 	C 	0.78119 0.01259 0.37461 0.00100
C 	C 	0.02021 0.44045 0.67375 0.53600
C 	C 	0.02010 0.42402 0.73358 -0.17600
C 	C 	0.01259 0.37461 0.78119 0.01000
C 	C 	0.86559 0.67375 0.44045 0.53100
C 	C 	0.82230 0.73358 0.42402 -0.13400
C 	C 	0.83161 0.78119 0.37461 0.02200
C 	C 	0.67375 0.86559 0.02021 0.52300
C 	C 	0.73358 0.82230 0.02010 -0.15200
C 	C 	0.78119 0.83161 0.01259 -0.00200
C 	C 	0.44045 0.02021 0.86559 0.52100
C 	C 	0.42402 0.02010 0.82230 -0.15400
C 	C 	0.37461 0.01259 0.83161 -0.01900
C 	C 	0.44045 0.67375 0.86559 0.52900
C 	C 	0.42402 0.73358 0.82230 -0.12700
C 	C 	0.37461 0.78119 0.83161 0.02100
C 	C 	0.67375 0.44045 0.02021 0.53400
C 	C 	0.73358 0.42402 0.02010 -0.18200
C 	C 	0.78119 0.37461 0.01259 0.00100
C 	C 	0.86559 0.02021 0.44045 0.52300
C 	C 	0.82230 0.02010 0.42402 -0.16100
C 	C 	0.83161 0.01259 0.37461 -0.01900
C 	C 	0.02021 0.86559 0.67375 0.52500
C 	C 	0.02010 0.82230 0.73358 -0.14600
C 	C 	0.01259 0.83161 0.78119 0.00700
C 	C 	0.44045 0.86559 0.02021 0.52100
C 	C 	0.42402 0.82230 0.02010 -0.15300
C 	C 	0.37461 0.83161 0.01259 -0.01900
C 	C 	0.67375 0.02021 0.86559 0.52400
C 	C 	0.73358 0.02010 0.82230 -0.15200
C 	C 	0.78119 0.01259 0.83161 -0.00200
C 	C 	0.86559 0.44045 0.67375 0.53100
C 	C 	0.82230 0.42402 0.73358 -0.13400
C 	C 	0.83161 0.37461 0.78119 0.02200
C 	C 	0.02021 0.67375 0.44045 0.53600
C 	C 	0.02010 0.73358 0.42402 -0.17600
C 	C 	0.01259 0.78119 0.37461 0.01100
C 	C 	0.44045 0.02021 0.67375 0.53500
C 	C 	0.42402 0.02010 0.73358 -0.18200
C 	C 	0.37461 0.01259 0.78119 0.00600
C 	C 	0.67375 0.86559 0.44045 0.52800
C 	C 	0.73358 0.82230 0.42402 -0.12700
C 	C 	0.78119 0.83161 0.37461 0.01600
C 	C 	0.86559 0.67375 0.02021 0.52700
C 	C 	0.82230 0.73358 0.02010 -0.15900
C 	C 	0.83161 0.78119 0.01259 0.00400
C 	C 	0.02021 0.44045 0.86559 0.52400
C 	C 	0.02010 0.42402 0.82230 -0.14800
C 	C 	0.01259 0.37461 0.83161 -0.01400
C 	C 	0.32625 0.55955 0.13441 0.53700
C 	C 	0.26642 0.57598 0.17770 -0.17900
C 	C 	0.21881 0.62539 0.16839 -0.00700
C 	C 	0.55955 0.32625 0.97979 0.53000
C 	C 	0.57598 0.26642 0.97990 -0.12300
C 	C 	0.62539 0.21881 0.98741 0.00400
C 	C 	0.97979 0.13441 0.55955 0.54100
C 	C 	0.97990 0.17770 0.57598 -0.15700
C 	C 	0.98741 0.16839 0.62539 0.02400
C 	C 	0.13441 0.97979 0.32625 0.53600
C 	C 	0.17770 0.97990 0.26642 -0.14600
C 	C 	0.16839 0.98741 0.21881 0.00600
C 	C 	0.13441 0.55955 0.97979 0.53900
C 	C 	0.17770 0.57598 0.97990 -0.14400
C 	C 	0.16839 0.62539 0.98741 0.02700
C 	C 	0.97979 0.32625 0.13441 0.53900
C 	C 	0.97990 0.26642 0.17770 -0.16000
C 	C 	0.98741 0.21881 0.16839 0.00200
C 	C 	0.55955 0.13441 0.32625 0.53600
C 	C 	0.57598 0.17770 0.26642 -0.17900
C 	C 	0.62539 0.16839 0.21881 -0.01200
C 	C 	0.32625 0.97979 0.55955 0.53100
C 	C 	0.26642 0.97990 0.57598 -0.12300
C 	C 	0.21881 0.98741 0.62539 0.00900
C 	C 	0.97979 0.55955 0.32625 0.52900
C 	C 	0.97990 0.57598 0.26642 -0.13000
C 	C 	0.98741 0.62539 0.21881 -0.00100
C 	C 	0.13441 0.32625 0.55955 0.53400
C 	C 	0.17770 0.26642 0.57598 -0.17200
C 	C 	0.16839 0.21881 0.62539 -0.01300
C 	C 	0.32625 0.13441 0.97979 0.53800
C 	C 	0.26642 0.17770 0.97990 -0.15200
C 	C 	0.21881 0.16839 0.98741 0.01100
C 	C 	0.55955 0.97979 0.13441 0.54100
C 	C 	0.57598 0.97990 0.17770 -0.15100
C 	C 	0.62539 0.98741 0.16839 0.02800
S 	S 	0.52858 0.24878 0.24878 -0.07500
S 	S 	0.24878 0.52858 0.97386 0.00800
S 	S 	0.24878 0.97386 0.52858 0.00800
S 	S 	0.97386 0.24878 0.24878 -0.02400
S 	S 	0.52858 0.24878 0.97386 0.00500
S 	S 	0.24878 0.97386 0.24878 -0.00400
S 	S 	0.24878 0.52858 0.24878 -0.07200
S 	S 	0.97386 0.24878 0.52858 -0.01100
S 	S 	0.52858 0.97386 0.24878 0.00500
S 	S 	0.24878 0.24878 0.52858 -0.07200
S 	S 	0.24878 0.24878 0.97386 -0.00500
S 	S 	0.97386 0.52858 0.24878 -0.01100
S 	S 	0.75122 0.47142 0.75122 0.00400
S 	S 	0.47142 0.75122 0.02614 -0.07200
S 	S 	0.02614 0.75122 0.47142 -0.05600
S 	S 	0.75122 0.02614 0.75122 -0.06300
S 	S 	0.75122 0.47142 0.02614 -0.07500
S 	S 	0.02614 0.75122 0.75122 -0.04400
S 	S 	0.47142 0.75122 0.75122 0.00700
S 	S 	0.75122 0.02614 0.47142 -0.07500
S 	S 	0.02614 0.47142 0.75122 -0.05600
S 	S 	0.75122 0.75122 0.47142 0.00400
S 	S 	0.75122 0.75122 0.02614 -0.06300
S 	S 	0.47142 0.02614 0.75122 -0.07200
O 	O 	0.59627 0.33529 0.08271 -0.73900
O 	O 	0.50970 0.36218 0.15278 -0.80900
O 	O 	0.33529 0.59627 0.98573 -0.55800
O 	O 	0.36218 0.50970 0.97534 -0.72400
O 	O 	0.08271 0.98573 0.59627 -0.61000
O 	O 	0.15278 0.97534 0.50970 -0.73500
O 	O 	0.98573 0.08271 0.33529 -0.66000
O 	O 	0.97534 0.15278 0.36218 -0.75700
O 	O 	0.59627 0.08271 0.98573 -0.62700
O 	O 	0.50970 0.15278 0.97534 -0.73800
O 	O 	0.33529 0.98573 0.08271 -0.63300
O 	O 	0.36218 0.97534 0.15278 -0.73900
O 	O 	0.08271 0.59627 0.33529 -0.72000
O 	O 	0.15278 0.50970 0.36218 -0.80600
O 	O 	0.98573 0.33529 0.59627 -0.58400
O 	O 	0.97534 0.36218 0.50970 -0.74100
O 	O 	0.59627 0.98573 0.33529 -0.55900
O 	O 	0.50970 0.97534 0.36218 -0.72400
O 	O 	0.33529 0.08271 0.59627 -0.73700
O 	O 	0.36218 0.15278 0.50970 -0.80900
O 	O 	0.08271 0.33529 0.98573 -0.62500
O 	O 	0.15278 0.36218 0.97534 -0.73800
O 	O 	0.98573 0.59627 0.08271 -0.65300
O 	O 	0.97534 0.50970 0.15278 -0.75500
O 	O 	0.66471 0.40373 0.91729 -0.58000
O 	O 	0.63782 0.49030 0.84722 -0.76000
O 	O 	0.40373 0.66471 0.01427 -0.75700
O 	O 	0.49030 0.63782 0.02466 -0.84500
O 	O 	0.01427 0.91729 0.40373 -0.65700
O 	O 	0.02466 0.84722 0.49030 -0.81300
O 	O 	0.91729 0.01427 0.66471 -0.69200
O 	O 	0.84722 0.02466 0.63782 -0.83200
O 	O 	0.91729 0.40373 0.01427 -0.70800
O 	O 	0.84722 0.49030 0.02466 -0.83500
O 	O 	0.01427 0.66471 0.91729 -0.65100
O 	O 	0.02466 0.63782 0.84722 -0.81200
O 	O 	0.40373 0.91729 0.66471 -0.57900
O 	O 	0.49030 0.84722 0.63782 -0.76000
O 	O 	0.66471 0.01427 0.40373 -0.75900
O 	O 	0.63782 0.02466 0.49030 -0.84500
O 	O 	0.01427 0.40373 0.66471 -0.73500
O 	O 	0.02466 0.49030 0.63782 -0.82800
O 	O 	0.91729 0.66471 0.40373 -0.60000
O 	O 	0.84722 0.63782 0.49030 -0.76400
O 	O 	0.66471 0.91729 0.01427 -0.67500
O 	O 	0.63782 0.84722 0.02466 -0.82800
O 	O 	0.40373 0.01427 0.91729 -0.68000
O 	O 	0.49030 0.02466 0.84722 -0.82900
O 	O 	0.40373 0.66471 0.91729 -0.57900
O 	O 	0.49030 0.63782 0.84722 -0.76000
O 	O 	0.66471 0.40373 0.01427 -0.76000
O 	O 	0.63782 0.49030 0.02466 -0.84500
O 	O 	0.91729 0.01427 0.40373 -0.70000
O 	O 	0.84722 0.02466 0.49030 -0.83300
O 	O 	0.01427 0.91729 0.66471 -0.65100
O 	O 	0.02466 0.84722 0.63782 -0.81200
O 	O 	0.40373 0.91729 0.01427 -0.68000
O 	O 	0.49030 0.84722 0.02466 -0.83000
O 	O 	0.66471 0.01427 0.91729 -0.67400
O 	O 	0.63782 0.02466 0.84722 -0.82800
O 	O 	0.91729 0.40373 0.66471 -0.59900
O 	O 	0.84722 0.49030 0.63782 -0.76400
O 	O 	0.01427 0.66471 0.40373 -0.73500
O 	O 	0.02466 0.63782 0.49030 -0.82800
O 	O 	0.40373 0.01427 0.66471 -0.75800
O 	O 	0.49030 0.02466 0.63782 -0.84400
O 	O 	0.66471 0.91729 0.40373 -0.58100
O 	O 	0.63782 0.84722 0.49030 -0.76100
O 	O 	0.91729 0.66471 0.01427 -0.69300
O 	O 	0.84722 0.63782 0.02466 -0.83200
O 	O 	0.01427 0.40373 0.91729 -0.66500
O 	O 	0.02466 0.49030 0.84722 -0.81500
O 	O 	0.33529 0.59627 0.08271 -0.73700
O 	O 	0.36218 0.50970 0.15278 -0.80900
O 	O 	0.59627 0.33529 0.98573 -0.55900
O 	O 	0.50970 0.36218 0.97534 -0.72400
O 	O 	0.98573 0.08271 0.59627 -0.65200
O 	O 	0.97534 0.15278 0.50970 -0.75500
O 	O 	0.08271 0.98573 0.33529 -0.61700
O 	O 	0.15278 0.97534 0.36218 -0.73600
O 	O 	0.08271 0.59627 0.98573 -0.61100
O 	O 	0.15278 0.50970 0.97534 -0.73500
O 	O 	0.98573 0.33529 0.08271 -0.66700
O 	O 	0.97534 0.36218 0.15278 -0.75800
O 	O 	0.59627 0.08271 0.33529 -0.73900
O 	O 	0.50970 0.15278 0.36218 -0.80900
O 	O 	0.33529 0.98573 0.59627 -0.55800
O 	O 	0.36218 0.97534 0.50970 -0.72400
O 	O 	0.98573 0.59627 0.33529 -0.58500
O 	O 	0.97534 0.50970 0.36218 -0.74100
O 	O 	0.08271 0.33529 0.59627 -0.72100
O 	O 	0.15278 0.36218 0.50970 -0.80600
O 	O 	0.33529 0.08271 0.98573 -0.63300
O 	O 	0.36218 0.15278 0.97534 -0.73900
O 	O 	0.59627 0.98573 0.08271 -0.62800
O 	O 	0.50970 0.97534 0.15278 -0.73800
O 	O 	0.49854 0.41186 0.04480 -1.50000
O 	O 	0.41186 0.49854 0.04480 -1.49900
O 	O 	0.04480 0.04480 0.49854 -1.59900
O 	O 	0.04480 0.04480 0.41186 -1.60000
O 	O 	0.49854 0.04480 0.04480 -1.63300
O 	O 	0.41186 0.04480 0.04480 -1.63300
O 	O 	0.04480 0.49854 0.41186 -1.46600
O 	O 	0.04480 0.41186 0.49854 -1.46600
O 	O 	0.49854 0.04480 0.41186 -1.49900
O 	O 	0.41186 0.04480 0.49854 -1.49900
O 	O 	0.04480 0.41186 0.04480 -1.60400
O 	O 	0.04480 0.49854 0.04480 -1.59700
O 	O 	0.58814 0.50146 0.95520 -1.19900
O 	O 	0.50146 0.58814 0.95520 -1.19900
O 	O 	0.95520 0.95520 0.50146 -1.09100
O 	O 	0.95520 0.95520 0.58814 -1.09000
O 	O 	0.95520 0.50146 0.95520 -1.09500
O 	O 	0.95520 0.58814 0.95520 -1.08800
O 	O 	0.50146 0.95520 0.58814 -1.19900
O 	O 	0.58814 0.95520 0.50146 -1.19900
O 	O 	0.95520 0.50146 0.58814 -1.23400
O 	O 	0.95520 0.58814 0.50146 -1.23500
O 	O 	0.58814 0.95520 0.95520 -1.05500
O 	O 	0.50146 0.95520 0.95520 -1.05600
O 	O 	0.45654 0.54346 0.93626 -1.28000
O 	O 	0.54346 0.45654 0.06374 -1.39700
O 	O 	0.93626 0.06374 0.45654 -1.34900
O 	O 	0.06374 0.93626 0.54346 -1.32100
O 	O 	0.45654 0.93626 0.06374 -1.33400
O 	O 	0.54346 0.06374 0.93626 -1.33400
O 	O 	0.93626 0.45654 0.54346 -1.29500
O 	O 	0.06374 0.54346 0.45654 -1.38300
O 	O 	0.45654 0.06374 0.54346 -1.39600
O 	O 	0.54346 0.93626 0.45654 -1.28000
O 	O 	0.93626 0.54346 0.06374 -1.35000
O 	O 	0.06374 0.45654 0.93626 -1.32900
O 	O 	0.45654 0.54346 0.06374 -1.39600
O 	O 	0.54346 0.45654 0.93626 -1.28000
O 	O 	0.93626 0.06374 0.54346 -1.34800
O 	O 	0.06374 0.93626 0.45654 -1.32100
O 	O 	0.06374 0.54346 0.93626 -1.32200
O 	O 	0.93626 0.45654 0.06374 -1.35600
O 	O 	0.54346 0.06374 0.45654 -1.39600
O 	O 	0.45654 0.93626 0.54346 -1.28000
O 	O 	0.93626 0.54346 0.45654 -1.29500
O 	O 	0.06374 0.45654 0.54346 -1.38300
O 	O 	0.45654 0.06374 0.93626 -1.33400
O 	O 	0.54346 0.93626 0.06374 -1.33400
