data_crystal

_cell_length_a 27.65490
_cell_length_b 27.65490
_cell_length_c 27.65490
_cell_angle_alpha 60.00000
_cell_angle_beta  60.00000
_cell_angle_gamma 60.00000

_symmetry_space_group_name_	'P 1'
_symmetry_space_group_name_H-M	'P 1'

loop_
_symmetry_equiv_pos_as_xyz
  x,y,z

loop_
_atom_site_label
_atom_site_type_symbol
_atom_site_fract_x
_atom_site_fract_y
_atom_site_fract_z
_atom_site_charge
Zr	Zr	0.45470 0.45469 0.98178 3.20000
Zr	Zr	0.45470 0.45469 0.10883 3.17600
Zr	Zr	0.98179 0.10883 0.45469 3.19800
Zr	Zr	0.10884 0.98178 0.45469 3.18700
Zr	Zr	0.45470 0.98178 0.10883 3.18700
Zr	Zr	0.45470 0.10883 0.98178 3.19800
Zr	Zr	0.98179 0.45469 0.45469 3.19900
Zr	Zr	0.10884 0.45469 0.45469 3.17600
Zr	Zr	0.45470 0.10883 0.45469 3.17700
Zr	Zr	0.45470 0.98178 0.45469 3.18800
Zr	Zr	0.98179 0.45469 0.10883 3.19800
Zr	Zr	0.10884 0.45469 0.98178 3.19800
Zr	Zr	0.54530 0.54531 0.01822 3.15700
Zr	Zr	0.54530 0.54531 0.89117 3.17900
Zr	Zr	0.89116 0.01822 0.54531 3.16800
Zr	Zr	0.01821 0.89117 0.54531 3.15700
Zr	Zr	0.01821 0.54531 0.89117 3.15700
Zr	Zr	0.89116 0.54531 0.01822 3.15700
Zr	Zr	0.54530 0.01822 0.54531 3.16800
Zr	Zr	0.54530 0.89117 0.54531 3.17900
Zr	Zr	0.89116 0.54531 0.54531 3.17900
Zr	Zr	0.01821 0.54531 0.54531 3.15700
Zr	Zr	0.54530 0.01822 0.89117 3.16800
Zr	Zr	0.54530 0.89117 0.01822 3.15700
Zr	Zr	0.58934 0.41066 -0.00000 3.18200
Zr	Zr	0.41066 0.58934 -0.00000 3.18200
Zr	Zr	-0.00000 -0.00000 0.58934 3.16600
Zr	Zr	-0.00000 0.00000 0.41066 3.16600
Zr	Zr	0.58934 1.00000 -0.00000 3.19900
Zr	Zr	0.41066 0.00000 -0.00000 3.16700
Zr	Zr	-0.00000 0.58934 0.41066 3.18200
Zr	Zr	-0.00000 0.41066 0.58934 3.18200
Zr	Zr	0.58934 1.00000 0.41066 3.23300
Zr	Zr	0.41066 -0.00000 0.58934 3.19900
Zr	Zr	-0.00000 0.41066 -0.00000 3.14900
Zr	Zr	-0.00000 0.58934 -0.00000 3.14900
H 	H 	0.65600 0.22100 0.13260 -0.00400
H 	H 	0.22100 0.65600 0.99040 0.07700
H 	H 	0.13260 0.99040 0.65600 0.02600
H 	H 	0.99040 0.13260 0.22100 0.05200
H 	H 	0.65600 0.13260 0.99040 0.07000
H 	H 	0.22100 0.99040 0.13260 0.00600
H 	H 	0.13260 0.65600 0.22100 -0.01400
H 	H 	0.99040 0.22100 0.65600 0.08700
H 	H 	0.65600 0.99040 0.22100 0.05600
H 	H 	0.22100 0.13260 0.65600 0.01100
H 	H 	0.13260 0.22100 0.99040 0.03500
H 	H 	0.99040 0.65600 0.13260 0.04500
H 	H 	0.77900 0.34400 0.86740 0.08700
H 	H 	0.34400 0.77900 0.00960 -0.01400
H 	H 	0.00960 0.86740 0.34400 0.00300
H 	H 	0.86740 0.00960 0.77900 0.06700
H 	H 	0.86740 0.34400 0.00960 0.02900
H 	H 	0.00960 0.77900 0.86740 0.03800
H 	H 	0.34400 0.86740 0.77900 0.06200
H 	H 	0.77900 0.00960 0.34400 0.01700
H 	H 	0.00960 0.34400 0.77900 -0.00400
H 	H 	0.86740 0.77900 0.34400 0.07700
H 	H 	0.77900 0.86740 0.00960 0.02100
H 	H 	0.34400 0.00960 0.86740 0.04800
H 	H 	0.34400 0.77900 0.86740 0.07800
H 	H 	0.77900 0.34400 0.00960 -0.00300
H 	H 	0.86740 0.00960 0.34400 0.04900
H 	H 	0.00960 0.86740 0.77900 0.02300
H 	H 	0.34400 0.86740 0.00960 0.00300
H 	H 	0.77900 0.00960 0.86740 0.06700
H 	H 	0.86740 0.34400 0.77900 0.08700
H 	H 	0.00960 0.77900 0.34400 -0.01300
H 	H 	0.34400 0.00960 0.77900 0.01600
H 	H 	0.77900 0.86740 0.34400 0.06100
H 	H 	0.86740 0.77900 0.00960 0.03700
H 	H 	0.00960 0.34400 0.86740 0.02800
H 	H 	0.22100 0.65600 0.13260 -0.01400
H 	H 	0.65600 0.22100 0.99040 0.08600
H 	H 	0.99040 0.13260 0.65600 0.07100
H 	H 	0.13260 0.99040 0.22100 0.00600
H 	H 	0.13260 0.65600 0.99040 0.04600
H 	H 	0.99040 0.22100 0.13260 0.03700
H 	H 	0.65600 0.13260 0.22100 0.01200
H 	H 	0.22100 0.99040 0.65600 0.05700
H 	H 	0.99040 0.65600 0.22100 0.07700
H 	H 	0.13260 0.22100 0.65600 -0.00500
H 	H 	0.22100 0.13260 0.99040 0.05100
H 	H 	0.65600 0.99040 0.13260 0.02500
C 	C 	0.55879 0.32629 0.13463 0.53400
C 	C 	0.57529 0.26629 0.17799 -0.17700
C 	C 	0.62520 0.21960 0.16860 -0.00100
C 	C 	0.32629 0.55879 0.98029 0.52800
C 	C 	0.26629 0.57529 0.98043 -0.12500
C 	C 	0.21960 0.62520 0.98660 0.00400
C 	C 	0.13463 0.98029 0.55879 0.53700
C 	C 	0.17799 0.98043 0.57529 -0.16300
C 	C 	0.16860 0.98660 0.62520 0.01800
C 	C 	0.98029 0.13463 0.32629 0.53200
C 	C 	0.98043 0.17799 0.26629 -0.13800
C 	C 	0.98660 0.16860 0.21960 0.00500
C 	C 	0.55879 0.13463 0.98029 0.53600
C 	C 	0.57529 0.17799 0.98043 -0.13800
C 	C 	0.62520 0.16860 0.98660 0.02600
C 	C 	0.32629 0.98029 0.13463 0.53400
C 	C 	0.26629 0.98043 0.17799 -0.16500
C 	C 	0.21960 0.98660 0.16860 -0.00300
C 	C 	0.13463 0.55879 0.32629 0.53200
C 	C 	0.17799 0.57529 0.26629 -0.17800
C 	C 	0.16860 0.62520 0.21960 -0.01200
C 	C 	0.98029 0.32629 0.55879 0.53000
C 	C 	0.98043 0.26629 0.57529 -0.12400
C 	C 	0.98660 0.21960 0.62520 0.01400
C 	C 	0.55879 0.98029 0.32629 0.52800
C 	C 	0.57529 0.98043 0.26629 -0.13800
C 	C 	0.62520 0.98660 0.21960 -0.00500
C 	C 	0.32629 0.13463 0.55879 0.52900
C 	C 	0.26629 0.17799 0.57529 -0.16400
C 	C 	0.21960 0.16860 0.62520 -0.01300
C 	C 	0.13463 0.32629 0.98029 0.53700
C 	C 	0.17799 0.26629 0.98043 -0.15200
C 	C 	0.16860 0.21960 0.98660 0.01600
C 	C 	0.98029 0.55879 0.13463 0.53900
C 	C 	0.98043 0.57529 0.17799 -0.15100
C 	C 	0.98660 0.62520 0.16860 0.02700
C 	C 	0.67371 0.44121 0.86537 0.52700
C 	C 	0.73371 0.42471 0.82201 -0.12700
C 	C 	0.78040 0.37480 0.83140 0.02100
C 	C 	0.44121 0.67371 0.01971 0.52900
C 	C 	0.42471 0.73371 0.01957 -0.18000
C 	C 	0.37480 0.78040 0.01340 -0.00500
C 	C 	0.01971 0.86537 0.44121 0.52300
C 	C 	0.01957 0.82201 0.42471 -0.16600
C 	C 	0.01340 0.83140 0.37480 -0.01700
C 	C 	0.86537 0.01971 0.67371 0.52400
C 	C 	0.82201 0.01957 0.73371 -0.13800
C 	C 	0.83140 0.01340 0.78040 0.01200
C 	C 	0.86537 0.44121 0.01971 0.51800
C 	C 	0.82201 0.42471 0.01957 -0.15200
C 	C 	0.83140 0.37480 0.01340 -0.01800
C 	C 	0.01971 0.67371 0.86537 0.52000
C 	C 	0.01957 0.73371 0.82201 -0.15100
C 	C 	0.01340 0.78040 0.83140 -0.00700
C 	C 	0.44121 0.86537 0.67371 0.53200
C 	C 	0.42471 0.82201 0.73371 -0.14100
C 	C 	0.37480 0.83140 0.78040 0.02300
C 	C 	0.67371 0.01971 0.44121 0.53500
C 	C 	0.73371 0.01957 0.42471 -0.16700
C 	C 	0.78040 0.01340 0.37480 0.01500
C 	C 	0.01971 0.44121 0.67371 0.53100
C 	C 	0.01957 0.42471 0.73371 -0.17900
C 	C 	0.01340 0.37480 0.78040 0.00600
C 	C 	0.86537 0.67371 0.44121 0.52500
C 	C 	0.82201 0.73371 0.42471 -0.12700
C 	C 	0.83140 0.78040 0.37480 0.01000
C 	C 	0.67371 0.86537 0.01971 0.52800
C 	C 	0.73371 0.82201 0.01957 -0.16500
C 	C 	0.78040 0.83140 0.01340 0.00500
C 	C 	0.44121 0.01971 0.86537 0.52100
C 	C 	0.42471 0.01957 0.82201 -0.14000
C 	C 	0.37480 0.01340 0.83140 -0.00900
C 	C 	0.44121 0.67371 0.86537 0.52500
C 	C 	0.42471 0.73371 0.82201 -0.12700
C 	C 	0.37480 0.78040 0.83140 0.01000
C 	C 	0.67371 0.44121 0.01971 0.53100
C 	C 	0.73371 0.42471 0.01957 -0.17900
C 	C 	0.78040 0.37480 0.01340 0.00600
C 	C 	0.86537 0.01971 0.44121 0.52100
C 	C 	0.82201 0.01957 0.42471 -0.14000
C 	C 	0.83140 0.01340 0.37480 -0.00900
C 	C 	0.01971 0.86537 0.67371 0.52600
C 	C 	0.01957 0.82201 0.73371 -0.16400
C 	C 	0.01340 0.83140 0.78040 0.00500
C 	C 	0.44121 0.86537 0.01971 0.52300
C 	C 	0.42471 0.82201 0.01957 -0.16700
C 	C 	0.37480 0.83140 0.01340 -0.01700
C 	C 	0.67371 0.01971 0.86537 0.52600
C 	C 	0.73371 0.01957 0.82201 -0.13900
C 	C 	0.78040 0.01340 0.83140 0.01200
C 	C 	0.86537 0.44121 0.67371 0.52700
C 	C 	0.82201 0.42471 0.73371 -0.12600
C 	C 	0.83140 0.37480 0.78040 0.02100
C 	C 	0.01971 0.67371 0.44121 0.52900
C 	C 	0.01957 0.73371 0.42471 -0.18000
C 	C 	0.01340 0.78040 0.37480 -0.00500
C 	C 	0.44121 0.01971 0.67371 0.53400
C 	C 	0.42471 0.01957 0.73371 -0.16700
C 	C 	0.37480 0.01340 0.78040 0.01500
C 	C 	0.67371 0.86537 0.44121 0.53300
C 	C 	0.73371 0.82201 0.42471 -0.14200
C 	C 	0.78040 0.83140 0.37480 0.02300
C 	C 	0.86537 0.67371 0.01971 0.52000
C 	C 	0.82201 0.73371 0.01957 -0.15100
C 	C 	0.83140 0.78040 0.01340 -0.00800
C 	C 	0.01971 0.44121 0.86537 0.51800
C 	C 	0.01957 0.42471 0.82201 -0.15200
C 	C 	0.01340 0.37480 0.83140 -0.01800
C 	C 	0.32629 0.55879 0.13463 0.53200
C 	C 	0.26629 0.57529 0.17799 -0.17800
C 	C 	0.21960 0.62520 0.16860 -0.01200
C 	C 	0.55879 0.32629 0.98029 0.53000
C 	C 	0.57529 0.26629 0.98043 -0.12400
C 	C 	0.62520 0.21960 0.98660 0.01400
C 	C 	0.98029 0.13463 0.55879 0.53500
C 	C 	0.98043 0.17799 0.57529 -0.13700
C 	C 	0.98660 0.16860 0.62520 0.02600
C 	C 	0.13463 0.98029 0.32629 0.53400
C 	C 	0.17799 0.98043 0.26629 -0.16500
C 	C 	0.16860 0.98660 0.21960 -0.00300
C 	C 	0.13463 0.55879 0.98029 0.53800
C 	C 	0.17799 0.57529 0.98043 -0.15100
C 	C 	0.16860 0.62520 0.98660 0.02700
C 	C 	0.98029 0.32629 0.13463 0.53700
C 	C 	0.98043 0.26629 0.17799 -0.15100
C 	C 	0.98660 0.21960 0.16860 0.01700
C 	C 	0.55879 0.13463 0.32629 0.53000
C 	C 	0.57529 0.17799 0.26629 -0.16400
C 	C 	0.62520 0.16860 0.21960 -0.01300
C 	C 	0.32629 0.98029 0.55879 0.52700
C 	C 	0.26629 0.98043 0.57529 -0.13700
C 	C 	0.21960 0.98660 0.62520 -0.00500
C 	C 	0.98029 0.55879 0.32629 0.52800
C 	C 	0.98043 0.57529 0.26629 -0.12500
C 	C 	0.98660 0.62520 0.21960 0.00400
C 	C 	0.13463 0.32629 0.55879 0.53400
C 	C 	0.17799 0.26629 0.57529 -0.17700
C 	C 	0.16860 0.21960 0.62520 -0.00200
C 	C 	0.32629 0.13463 0.98029 0.53200
C 	C 	0.26629 0.17799 0.98043 -0.13900
C 	C 	0.21960 0.16860 0.98660 0.00500
C 	C 	0.55879 0.98029 0.13463 0.53800
C 	C 	0.57529 0.98043 0.17799 -0.16400
C 	C 	0.62520 0.98660 0.16860 0.01800
S 	S 	0.52768 0.24868 0.24868 -0.06600
S 	S 	0.24868 0.52768 0.97496 0.00500
S 	S 	0.24868 0.97496 0.52768 -0.02700
S 	S 	0.97496 0.24868 0.24868 -0.00000
S 	S 	0.52768 0.24868 0.97496 0.01100
S 	S 	0.24868 0.97496 0.24868 -0.04000
S 	S 	0.24868 0.52768 0.24868 -0.07300
S 	S 	0.97496 0.24868 0.52768 0.01200
S 	S 	0.52768 0.97496 0.24868 -0.02800
S 	S 	0.24868 0.24868 0.52768 -0.06700
S 	S 	0.24868 0.24868 0.97496 -0.00100
S 	S 	0.97496 0.52768 0.24868 0.00600
S 	S 	0.75132 0.47232 0.75132 0.00500
S 	S 	0.47232 0.75132 0.02504 -0.07900
S 	S 	0.02504 0.75132 0.47232 -0.07800
S 	S 	0.75132 0.02504 0.75132 -0.02800
S 	S 	0.75132 0.47232 0.02504 -0.07300
S 	S 	0.02504 0.75132 0.75132 -0.06600
S 	S 	0.47232 0.75132 0.75132 -0.00100
S 	S 	0.75132 0.02504 0.47232 -0.03900
S 	S 	0.02504 0.47232 0.75132 -0.07200
S 	S 	0.75132 0.75132 0.47232 -0.00100
S 	S 	0.75132 0.75132 0.02504 -0.06700
S 	S 	0.47232 0.02504 0.75132 -0.03900
O 	O 	0.59600 0.33540 0.08296 -0.73300
O 	O 	0.50896 0.36218 0.15288 -0.81000
O 	O 	0.33540 0.59600 0.98564 -0.56400
O 	O 	0.36218 0.50896 0.97598 -0.72900
O 	O 	0.08296 0.98564 0.59600 -0.67900
O 	O 	0.15288 0.97598 0.50896 -0.77600
O 	O 	0.98564 0.08296 0.33540 -0.60000
O 	O 	0.97598 0.15288 0.36218 -0.73600
O 	O 	0.59600 0.08296 0.98564 -0.60000
O 	O 	0.50896 0.15288 0.97598 -0.73700
O 	O 	0.33540 0.98564 0.08296 -0.68700
O 	O 	0.36218 0.97598 0.15288 -0.77800
O 	O 	0.08296 0.59600 0.33540 -0.73700
O 	O 	0.15288 0.50896 0.36218 -0.81100
O 	O 	0.98564 0.33540 0.59600 -0.56100
O 	O 	0.97598 0.36218 0.50896 -0.72800
O 	O 	0.59600 0.98564 0.33540 -0.62100
O 	O 	0.50896 0.97598 0.36218 -0.76400
O 	O 	0.33540 0.08296 0.59600 -0.70100
O 	O 	0.36218 0.15288 0.50896 -0.80300
O 	O 	0.08296 0.33540 0.98564 -0.63400
O 	O 	0.15288 0.36218 0.97598 -0.74400
O 	O 	0.98564 0.59600 0.08296 -0.63100
O 	O 	0.97598 0.50896 0.15288 -0.74200
O 	O 	0.66460 0.40400 0.91704 -0.58200
O 	O 	0.63782 0.49104 0.84712 -0.76400
O 	O 	0.40400 0.66460 0.01436 -0.75700
O 	O 	0.49104 0.63782 0.02402 -0.84700
O 	O 	0.01436 0.91704 0.40400 -0.71900
O 	O 	0.02402 0.84712 0.49104 -0.83900
O 	O 	0.91704 0.01436 0.66460 -0.62700
O 	O 	0.84712 0.02402 0.63782 -0.79700
O 	O 	0.91704 0.40400 0.01436 -0.67800
O 	O 	0.84712 0.49104 0.02402 -0.83100
O 	O 	0.01436 0.66460 0.91704 -0.67500
O 	O 	0.02402 0.63782 0.84712 -0.83000
O 	O 	0.40400 0.91704 0.66460 -0.62300
O 	O 	0.49104 0.84712 0.63782 -0.77300
O 	O 	0.66460 0.01436 0.40400 -0.71200
O 	O 	0.63782 0.02402 0.49104 -0.81300
O 	O 	0.01436 0.40400 0.66460 -0.75400
O 	O 	0.02402 0.49104 0.63782 -0.84600
O 	O 	0.91704 0.66460 0.40400 -0.58600
O 	O 	0.84712 0.63782 0.49104 -0.76500
O 	O 	0.66460 0.91704 0.01436 -0.71800
O 	O 	0.63782 0.84712 0.02402 -0.83900
O 	O 	0.40400 0.01436 0.91704 -0.63500
O 	O 	0.49104 0.02402 0.84712 -0.79900
O 	O 	0.40400 0.66460 0.91704 -0.58500
O 	O 	0.49104 0.63782 0.84712 -0.76500
O 	O 	0.66460 0.40400 0.01436 -0.75300
O 	O 	0.63782 0.49104 0.02402 -0.84600
O 	O 	0.91704 0.01436 0.40400 -0.63300
O 	O 	0.84712 0.02402 0.49104 -0.79800
O 	O 	0.01436 0.91704 0.66460 -0.71200
O 	O 	0.02402 0.84712 0.63782 -0.83700
O 	O 	0.40400 0.91704 0.01436 -0.72000
O 	O 	0.49104 0.84712 0.02402 -0.84000
O 	O 	0.66460 0.01436 0.91704 -0.63200
O 	O 	0.63782 0.02402 0.84712 -0.79800
O 	O 	0.91704 0.40400 0.66460 -0.58200
O 	O 	0.84712 0.49104 0.63782 -0.76500
O 	O 	0.01436 0.66460 0.40400 -0.75700
O 	O 	0.02402 0.63782 0.49104 -0.84700
O 	O 	0.40400 0.01436 0.66460 -0.70800
O 	O 	0.49104 0.02402 0.63782 -0.81300
O 	O 	0.66460 0.91704 0.40400 -0.62800
O 	O 	0.63782 0.84712 0.49104 -0.77300
O 	O 	0.91704 0.66460 0.01436 -0.67600
O 	O 	0.84712 0.63782 0.02402 -0.83100
O 	O 	0.01436 0.40400 0.91704 -0.67900
O 	O 	0.02402 0.49104 0.84712 -0.83100
O 	O 	0.33540 0.59600 0.08296 -0.73700
O 	O 	0.36218 0.50896 0.15288 -0.81100
O 	O 	0.59600 0.33540 0.98564 -0.56200
O 	O 	0.50896 0.36218 0.97598 -0.72800
O 	O 	0.98564 0.08296 0.59600 -0.59400
O 	O 	0.97598 0.15288 0.50896 -0.73500
O 	O 	0.08296 0.98564 0.33540 -0.68700
O 	O 	0.15288 0.97598 0.36218 -0.77800
O 	O 	0.08296 0.59600 0.98564 -0.63000
O 	O 	0.15288 0.50896 0.97598 -0.74300
O 	O 	0.98564 0.33540 0.08296 -0.63300
O 	O 	0.97598 0.36218 0.15288 -0.74300
O 	O 	0.59600 0.08296 0.33540 -0.70400
O 	O 	0.50896 0.15288 0.36218 -0.80400
O 	O 	0.33540 0.98564 0.59600 -0.61500
O 	O 	0.36218 0.97598 0.50896 -0.76300
O 	O 	0.98564 0.59600 0.33540 -0.56500
O 	O 	0.97598 0.50896 0.36218 -0.72900
O 	O 	0.08296 0.33540 0.59600 -0.73400
O 	O 	0.15288 0.36218 0.50896 -0.81000
O 	O 	0.33540 0.08296 0.98564 -0.60200
O 	O 	0.36218 0.15288 0.97598 -0.73800
O 	O 	0.59600 0.98564 0.08296 -0.68500
O 	O 	0.50896 0.97598 0.15288 -0.77700
O 	O 	0.49870 0.41370 0.04380 -1.50400
O 	O 	0.41370 0.49870 0.04380 -1.50500
O 	O 	0.04380 0.04380 0.49870 -1.56800
O 	O 	0.04380 0.04380 0.41370 -1.56800
O 	O 	0.49870 0.04380 0.04380 -1.56800
O 	O 	0.41370 0.04380 0.04380 -1.56500
O 	O 	0.04380 0.49870 0.41370 -1.50500
O 	O 	0.04380 0.41370 0.49870 -1.50400
O 	O 	0.49870 0.04380 0.41370 -1.44100
O 	O 	0.41370 0.04380 0.49870 -1.43700
O 	O 	0.04380 0.41370 0.04380 -1.63400
O 	O 	0.04380 0.49870 0.04380 -1.63400
O 	O 	0.58630 0.50130 0.95620 -1.21500
O 	O 	0.50130 0.58630 0.95620 -1.21500
O 	O 	0.95620 0.95620 0.50130 -1.14900
O 	O 	0.95620 0.95620 0.58630 -1.14700
O 	O 	0.95620 0.50130 0.95620 -1.07600
O 	O 	0.95620 0.58630 0.95620 -1.07500
O 	O 	0.50130 0.95620 0.58630 -1.28700
O 	O 	0.58630 0.95620 0.50130 -1.29100
O 	O 	0.95620 0.50130 0.58630 -1.21500
O 	O 	0.95620 0.58630 0.50130 -1.21500
O 	O 	0.58630 0.95620 0.95620 -1.14800
O 	O 	0.50130 0.95620 0.95620 -1.14400
O 	O 	0.45656 0.54344 0.93644 -1.26400
O 	O 	0.54344 0.45656 0.06356 -1.37700
O 	O 	0.93644 0.06356 0.45656 -1.28900
O 	O 	0.06356 0.93644 0.54344 -1.34600
O 	O 	0.45656 0.93644 0.06356 -1.34800
O 	O 	0.54344 0.06356 0.93644 -1.29500
O 	O 	0.93644 0.45656 0.54344 -1.26300
O 	O 	0.06356 0.54344 0.45656 -1.37700
O 	O 	0.45656 0.06356 0.54344 -1.35000
O 	O 	0.54344 0.93644 0.45656 -1.29900
O 	O 	0.93644 0.54344 0.06356 -1.31600
O 	O 	0.06356 0.45656 0.93644 -1.31600
O 	O 	0.45656 0.54344 0.06356 -1.37700
O 	O 	0.54344 0.45656 0.93644 -1.26400
O 	O 	0.93644 0.06356 0.54344 -1.28900
O 	O 	0.06356 0.93644 0.45656 -1.34600
O 	O 	0.06356 0.54344 0.93644 -1.31600
O 	O 	0.93644 0.45656 0.06356 -1.31600
O 	O 	0.54344 0.06356 0.45656 -1.35400
O 	O 	0.45656 0.93644 0.54344 -1.29500
O 	O 	0.93644 0.54344 0.45656 -1.26400
O 	O 	0.06356 0.45656 0.54344 -1.37700
O 	O 	0.45656 0.06356 0.93644 -1.29200
O 	O 	0.54344 0.93644 0.06356 -1.35200
