data_crystal

_cell_length_a 53.68000
_cell_length_b 53.68000
_cell_length_c 53.68000
_cell_angle_alpha 90.00000
_cell_angle_beta  90.00000
_cell_angle_gamma 90.00000

_symmetry_space_group_name_	'P 1'
_symmetry_space_group_name_H-M	'P 1'

loop_
_symmetry_equiv_pos_as_xyz
  x,y,z

loop_
_atom_site_label
_atom_site_type_symbol
_atom_site_fract_x
_atom_site_fract_y
_atom_site_fract_z
_atom_site_charge
Zr	Zr	0.36217 0.40871 0.21244 3.17400
Zr	Zr	0.33279 0.37957 0.16122 3.19500
S 	S 	0.32049 0.43424 0.08554 0.04100
O 	O 	0.37880 0.41471 0.12457 -0.63700
O 	O 	0.33768 0.40663 0.12884 -0.68500
O 	O 	0.28807 0.45769 0.04951 -0.77700
O 	O 	0.31740 0.47566 0.02587 -0.66300
O 	O 	0.29785 0.35911 0.17285 -0.68900
O 	O 	0.30549 0.33958 0.20939 -0.64800
O 	O 	0.32708 0.36260 0.24907 -0.66200
O 	O 	0.33925 0.40284 0.24779 -0.78000
O 	O 	0.37684 0.44537 0.19641 -0.78000
O 	O 	0.40044 0.43558 0.16299 -0.67900
O 	O 	0.36168 0.40157 0.17440 -1.49900
O 	O 	0.33066 0.38340 0.20276 -1.14500
C 	C 	0.35625 0.41657 0.11815 0.51000
C 	C 	0.35056 0.43201 0.09619 -0.13400
C 	C 	0.36660 0.44567 0.08208 0.00000
H 	H 	0.38370 0.44660 0.08490 0.04500
C 	C 	0.35384 0.45843 0.06235 0.02200
H 	H 	0.36170 0.46900 0.05110 0.03600
C 	C 	0.32930 0.45354 0.06179 -0.16000
C 	C 	0.31003 0.46330 0.04429 0.54600
C 	C 	0.29284 0.34391 0.18993 0.51700
C 	C 	0.26946 0.32945 0.18673 -0.14200
C 	C 	0.26120 0.30944 0.19987 0.01300
H 	H 	0.26950 0.30270 0.21350 0.04100
C 	C 	0.32705 0.38468 0.25655 0.53500
C 	C 	0.31055 0.39101 0.27822 -0.17100
C 	C 	0.30704 0.41352 0.28857 0.00300
H 	H 	0.31590 0.42760 0.28400 -0.01000
C 	C 	0.39047 0.45064 0.17816 0.53600
C 	C 	0.39471 0.47727 0.17279 -0.15300
C 	C 	0.40690 0.48680 0.15280 0.00900
H 	H 	0.41440 0.47710 0.14050 0.04100
O 	O 	0.31772 0.36107 0.12811 -0.66300
S 	S 	0.26566 0.32120 0.09880 0.02100
C 	C 	0.24370 0.36420 0.10330 -0.04500
C 	C 	0.28270 0.34610 0.10930 -0.08900
C 	C 	0.30890 0.34030 0.12210 0.43300
C 	C 	0.26620 0.36790 0.10970 0.02000
C 	C 	0.23940 0.33850 0.09480 -0.09500
Zr	Zr	0.86217 0.90871 0.71244 3.17400
Zr	Zr	0.83279 0.87957 0.66122 3.19500
S 	S 	0.82049 0.93424 0.58554 0.04100
O 	O 	0.87880 0.91471 0.62457 -0.63700
O 	O 	0.83768 0.90663 0.62884 -0.68500
O 	O 	0.78807 0.95769 0.54951 -0.77700
O 	O 	0.81740 0.97566 0.52587 -0.66300
O 	O 	0.79785 0.85911 0.67285 -0.68900
O 	O 	0.80549 0.83958 0.70939 -0.64800
O 	O 	0.82708 0.86260 0.74907 -0.66200
O 	O 	0.83925 0.90284 0.74779 -0.78000
O 	O 	0.87684 0.94537 0.69641 -0.78000
O 	O 	0.90044 0.93558 0.66299 -0.67900
O 	O 	0.86168 0.90157 0.67440 -1.49900
O 	O 	0.83066 0.88340 0.70276 -1.14500
C 	C 	0.85625 0.91657 0.61815 0.51000
C 	C 	0.85056 0.93201 0.59619 -0.13400
C 	C 	0.86660 0.94567 0.58208 0.00000
H 	H 	0.88370 0.94660 0.58490 0.04500
C 	C 	0.85384 0.95843 0.56235 0.02200
H 	H 	0.86170 0.96900 0.55110 0.03600
C 	C 	0.82930 0.95354 0.56179 -0.16000
C 	C 	0.81003 0.96330 0.54429 0.54600
C 	C 	0.79284 0.84391 0.68993 0.51700
C 	C 	0.76946 0.82945 0.68673 -0.14200
C 	C 	0.76120 0.80944 0.69987 0.01300
H 	H 	0.76950 0.80270 0.71350 0.04100
C 	C 	0.82705 0.88468 0.75655 0.53500
C 	C 	0.81055 0.89101 0.77822 -0.17100
C 	C 	0.80704 0.91352 0.78857 0.00300
H 	H 	0.81590 0.92760 0.78400 -0.01000
C 	C 	0.89047 0.95064 0.67816 0.53600
C 	C 	0.89471 0.97727 0.67279 -0.15300
C 	C 	0.90690 0.98680 0.65280 0.00900
H 	H 	0.91440 0.97710 0.64050 0.04100
O 	O 	0.81772 0.86107 0.62811 -0.66300
S 	S 	0.76566 0.82120 0.59880 0.02100
C 	C 	0.74370 0.86420 0.60330 -0.04500
C 	C 	0.78270 0.84610 0.60930 -0.08900
C 	C 	0.80890 0.84030 0.62210 0.43300
C 	C 	0.76620 0.86790 0.60970 0.02000
C 	C 	0.73940 0.83850 0.59480 -0.09500
Zr	Zr	0.63783 0.59129 0.21244 3.17400
Zr	Zr	0.66721 0.62043 0.16122 3.19500
S 	S 	0.67951 0.56576 0.08554 0.04100
O 	O 	0.62120 0.58529 0.12457 -0.63700
O 	O 	0.66232 0.59337 0.12884 -0.68500
O 	O 	0.71193 0.54231 0.04951 -0.77700
O 	O 	0.68260 0.52434 0.02587 -0.66300
O 	O 	0.70215 0.64089 0.17285 -0.68900
O 	O 	0.69451 0.66042 0.20939 -0.64800
O 	O 	0.67292 0.63740 0.24907 -0.66200
O 	O 	0.66075 0.59716 0.24779 -0.78000
O 	O 	0.62316 0.55463 0.19641 -0.78000
O 	O 	0.59956 0.56442 0.16299 -0.67900
O 	O 	0.63832 0.59843 0.17440 -1.49900
O 	O 	0.66934 0.61660 0.20276 -1.14500
C 	C 	0.64375 0.58343 0.11815 0.51000
C 	C 	0.64944 0.56799 0.09619 -0.13400
C 	C 	0.63340 0.55433 0.08208 0.00000
H 	H 	0.61630 0.55340 0.08490 0.04500
C 	C 	0.64616 0.54157 0.06235 0.02200
H 	H 	0.63830 0.53100 0.05110 0.03600
C 	C 	0.67070 0.54646 0.06179 -0.16000
C 	C 	0.68997 0.53670 0.04429 0.54600
C 	C 	0.70716 0.65609 0.18993 0.51700
C 	C 	0.73054 0.67055 0.18673 -0.14200
C 	C 	0.73880 0.69056 0.19987 0.01300
H 	H 	0.73050 0.69730 0.21350 0.04100
C 	C 	0.67295 0.61532 0.25655 0.53500
C 	C 	0.68945 0.60899 0.27822 -0.17100
C 	C 	0.69296 0.58648 0.28857 0.00300
H 	H 	0.68410 0.57240 0.28400 -0.01000
C 	C 	0.60953 0.54936 0.17816 0.53600
C 	C 	0.60529 0.52273 0.17279 -0.15300
C 	C 	0.59310 0.51320 0.15280 0.00900
H 	H 	0.58560 0.52290 0.14050 0.04100
O 	O 	0.68228 0.63893 0.12811 -0.66300
S 	S 	0.73434 0.67880 0.09880 0.02100
C 	C 	0.75630 0.63580 0.10330 -0.04500
C 	C 	0.71730 0.65390 0.10930 -0.08900
C 	C 	0.69110 0.65970 0.12210 0.43300
C 	C 	0.73380 0.63210 0.10970 0.02000
C 	C 	0.76060 0.66150 0.09480 -0.09500
Zr	Zr	0.13783 0.09129 0.71244 3.17400
Zr	Zr	0.16721 0.12043 0.66122 3.19500
S 	S 	0.17951 0.06576 0.58554 0.04100
O 	O 	0.12120 0.08529 0.62457 -0.63700
O 	O 	0.16232 0.09337 0.62884 -0.68500
O 	O 	0.21193 0.04231 0.54951 -0.77700
O 	O 	0.18260 0.02434 0.52587 -0.66300
O 	O 	0.20215 0.14089 0.67285 -0.68900
O 	O 	0.19451 0.16042 0.70939 -0.64800
O 	O 	0.17292 0.13740 0.74907 -0.66200
O 	O 	0.16075 0.09716 0.74779 -0.78000
O 	O 	0.12316 0.05463 0.69641 -0.78000
O 	O 	0.09956 0.06442 0.66299 -0.67900
O 	O 	0.13832 0.09843 0.67440 -1.49900
O 	O 	0.16934 0.11660 0.70276 -1.14500
C 	C 	0.14375 0.08343 0.61815 0.51000
C 	C 	0.14944 0.06799 0.59619 -0.13400
C 	C 	0.13340 0.05433 0.58208 0.00000
H 	H 	0.11630 0.05340 0.58490 0.04500
C 	C 	0.14616 0.04157 0.56235 0.02200
H 	H 	0.13830 0.03100 0.55110 0.03600
C 	C 	0.17070 0.04646 0.56179 -0.16000
C 	C 	0.18997 0.03670 0.54429 0.54600
C 	C 	0.20716 0.15609 0.68993 0.51700
C 	C 	0.23054 0.17055 0.68673 -0.14200
C 	C 	0.23880 0.19056 0.69987 0.01300
H 	H 	0.23050 0.19730 0.71350 0.04100
C 	C 	0.17295 0.11532 0.75655 0.53500
C 	C 	0.18945 0.10899 0.77822 -0.17100
C 	C 	0.19296 0.08648 0.78857 0.00300
H 	H 	0.18410 0.07240 0.78400 -0.01000
C 	C 	0.10953 0.04936 0.67816 0.53600
C 	C 	0.10529 0.02273 0.67279 -0.15300
C 	C 	0.09310 0.01320 0.65280 0.00800
H 	H 	0.08560 0.02290 0.64050 0.04100
O 	O 	0.18228 0.13893 0.62811 -0.66300
S 	S 	0.23434 0.17880 0.59880 0.02100
C 	C 	0.25630 0.13580 0.60330 -0.04500
C 	C 	0.21730 0.15390 0.60930 -0.08900
C 	C 	0.19110 0.15970 0.62210 0.43400
C 	C 	0.23380 0.13210 0.60970 0.02000
C 	C 	0.26060 0.16150 0.59480 -0.09500
Zr	Zr	0.63783 0.40871 0.78756 3.17400
Zr	Zr	0.66721 0.37957 0.83878 3.19500
S 	S 	0.67951 0.43424 0.91446 0.04100
O 	O 	0.62120 0.41471 0.87543 -0.63700
O 	O 	0.66232 0.40663 0.87116 -0.68500
O 	O 	0.71193 0.45769 0.95049 -0.77700
O 	O 	0.68260 0.47566 0.97413 -0.66300
O 	O 	0.70215 0.35911 0.82715 -0.68900
O 	O 	0.69451 0.33958 0.79061 -0.64800
O 	O 	0.67292 0.36260 0.75093 -0.66200
O 	O 	0.66075 0.40284 0.75221 -0.78000
O 	O 	0.62316 0.44537 0.80359 -0.78000
O 	O 	0.59956 0.43558 0.83701 -0.67900
O 	O 	0.63832 0.40157 0.82560 -1.49900
O 	O 	0.66934 0.38340 0.79724 -1.14500
C 	C 	0.64375 0.41657 0.88185 0.51000
C 	C 	0.64944 0.43201 0.90381 -0.13400
C 	C 	0.63340 0.44567 0.91792 0.00000
H 	H 	0.61630 0.44660 0.91510 0.04500
C 	C 	0.64616 0.45843 0.93765 0.02200
H 	H 	0.63830 0.46900 0.94890 0.03600
C 	C 	0.67070 0.45354 0.93821 -0.16000
C 	C 	0.68997 0.46330 0.95571 0.54600
C 	C 	0.70716 0.34391 0.81007 0.51700
C 	C 	0.73054 0.32945 0.81327 -0.14200
C 	C 	0.73880 0.30944 0.80013 0.01300
H 	H 	0.73050 0.30270 0.78650 0.04100
C 	C 	0.67295 0.38468 0.74345 0.53500
C 	C 	0.68945 0.39101 0.72178 -0.17100
C 	C 	0.69296 0.41352 0.71143 0.00300
H 	H 	0.68410 0.42760 0.71600 -0.01000
C 	C 	0.60953 0.45064 0.82184 0.53600
C 	C 	0.60529 0.47727 0.82721 -0.15300
C 	C 	0.59310 0.48680 0.84720 0.00900
H 	H 	0.58560 0.47710 0.85950 0.04100
O 	O 	0.68228 0.36107 0.87189 -0.66300
S 	S 	0.73434 0.32120 0.90120 0.02100
C 	C 	0.75630 0.36420 0.89670 -0.04500
C 	C 	0.71730 0.34610 0.89070 -0.08900
C 	C 	0.69110 0.34030 0.87790 0.43400
C 	C 	0.73380 0.36790 0.89030 0.02000
C 	C 	0.76060 0.33850 0.90520 -0.09500
Zr	Zr	0.13783 0.90871 0.28756 3.17400
Zr	Zr	0.16721 0.87957 0.33878 3.19500
S 	S 	0.17951 0.93424 0.41446 0.04100
O 	O 	0.12120 0.91471 0.37543 -0.63700
O 	O 	0.16232 0.90663 0.37116 -0.68500
O 	O 	0.21193 0.95769 0.45049 -0.77700
O 	O 	0.18260 0.97566 0.47413 -0.66300
O 	O 	0.20215 0.85911 0.32715 -0.68900
O 	O 	0.19451 0.83958 0.29061 -0.64800
O 	O 	0.17292 0.86260 0.25093 -0.66200
O 	O 	0.16075 0.90284 0.25221 -0.78000
O 	O 	0.12316 0.94537 0.30359 -0.78000
O 	O 	0.09956 0.93558 0.33701 -0.67900
O 	O 	0.13832 0.90157 0.32560 -1.49900
O 	O 	0.16934 0.88340 0.29724 -1.14500
C 	C 	0.14375 0.91657 0.38185 0.51000
C 	C 	0.14944 0.93201 0.40381 -0.13400
C 	C 	0.13340 0.94567 0.41792 0.00000
H 	H 	0.11630 0.94660 0.41510 0.04500
C 	C 	0.14616 0.95843 0.43765 0.02200
H 	H 	0.13830 0.96900 0.44890 0.03600
C 	C 	0.17070 0.95354 0.43821 -0.16000
C 	C 	0.18997 0.96330 0.45571 0.54600
C 	C 	0.20716 0.84391 0.31007 0.51700
C 	C 	0.23054 0.82945 0.31327 -0.14200
C 	C 	0.23880 0.80944 0.30013 0.01300
H 	H 	0.23050 0.80270 0.28650 0.04100
C 	C 	0.17295 0.88468 0.24345 0.53500
C 	C 	0.18945 0.89101 0.22178 -0.17100
C 	C 	0.19296 0.91352 0.21143 0.00300
H 	H 	0.18410 0.92760 0.21600 -0.01000
C 	C 	0.10953 0.95064 0.32184 0.53600
C 	C 	0.10529 0.97727 0.32721 -0.15300
C 	C 	0.09310 0.98680 0.34720 0.00900
H 	H 	0.08560 0.97710 0.35950 0.04100
O 	O 	0.18228 0.86107 0.37189 -0.66300
S 	S 	0.23434 0.82120 0.40120 0.02100
C 	C 	0.25630 0.86420 0.39670 -0.04500
C 	C 	0.21730 0.84610 0.39070 -0.08900
C 	C 	0.19110 0.84030 0.37790 0.43400
C 	C 	0.23380 0.86790 0.39030 0.02000
C 	C 	0.26060 0.83850 0.40520 -0.09500
Zr	Zr	0.36217 0.59129 0.78756 3.17300
Zr	Zr	0.33279 0.62043 0.83878 3.19400
S 	S 	0.32049 0.56576 0.91446 0.04000
O 	O 	0.37880 0.58529 0.87543 -0.63800
O 	O 	0.33768 0.59337 0.87116 -0.68600
O 	O 	0.28807 0.54231 0.95049 -0.77800
O 	O 	0.31740 0.52434 0.97413 -0.66400
O 	O 	0.29785 0.64089 0.82715 -0.69000
O 	O 	0.30549 0.66042 0.79061 -0.64900
O 	O 	0.32708 0.63740 0.75093 -0.66300
O 	O 	0.33925 0.59716 0.75221 -0.78100
O 	O 	0.37684 0.55463 0.80359 -0.78100
O 	O 	0.40044 0.56442 0.83701 -0.68000
O 	O 	0.36168 0.59843 0.82560 -1.50000
O 	O 	0.33066 0.61660 0.79724 -1.14600
C 	C 	0.35625 0.58343 0.88185 0.50900
C 	C 	0.35056 0.56799 0.90381 -0.13500
C 	C 	0.36660 0.55433 0.91792 -0.00100
H 	H 	0.38370 0.55340 0.91510 0.04400
C 	C 	0.35384 0.54157 0.93765 0.02100
H 	H 	0.36170 0.53100 0.94890 0.03500
C 	C 	0.32930 0.54646 0.93821 -0.16100
C 	C 	0.31003 0.53670 0.95571 0.54500
C 	C 	0.29284 0.65609 0.81007 0.51600
C 	C 	0.26946 0.67055 0.81327 -0.14300
C 	C 	0.26120 0.69056 0.80013 0.01200
H 	H 	0.26950 0.69730 0.78650 0.04000
C 	C 	0.32705 0.61532 0.74345 0.53400
C 	C 	0.31055 0.60899 0.72178 -0.17200
C 	C 	0.30704 0.58648 0.71143 0.00200
H 	H 	0.31590 0.57240 0.71600 -0.01100
C 	C 	0.39047 0.54936 0.82184 0.53500
C 	C 	0.39471 0.52273 0.82721 -0.15400
C 	C 	0.40690 0.51320 0.84720 0.00800
H 	H 	0.41440 0.52290 0.85950 0.04000
O 	O 	0.31772 0.63893 0.87189 -0.66400
S 	S 	0.26566 0.67880 0.90120 0.02000
C 	C 	0.24370 0.63580 0.89670 -0.04600
C 	C 	0.28270 0.65390 0.89070 -0.09000
C 	C 	0.30890 0.65970 0.87790 0.43300
C 	C 	0.26620 0.63210 0.89030 0.01900
C 	C 	0.23940 0.66150 0.90520 -0.09600
Zr	Zr	0.86217 0.09129 0.28756 3.17300
Zr	Zr	0.83279 0.12043 0.33878 3.19400
S 	S 	0.82049 0.06576 0.41446 0.04000
O 	O 	0.87880 0.08529 0.37543 -0.63800
O 	O 	0.83768 0.09337 0.37116 -0.68600
O 	O 	0.78807 0.04231 0.45049 -0.77800
O 	O 	0.81740 0.02434 0.47413 -0.66400
O 	O 	0.79785 0.14089 0.32715 -0.69000
O 	O 	0.80549 0.16042 0.29061 -0.64900
O 	O 	0.82708 0.13740 0.25093 -0.66300
O 	O 	0.83925 0.09716 0.25221 -0.78100
O 	O 	0.87684 0.05463 0.30359 -0.78100
O 	O 	0.90044 0.06442 0.33701 -0.68000
O 	O 	0.86168 0.09843 0.32560 -1.50000
O 	O 	0.83066 0.11660 0.29724 -1.14600
C 	C 	0.85625 0.08343 0.38185 0.50900
C 	C 	0.85056 0.06799 0.40381 -0.13500
C 	C 	0.86660 0.05433 0.41792 -0.00100
H 	H 	0.88370 0.05340 0.41510 0.04400
C 	C 	0.85384 0.04157 0.43765 0.02100
H 	H 	0.86170 0.03100 0.44890 0.03500
C 	C 	0.82930 0.04646 0.43821 -0.16100
C 	C 	0.81003 0.03670 0.45571 0.54500
C 	C 	0.79284 0.15609 0.31007 0.51600
C 	C 	0.76946 0.17055 0.31327 -0.14300
C 	C 	0.76120 0.19056 0.30013 0.01200
H 	H 	0.76950 0.19730 0.28650 0.04000
C 	C 	0.82705 0.11532 0.24345 0.53400
C 	C 	0.81055 0.10899 0.22178 -0.17200
C 	C 	0.80704 0.08648 0.21143 0.00200
H 	H 	0.81590 0.07240 0.21600 -0.01100
C 	C 	0.89047 0.04936 0.32184 0.53500
C 	C 	0.89471 0.02273 0.32721 -0.15400
C 	C 	0.90690 0.01320 0.34720 0.00700
H 	H 	0.91440 0.02290 0.35950 0.04000
O 	O 	0.81772 0.13893 0.37189 -0.66400
S 	S 	0.76566 0.17880 0.40120 0.02000
C 	C 	0.74370 0.13580 0.39670 -0.04600
C 	C 	0.78270 0.15390 0.39070 -0.09000
C 	C 	0.80890 0.15970 0.37790 0.43300
C 	C 	0.76620 0.13210 0.39030 0.01900
C 	C 	0.73940 0.16150 0.40520 -0.09600
Zr	Zr	0.21244 0.36217 0.40871 3.17300
Zr	Zr	0.16122 0.33279 0.37957 3.19400
S 	S 	0.08554 0.32049 0.43424 0.04000
O 	O 	0.12457 0.37880 0.41471 -0.63800
O 	O 	0.12884 0.33768 0.40663 -0.68600
O 	O 	0.04951 0.28807 0.45769 -0.77800
O 	O 	0.02587 0.31740 0.47566 -0.66400
O 	O 	0.17285 0.29785 0.35911 -0.69000
O 	O 	0.20939 0.30549 0.33958 -0.64900
O 	O 	0.24907 0.32708 0.36260 -0.66300
O 	O 	0.24779 0.33925 0.40284 -0.78100
O 	O 	0.19641 0.37684 0.44537 -0.78100
O 	O 	0.16299 0.40044 0.43558 -0.68000
O 	O 	0.17440 0.36168 0.40157 -1.50000
O 	O 	0.20276 0.33066 0.38340 -1.14600
C 	C 	0.11815 0.35625 0.41657 0.50900
C 	C 	0.09619 0.35056 0.43201 -0.13500
C 	C 	0.08208 0.36660 0.44567 -0.00100
H 	H 	0.08490 0.38370 0.44660 0.04400
C 	C 	0.06235 0.35384 0.45843 0.02100
H 	H 	0.05110 0.36170 0.46900 0.03500
C 	C 	0.06179 0.32930 0.45354 -0.16100
C 	C 	0.04429 0.31003 0.46330 0.54500
C 	C 	0.18993 0.29284 0.34391 0.51600
C 	C 	0.18673 0.26946 0.32945 -0.14300
C 	C 	0.19987 0.26120 0.30944 0.01200
H 	H 	0.21350 0.26950 0.30270 0.04000
C 	C 	0.25655 0.32705 0.38468 0.53400
C 	C 	0.27822 0.31055 0.39101 -0.17200
C 	C 	0.28857 0.30704 0.41352 0.00200
H 	H 	0.28400 0.31590 0.42760 -0.01100
C 	C 	0.17816 0.39047 0.45064 0.53500
C 	C 	0.17279 0.39471 0.47727 -0.15400
C 	C 	0.15280 0.40690 0.48680 0.00800
H 	H 	0.14050 0.41440 0.47710 0.04000
O 	O 	0.12811 0.31772 0.36107 -0.66400
S 	S 	0.09880 0.26566 0.32120 0.02000
C 	C 	0.10330 0.24370 0.36420 -0.04600
C 	C 	0.10930 0.28270 0.34610 -0.09000
C 	C 	0.12210 0.30890 0.34030 0.43200
C 	C 	0.10970 0.26620 0.36790 0.01900
C 	C 	0.09480 0.23940 0.33850 -0.09600
Zr	Zr	0.71244 0.86217 0.90871 3.17300
Zr	Zr	0.66122 0.83279 0.87957 3.19400
S 	S 	0.58554 0.82049 0.93424 0.04000
O 	O 	0.62457 0.87880 0.91471 -0.63800
O 	O 	0.62884 0.83768 0.90663 -0.68600
O 	O 	0.54951 0.78807 0.95769 -0.77800
O 	O 	0.52587 0.81740 0.97566 -0.66400
O 	O 	0.67285 0.79785 0.85911 -0.69000
O 	O 	0.70939 0.80549 0.83958 -0.64900
O 	O 	0.74907 0.82708 0.86260 -0.66300
O 	O 	0.74779 0.83925 0.90284 -0.78100
O 	O 	0.69641 0.87684 0.94537 -0.78100
O 	O 	0.66299 0.90044 0.93558 -0.68000
O 	O 	0.67440 0.86168 0.90157 -1.50000
O 	O 	0.70276 0.83066 0.88340 -1.14600
C 	C 	0.61815 0.85625 0.91657 0.50900
C 	C 	0.59619 0.85056 0.93201 -0.13500
C 	C 	0.58208 0.86660 0.94567 -0.00100
H 	H 	0.58490 0.88370 0.94660 0.04400
C 	C 	0.56235 0.85384 0.95843 0.02100
H 	H 	0.55110 0.86170 0.96900 0.03500
C 	C 	0.56179 0.82930 0.95354 -0.16100
C 	C 	0.54429 0.81003 0.96330 0.54500
C 	C 	0.68993 0.79284 0.84391 0.51600
C 	C 	0.68673 0.76946 0.82945 -0.14300
C 	C 	0.69987 0.76120 0.80944 0.01200
H 	H 	0.71350 0.76950 0.80270 0.04000
C 	C 	0.75655 0.82705 0.88468 0.53400
C 	C 	0.77822 0.81055 0.89101 -0.17200
C 	C 	0.78857 0.80704 0.91352 0.00200
H 	H 	0.78400 0.81590 0.92760 -0.01100
C 	C 	0.67816 0.89047 0.95064 0.53500
C 	C 	0.67279 0.89471 0.97727 -0.15400
C 	C 	0.65280 0.90690 0.98680 0.00800
H 	H 	0.64050 0.91440 0.97710 0.04000
O 	O 	0.62811 0.81772 0.86107 -0.66400
S 	S 	0.59880 0.76566 0.82120 0.02000
C 	C 	0.60330 0.74370 0.86420 -0.04600
C 	C 	0.60930 0.78270 0.84610 -0.09000
C 	C 	0.62210 0.80890 0.84030 0.43200
C 	C 	0.60970 0.76620 0.86790 0.01900
C 	C 	0.59480 0.73940 0.83850 -0.09600
Zr	Zr	0.21244 0.63783 0.59129 3.17300
Zr	Zr	0.16122 0.66721 0.62043 3.19400
S 	S 	0.08554 0.67951 0.56576 0.04000
O 	O 	0.12457 0.62120 0.58529 -0.63800
O 	O 	0.12884 0.66232 0.59337 -0.68600
O 	O 	0.04951 0.71193 0.54231 -0.77800
O 	O 	0.02587 0.68260 0.52434 -0.66400
O 	O 	0.17285 0.70215 0.64089 -0.69000
O 	O 	0.20939 0.69451 0.66042 -0.64900
O 	O 	0.24907 0.67292 0.63740 -0.66300
O 	O 	0.24779 0.66075 0.59716 -0.78100
O 	O 	0.19641 0.62316 0.55463 -0.78100
O 	O 	0.16299 0.59956 0.56442 -0.68000
O 	O 	0.17440 0.63832 0.59843 -1.50000
O 	O 	0.20276 0.66934 0.61660 -1.14600
C 	C 	0.11815 0.64375 0.58343 0.50900
C 	C 	0.09619 0.64944 0.56799 -0.13500
C 	C 	0.08208 0.63340 0.55433 -0.00100
H 	H 	0.08490 0.61630 0.55340 0.04400
C 	C 	0.06235 0.64616 0.54157 0.02100
H 	H 	0.05110 0.63830 0.53100 0.03500
C 	C 	0.06179 0.67070 0.54646 -0.16100
C 	C 	0.04429 0.68997 0.53670 0.54500
C 	C 	0.18993 0.70716 0.65609 0.51600
C 	C 	0.18673 0.73054 0.67055 -0.14300
C 	C 	0.19987 0.73880 0.69056 0.01200
H 	H 	0.21350 0.73050 0.69730 0.04000
C 	C 	0.25655 0.67295 0.61532 0.53400
C 	C 	0.27822 0.68945 0.60899 -0.17200
C 	C 	0.28857 0.69296 0.58648 0.00200
H 	H 	0.28400 0.68410 0.57240 -0.01100
C 	C 	0.17816 0.60953 0.54936 0.53500
C 	C 	0.17279 0.60529 0.52273 -0.15400
C 	C 	0.15280 0.59310 0.51320 0.00800
H 	H 	0.14050 0.58560 0.52290 0.04000
O 	O 	0.12811 0.68228 0.63893 -0.66400
S 	S 	0.09880 0.73434 0.67880 0.02000
C 	C 	0.10330 0.75630 0.63580 -0.04600
C 	C 	0.10930 0.71730 0.65390 -0.09000
C 	C 	0.12210 0.69110 0.65970 0.43200
C 	C 	0.10970 0.73380 0.63210 0.01900
C 	C 	0.09480 0.76060 0.66150 -0.09600
Zr	Zr	0.71244 0.13783 0.09129 3.17300
Zr	Zr	0.66122 0.16721 0.12043 3.19400
S 	S 	0.58554 0.17951 0.06576 0.04000
O 	O 	0.62457 0.12120 0.08529 -0.63800
O 	O 	0.62884 0.16232 0.09337 -0.68600
O 	O 	0.54951 0.21193 0.04231 -0.77800
O 	O 	0.52587 0.18260 0.02434 -0.66400
O 	O 	0.67285 0.20215 0.14089 -0.69000
O 	O 	0.70939 0.19451 0.16042 -0.64900
O 	O 	0.74907 0.17292 0.13740 -0.66300
O 	O 	0.74779 0.16075 0.09716 -0.78100
O 	O 	0.69641 0.12316 0.05463 -0.78100
O 	O 	0.66299 0.09956 0.06442 -0.68000
O 	O 	0.67440 0.13832 0.09843 -1.50000
O 	O 	0.70276 0.16934 0.11660 -1.14600
C 	C 	0.61815 0.14375 0.08343 0.50900
C 	C 	0.59619 0.14944 0.06799 -0.13500
C 	C 	0.58208 0.13340 0.05433 -0.00100
H 	H 	0.58490 0.11630 0.05340 0.04400
C 	C 	0.56235 0.14616 0.04157 0.02100
H 	H 	0.55110 0.13830 0.03100 0.03500
C 	C 	0.56179 0.17070 0.04646 -0.16100
C 	C 	0.54429 0.18997 0.03670 0.54500
C 	C 	0.68993 0.20716 0.15609 0.51600
C 	C 	0.68673 0.23054 0.17055 -0.14300
C 	C 	0.69987 0.23880 0.19056 0.01200
H 	H 	0.71350 0.23050 0.19730 0.04000
C 	C 	0.75655 0.17295 0.11532 0.53400
C 	C 	0.77822 0.18945 0.10899 -0.17200
C 	C 	0.78857 0.19296 0.08648 0.00200
H 	H 	0.78400 0.18410 0.07240 -0.01100
C 	C 	0.67816 0.10953 0.04936 0.53500
C 	C 	0.67279 0.10529 0.02273 -0.15400
C 	C 	0.65280 0.09310 0.01320 0.00700
H 	H 	0.64050 0.08560 0.02290 0.04000
O 	O 	0.62811 0.18228 0.13893 -0.66400
S 	S 	0.59880 0.23434 0.17880 0.02000
C 	C 	0.60330 0.25630 0.13580 -0.04600
C 	C 	0.60930 0.21730 0.15390 -0.09000
C 	C 	0.62210 0.19110 0.15970 0.43300
C 	C 	0.60970 0.23380 0.13210 0.01900
C 	C 	0.59480 0.26060 0.16150 -0.09600
Zr	Zr	0.78756 0.63783 0.40871 3.17300
Zr	Zr	0.83878 0.66721 0.37957 3.19400
S 	S 	0.91446 0.67951 0.43424 0.04000
O 	O 	0.87543 0.62120 0.41471 -0.63800
O 	O 	0.87116 0.66232 0.40663 -0.68600
O 	O 	0.95049 0.71193 0.45769 -0.77800
O 	O 	0.97413 0.68260 0.47566 -0.66400
O 	O 	0.82715 0.70215 0.35911 -0.69000
O 	O 	0.79061 0.69451 0.33958 -0.64900
O 	O 	0.75093 0.67292 0.36260 -0.66300
O 	O 	0.75221 0.66075 0.40284 -0.78100
O 	O 	0.80359 0.62316 0.44537 -0.78100
O 	O 	0.83701 0.59956 0.43558 -0.68000
O 	O 	0.82560 0.63832 0.40157 -1.50000
O 	O 	0.79724 0.66934 0.38340 -1.14600
C 	C 	0.88185 0.64375 0.41657 0.50900
C 	C 	0.90381 0.64944 0.43201 -0.13500
C 	C 	0.91792 0.63340 0.44567 -0.00100
H 	H 	0.91510 0.61630 0.44660 0.04400
C 	C 	0.93765 0.64616 0.45843 0.02100
H 	H 	0.94890 0.63830 0.46900 0.03500
C 	C 	0.93821 0.67070 0.45354 -0.16100
C 	C 	0.95571 0.68997 0.46330 0.54500
C 	C 	0.81007 0.70716 0.34391 0.51600
C 	C 	0.81327 0.73054 0.32945 -0.14300
C 	C 	0.80013 0.73880 0.30944 0.01200
H 	H 	0.78650 0.73050 0.30270 0.04000
C 	C 	0.74345 0.67295 0.38468 0.53400
C 	C 	0.72178 0.68945 0.39101 -0.17200
C 	C 	0.71143 0.69296 0.41352 0.00200
H 	H 	0.71600 0.68410 0.42760 -0.01100
C 	C 	0.82184 0.60953 0.45064 0.53500
C 	C 	0.82721 0.60529 0.47727 -0.15400
C 	C 	0.84720 0.59310 0.48680 0.00800
H 	H 	0.85950 0.58560 0.47710 0.04000
O 	O 	0.87189 0.68228 0.36107 -0.66400
S 	S 	0.90120 0.73434 0.32120 0.02000
C 	C 	0.89670 0.75630 0.36420 -0.04600
C 	C 	0.89070 0.71730 0.34610 -0.09000
C 	C 	0.87790 0.69110 0.34030 0.43300
C 	C 	0.89030 0.73380 0.36790 0.01900
C 	C 	0.90520 0.76060 0.33850 -0.09600
Zr	Zr	0.28756 0.13783 0.90871 3.17300
Zr	Zr	0.33878 0.16721 0.87957 3.19400
S 	S 	0.41446 0.17951 0.93424 0.04000
O 	O 	0.37543 0.12120 0.91471 -0.63800
O 	O 	0.37116 0.16232 0.90663 -0.68600
O 	O 	0.45049 0.21193 0.95769 -0.77800
O 	O 	0.47413 0.18260 0.97566 -0.66400
O 	O 	0.32715 0.20215 0.85911 -0.69000
O 	O 	0.29061 0.19451 0.83958 -0.64900
O 	O 	0.25093 0.17292 0.86260 -0.66300
O 	O 	0.25221 0.16075 0.90284 -0.78100
O 	O 	0.30359 0.12316 0.94537 -0.78100
O 	O 	0.33701 0.09956 0.93558 -0.68000
O 	O 	0.32560 0.13832 0.90157 -1.50000
O 	O 	0.29724 0.16934 0.88340 -1.14600
C 	C 	0.38185 0.14375 0.91657 0.50900
C 	C 	0.40381 0.14944 0.93201 -0.13500
C 	C 	0.41792 0.13340 0.94567 -0.00100
H 	H 	0.41510 0.11630 0.94660 0.04400
C 	C 	0.43765 0.14616 0.95843 0.02100
H 	H 	0.44890 0.13830 0.96900 0.03500
C 	C 	0.43821 0.17070 0.95354 -0.16100
C 	C 	0.45571 0.18997 0.96330 0.54500
C 	C 	0.31007 0.20716 0.84391 0.51600
C 	C 	0.31327 0.23054 0.82945 -0.14300
C 	C 	0.30013 0.23880 0.80944 0.01200
H 	H 	0.28650 0.23050 0.80270 0.04000
C 	C 	0.24345 0.17295 0.88468 0.53400
C 	C 	0.22178 0.18945 0.89101 -0.17200
C 	C 	0.21143 0.19296 0.91352 0.00200
H 	H 	0.21600 0.18410 0.92760 -0.01100
C 	C 	0.32184 0.10953 0.95064 0.53500
C 	C 	0.32721 0.10529 0.97727 -0.15400
C 	C 	0.34720 0.09310 0.98680 0.00800
H 	H 	0.35950 0.08560 0.97710 0.04000
O 	O 	0.37189 0.18228 0.86107 -0.66400
S 	S 	0.40120 0.23434 0.82120 0.02000
C 	C 	0.39670 0.25630 0.86420 -0.04600
C 	C 	0.39070 0.21730 0.84610 -0.09000
C 	C 	0.37790 0.19110 0.84030 0.43300
C 	C 	0.39030 0.23380 0.86790 0.01900
C 	C 	0.40520 0.26060 0.83850 -0.09600
Zr	Zr	0.78756 0.36217 0.59129 3.17300
Zr	Zr	0.83878 0.33279 0.62043 3.19400
S 	S 	0.91446 0.32049 0.56576 0.04000
O 	O 	0.87543 0.37880 0.58529 -0.63800
O 	O 	0.87116 0.33768 0.59337 -0.68600
O 	O 	0.95049 0.28807 0.54231 -0.77800
O 	O 	0.97413 0.31740 0.52434 -0.66400
O 	O 	0.82715 0.29785 0.64089 -0.69000
O 	O 	0.79061 0.30549 0.66042 -0.64900
O 	O 	0.75093 0.32708 0.63740 -0.66300
O 	O 	0.75221 0.33925 0.59716 -0.78100
O 	O 	0.80359 0.37684 0.55463 -0.78100
O 	O 	0.83701 0.40044 0.56442 -0.68000
O 	O 	0.82560 0.36168 0.59843 -1.50000
O 	O 	0.79724 0.33066 0.61660 -1.14600
C 	C 	0.88185 0.35625 0.58343 0.50900
C 	C 	0.90381 0.35056 0.56799 -0.13500
C 	C 	0.91792 0.36660 0.55433 -0.00100
H 	H 	0.91510 0.38370 0.55340 0.04400
C 	C 	0.93765 0.35384 0.54157 0.02100
H 	H 	0.94890 0.36170 0.53100 0.03500
C 	C 	0.93821 0.32930 0.54646 -0.16100
C 	C 	0.95571 0.31003 0.53670 0.54500
C 	C 	0.81007 0.29284 0.65609 0.51600
C 	C 	0.81327 0.26946 0.67055 -0.14300
C 	C 	0.80013 0.26120 0.69056 0.01200
H 	H 	0.78650 0.26950 0.69730 0.04000
C 	C 	0.74345 0.32705 0.61532 0.53400
C 	C 	0.72178 0.31055 0.60899 -0.17200
C 	C 	0.71143 0.30704 0.58648 0.00200
H 	H 	0.71600 0.31590 0.57240 -0.01100
C 	C 	0.82184 0.39047 0.54936 0.53500
C 	C 	0.82721 0.39471 0.52273 -0.15400
C 	C 	0.84720 0.40690 0.51320 0.00800
H 	H 	0.85950 0.41440 0.52290 0.04000
O 	O 	0.87189 0.31772 0.63893 -0.66400
S 	S 	0.90120 0.26566 0.67880 0.02000
C 	C 	0.89670 0.24370 0.63580 -0.04600
C 	C 	0.89070 0.28270 0.65390 -0.09000
C 	C 	0.87790 0.30890 0.65970 0.43300
C 	C 	0.89030 0.26620 0.63210 0.01900
C 	C 	0.90520 0.23940 0.66150 -0.09600
Zr	Zr	0.28756 0.86217 0.09129 3.17300
Zr	Zr	0.33878 0.83279 0.12043 3.19400
S 	S 	0.41446 0.82049 0.06576 0.04000
O 	O 	0.37543 0.87880 0.08529 -0.63800
O 	O 	0.37116 0.83768 0.09337 -0.68600
O 	O 	0.45049 0.78807 0.04231 -0.77800
O 	O 	0.47413 0.81740 0.02434 -0.66400
O 	O 	0.32715 0.79785 0.14089 -0.69000
O 	O 	0.29061 0.80549 0.16042 -0.64900
O 	O 	0.25093 0.82708 0.13740 -0.66300
O 	O 	0.25221 0.83925 0.09716 -0.78100
O 	O 	0.30359 0.87684 0.05463 -0.78100
O 	O 	0.33701 0.90044 0.06442 -0.68000
O 	O 	0.32560 0.86168 0.09843 -1.50000
O 	O 	0.29724 0.83066 0.11660 -1.14600
C 	C 	0.38185 0.85625 0.08343 0.50900
C 	C 	0.40381 0.85056 0.06799 -0.13500
C 	C 	0.41792 0.86660 0.05433 -0.00100
H 	H 	0.41510 0.88370 0.05340 0.04400
C 	C 	0.43765 0.85384 0.04157 0.02100
H 	H 	0.44890 0.86170 0.03100 0.03500
C 	C 	0.43821 0.82930 0.04646 -0.16100
C 	C 	0.45571 0.81003 0.03670 0.54500
C 	C 	0.31007 0.79284 0.15609 0.51600
C 	C 	0.31327 0.76946 0.17055 -0.14300
C 	C 	0.30013 0.76120 0.19056 0.01200
H 	H 	0.28650 0.76950 0.19730 0.04000
C 	C 	0.24345 0.82705 0.11532 0.53400
C 	C 	0.22178 0.81055 0.10899 -0.17200
C 	C 	0.21143 0.80704 0.08648 0.00200
H 	H 	0.21600 0.81590 0.07240 -0.01100
C 	C 	0.32184 0.89047 0.04936 0.53500
C 	C 	0.32721 0.89471 0.02273 -0.15400
C 	C 	0.34720 0.90690 0.01320 0.00700
H 	H 	0.35950 0.91440 0.02290 0.04000
O 	O 	0.37189 0.81772 0.13893 -0.66400
S 	S 	0.40120 0.76566 0.17880 0.02000
C 	C 	0.39670 0.74370 0.13580 -0.04600
C 	C 	0.39070 0.78270 0.15390 -0.09000
C 	C 	0.37790 0.80890 0.15970 0.43300
C 	C 	0.39030 0.76620 0.13210 0.01900
C 	C 	0.40520 0.73940 0.16150 -0.09600
Zr	Zr	0.40871 0.21244 0.36217 3.17300
Zr	Zr	0.37957 0.16122 0.33279 3.19400
S 	S 	0.43424 0.08554 0.32049 0.04000
O 	O 	0.41471 0.12457 0.37880 -0.63800
O 	O 	0.40663 0.12884 0.33768 -0.68600
O 	O 	0.45769 0.04951 0.28807 -0.77800
O 	O 	0.47566 0.02587 0.31740 -0.66400
O 	O 	0.35911 0.17285 0.29785 -0.69000
O 	O 	0.33958 0.20939 0.30549 -0.64900
O 	O 	0.36260 0.24907 0.32708 -0.66300
O 	O 	0.40284 0.24779 0.33925 -0.78100
O 	O 	0.44537 0.19641 0.37684 -0.78100
O 	O 	0.43558 0.16299 0.40044 -0.68000
O 	O 	0.40157 0.17440 0.36168 -1.50000
O 	O 	0.38340 0.20276 0.33066 -1.14600
C 	C 	0.41657 0.11815 0.35625 0.50900
C 	C 	0.43201 0.09619 0.35056 -0.13500
C 	C 	0.44567 0.08208 0.36660 -0.00100
H 	H 	0.44660 0.08490 0.38370 0.04400
C 	C 	0.45843 0.06235 0.35384 0.02100
H 	H 	0.46900 0.05110 0.36170 0.03500
C 	C 	0.45354 0.06179 0.32930 -0.16100
C 	C 	0.46330 0.04429 0.31003 0.54500
C 	C 	0.34391 0.18993 0.29284 0.51600
C 	C 	0.32945 0.18673 0.26946 -0.14300
C 	C 	0.30944 0.19987 0.26120 0.01200
H 	H 	0.30270 0.21350 0.26950 0.04000
C 	C 	0.38468 0.25655 0.32705 0.53400
C 	C 	0.39101 0.27822 0.31055 -0.17200
C 	C 	0.41352 0.28857 0.30704 0.00200
H 	H 	0.42760 0.28400 0.31590 -0.01100
C 	C 	0.45064 0.17816 0.39047 0.53500
C 	C 	0.47727 0.17279 0.39471 -0.15400
C 	C 	0.48680 0.15280 0.40690 0.00800
H 	H 	0.47710 0.14050 0.41440 0.04000
O 	O 	0.36107 0.12811 0.31772 -0.66400
S 	S 	0.32120 0.09880 0.26566 0.02000
C 	C 	0.36420 0.10330 0.24370 -0.04600
C 	C 	0.34610 0.10930 0.28270 -0.09000
C 	C 	0.34030 0.12210 0.30890 0.43200
C 	C 	0.36790 0.10970 0.26620 0.01900
C 	C 	0.33850 0.09480 0.23940 -0.09600
Zr	Zr	0.90871 0.71244 0.86217 3.17300
Zr	Zr	0.87957 0.66122 0.83279 3.19400
S 	S 	0.93424 0.58554 0.82049 0.04000
O 	O 	0.91471 0.62457 0.87880 -0.63800
O 	O 	0.90663 0.62884 0.83768 -0.68600
O 	O 	0.95769 0.54951 0.78807 -0.77800
O 	O 	0.97566 0.52587 0.81740 -0.66400
O 	O 	0.85911 0.67285 0.79785 -0.69000
O 	O 	0.83958 0.70939 0.80549 -0.64900
O 	O 	0.86260 0.74907 0.82708 -0.66300
O 	O 	0.90284 0.74779 0.83925 -0.78100
O 	O 	0.94537 0.69641 0.87684 -0.78100
O 	O 	0.93558 0.66299 0.90044 -0.68000
O 	O 	0.90157 0.67440 0.86168 -1.50000
O 	O 	0.88340 0.70276 0.83066 -1.14600
C 	C 	0.91657 0.61815 0.85625 0.50900
C 	C 	0.93201 0.59619 0.85056 -0.13500
C 	C 	0.94567 0.58208 0.86660 -0.00100
H 	H 	0.94660 0.58490 0.88370 0.04400
C 	C 	0.95843 0.56235 0.85384 0.02100
H 	H 	0.96900 0.55110 0.86170 0.03500
C 	C 	0.95354 0.56179 0.82930 -0.16100
C 	C 	0.96330 0.54429 0.81003 0.54500
C 	C 	0.84391 0.68993 0.79284 0.51600
C 	C 	0.82945 0.68673 0.76946 -0.14300
C 	C 	0.80944 0.69987 0.76120 0.01200
H 	H 	0.80270 0.71350 0.76950 0.04000
C 	C 	0.88468 0.75655 0.82705 0.53400
C 	C 	0.89101 0.77822 0.81055 -0.17200
C 	C 	0.91352 0.78857 0.80704 0.00200
H 	H 	0.92760 0.78400 0.81590 -0.01100
C 	C 	0.95064 0.67816 0.89047 0.53500
C 	C 	0.97727 0.67279 0.89471 -0.15400
C 	C 	0.98680 0.65280 0.90690 0.00800
H 	H 	0.97710 0.64050 0.91440 0.04000
O 	O 	0.86107 0.62811 0.81772 -0.66400
S 	S 	0.82120 0.59880 0.76566 0.02000
C 	C 	0.86420 0.60330 0.74370 -0.04600
C 	C 	0.84610 0.60930 0.78270 -0.09000
C 	C 	0.84030 0.62210 0.80890 0.43200
C 	C 	0.86790 0.60970 0.76620 0.01900
C 	C 	0.83850 0.59480 0.73940 -0.09600
Zr	Zr	0.59129 0.21244 0.63783 3.17300
Zr	Zr	0.62043 0.16122 0.66721 3.19400
S 	S 	0.56576 0.08554 0.67951 0.04000
O 	O 	0.58529 0.12457 0.62120 -0.63800
O 	O 	0.59337 0.12884 0.66232 -0.68600
O 	O 	0.54231 0.04951 0.71193 -0.77800
O 	O 	0.52434 0.02587 0.68260 -0.66400
O 	O 	0.64089 0.17285 0.70215 -0.69000
O 	O 	0.66042 0.20939 0.69451 -0.64900
O 	O 	0.63740 0.24907 0.67292 -0.66300
O 	O 	0.59716 0.24779 0.66075 -0.78100
O 	O 	0.55463 0.19641 0.62316 -0.78100
O 	O 	0.56442 0.16299 0.59956 -0.68000
O 	O 	0.59843 0.17440 0.63832 -1.50000
O 	O 	0.61660 0.20276 0.66934 -1.14600
C 	C 	0.58343 0.11815 0.64375 0.50900
C 	C 	0.56799 0.09619 0.64944 -0.13500
C 	C 	0.55433 0.08208 0.63340 -0.00100
H 	H 	0.55340 0.08490 0.61630 0.04400
C 	C 	0.54157 0.06235 0.64616 0.02100
H 	H 	0.53100 0.05110 0.63830 0.03500
C 	C 	0.54646 0.06179 0.67070 -0.16100
C 	C 	0.53670 0.04429 0.68997 0.54500
C 	C 	0.65609 0.18993 0.70716 0.51600
C 	C 	0.67055 0.18673 0.73054 -0.14300
C 	C 	0.69056 0.19987 0.73880 0.01200
H 	H 	0.69730 0.21350 0.73050 0.04000
C 	C 	0.61532 0.25655 0.67295 0.53400
C 	C 	0.60899 0.27822 0.68945 -0.17200
C 	C 	0.58648 0.28857 0.69296 0.00200
H 	H 	0.57240 0.28400 0.68410 -0.01100
C 	C 	0.54936 0.17816 0.60953 0.53500
C 	C 	0.52273 0.17279 0.60529 -0.15400
C 	C 	0.51320 0.15280 0.59310 0.00800
H 	H 	0.52290 0.14050 0.58560 0.04000
O 	O 	0.63893 0.12811 0.68228 -0.66400
S 	S 	0.67880 0.09880 0.73434 0.02000
C 	C 	0.63580 0.10330 0.75630 -0.04600
C 	C 	0.65390 0.10930 0.71730 -0.09000
C 	C 	0.65970 0.12210 0.69110 0.43200
C 	C 	0.63210 0.10970 0.73380 0.01900
C 	C 	0.66150 0.09480 0.76060 -0.09600
Zr	Zr	0.09129 0.71244 0.13783 3.17300
Zr	Zr	0.12043 0.66122 0.16721 3.19400
S 	S 	0.06576 0.58554 0.17951 0.04000
O 	O 	0.08529 0.62457 0.12120 -0.63800
O 	O 	0.09337 0.62884 0.16232 -0.68600
O 	O 	0.04231 0.54951 0.21193 -0.77800
O 	O 	0.02434 0.52587 0.18260 -0.66400
O 	O 	0.14089 0.67285 0.20215 -0.69000
O 	O 	0.16042 0.70939 0.19451 -0.64900
O 	O 	0.13740 0.74907 0.17292 -0.66300
O 	O 	0.09716 0.74779 0.16075 -0.78100
O 	O 	0.05463 0.69641 0.12316 -0.78100
O 	O 	0.06442 0.66299 0.09956 -0.68000
O 	O 	0.09843 0.67440 0.13832 -1.50000
O 	O 	0.11660 0.70276 0.16934 -1.14600
C 	C 	0.08343 0.61815 0.14375 0.50900
C 	C 	0.06799 0.59619 0.14944 -0.13500
C 	C 	0.05433 0.58208 0.13340 -0.00100
H 	H 	0.05340 0.58490 0.11630 0.04400
C 	C 	0.04157 0.56235 0.14616 0.02100
H 	H 	0.03100 0.55110 0.13830 0.03500
C 	C 	0.04646 0.56179 0.17070 -0.16100
C 	C 	0.03670 0.54429 0.18997 0.54500
C 	C 	0.15609 0.68993 0.20716 0.51600
C 	C 	0.17055 0.68673 0.23054 -0.14300
C 	C 	0.19056 0.69987 0.23880 0.01200
H 	H 	0.19730 0.71350 0.23050 0.04000
C 	C 	0.11532 0.75655 0.17295 0.53400
C 	C 	0.10899 0.77822 0.18945 -0.17200
C 	C 	0.08648 0.78857 0.19296 0.00200
H 	H 	0.07240 0.78400 0.18410 -0.01100
C 	C 	0.04936 0.67816 0.10953 0.53500
C 	C 	0.02273 0.67279 0.10529 -0.15400
C 	C 	0.01320 0.65280 0.09310 0.00700
H 	H 	0.02290 0.64050 0.08560 0.04000
O 	O 	0.13893 0.62811 0.18228 -0.66400
S 	S 	0.17880 0.59880 0.23434 0.02000
C 	C 	0.13580 0.60330 0.25630 -0.04600
C 	C 	0.15390 0.60930 0.21730 -0.09000
C 	C 	0.15970 0.62210 0.19110 0.43300
C 	C 	0.13210 0.60970 0.23380 0.01900
C 	C 	0.16150 0.59480 0.26060 -0.09600
Zr	Zr	0.40871 0.78756 0.63783 3.17300
Zr	Zr	0.37957 0.83878 0.66721 3.19400
S 	S 	0.43424 0.91446 0.67951 0.04000
O 	O 	0.41471 0.87543 0.62120 -0.63800
O 	O 	0.40663 0.87116 0.66232 -0.68600
O 	O 	0.45769 0.95049 0.71193 -0.77800
O 	O 	0.47566 0.97413 0.68260 -0.66400
O 	O 	0.35911 0.82715 0.70215 -0.69000
O 	O 	0.33958 0.79061 0.69451 -0.64900
O 	O 	0.36260 0.75093 0.67292 -0.66300
O 	O 	0.40284 0.75221 0.66075 -0.78100
O 	O 	0.44537 0.80359 0.62316 -0.78100
O 	O 	0.43558 0.83701 0.59956 -0.68000
O 	O 	0.40157 0.82560 0.63832 -1.50000
O 	O 	0.38340 0.79724 0.66934 -1.14600
C 	C 	0.41657 0.88185 0.64375 0.50900
C 	C 	0.43201 0.90381 0.64944 -0.13500
C 	C 	0.44567 0.91792 0.63340 -0.00100
H 	H 	0.44660 0.91510 0.61630 0.04400
C 	C 	0.45843 0.93765 0.64616 0.02100
H 	H 	0.46900 0.94890 0.63830 0.03500
C 	C 	0.45354 0.93821 0.67070 -0.16100
C 	C 	0.46330 0.95571 0.68997 0.54500
C 	C 	0.34391 0.81007 0.70716 0.51600
C 	C 	0.32945 0.81327 0.73054 -0.14300
C 	C 	0.30944 0.80013 0.73880 0.01200
H 	H 	0.30270 0.78650 0.73050 0.04000
C 	C 	0.38468 0.74345 0.67295 0.53400
C 	C 	0.39101 0.72178 0.68945 -0.17200
C 	C 	0.41352 0.71143 0.69296 0.00200
H 	H 	0.42760 0.71600 0.68410 -0.01100
C 	C 	0.45064 0.82184 0.60953 0.53500
C 	C 	0.47727 0.82721 0.60529 -0.15400
C 	C 	0.48680 0.84720 0.59310 0.00800
H 	H 	0.47710 0.85950 0.58560 0.04000
O 	O 	0.36107 0.87189 0.68228 -0.66400
S 	S 	0.32120 0.90120 0.73434 0.02000
C 	C 	0.36420 0.89670 0.75630 -0.04600
C 	C 	0.34610 0.89070 0.71730 -0.09000
C 	C 	0.34030 0.87790 0.69110 0.43300
C 	C 	0.36790 0.89030 0.73380 0.01900
C 	C 	0.33850 0.90520 0.76060 -0.09600
Zr	Zr	0.90871 0.28756 0.13783 3.17300
Zr	Zr	0.87957 0.33878 0.16721 3.19400
S 	S 	0.93424 0.41446 0.17951 0.04000
O 	O 	0.91471 0.37543 0.12120 -0.63800
O 	O 	0.90663 0.37116 0.16232 -0.68600
O 	O 	0.95769 0.45049 0.21193 -0.77800
O 	O 	0.97566 0.47413 0.18260 -0.66400
O 	O 	0.85911 0.32715 0.20215 -0.69000
O 	O 	0.83958 0.29061 0.19451 -0.64900
O 	O 	0.86260 0.25093 0.17292 -0.66300
O 	O 	0.90284 0.25221 0.16075 -0.78100
O 	O 	0.94537 0.30359 0.12316 -0.78100
O 	O 	0.93558 0.33701 0.09956 -0.68000
O 	O 	0.90157 0.32560 0.13832 -1.50000
O 	O 	0.88340 0.29724 0.16934 -1.14600
C 	C 	0.91657 0.38185 0.14375 0.50900
C 	C 	0.93201 0.40381 0.14944 -0.13500
C 	C 	0.94567 0.41792 0.13340 -0.00100
H 	H 	0.94660 0.41510 0.11630 0.04400
C 	C 	0.95843 0.43765 0.14616 0.02100
H 	H 	0.96900 0.44890 0.13830 0.03500
C 	C 	0.95354 0.43821 0.17070 -0.16100
C 	C 	0.96330 0.45571 0.18997 0.54500
C 	C 	0.84391 0.31007 0.20716 0.51600
C 	C 	0.82945 0.31327 0.23054 -0.14300
C 	C 	0.80944 0.30013 0.23880 0.01200
H 	H 	0.80270 0.28650 0.23050 0.04000
C 	C 	0.88468 0.24345 0.17295 0.53400
C 	C 	0.89101 0.22178 0.18945 -0.17200
C 	C 	0.91352 0.21143 0.19296 0.00200
H 	H 	0.92760 0.21600 0.18410 -0.01100
C 	C 	0.95064 0.32184 0.10953 0.53500
C 	C 	0.97727 0.32721 0.10529 -0.15400
C 	C 	0.98680 0.34720 0.09310 0.00800
H 	H 	0.97710 0.35950 0.08560 0.04000
O 	O 	0.86107 0.37189 0.18228 -0.66400
S 	S 	0.82120 0.40120 0.23434 0.02000
C 	C 	0.86420 0.39670 0.25630 -0.04600
C 	C 	0.84610 0.39070 0.21730 -0.09000
C 	C 	0.84030 0.37790 0.19110 0.43300
C 	C 	0.86790 0.39030 0.23380 0.01900
C 	C 	0.83850 0.40520 0.26060 -0.09600
Zr	Zr	0.59129 0.78756 0.36217 3.17300
Zr	Zr	0.62043 0.83878 0.33279 3.19400
S 	S 	0.56576 0.91446 0.32049 0.04000
O 	O 	0.58529 0.87543 0.37880 -0.63800
O 	O 	0.59337 0.87116 0.33768 -0.68600
O 	O 	0.54231 0.95049 0.28807 -0.77800
O 	O 	0.52434 0.97413 0.31740 -0.66400
O 	O 	0.64089 0.82715 0.29785 -0.69000
O 	O 	0.66042 0.79061 0.30549 -0.64900
O 	O 	0.63740 0.75093 0.32708 -0.66300
O 	O 	0.59716 0.75221 0.33925 -0.78100
O 	O 	0.55463 0.80359 0.37684 -0.78100
O 	O 	0.56442 0.83701 0.40044 -0.68000
O 	O 	0.59843 0.82560 0.36168 -1.50000
O 	O 	0.61660 0.79724 0.33066 -1.14600
C 	C 	0.58343 0.88185 0.35625 0.50900
C 	C 	0.56799 0.90381 0.35056 -0.13500
C 	C 	0.55433 0.91792 0.36660 -0.00100
H 	H 	0.55340 0.91510 0.38370 0.04400
C 	C 	0.54157 0.93765 0.35384 0.02100
H 	H 	0.53100 0.94890 0.36170 0.03500
C 	C 	0.54646 0.93821 0.32930 -0.16100
C 	C 	0.53670 0.95571 0.31003 0.54500
C 	C 	0.65609 0.81007 0.29284 0.51600
C 	C 	0.67055 0.81327 0.26946 -0.14300
C 	C 	0.69056 0.80013 0.26120 0.01200
H 	H 	0.69730 0.78650 0.26950 0.04000
C 	C 	0.61532 0.74345 0.32705 0.53400
C 	C 	0.60899 0.72178 0.31055 -0.17200
C 	C 	0.58648 0.71143 0.30704 0.00200
H 	H 	0.57240 0.71600 0.31590 -0.01100
C 	C 	0.54936 0.82184 0.39047 0.53500
C 	C 	0.52273 0.82721 0.39471 -0.15400
C 	C 	0.51320 0.84720 0.40690 0.00800
H 	H 	0.52290 0.85950 0.41440 0.04000
O 	O 	0.63893 0.87189 0.31772 -0.66400
S 	S 	0.67880 0.90120 0.26566 0.02000
C 	C 	0.63580 0.89670 0.24370 -0.04600
C 	C 	0.65390 0.89070 0.28270 -0.09000
C 	C 	0.65970 0.87790 0.30890 0.43300
C 	C 	0.63210 0.89030 0.26620 0.01900
C 	C 	0.66150 0.90520 0.23940 -0.09600
Zr	Zr	0.09129 0.28756 0.86217 3.17300
Zr	Zr	0.12043 0.33878 0.83279 3.19400
S 	S 	0.06576 0.41446 0.82049 0.04000
O 	O 	0.08529 0.37543 0.87880 -0.63800
O 	O 	0.09337 0.37116 0.83768 -0.68600
O 	O 	0.04231 0.45049 0.78807 -0.77800
O 	O 	0.02434 0.47413 0.81740 -0.66400
O 	O 	0.14089 0.32715 0.79785 -0.69000
O 	O 	0.16042 0.29061 0.80549 -0.64900
O 	O 	0.13740 0.25093 0.82708 -0.66300
O 	O 	0.09716 0.25221 0.83925 -0.78100
O 	O 	0.05463 0.30359 0.87684 -0.78100
O 	O 	0.06442 0.33701 0.90044 -0.68000
O 	O 	0.09843 0.32560 0.86168 -1.50000
O 	O 	0.11660 0.29724 0.83066 -1.14600
C 	C 	0.08343 0.38185 0.85625 0.50900
C 	C 	0.06799 0.40381 0.85056 -0.13500
C 	C 	0.05433 0.41792 0.86660 -0.00100
H 	H 	0.05340 0.41510 0.88370 0.04400
C 	C 	0.04157 0.43765 0.85384 0.02100
H 	H 	0.03100 0.44890 0.86170 0.03500
C 	C 	0.04646 0.43821 0.82930 -0.16100
C 	C 	0.03670 0.45571 0.81003 0.54500
C 	C 	0.15609 0.31007 0.79284 0.51600
C 	C 	0.17055 0.31327 0.76946 -0.14300
C 	C 	0.19056 0.30013 0.76120 0.01200
H 	H 	0.19730 0.28650 0.76950 0.04000
C 	C 	0.11532 0.24345 0.82705 0.53400
C 	C 	0.10899 0.22178 0.81055 -0.17200
C 	C 	0.08648 0.21143 0.80704 0.00200
H 	H 	0.07240 0.21600 0.81590 -0.01100
C 	C 	0.04936 0.32184 0.89047 0.53500
C 	C 	0.02273 0.32721 0.89471 -0.15400
C 	C 	0.01320 0.34720 0.90690 0.00700
H 	H 	0.02290 0.35950 0.91440 0.04000
O 	O 	0.13893 0.37189 0.81772 -0.66400
S 	S 	0.17880 0.40120 0.76566 0.02000
C 	C 	0.13580 0.39670 0.74370 -0.04600
C 	C 	0.15390 0.39070 0.78270 -0.09000
C 	C 	0.15970 0.37790 0.80890 0.43300
C 	C 	0.13210 0.39030 0.76620 0.01900
C 	C 	0.16150 0.40520 0.73940 -0.09600
Zr	Zr	0.40871 0.36217 0.78756 3.17300
Zr	Zr	0.37957 0.33279 0.83878 3.19400
S 	S 	0.43424 0.32049 0.91446 0.04000
O 	O 	0.41471 0.37880 0.87543 -0.63800
O 	O 	0.40663 0.33768 0.87116 -0.68600
O 	O 	0.45769 0.28807 0.95049 -0.77800
O 	O 	0.47566 0.31740 0.97413 -0.66400
O 	O 	0.35911 0.29785 0.82715 -0.69000
O 	O 	0.33958 0.30549 0.79061 -0.64900
O 	O 	0.36260 0.32708 0.75093 -0.66300
O 	O 	0.40284 0.33925 0.75221 -0.78100
O 	O 	0.44537 0.37684 0.80359 -0.78100
O 	O 	0.43558 0.40044 0.83701 -0.68000
O 	O 	0.40157 0.36168 0.82560 -1.50000
O 	O 	0.38340 0.33066 0.79724 -1.14600
C 	C 	0.41657 0.35625 0.88185 0.50900
C 	C 	0.43201 0.35056 0.90381 -0.13500
C 	C 	0.44567 0.36660 0.91792 -0.00100
H 	H 	0.44660 0.38370 0.91510 0.04400
C 	C 	0.45843 0.35384 0.93765 0.02100
H 	H 	0.46900 0.36170 0.94890 0.03500
C 	C 	0.45354 0.32930 0.93821 -0.16100
C 	C 	0.46330 0.31003 0.95571 0.54500
C 	C 	0.34391 0.29284 0.81007 0.51600
C 	C 	0.32945 0.26946 0.81327 -0.14300
C 	C 	0.30944 0.26120 0.80013 0.01200
H 	H 	0.30270 0.26950 0.78650 0.04000
C 	C 	0.38468 0.32705 0.74345 0.53400
C 	C 	0.39101 0.31055 0.72178 -0.17200
C 	C 	0.41352 0.30704 0.71143 0.00200
H 	H 	0.42760 0.31590 0.71600 -0.01100
C 	C 	0.45064 0.39047 0.82184 0.53500
C 	C 	0.47727 0.39471 0.82721 -0.15400
C 	C 	0.48680 0.40690 0.84720 0.00800
H 	H 	0.47710 0.41440 0.85950 0.04000
O 	O 	0.36107 0.31772 0.87189 -0.66400
S 	S 	0.32120 0.26566 0.90120 0.02000
C 	C 	0.36420 0.24370 0.89670 -0.04600
C 	C 	0.34610 0.28270 0.89070 -0.09000
C 	C 	0.34030 0.30890 0.87790 0.43300
C 	C 	0.36790 0.26620 0.89030 0.01900
C 	C 	0.33850 0.23940 0.90520 -0.09600
Zr	Zr	0.90871 0.86217 0.28756 3.17300
Zr	Zr	0.87957 0.83279 0.33878 3.19400
S 	S 	0.93424 0.82049 0.41446 0.04000
O 	O 	0.91471 0.87880 0.37543 -0.63800
O 	O 	0.90663 0.83768 0.37116 -0.68600
O 	O 	0.95769 0.78807 0.45049 -0.77800
O 	O 	0.97566 0.81740 0.47413 -0.66400
O 	O 	0.85911 0.79785 0.32715 -0.69000
O 	O 	0.83958 0.80549 0.29061 -0.64900
O 	O 	0.86260 0.82708 0.25093 -0.66300
O 	O 	0.90284 0.83925 0.25221 -0.78100
O 	O 	0.94537 0.87684 0.30359 -0.78100
O 	O 	0.93558 0.90044 0.33701 -0.68000
O 	O 	0.90157 0.86168 0.32560 -1.50000
O 	O 	0.88340 0.83066 0.29724 -1.14600
C 	C 	0.91657 0.85625 0.38185 0.50900
C 	C 	0.93201 0.85056 0.40381 -0.13500
C 	C 	0.94567 0.86660 0.41792 -0.00100
H 	H 	0.94660 0.88370 0.41510 0.04400
C 	C 	0.95843 0.85384 0.43765 0.02100
H 	H 	0.96900 0.86170 0.44890 0.03500
C 	C 	0.95354 0.82930 0.43821 -0.16100
C 	C 	0.96330 0.81003 0.45571 0.54500
C 	C 	0.84391 0.79284 0.31007 0.51600
C 	C 	0.82945 0.76946 0.31327 -0.14300
C 	C 	0.80944 0.76120 0.30013 0.01200
H 	H 	0.80270 0.76950 0.28650 0.04000
C 	C 	0.88468 0.82705 0.24345 0.53400
C 	C 	0.89101 0.81055 0.22178 -0.17200
C 	C 	0.91352 0.80704 0.21143 0.00200
H 	H 	0.92760 0.81590 0.21600 -0.01100
C 	C 	0.95064 0.89047 0.32184 0.53500
C 	C 	0.97727 0.89471 0.32721 -0.15400
C 	C 	0.98680 0.90690 0.34720 0.00800
H 	H 	0.97710 0.91440 0.35950 0.04000
O 	O 	0.86107 0.81772 0.37189 -0.66400
S 	S 	0.82120 0.76566 0.40120 0.02000
C 	C 	0.86420 0.74370 0.39670 -0.04600
C 	C 	0.84610 0.78270 0.39070 -0.09000
C 	C 	0.84030 0.80890 0.37790 0.43200
C 	C 	0.86790 0.76620 0.39030 0.01900
C 	C 	0.83850 0.73940 0.40520 -0.09600
Zr	Zr	0.59129 0.63783 0.78756 3.17300
Zr	Zr	0.62043 0.66721 0.83878 3.19400
S 	S 	0.56576 0.67951 0.91446 0.04000
O 	O 	0.58529 0.62120 0.87543 -0.63800
O 	O 	0.59337 0.66232 0.87116 -0.68600
O 	O 	0.54231 0.71193 0.95049 -0.77800
O 	O 	0.52434 0.68260 0.97413 -0.66400
O 	O 	0.64089 0.70215 0.82715 -0.69000
O 	O 	0.66042 0.69451 0.79061 -0.64900
O 	O 	0.63740 0.67292 0.75093 -0.66300
O 	O 	0.59716 0.66075 0.75221 -0.78100
O 	O 	0.55463 0.62316 0.80359 -0.78100
O 	O 	0.56442 0.59956 0.83701 -0.68000
O 	O 	0.59843 0.63832 0.82560 -1.50000
O 	O 	0.61660 0.66934 0.79724 -1.14600
C 	C 	0.58343 0.64375 0.88185 0.50900
C 	C 	0.56799 0.64944 0.90381 -0.13500
C 	C 	0.55433 0.63340 0.91792 -0.00100
H 	H 	0.55340 0.61630 0.91510 0.04400
C 	C 	0.54157 0.64616 0.93765 0.02100
H 	H 	0.53100 0.63830 0.94890 0.03500
C 	C 	0.54646 0.67070 0.93821 -0.16100
C 	C 	0.53670 0.68997 0.95571 0.54500
C 	C 	0.65609 0.70716 0.81007 0.51600
C 	C 	0.67055 0.73054 0.81327 -0.14300
C 	C 	0.69056 0.73880 0.80013 0.01200
H 	H 	0.69730 0.73050 0.78650 0.04000
C 	C 	0.61532 0.67295 0.74345 0.53400
C 	C 	0.60899 0.68945 0.72178 -0.17200
C 	C 	0.58648 0.69296 0.71143 0.00200
H 	H 	0.57240 0.68410 0.71600 -0.01100
C 	C 	0.54936 0.60953 0.82184 0.53500
C 	C 	0.52273 0.60529 0.82721 -0.15400
C 	C 	0.51320 0.59310 0.84720 0.00800
H 	H 	0.52290 0.58560 0.85950 0.04000
O 	O 	0.63893 0.68228 0.87189 -0.66400
S 	S 	0.67880 0.73434 0.90120 0.02000
C 	C 	0.63580 0.75630 0.89670 -0.04600
C 	C 	0.65390 0.71730 0.89070 -0.09000
C 	C 	0.65970 0.69110 0.87790 0.43300
C 	C 	0.63210 0.73380 0.89030 0.01900
C 	C 	0.66150 0.76060 0.90520 -0.09600
Zr	Zr	0.09129 0.13783 0.28756 3.17300
Zr	Zr	0.12043 0.16721 0.33878 3.19400
S 	S 	0.06576 0.17951 0.41446 0.04000
O 	O 	0.08529 0.12120 0.37543 -0.63800
O 	O 	0.09337 0.16232 0.37116 -0.68600
O 	O 	0.04231 0.21193 0.45049 -0.77800
O 	O 	0.02434 0.18260 0.47413 -0.66400
O 	O 	0.14089 0.20215 0.32715 -0.69000
O 	O 	0.16042 0.19451 0.29061 -0.64900
O 	O 	0.13740 0.17292 0.25093 -0.66300
O 	O 	0.09716 0.16075 0.25221 -0.78100
O 	O 	0.05463 0.12316 0.30359 -0.78100
O 	O 	0.06442 0.09956 0.33701 -0.68000
O 	O 	0.09843 0.13832 0.32560 -1.50000
O 	O 	0.11660 0.16934 0.29724 -1.14600
C 	C 	0.08343 0.14375 0.38185 0.50900
C 	C 	0.06799 0.14944 0.40381 -0.13500
C 	C 	0.05433 0.13340 0.41792 -0.00100
H 	H 	0.05340 0.11630 0.41510 0.04400
C 	C 	0.04157 0.14616 0.43765 0.02100
H 	H 	0.03100 0.13830 0.44890 0.03500
C 	C 	0.04646 0.17070 0.43821 -0.16100
C 	C 	0.03670 0.18997 0.45571 0.54500
C 	C 	0.15609 0.20716 0.31007 0.51600
C 	C 	0.17055 0.23054 0.31327 -0.14300
C 	C 	0.19056 0.23880 0.30013 0.01200
H 	H 	0.19730 0.23050 0.28650 0.04000
C 	C 	0.11532 0.17295 0.24345 0.53400
C 	C 	0.10899 0.18945 0.22178 -0.17200
C 	C 	0.08648 0.19296 0.21143 0.00200
H 	H 	0.07240 0.18410 0.21600 -0.01100
C 	C 	0.04936 0.10953 0.32184 0.53500
C 	C 	0.02273 0.10529 0.32721 -0.15400
C 	C 	0.01320 0.09310 0.34720 0.00700
H 	H 	0.02290 0.08560 0.35950 0.04000
O 	O 	0.13893 0.18228 0.37189 -0.66400
S 	S 	0.17880 0.23434 0.40120 0.02000
C 	C 	0.13580 0.25630 0.39670 -0.04600
C 	C 	0.15390 0.21730 0.39070 -0.09000
C 	C 	0.15970 0.19110 0.37790 0.43300
C 	C 	0.13210 0.23380 0.39030 0.01900
C 	C 	0.16150 0.26060 0.40520 -0.09600
Zr	Zr	0.40871 0.63783 0.21244 3.17300
Zr	Zr	0.37957 0.66721 0.16122 3.19400
S 	S 	0.43424 0.67951 0.08554 0.04000
O 	O 	0.41471 0.62120 0.12457 -0.63800
O 	O 	0.40663 0.66232 0.12884 -0.68600
O 	O 	0.45769 0.71193 0.04951 -0.77800
O 	O 	0.47566 0.68260 0.02587 -0.66400
O 	O 	0.35911 0.70215 0.17285 -0.69000
O 	O 	0.33958 0.69451 0.20939 -0.64900
O 	O 	0.36260 0.67292 0.24907 -0.66300
O 	O 	0.40284 0.66075 0.24779 -0.78100
O 	O 	0.44537 0.62316 0.19641 -0.78100
O 	O 	0.43558 0.59956 0.16299 -0.68000
O 	O 	0.40157 0.63832 0.17440 -1.50000
O 	O 	0.38340 0.66934 0.20276 -1.14600
C 	C 	0.41657 0.64375 0.11815 0.50900
C 	C 	0.43201 0.64944 0.09619 -0.13500
C 	C 	0.44567 0.63340 0.08208 -0.00100
H 	H 	0.44660 0.61630 0.08490 0.04400
C 	C 	0.45843 0.64616 0.06235 0.02100
H 	H 	0.46900 0.63830 0.05110 0.03500
C 	C 	0.45354 0.67070 0.06179 -0.16100
C 	C 	0.46330 0.68997 0.04429 0.54500
C 	C 	0.34391 0.70716 0.18993 0.51600
C 	C 	0.32945 0.73054 0.18673 -0.14300
C 	C 	0.30944 0.73880 0.19987 0.01200
H 	H 	0.30270 0.73050 0.21350 0.04000
C 	C 	0.38468 0.67295 0.25655 0.53400
C 	C 	0.39101 0.68945 0.27822 -0.17200
C 	C 	0.41352 0.69296 0.28857 0.00200
H 	H 	0.42760 0.68410 0.28400 -0.01100
C 	C 	0.45064 0.60953 0.17816 0.53500
C 	C 	0.47727 0.60529 0.17279 -0.15400
C 	C 	0.48680 0.59310 0.15280 0.00800
H 	H 	0.47710 0.58560 0.14050 0.04000
O 	O 	0.36107 0.68228 0.12811 -0.66400
S 	S 	0.32120 0.73434 0.09880 0.02000
C 	C 	0.36420 0.75630 0.10330 -0.04600
C 	C 	0.34610 0.71730 0.10930 -0.09000
C 	C 	0.34030 0.69110 0.12210 0.43200
C 	C 	0.36790 0.73380 0.10970 0.01900
C 	C 	0.33850 0.76060 0.09480 -0.09600
Zr	Zr	0.90871 0.13783 0.71244 3.17300
Zr	Zr	0.87957 0.16721 0.66122 3.19400
S 	S 	0.93424 0.17951 0.58554 0.04000
O 	O 	0.91471 0.12120 0.62457 -0.63800
O 	O 	0.90663 0.16232 0.62884 -0.68600
O 	O 	0.95769 0.21193 0.54951 -0.77800
O 	O 	0.97566 0.18260 0.52587 -0.66400
O 	O 	0.85911 0.20215 0.67285 -0.69000
O 	O 	0.83958 0.19451 0.70939 -0.64900
O 	O 	0.86260 0.17292 0.74907 -0.66300
O 	O 	0.90284 0.16075 0.74779 -0.78100
O 	O 	0.94537 0.12316 0.69641 -0.78100
O 	O 	0.93558 0.09956 0.66299 -0.68000
O 	O 	0.90157 0.13832 0.67440 -1.50000
O 	O 	0.88340 0.16934 0.70276 -1.14600
C 	C 	0.91657 0.14375 0.61815 0.50900
C 	C 	0.93201 0.14944 0.59619 -0.13500
C 	C 	0.94567 0.13340 0.58208 -0.00100
H 	H 	0.94660 0.11630 0.58490 0.04400
C 	C 	0.95843 0.14616 0.56235 0.02100
H 	H 	0.96900 0.13830 0.55110 0.03500
C 	C 	0.95354 0.17070 0.56179 -0.16100
C 	C 	0.96330 0.18997 0.54429 0.54500
C 	C 	0.84391 0.20716 0.68993 0.51600
C 	C 	0.82945 0.23054 0.68673 -0.14300
C 	C 	0.80944 0.23880 0.69987 0.01200
H 	H 	0.80270 0.23050 0.71350 0.04000
C 	C 	0.88468 0.17295 0.75655 0.53400
C 	C 	0.89101 0.18945 0.77822 -0.17200
C 	C 	0.91352 0.19296 0.78857 0.00200
H 	H 	0.92760 0.18410 0.78400 -0.01100
C 	C 	0.95064 0.10953 0.67816 0.53500
C 	C 	0.97727 0.10529 0.67279 -0.15400
C 	C 	0.98680 0.09310 0.65280 0.00800
H 	H 	0.97710 0.08560 0.64050 0.04000
O 	O 	0.86107 0.18228 0.62811 -0.66400
S 	S 	0.82120 0.23434 0.59880 0.02000
C 	C 	0.86420 0.25630 0.60330 -0.04600
C 	C 	0.84610 0.21730 0.60930 -0.09000
C 	C 	0.84030 0.19110 0.62210 0.43300
C 	C 	0.86790 0.23380 0.60970 0.01900
C 	C 	0.83850 0.26060 0.59480 -0.09600
Zr	Zr	0.59129 0.36217 0.21244 3.17300
Zr	Zr	0.62043 0.33279 0.16122 3.19400
S 	S 	0.56576 0.32049 0.08554 0.04000
O 	O 	0.58529 0.37880 0.12457 -0.63800
O 	O 	0.59337 0.33768 0.12884 -0.68600
O 	O 	0.54231 0.28807 0.04951 -0.77800
O 	O 	0.52434 0.31740 0.02587 -0.66400
O 	O 	0.64089 0.29785 0.17285 -0.69000
O 	O 	0.66042 0.30549 0.20939 -0.64900
O 	O 	0.63740 0.32708 0.24907 -0.66300
O 	O 	0.59716 0.33925 0.24779 -0.78100
O 	O 	0.55463 0.37684 0.19641 -0.78100
O 	O 	0.56442 0.40044 0.16299 -0.68000
O 	O 	0.59843 0.36168 0.17440 -1.50000
O 	O 	0.61660 0.33066 0.20276 -1.14600
C 	C 	0.58343 0.35625 0.11815 0.50900
C 	C 	0.56799 0.35056 0.09619 -0.13500
C 	C 	0.55433 0.36660 0.08208 -0.00100
H 	H 	0.55340 0.38370 0.08490 0.04400
C 	C 	0.54157 0.35384 0.06235 0.02100
H 	H 	0.53100 0.36170 0.05110 0.03500
C 	C 	0.54646 0.32930 0.06179 -0.16100
C 	C 	0.53670 0.31003 0.04429 0.54500
C 	C 	0.65609 0.29284 0.18993 0.51600
C 	C 	0.67055 0.26946 0.18673 -0.14300
C 	C 	0.69056 0.26120 0.19987 0.01200
H 	H 	0.69730 0.26950 0.21350 0.04000
C 	C 	0.61532 0.32705 0.25655 0.53400
C 	C 	0.60899 0.31055 0.27822 -0.17200
C 	C 	0.58648 0.30704 0.28857 0.00200
H 	H 	0.57240 0.31590 0.28400 -0.01100
C 	C 	0.54936 0.39047 0.17816 0.53500
C 	C 	0.52273 0.39471 0.17279 -0.15400
C 	C 	0.51320 0.40690 0.15280 0.00800
H 	H 	0.52290 0.41440 0.14050 0.04000
O 	O 	0.63893 0.31772 0.12811 -0.66400
S 	S 	0.67880 0.26566 0.09880 0.02000
C 	C 	0.63580 0.24370 0.10330 -0.04600
C 	C 	0.65390 0.28270 0.10930 -0.09000
C 	C 	0.65970 0.30890 0.12210 0.43200
C 	C 	0.63210 0.26620 0.10970 0.01900
C 	C 	0.66150 0.23940 0.09480 -0.09600
Zr	Zr	0.09129 0.86217 0.71244 3.17300
Zr	Zr	0.12043 0.83279 0.66122 3.19400
S 	S 	0.06576 0.82049 0.58554 0.04000
O 	O 	0.08529 0.87880 0.62457 -0.63800
O 	O 	0.09337 0.83768 0.62884 -0.68600
O 	O 	0.04231 0.78807 0.54951 -0.77800
O 	O 	0.02434 0.81740 0.52587 -0.66400
O 	O 	0.14089 0.79785 0.67285 -0.69000
O 	O 	0.16042 0.80549 0.70939 -0.64900
O 	O 	0.13740 0.82708 0.74907 -0.66300
O 	O 	0.09716 0.83925 0.74779 -0.78100
O 	O 	0.05463 0.87684 0.69641 -0.78100
O 	O 	0.06442 0.90044 0.66299 -0.68000
O 	O 	0.09843 0.86168 0.67440 -1.50000
O 	O 	0.11660 0.83066 0.70276 -1.14600
C 	C 	0.08343 0.85625 0.61815 0.50900
C 	C 	0.06799 0.85056 0.59619 -0.13500
C 	C 	0.05433 0.86660 0.58208 -0.00100
H 	H 	0.05340 0.88370 0.58490 0.04400
C 	C 	0.04157 0.85384 0.56235 0.02100
H 	H 	0.03100 0.86170 0.55110 0.03500
C 	C 	0.04646 0.82930 0.56179 -0.16100
C 	C 	0.03670 0.81003 0.54429 0.54500
C 	C 	0.15609 0.79284 0.68993 0.51600
C 	C 	0.17055 0.76946 0.68673 -0.14300
C 	C 	0.19056 0.76120 0.69987 0.01200
H 	H 	0.19730 0.76950 0.71350 0.04000
C 	C 	0.11532 0.82705 0.75655 0.53400
C 	C 	0.10899 0.81055 0.77822 -0.17200
C 	C 	0.08648 0.80704 0.78857 0.00200
H 	H 	0.07240 0.81590 0.78400 -0.01100
C 	C 	0.04936 0.89047 0.67816 0.53500
C 	C 	0.02273 0.89471 0.67279 -0.15400
C 	C 	0.01320 0.90690 0.65280 0.00700
H 	H 	0.02290 0.91440 0.64050 0.04000
O 	O 	0.13893 0.81772 0.62811 -0.66400
S 	S 	0.17880 0.76566 0.59880 0.02000
C 	C 	0.13580 0.74370 0.60330 -0.04600
C 	C 	0.15390 0.78270 0.60930 -0.09000
C 	C 	0.15970 0.80890 0.62210 0.43300
C 	C 	0.13210 0.76620 0.60970 0.01900
C 	C 	0.16150 0.73940 0.59480 -0.09600
Zr	Zr	0.36217 0.21244 0.59129 3.17300
Zr	Zr	0.33279 0.16122 0.62043 3.19400
S 	S 	0.32049 0.08554 0.56576 0.04000
O 	O 	0.37880 0.12457 0.58529 -0.63800
O 	O 	0.33768 0.12884 0.59337 -0.68600
O 	O 	0.28807 0.04951 0.54231 -0.77800
O 	O 	0.31740 0.02587 0.52434 -0.66400
O 	O 	0.29785 0.17285 0.64089 -0.69000
O 	O 	0.30549 0.20939 0.66042 -0.64900
O 	O 	0.32708 0.24907 0.63740 -0.66300
O 	O 	0.33925 0.24779 0.59716 -0.78100
O 	O 	0.37684 0.19641 0.55463 -0.78100
O 	O 	0.40044 0.16299 0.56442 -0.68000
O 	O 	0.36168 0.17440 0.59843 -1.50000
O 	O 	0.33066 0.20276 0.61660 -1.14600
C 	C 	0.35625 0.11815 0.58343 0.50900
C 	C 	0.35056 0.09619 0.56799 -0.13500
C 	C 	0.36660 0.08208 0.55433 -0.00100
H 	H 	0.38370 0.08490 0.55340 0.04400
C 	C 	0.35384 0.06235 0.54157 0.02100
H 	H 	0.36170 0.05110 0.53100 0.03500
C 	C 	0.32930 0.06179 0.54646 -0.16100
C 	C 	0.31003 0.04429 0.53670 0.54500
C 	C 	0.29284 0.18993 0.65609 0.51600
C 	C 	0.26946 0.18673 0.67055 -0.14300
C 	C 	0.26120 0.19987 0.69056 0.01200
H 	H 	0.26950 0.21350 0.69730 0.04000
C 	C 	0.32705 0.25655 0.61532 0.53400
C 	C 	0.31055 0.27822 0.60899 -0.17200
C 	C 	0.30704 0.28857 0.58648 0.00200
H 	H 	0.31590 0.28400 0.57240 -0.01100
C 	C 	0.39047 0.17816 0.54936 0.53500
C 	C 	0.39471 0.17279 0.52273 -0.15400
C 	C 	0.40690 0.15280 0.51320 0.00800
H 	H 	0.41440 0.14050 0.52290 0.04000
O 	O 	0.31772 0.12811 0.63893 -0.66400
S 	S 	0.26566 0.09880 0.67880 0.02000
C 	C 	0.24370 0.10330 0.63580 -0.04600
C 	C 	0.28270 0.10930 0.65390 -0.09000
C 	C 	0.30890 0.12210 0.65970 0.43200
C 	C 	0.26620 0.10970 0.63210 0.01900
C 	C 	0.23940 0.09480 0.66150 -0.09600
Zr	Zr	0.86217 0.71244 0.09129 3.17300
Zr	Zr	0.83279 0.66122 0.12043 3.19400
S 	S 	0.82049 0.58554 0.06576 0.04000
O 	O 	0.87880 0.62457 0.08529 -0.63800
O 	O 	0.83768 0.62884 0.09337 -0.68600
O 	O 	0.78807 0.54951 0.04231 -0.77800
O 	O 	0.81740 0.52587 0.02434 -0.66400
O 	O 	0.79785 0.67285 0.14089 -0.69000
O 	O 	0.80549 0.70939 0.16042 -0.64900
O 	O 	0.82708 0.74907 0.13740 -0.66300
O 	O 	0.83925 0.74779 0.09716 -0.78100
O 	O 	0.87684 0.69641 0.05463 -0.78100
O 	O 	0.90044 0.66299 0.06442 -0.68000
O 	O 	0.86168 0.67440 0.09843 -1.50000
O 	O 	0.83066 0.70276 0.11660 -1.14600
C 	C 	0.85625 0.61815 0.08343 0.50900
C 	C 	0.85056 0.59619 0.06799 -0.13500
C 	C 	0.86660 0.58208 0.05433 -0.00100
H 	H 	0.88370 0.58490 0.05340 0.04400
C 	C 	0.85384 0.56235 0.04157 0.02100
H 	H 	0.86170 0.55110 0.03100 0.03500
C 	C 	0.82930 0.56179 0.04646 -0.16100
C 	C 	0.81003 0.54429 0.03670 0.54500
C 	C 	0.79284 0.68993 0.15609 0.51600
C 	C 	0.76946 0.68673 0.17055 -0.14300
C 	C 	0.76120 0.69987 0.19056 0.01200
H 	H 	0.76950 0.71350 0.19730 0.04000
C 	C 	0.82705 0.75655 0.11532 0.53400
C 	C 	0.81055 0.77822 0.10899 -0.17200
C 	C 	0.80704 0.78857 0.08648 0.00200
H 	H 	0.81590 0.78400 0.07240 -0.01100
C 	C 	0.89047 0.67816 0.04936 0.53500
C 	C 	0.89471 0.67279 0.02273 -0.15400
C 	C 	0.90690 0.65280 0.01320 0.00700
H 	H 	0.91440 0.64050 0.02290 0.04000
O 	O 	0.81772 0.62811 0.13893 -0.66400
S 	S 	0.76566 0.59880 0.17880 0.02000
C 	C 	0.74370 0.60330 0.13580 -0.04600
C 	C 	0.78270 0.60930 0.15390 -0.09000
C 	C 	0.80890 0.62210 0.15970 0.43300
C 	C 	0.76620 0.60970 0.13210 0.01900
C 	C 	0.73940 0.59480 0.16150 -0.09600
Zr	Zr	0.63783 0.21244 0.40871 3.17300
Zr	Zr	0.66721 0.16122 0.37957 3.19400
S 	S 	0.67951 0.08554 0.43424 0.04000
O 	O 	0.62120 0.12457 0.41471 -0.63800
O 	O 	0.66232 0.12884 0.40663 -0.68600
O 	O 	0.71193 0.04951 0.45769 -0.77800
O 	O 	0.68260 0.02587 0.47566 -0.66400
O 	O 	0.70215 0.17285 0.35911 -0.69000
O 	O 	0.69451 0.20939 0.33958 -0.64900
O 	O 	0.67292 0.24907 0.36260 -0.66300
O 	O 	0.66075 0.24779 0.40284 -0.78100
O 	O 	0.62316 0.19641 0.44537 -0.78100
O 	O 	0.59956 0.16299 0.43558 -0.68000
O 	O 	0.63832 0.17440 0.40157 -1.50000
O 	O 	0.66934 0.20276 0.38340 -1.14600
C 	C 	0.64375 0.11815 0.41657 0.50900
C 	C 	0.64944 0.09619 0.43201 -0.13500
C 	C 	0.63340 0.08208 0.44567 -0.00100
H 	H 	0.61630 0.08490 0.44660 0.04400
C 	C 	0.64616 0.06235 0.45843 0.02100
H 	H 	0.63830 0.05110 0.46900 0.03500
C 	C 	0.67070 0.06179 0.45354 -0.16100
C 	C 	0.68997 0.04429 0.46330 0.54500
C 	C 	0.70716 0.18993 0.34391 0.51600
C 	C 	0.73054 0.18673 0.32945 -0.14300
C 	C 	0.73880 0.19987 0.30944 0.01200
H 	H 	0.73050 0.21350 0.30270 0.04000
C 	C 	0.67295 0.25655 0.38468 0.53400
C 	C 	0.68945 0.27822 0.39101 -0.17200
C 	C 	0.69296 0.28857 0.41352 0.00200
H 	H 	0.68410 0.28400 0.42760 -0.01100
C 	C 	0.60953 0.17816 0.45064 0.53500
C 	C 	0.60529 0.17279 0.47727 -0.15400
C 	C 	0.59310 0.15280 0.48680 0.00800
H 	H 	0.58560 0.14050 0.47710 0.04000
O 	O 	0.68228 0.12811 0.36107 -0.66400
S 	S 	0.73434 0.09880 0.32120 0.02000
C 	C 	0.75630 0.10330 0.36420 -0.04600
C 	C 	0.71730 0.10930 0.34610 -0.09000
C 	C 	0.69110 0.12210 0.34030 0.43200
C 	C 	0.73380 0.10970 0.36790 0.01900
C 	C 	0.76060 0.09480 0.33850 -0.09600
Zr	Zr	0.13783 0.71244 0.90871 3.17300
Zr	Zr	0.16721 0.66122 0.87957 3.19400
S 	S 	0.17951 0.58554 0.93424 0.04000
O 	O 	0.12120 0.62457 0.91471 -0.63800
O 	O 	0.16232 0.62884 0.90663 -0.68600
O 	O 	0.21193 0.54951 0.95769 -0.77800
O 	O 	0.18260 0.52587 0.97566 -0.66400
O 	O 	0.20215 0.67285 0.85911 -0.69000
O 	O 	0.19451 0.70939 0.83958 -0.64900
O 	O 	0.17292 0.74907 0.86260 -0.66300
O 	O 	0.16075 0.74779 0.90284 -0.78100
O 	O 	0.12316 0.69641 0.94537 -0.78100
O 	O 	0.09956 0.66299 0.93558 -0.68000
O 	O 	0.13832 0.67440 0.90157 -1.50000
O 	O 	0.16934 0.70276 0.88340 -1.14600
C 	C 	0.14375 0.61815 0.91657 0.50900
C 	C 	0.14944 0.59619 0.93201 -0.13500
C 	C 	0.13340 0.58208 0.94567 -0.00100
H 	H 	0.11630 0.58490 0.94660 0.04400
C 	C 	0.14616 0.56235 0.95843 0.02100
H 	H 	0.13830 0.55110 0.96900 0.03500
C 	C 	0.17070 0.56179 0.95354 -0.16100
C 	C 	0.18997 0.54429 0.96330 0.54500
C 	C 	0.20716 0.68993 0.84391 0.51600
C 	C 	0.23054 0.68673 0.82945 -0.14300
C 	C 	0.23880 0.69987 0.80944 0.01200
H 	H 	0.23050 0.71350 0.80270 0.04000
C 	C 	0.17295 0.75655 0.88468 0.53400
C 	C 	0.18945 0.77822 0.89101 -0.17200
C 	C 	0.19296 0.78857 0.91352 0.00200
H 	H 	0.18410 0.78400 0.92760 -0.01100
C 	C 	0.10953 0.67816 0.95064 0.53500
C 	C 	0.10529 0.67279 0.97727 -0.15400
C 	C 	0.09310 0.65280 0.98680 0.00800
H 	H 	0.08560 0.64050 0.97710 0.04000
O 	O 	0.18228 0.62811 0.86107 -0.66400
S 	S 	0.23434 0.59880 0.82120 0.02000
C 	C 	0.25630 0.60330 0.86420 -0.04600
C 	C 	0.21730 0.60930 0.84610 -0.09000
C 	C 	0.19110 0.62210 0.84030 0.43300
C 	C 	0.23380 0.60970 0.86790 0.01900
C 	C 	0.26060 0.59480 0.83850 -0.09600
Zr	Zr	0.63783 0.78756 0.59129 3.17300
Zr	Zr	0.66721 0.83878 0.62043 3.19400
S 	S 	0.67951 0.91446 0.56576 0.04000
O 	O 	0.62120 0.87543 0.58529 -0.63800
O 	O 	0.66232 0.87116 0.59337 -0.68600
O 	O 	0.71193 0.95049 0.54231 -0.77800
O 	O 	0.68260 0.97413 0.52434 -0.66400
O 	O 	0.70215 0.82715 0.64089 -0.69000
O 	O 	0.69451 0.79061 0.66042 -0.64900
O 	O 	0.67292 0.75093 0.63740 -0.66300
O 	O 	0.66075 0.75221 0.59716 -0.78100
O 	O 	0.62316 0.80359 0.55463 -0.78100
O 	O 	0.59956 0.83701 0.56442 -0.68000
O 	O 	0.63832 0.82560 0.59843 -1.50000
O 	O 	0.66934 0.79724 0.61660 -1.14600
C 	C 	0.64375 0.88185 0.58343 0.50900
C 	C 	0.64944 0.90381 0.56799 -0.13500
C 	C 	0.63340 0.91792 0.55433 -0.00100
H 	H 	0.61630 0.91510 0.55340 0.04400
C 	C 	0.64616 0.93765 0.54157 0.02100
H 	H 	0.63830 0.94890 0.53100 0.03500
C 	C 	0.67070 0.93821 0.54646 -0.16100
C 	C 	0.68997 0.95571 0.53670 0.54500
C 	C 	0.70716 0.81007 0.65609 0.51600
C 	C 	0.73054 0.81327 0.67055 -0.14300
C 	C 	0.73880 0.80013 0.69056 0.01200
H 	H 	0.73050 0.78650 0.69730 0.04000
C 	C 	0.67295 0.74345 0.61532 0.53400
C 	C 	0.68945 0.72178 0.60899 -0.17200
C 	C 	0.69296 0.71143 0.58648 0.00200
H 	H 	0.68410 0.71600 0.57240 -0.01100
C 	C 	0.60953 0.82184 0.54936 0.53500
C 	C 	0.60529 0.82721 0.52273 -0.15400
C 	C 	0.59310 0.84720 0.51320 0.00800
H 	H 	0.58560 0.85950 0.52290 0.04000
O 	O 	0.68228 0.87189 0.63893 -0.66400
S 	S 	0.73434 0.90120 0.67880 0.02000
C 	C 	0.75630 0.89670 0.63580 -0.04600
C 	C 	0.71730 0.89070 0.65390 -0.09000
C 	C 	0.69110 0.87790 0.65970 0.43300
C 	C 	0.73380 0.89030 0.63210 0.01900
C 	C 	0.76060 0.90520 0.66150 -0.09600
Zr	Zr	0.13783 0.28756 0.09129 3.17300
Zr	Zr	0.16721 0.33878 0.12043 3.19400
S 	S 	0.17951 0.41446 0.06576 0.04000
O 	O 	0.12120 0.37543 0.08529 -0.63800
O 	O 	0.16232 0.37116 0.09337 -0.68600
O 	O 	0.21193 0.45049 0.04231 -0.77800
O 	O 	0.18260 0.47413 0.02434 -0.66400
O 	O 	0.20215 0.32715 0.14089 -0.69000
O 	O 	0.19451 0.29061 0.16042 -0.64900
O 	O 	0.17292 0.25093 0.13740 -0.66300
O 	O 	0.16075 0.25221 0.09716 -0.78100
O 	O 	0.12316 0.30359 0.05463 -0.78100
O 	O 	0.09956 0.33701 0.06442 -0.68000
O 	O 	0.13832 0.32560 0.09843 -1.50000
O 	O 	0.16934 0.29724 0.11660 -1.14600
C 	C 	0.14375 0.38185 0.08343 0.50900
C 	C 	0.14944 0.40381 0.06799 -0.13500
C 	C 	0.13340 0.41792 0.05433 -0.00100
H 	H 	0.11630 0.41510 0.05340 0.04400
C 	C 	0.14616 0.43765 0.04157 0.02100
H 	H 	0.13830 0.44890 0.03100 0.03500
C 	C 	0.17070 0.43821 0.04646 -0.16100
C 	C 	0.18997 0.45571 0.03670 0.54500
C 	C 	0.20716 0.31007 0.15609 0.51600
C 	C 	0.23054 0.31327 0.17055 -0.14300
C 	C 	0.23880 0.30013 0.19056 0.01200
H 	H 	0.23050 0.28650 0.19730 0.04000
C 	C 	0.17295 0.24345 0.11532 0.53400
C 	C 	0.18945 0.22178 0.10899 -0.17200
C 	C 	0.19296 0.21143 0.08648 0.00200
H 	H 	0.18410 0.21600 0.07240 -0.01100
C 	C 	0.10953 0.32184 0.04936 0.53500
C 	C 	0.10529 0.32721 0.02273 -0.15400
C 	C 	0.09310 0.34720 0.01320 0.00700
H 	H 	0.08560 0.35950 0.02290 0.04000
O 	O 	0.18228 0.37189 0.13893 -0.66400
S 	S 	0.23434 0.40120 0.17880 0.02000
C 	C 	0.25630 0.39670 0.13580 -0.04600
C 	C 	0.21730 0.39070 0.15390 -0.09000
C 	C 	0.19110 0.37790 0.15970 0.43300
C 	C 	0.23380 0.39030 0.13210 0.01900
C 	C 	0.26060 0.40520 0.16150 -0.09600
Zr	Zr	0.36217 0.78756 0.40871 3.17300
Zr	Zr	0.33279 0.83878 0.37957 3.19400
S 	S 	0.32049 0.91446 0.43424 0.04000
O 	O 	0.37880 0.87543 0.41471 -0.63800
O 	O 	0.33768 0.87116 0.40663 -0.68600
O 	O 	0.28807 0.95049 0.45769 -0.77800
O 	O 	0.31740 0.97413 0.47566 -0.66400
O 	O 	0.29785 0.82715 0.35911 -0.69000
O 	O 	0.30549 0.79061 0.33958 -0.64900
O 	O 	0.32708 0.75093 0.36260 -0.66300
O 	O 	0.33925 0.75221 0.40284 -0.78100
O 	O 	0.37684 0.80359 0.44537 -0.78100
O 	O 	0.40044 0.83701 0.43558 -0.68000
O 	O 	0.36168 0.82560 0.40157 -1.50000
O 	O 	0.33066 0.79724 0.38340 -1.14600
C 	C 	0.35625 0.88185 0.41657 0.50900
C 	C 	0.35056 0.90381 0.43201 -0.13500
C 	C 	0.36660 0.91792 0.44567 -0.00100
H 	H 	0.38370 0.91510 0.44660 0.04400
C 	C 	0.35384 0.93765 0.45843 0.02100
H 	H 	0.36170 0.94890 0.46900 0.03500
C 	C 	0.32930 0.93821 0.45354 -0.16100
C 	C 	0.31003 0.95571 0.46330 0.54500
C 	C 	0.29284 0.81007 0.34391 0.51600
C 	C 	0.26946 0.81327 0.32945 -0.14300
C 	C 	0.26120 0.80013 0.30944 0.01200
H 	H 	0.26950 0.78650 0.30270 0.04000
C 	C 	0.32705 0.74345 0.38468 0.53400
C 	C 	0.31055 0.72178 0.39101 -0.17200
C 	C 	0.30704 0.71143 0.41352 0.00200
H 	H 	0.31590 0.71600 0.42760 -0.01100
C 	C 	0.39047 0.82184 0.45064 0.53500
C 	C 	0.39471 0.82721 0.47727 -0.15400
C 	C 	0.40690 0.84720 0.48680 0.00800
H 	H 	0.41440 0.85950 0.47710 0.04000
O 	O 	0.31772 0.87189 0.36107 -0.66400
S 	S 	0.26566 0.90120 0.32120 0.02000
C 	C 	0.24370 0.89670 0.36420 -0.04600
C 	C 	0.28270 0.89070 0.34610 -0.09000
C 	C 	0.30890 0.87790 0.34030 0.43300
C 	C 	0.26620 0.89030 0.36790 0.01900
C 	C 	0.23940 0.90520 0.33850 -0.09600
Zr	Zr	0.86217 0.28756 0.90871 3.17300
Zr	Zr	0.83279 0.33878 0.87957 3.19400
S 	S 	0.82049 0.41446 0.93424 0.04000
O 	O 	0.87880 0.37543 0.91471 -0.63800
O 	O 	0.83768 0.37116 0.90663 -0.68600
O 	O 	0.78807 0.45049 0.95769 -0.77800
O 	O 	0.81740 0.47413 0.97566 -0.66400
O 	O 	0.79785 0.32715 0.85911 -0.69000
O 	O 	0.80549 0.29061 0.83958 -0.64900
O 	O 	0.82708 0.25093 0.86260 -0.66300
O 	O 	0.83925 0.25221 0.90284 -0.78100
O 	O 	0.87684 0.30359 0.94537 -0.78100
O 	O 	0.90044 0.33701 0.93558 -0.68000
O 	O 	0.86168 0.32560 0.90157 -1.50000
O 	O 	0.83066 0.29724 0.88340 -1.14600
C 	C 	0.85625 0.38185 0.91657 0.50900
C 	C 	0.85056 0.40381 0.93201 -0.13500
C 	C 	0.86660 0.41792 0.94567 -0.00100
H 	H 	0.88370 0.41510 0.94660 0.04400
C 	C 	0.85384 0.43765 0.95843 0.02100
H 	H 	0.86170 0.44890 0.96900 0.03500
C 	C 	0.82930 0.43821 0.95354 -0.16100
C 	C 	0.81003 0.45571 0.96330 0.54500
C 	C 	0.79284 0.31007 0.84391 0.51600
C 	C 	0.76946 0.31327 0.82945 -0.14300
C 	C 	0.76120 0.30013 0.80944 0.01200
H 	H 	0.76950 0.28650 0.80270 0.04000
C 	C 	0.82705 0.24345 0.88468 0.53400
C 	C 	0.81055 0.22178 0.89101 -0.17200
C 	C 	0.80704 0.21143 0.91352 0.00200
H 	H 	0.81590 0.21600 0.92760 -0.01100
C 	C 	0.89047 0.32184 0.95064 0.53500
C 	C 	0.89471 0.32721 0.97727 -0.15400
C 	C 	0.90690 0.34720 0.98680 0.00800
H 	H 	0.91440 0.35950 0.97710 0.04000
O 	O 	0.81772 0.37189 0.86107 -0.66400
S 	S 	0.76566 0.40120 0.82120 0.02000
C 	C 	0.74370 0.39670 0.86420 -0.04600
C 	C 	0.78270 0.39070 0.84610 -0.09000
C 	C 	0.80890 0.37790 0.84030 0.43200
C 	C 	0.76620 0.39030 0.86790 0.01900
C 	C 	0.73940 0.40520 0.83850 -0.09600
Zr	Zr	0.21244 0.40871 0.63783 3.17300
Zr	Zr	0.16122 0.37957 0.66721 3.19400
S 	S 	0.08554 0.43424 0.67951 0.04000
O 	O 	0.12457 0.41471 0.62120 -0.63800
O 	O 	0.12884 0.40663 0.66232 -0.68600
O 	O 	0.04951 0.45769 0.71193 -0.77800
O 	O 	0.02587 0.47566 0.68260 -0.66400
O 	O 	0.17285 0.35911 0.70215 -0.69000
O 	O 	0.20939 0.33958 0.69451 -0.64900
O 	O 	0.24907 0.36260 0.67292 -0.66300
O 	O 	0.24779 0.40284 0.66075 -0.78100
O 	O 	0.19641 0.44537 0.62316 -0.78100
O 	O 	0.16299 0.43558 0.59956 -0.68000
O 	O 	0.17440 0.40157 0.63832 -1.50000
O 	O 	0.20276 0.38340 0.66934 -1.14600
C 	C 	0.11815 0.41657 0.64375 0.50900
C 	C 	0.09619 0.43201 0.64944 -0.13500
C 	C 	0.08208 0.44567 0.63340 -0.00100
H 	H 	0.08490 0.44660 0.61630 0.04400
C 	C 	0.06235 0.45843 0.64616 0.02100
H 	H 	0.05110 0.46900 0.63830 0.03500
C 	C 	0.06179 0.45354 0.67070 -0.16100
C 	C 	0.04429 0.46330 0.68997 0.54500
C 	C 	0.18993 0.34391 0.70716 0.51600
C 	C 	0.18673 0.32945 0.73054 -0.14300
C 	C 	0.19987 0.30944 0.73880 0.01200
H 	H 	0.21350 0.30270 0.73050 0.04000
C 	C 	0.25655 0.38468 0.67295 0.53400
C 	C 	0.27822 0.39101 0.68945 -0.17200
C 	C 	0.28857 0.41352 0.69296 0.00200
H 	H 	0.28400 0.42760 0.68410 -0.01100
C 	C 	0.17816 0.45064 0.60953 0.53500
C 	C 	0.17279 0.47727 0.60529 -0.15400
C 	C 	0.15280 0.48680 0.59310 0.00800
H 	H 	0.14050 0.47710 0.58560 0.04000
O 	O 	0.12811 0.36107 0.68228 -0.66400
S 	S 	0.09880 0.32120 0.73434 0.02000
C 	C 	0.10330 0.36420 0.75630 -0.04600
C 	C 	0.10930 0.34610 0.71730 -0.09000
C 	C 	0.12210 0.34030 0.69110 0.43200
C 	C 	0.10970 0.36790 0.73380 0.01900
C 	C 	0.09480 0.33850 0.76060 -0.09600
Zr	Zr	0.71244 0.90871 0.13783 3.17300
Zr	Zr	0.66122 0.87957 0.16721 3.19400
S 	S 	0.58554 0.93424 0.17951 0.04000
O 	O 	0.62457 0.91471 0.12120 -0.63800
O 	O 	0.62884 0.90663 0.16232 -0.68600
O 	O 	0.54951 0.95769 0.21193 -0.77800
O 	O 	0.52587 0.97566 0.18260 -0.66400
O 	O 	0.67285 0.85911 0.20215 -0.69000
O 	O 	0.70939 0.83958 0.19451 -0.64900
O 	O 	0.74907 0.86260 0.17292 -0.66300
O 	O 	0.74779 0.90284 0.16075 -0.78100
O 	O 	0.69641 0.94537 0.12316 -0.78100
O 	O 	0.66299 0.93558 0.09956 -0.68000
O 	O 	0.67440 0.90157 0.13832 -1.50000
O 	O 	0.70276 0.88340 0.16934 -1.14600
C 	C 	0.61815 0.91657 0.14375 0.50900
C 	C 	0.59619 0.93201 0.14944 -0.13500
C 	C 	0.58208 0.94567 0.13340 -0.00100
H 	H 	0.58490 0.94660 0.11630 0.04400
C 	C 	0.56235 0.95843 0.14616 0.02100
H 	H 	0.55110 0.96900 0.13830 0.03500
C 	C 	0.56179 0.95354 0.17070 -0.16100
C 	C 	0.54429 0.96330 0.18997 0.54500
C 	C 	0.68993 0.84391 0.20716 0.51600
C 	C 	0.68673 0.82945 0.23054 -0.14300
C 	C 	0.69987 0.80944 0.23880 0.01200
H 	H 	0.71350 0.80270 0.23050 0.04000
C 	C 	0.75655 0.88468 0.17295 0.53400
C 	C 	0.77822 0.89101 0.18945 -0.17200
C 	C 	0.78857 0.91352 0.19296 0.00200
H 	H 	0.78400 0.92760 0.18410 -0.01100
C 	C 	0.67816 0.95064 0.10953 0.53500
C 	C 	0.67279 0.97727 0.10529 -0.15400
C 	C 	0.65280 0.98680 0.09310 0.00800
H 	H 	0.64050 0.97710 0.08560 0.04000
O 	O 	0.62811 0.86107 0.18228 -0.66400
S 	S 	0.59880 0.82120 0.23434 0.02000
C 	C 	0.60330 0.86420 0.25630 -0.04600
C 	C 	0.60930 0.84610 0.21730 -0.09000
C 	C 	0.62210 0.84030 0.19110 0.43300
C 	C 	0.60970 0.86790 0.23380 0.01900
C 	C 	0.59480 0.83850 0.26060 -0.09600
Zr	Zr	0.21244 0.59129 0.36217 3.17300
Zr	Zr	0.16122 0.62043 0.33279 3.19400
S 	S 	0.08554 0.56576 0.32049 0.04000
O 	O 	0.12457 0.58529 0.37880 -0.63800
O 	O 	0.12884 0.59337 0.33768 -0.68600
O 	O 	0.04951 0.54231 0.28807 -0.77800
O 	O 	0.02587 0.52434 0.31740 -0.66400
O 	O 	0.17285 0.64089 0.29785 -0.69000
O 	O 	0.20939 0.66042 0.30549 -0.64900
O 	O 	0.24907 0.63740 0.32708 -0.66300
O 	O 	0.24779 0.59716 0.33925 -0.78100
O 	O 	0.19641 0.55463 0.37684 -0.78100
O 	O 	0.16299 0.56442 0.40044 -0.68000
O 	O 	0.17440 0.59843 0.36168 -1.50000
O 	O 	0.20276 0.61660 0.33066 -1.14600
C 	C 	0.11815 0.58343 0.35625 0.50900
C 	C 	0.09619 0.56799 0.35056 -0.13500
C 	C 	0.08208 0.55433 0.36660 -0.00100
H 	H 	0.08490 0.55340 0.38370 0.04400
C 	C 	0.06235 0.54157 0.35384 0.02100
H 	H 	0.05110 0.53100 0.36170 0.03500
C 	C 	0.06179 0.54646 0.32930 -0.16100
C 	C 	0.04429 0.53670 0.31003 0.54500
C 	C 	0.18993 0.65609 0.29284 0.51600
C 	C 	0.18673 0.67055 0.26946 -0.14300
C 	C 	0.19987 0.69056 0.26120 0.01200
H 	H 	0.21350 0.69730 0.26950 0.04000
C 	C 	0.25655 0.61532 0.32705 0.53400
C 	C 	0.27822 0.60899 0.31055 -0.17200
C 	C 	0.28857 0.58648 0.30704 0.00200
H 	H 	0.28400 0.57240 0.31590 -0.01100
C 	C 	0.17816 0.54936 0.39047 0.53500
C 	C 	0.17279 0.52273 0.39471 -0.15400
C 	C 	0.15280 0.51320 0.40690 0.00800
H 	H 	0.14050 0.52290 0.41440 0.04000
O 	O 	0.12811 0.63893 0.31772 -0.66400
S 	S 	0.09880 0.67880 0.26566 0.02000
C 	C 	0.10330 0.63580 0.24370 -0.04600
C 	C 	0.10930 0.65390 0.28270 -0.09000
C 	C 	0.12210 0.65970 0.30890 0.43200
C 	C 	0.10970 0.63210 0.26620 0.01900
C 	C 	0.09480 0.66150 0.23940 -0.09600
Zr	Zr	0.71244 0.09129 0.86217 3.17300
Zr	Zr	0.66122 0.12043 0.83279 3.19400
S 	S 	0.58554 0.06576 0.82049 0.04000
O 	O 	0.62457 0.08529 0.87880 -0.63800
O 	O 	0.62884 0.09337 0.83768 -0.68600
O 	O 	0.54951 0.04231 0.78807 -0.77800
O 	O 	0.52587 0.02434 0.81740 -0.66400
O 	O 	0.67285 0.14089 0.79785 -0.69000
O 	O 	0.70939 0.16042 0.80549 -0.64900
O 	O 	0.74907 0.13740 0.82708 -0.66300
O 	O 	0.74779 0.09716 0.83925 -0.78100
O 	O 	0.69641 0.05463 0.87684 -0.78100
O 	O 	0.66299 0.06442 0.90044 -0.68000
O 	O 	0.67440 0.09843 0.86168 -1.50000
O 	O 	0.70276 0.11660 0.83066 -1.14600
C 	C 	0.61815 0.08343 0.85625 0.50900
C 	C 	0.59619 0.06799 0.85056 -0.13500
C 	C 	0.58208 0.05433 0.86660 -0.00100
H 	H 	0.58490 0.05340 0.88370 0.04400
C 	C 	0.56235 0.04157 0.85384 0.02100
H 	H 	0.55110 0.03100 0.86170 0.03500
C 	C 	0.56179 0.04646 0.82930 -0.16100
C 	C 	0.54429 0.03670 0.81003 0.54500
C 	C 	0.68993 0.15609 0.79284 0.51600
C 	C 	0.68673 0.17055 0.76946 -0.14300
C 	C 	0.69987 0.19056 0.76120 0.01200
H 	H 	0.71350 0.19730 0.76950 0.04000
C 	C 	0.75655 0.11532 0.82705 0.53400
C 	C 	0.77822 0.10899 0.81055 -0.17200
C 	C 	0.78857 0.08648 0.80704 0.00200
H 	H 	0.78400 0.07240 0.81590 -0.01100
C 	C 	0.67816 0.04936 0.89047 0.53500
C 	C 	0.67279 0.02273 0.89471 -0.15400
C 	C 	0.65280 0.01320 0.90690 0.00700
H 	H 	0.64050 0.02290 0.91440 0.04000
O 	O 	0.62811 0.13893 0.81772 -0.66400
S 	S 	0.59880 0.17880 0.76566 0.02000
C 	C 	0.60330 0.13580 0.74370 -0.04600
C 	C 	0.60930 0.15390 0.78270 -0.09000
C 	C 	0.62210 0.15970 0.80890 0.43300
C 	C 	0.60970 0.13210 0.76620 0.01900
C 	C 	0.59480 0.16150 0.73940 -0.09600
Zr	Zr	0.78756 0.40871 0.36217 3.17300
Zr	Zr	0.83878 0.37957 0.33279 3.19400
S 	S 	0.91446 0.43424 0.32049 0.04000
O 	O 	0.87543 0.41471 0.37880 -0.63800
O 	O 	0.87116 0.40663 0.33768 -0.68600
O 	O 	0.95049 0.45769 0.28807 -0.77800
O 	O 	0.97413 0.47566 0.31740 -0.66400
O 	O 	0.82715 0.35911 0.29785 -0.69000
O 	O 	0.79061 0.33958 0.30549 -0.64900
O 	O 	0.75093 0.36260 0.32708 -0.66300
O 	O 	0.75221 0.40284 0.33925 -0.78100
O 	O 	0.80359 0.44537 0.37684 -0.78100
O 	O 	0.83701 0.43558 0.40044 -0.68000
O 	O 	0.82560 0.40157 0.36168 -1.50000
O 	O 	0.79724 0.38340 0.33066 -1.14600
C 	C 	0.88185 0.41657 0.35625 0.50900
C 	C 	0.90381 0.43201 0.35056 -0.13500
C 	C 	0.91792 0.44567 0.36660 -0.00100
H 	H 	0.91510 0.44660 0.38370 0.04400
C 	C 	0.93765 0.45843 0.35384 0.02100
H 	H 	0.94890 0.46900 0.36170 0.03500
C 	C 	0.93821 0.45354 0.32930 -0.16100
C 	C 	0.95571 0.46330 0.31003 0.54500
C 	C 	0.81007 0.34391 0.29284 0.51600
C 	C 	0.81327 0.32945 0.26946 -0.14300
C 	C 	0.80013 0.30944 0.26120 0.01200
H 	H 	0.78650 0.30270 0.26950 0.04000
C 	C 	0.74345 0.38468 0.32705 0.53400
C 	C 	0.72178 0.39101 0.31055 -0.17200
C 	C 	0.71143 0.41352 0.30704 0.00200
H 	H 	0.71600 0.42760 0.31590 -0.01100
C 	C 	0.82184 0.45064 0.39047 0.53500
C 	C 	0.82721 0.47727 0.39471 -0.15400
C 	C 	0.84720 0.48680 0.40690 0.00800
H 	H 	0.85950 0.47710 0.41440 0.04000
O 	O 	0.87189 0.36107 0.31772 -0.66400
S 	S 	0.90120 0.32120 0.26566 0.02000
C 	C 	0.89670 0.36420 0.24370 -0.04600
C 	C 	0.89070 0.34610 0.28270 -0.09000
C 	C 	0.87790 0.34030 0.30890 0.43300
C 	C 	0.89030 0.36790 0.26620 0.01900
C 	C 	0.90520 0.33850 0.23940 -0.09600
Zr	Zr	0.28756 0.90871 0.86217 3.17300
Zr	Zr	0.33878 0.87957 0.83279 3.19400
S 	S 	0.41446 0.93424 0.82049 0.04000
O 	O 	0.37543 0.91471 0.87880 -0.63800
O 	O 	0.37116 0.90663 0.83768 -0.68600
O 	O 	0.45049 0.95769 0.78807 -0.77800
O 	O 	0.47413 0.97566 0.81740 -0.66400
O 	O 	0.32715 0.85911 0.79785 -0.69000
O 	O 	0.29061 0.83958 0.80549 -0.64900
O 	O 	0.25093 0.86260 0.82708 -0.66300
O 	O 	0.25221 0.90284 0.83925 -0.78100
O 	O 	0.30359 0.94537 0.87684 -0.78100
O 	O 	0.33701 0.93558 0.90044 -0.68000
O 	O 	0.32560 0.90157 0.86168 -1.50000
O 	O 	0.29724 0.88340 0.83066 -1.14600
C 	C 	0.38185 0.91657 0.85625 0.50900
C 	C 	0.40381 0.93201 0.85056 -0.13500
C 	C 	0.41792 0.94567 0.86660 -0.00100
H 	H 	0.41510 0.94660 0.88370 0.04400
C 	C 	0.43765 0.95843 0.85384 0.02100
H 	H 	0.44890 0.96900 0.86170 0.03500
C 	C 	0.43821 0.95354 0.82930 -0.16100
C 	C 	0.45571 0.96330 0.81003 0.54500
C 	C 	0.31007 0.84391 0.79284 0.51600
C 	C 	0.31327 0.82945 0.76946 -0.14300
C 	C 	0.30013 0.80944 0.76120 0.01200
H 	H 	0.28650 0.80270 0.76950 0.04000
C 	C 	0.24345 0.88468 0.82705 0.53400
C 	C 	0.22178 0.89101 0.81055 -0.17200
C 	C 	0.21143 0.91352 0.80704 0.00200
H 	H 	0.21600 0.92760 0.81590 -0.01100
C 	C 	0.32184 0.95064 0.89047 0.53500
C 	C 	0.32721 0.97727 0.89471 -0.15400
C 	C 	0.34720 0.98680 0.90690 0.00800
H 	H 	0.35950 0.97710 0.91440 0.04000
O 	O 	0.37189 0.86107 0.81772 -0.66400
S 	S 	0.40120 0.82120 0.76566 0.02000
C 	C 	0.39670 0.86420 0.74370 -0.04600
C 	C 	0.39070 0.84610 0.78270 -0.09000
C 	C 	0.37790 0.84030 0.80890 0.43200
C 	C 	0.39030 0.86790 0.76620 0.01900
C 	C 	0.40520 0.83850 0.73940 -0.09600
Zr	Zr	0.78756 0.59129 0.63783 3.17300
Zr	Zr	0.83878 0.62043 0.66721 3.19400
S 	S 	0.91446 0.56576 0.67951 0.04000
O 	O 	0.87543 0.58529 0.62120 -0.63800
O 	O 	0.87116 0.59337 0.66232 -0.68600
O 	O 	0.95049 0.54231 0.71193 -0.77800
O 	O 	0.97413 0.52434 0.68260 -0.66400
O 	O 	0.82715 0.64089 0.70215 -0.69000
O 	O 	0.79061 0.66042 0.69451 -0.64900
O 	O 	0.75093 0.63740 0.67292 -0.66300
O 	O 	0.75221 0.59716 0.66075 -0.78100
O 	O 	0.80359 0.55463 0.62316 -0.78100
O 	O 	0.83701 0.56442 0.59956 -0.68000
O 	O 	0.82560 0.59843 0.63832 -1.50000
O 	O 	0.79724 0.61660 0.66934 -1.14600
C 	C 	0.88185 0.58343 0.64375 0.50900
C 	C 	0.90381 0.56799 0.64944 -0.13500
C 	C 	0.91792 0.55433 0.63340 -0.00100
H 	H 	0.91510 0.55340 0.61630 0.04400
C 	C 	0.93765 0.54157 0.64616 0.02100
H 	H 	0.94890 0.53100 0.63830 0.03500
C 	C 	0.93821 0.54646 0.67070 -0.16100
C 	C 	0.95571 0.53670 0.68997 0.54500
C 	C 	0.81007 0.65609 0.70716 0.51600
C 	C 	0.81327 0.67055 0.73054 -0.14300
C 	C 	0.80013 0.69056 0.73880 0.01200
H 	H 	0.78650 0.69730 0.73050 0.04000
C 	C 	0.74345 0.61532 0.67295 0.53400
C 	C 	0.72178 0.60899 0.68945 -0.17200
C 	C 	0.71143 0.58648 0.69296 0.00200
H 	H 	0.71600 0.57240 0.68410 -0.01100
C 	C 	0.82184 0.54936 0.60953 0.53500
C 	C 	0.82721 0.52273 0.60529 -0.15400
C 	C 	0.84720 0.51320 0.59310 0.00800
H 	H 	0.85950 0.52290 0.58560 0.04000
O 	O 	0.87189 0.63893 0.68228 -0.66400
S 	S 	0.90120 0.67880 0.73434 0.02000
C 	C 	0.89670 0.63580 0.75630 -0.04600
C 	C 	0.89070 0.65390 0.71730 -0.09000
C 	C 	0.87790 0.65970 0.69110 0.43300
C 	C 	0.89030 0.63210 0.73380 0.01900
C 	C 	0.90520 0.66150 0.76060 -0.09600
Zr	Zr	0.28756 0.09129 0.13783 3.17300
Zr	Zr	0.33878 0.12043 0.16721 3.19400
S 	S 	0.41446 0.06576 0.17951 0.04000
O 	O 	0.37543 0.08529 0.12120 -0.63800
O 	O 	0.37116 0.09337 0.16232 -0.68600
O 	O 	0.45049 0.04231 0.21193 -0.77800
O 	O 	0.47413 0.02434 0.18260 -0.66400
O 	O 	0.32715 0.14089 0.20215 -0.69000
O 	O 	0.29061 0.16042 0.19451 -0.64900
O 	O 	0.25093 0.13740 0.17292 -0.66300
O 	O 	0.25221 0.09716 0.16075 -0.78100
O 	O 	0.30359 0.05463 0.12316 -0.78100
O 	O 	0.33701 0.06442 0.09956 -0.68000
O 	O 	0.32560 0.09843 0.13832 -1.50000
O 	O 	0.29724 0.11660 0.16934 -1.14600
C 	C 	0.38185 0.08343 0.14375 0.50900
C 	C 	0.40381 0.06799 0.14944 -0.13500
C 	C 	0.41792 0.05433 0.13340 -0.00100
H 	H 	0.41510 0.05340 0.11630 0.04400
C 	C 	0.43765 0.04157 0.14616 0.02100
H 	H 	0.44890 0.03100 0.13830 0.03500
C 	C 	0.43821 0.04646 0.17070 -0.16100
C 	C 	0.45571 0.03670 0.18997 0.54500
C 	C 	0.31007 0.15609 0.20716 0.51600
C 	C 	0.31327 0.17055 0.23054 -0.14300
C 	C 	0.30013 0.19056 0.23880 0.01200
H 	H 	0.28650 0.19730 0.23050 0.04000
C 	C 	0.24345 0.11532 0.17295 0.53400
C 	C 	0.22178 0.10899 0.18945 -0.17200
C 	C 	0.21143 0.08648 0.19296 0.00200
H 	H 	0.21600 0.07240 0.18410 -0.01100
C 	C 	0.32184 0.04936 0.10953 0.53500
C 	C 	0.32721 0.02273 0.10529 -0.15400
C 	C 	0.34720 0.01320 0.09310 0.00700
H 	H 	0.35950 0.02290 0.08560 0.04000
O 	O 	0.37189 0.13893 0.18228 -0.66400
S 	S 	0.40120 0.17880 0.23434 0.02000
C 	C 	0.39670 0.13580 0.25630 -0.04600
C 	C 	0.39070 0.15390 0.21730 -0.09000
C 	C 	0.37790 0.15970 0.19110 0.43300
C 	C 	0.39030 0.13210 0.23380 0.01900
C 	C 	0.40520 0.16150 0.26060 -0.09600
Zr	Zr	0.63783 0.59129 0.78756 3.17300
Zr	Zr	0.66721 0.62043 0.83878 3.19400
S 	S 	0.67951 0.56576 0.91446 0.04000
O 	O 	0.62120 0.58529 0.87543 -0.63800
O 	O 	0.66232 0.59337 0.87116 -0.68600
O 	O 	0.71193 0.54231 0.95049 -0.77800
O 	O 	0.68260 0.52434 0.97413 -0.66400
O 	O 	0.70215 0.64089 0.82715 -0.69000
O 	O 	0.69451 0.66042 0.79061 -0.64900
O 	O 	0.67292 0.63740 0.75093 -0.66300
O 	O 	0.66075 0.59716 0.75221 -0.78100
O 	O 	0.62316 0.55463 0.80359 -0.78100
O 	O 	0.59956 0.56442 0.83701 -0.68000
O 	O 	0.63832 0.59843 0.82560 -1.50000
O 	O 	0.66934 0.61660 0.79724 -1.14600
C 	C 	0.64375 0.58343 0.88185 0.50900
C 	C 	0.64944 0.56799 0.90381 -0.13500
C 	C 	0.63340 0.55433 0.91792 -0.00100
H 	H 	0.61630 0.55340 0.91510 0.04400
C 	C 	0.64616 0.54157 0.93765 0.02100
H 	H 	0.63830 0.53100 0.94890 0.03500
C 	C 	0.67070 0.54646 0.93821 -0.16100
C 	C 	0.68997 0.53670 0.95571 0.54500
C 	C 	0.70716 0.65609 0.81007 0.51600
C 	C 	0.73054 0.67055 0.81327 -0.14300
C 	C 	0.73880 0.69056 0.80013 0.01200
H 	H 	0.73050 0.69730 0.78650 0.04000
C 	C 	0.67295 0.61532 0.74345 0.53400
C 	C 	0.68945 0.60899 0.72178 -0.17200
C 	C 	0.69296 0.58648 0.71143 0.00200
H 	H 	0.68410 0.57240 0.71600 -0.01100
C 	C 	0.60953 0.54936 0.82184 0.53500
C 	C 	0.60529 0.52273 0.82721 -0.15400
C 	C 	0.59310 0.51320 0.84720 0.00800
H 	H 	0.58560 0.52290 0.85950 0.04000
O 	O 	0.68228 0.63893 0.87189 -0.66400
S 	S 	0.73434 0.67880 0.90120 0.02000
C 	C 	0.75630 0.63580 0.89670 -0.04600
C 	C 	0.71730 0.65390 0.89070 -0.09000
C 	C 	0.69110 0.65970 0.87790 0.43300
C 	C 	0.73380 0.63210 0.89030 0.01900
C 	C 	0.76060 0.66150 0.90520 -0.09600
Zr	Zr	0.13783 0.09129 0.28756 3.17300
Zr	Zr	0.16721 0.12043 0.33878 3.19400
S 	S 	0.17951 0.06576 0.41446 0.04000
O 	O 	0.12120 0.08529 0.37543 -0.63800
O 	O 	0.16232 0.09337 0.37116 -0.68600
O 	O 	0.21193 0.04231 0.45049 -0.77800
O 	O 	0.18260 0.02434 0.47413 -0.66400
O 	O 	0.20215 0.14089 0.32715 -0.69000
O 	O 	0.19451 0.16042 0.29061 -0.64900
O 	O 	0.17292 0.13740 0.25093 -0.66300
O 	O 	0.16075 0.09716 0.25221 -0.78100
O 	O 	0.12316 0.05463 0.30359 -0.78100
O 	O 	0.09956 0.06442 0.33701 -0.68000
O 	O 	0.13832 0.09843 0.32560 -1.50000
O 	O 	0.16934 0.11660 0.29724 -1.14600
C 	C 	0.14375 0.08343 0.38185 0.50900
C 	C 	0.14944 0.06799 0.40381 -0.13500
C 	C 	0.13340 0.05433 0.41792 -0.00100
H 	H 	0.11630 0.05340 0.41510 0.04400
C 	C 	0.14616 0.04157 0.43765 0.02100
H 	H 	0.13830 0.03100 0.44890 0.03500
C 	C 	0.17070 0.04646 0.43821 -0.16100
C 	C 	0.18997 0.03670 0.45571 0.54500
C 	C 	0.20716 0.15609 0.31007 0.51600
C 	C 	0.23054 0.17055 0.31327 -0.14300
C 	C 	0.23880 0.19056 0.30013 0.01200
H 	H 	0.23050 0.19730 0.28650 0.04000
C 	C 	0.17295 0.11532 0.24345 0.53400
C 	C 	0.18945 0.10899 0.22178 -0.17200
C 	C 	0.19296 0.08648 0.21143 0.00200
H 	H 	0.18410 0.07240 0.21600 -0.01100
C 	C 	0.10953 0.04936 0.32184 0.53500
C 	C 	0.10529 0.02273 0.32721 -0.15400
C 	C 	0.09310 0.01320 0.34720 0.00700
H 	H 	0.08560 0.02290 0.35950 0.04000
O 	O 	0.18228 0.13893 0.37189 -0.66400
S 	S 	0.23434 0.17880 0.40120 0.02000
C 	C 	0.25630 0.13580 0.39670 -0.04600
C 	C 	0.21730 0.15390 0.39070 -0.09000
C 	C 	0.19110 0.15970 0.37790 0.43300
C 	C 	0.23380 0.13210 0.39030 0.01900
C 	C 	0.26060 0.16150 0.40520 -0.09600
Zr	Zr	0.36217 0.40871 0.78756 3.17300
Zr	Zr	0.33279 0.37957 0.83878 3.19400
S 	S 	0.32049 0.43424 0.91446 0.04000
O 	O 	0.37880 0.41471 0.87543 -0.63800
O 	O 	0.33768 0.40663 0.87116 -0.68600
O 	O 	0.28807 0.45769 0.95049 -0.77800
O 	O 	0.31740 0.47566 0.97413 -0.66400
O 	O 	0.29785 0.35911 0.82715 -0.69000
O 	O 	0.30549 0.33958 0.79061 -0.64900
O 	O 	0.32708 0.36260 0.75093 -0.66300
O 	O 	0.33925 0.40284 0.75221 -0.78100
O 	O 	0.37684 0.44537 0.80359 -0.78100
O 	O 	0.40044 0.43558 0.83701 -0.68000
O 	O 	0.36168 0.40157 0.82560 -1.50000
O 	O 	0.33066 0.38340 0.79724 -1.14600
C 	C 	0.35625 0.41657 0.88185 0.50900
C 	C 	0.35056 0.43201 0.90381 -0.13500
C 	C 	0.36660 0.44567 0.91792 -0.00100
H 	H 	0.38370 0.44660 0.91510 0.04400
C 	C 	0.35384 0.45843 0.93765 0.02100
H 	H 	0.36170 0.46900 0.94890 0.03500
C 	C 	0.32930 0.45354 0.93821 -0.16100
C 	C 	0.31003 0.46330 0.95571 0.54500
C 	C 	0.29284 0.34391 0.81007 0.51600
C 	C 	0.26946 0.32945 0.81327 -0.14300
C 	C 	0.26120 0.30944 0.80013 0.01200
H 	H 	0.26950 0.30270 0.78650 0.04000
C 	C 	0.32705 0.38468 0.74345 0.53400
C 	C 	0.31055 0.39101 0.72178 -0.17200
C 	C 	0.30704 0.41352 0.71143 0.00200
H 	H 	0.31590 0.42760 0.71600 -0.01100
C 	C 	0.39047 0.45064 0.82184 0.53500
C 	C 	0.39471 0.47727 0.82721 -0.15400
C 	C 	0.40690 0.48680 0.84720 0.00800
H 	H 	0.41440 0.47710 0.85950 0.04000
O 	O 	0.31772 0.36107 0.87189 -0.66400
S 	S 	0.26566 0.32120 0.90120 0.02000
C 	C 	0.24370 0.36420 0.89670 -0.04600
C 	C 	0.28270 0.34610 0.89070 -0.09000
C 	C 	0.30890 0.34030 0.87790 0.43300
C 	C 	0.26620 0.36790 0.89030 0.01900
C 	C 	0.23940 0.33850 0.90520 -0.09600
Zr	Zr	0.86217 0.90871 0.28756 3.17300
Zr	Zr	0.83279 0.87957 0.33878 3.19400
S 	S 	0.82049 0.93424 0.41446 0.04000
O 	O 	0.87880 0.91471 0.37543 -0.63800
O 	O 	0.83768 0.90663 0.37116 -0.68600
O 	O 	0.78807 0.95769 0.45049 -0.77800
O 	O 	0.81740 0.97566 0.47413 -0.66400
O 	O 	0.79785 0.85911 0.32715 -0.69000
O 	O 	0.80549 0.83958 0.29061 -0.64900
O 	O 	0.82708 0.86260 0.25093 -0.66300
O 	O 	0.83925 0.90284 0.25221 -0.78100
O 	O 	0.87684 0.94537 0.30359 -0.78100
O 	O 	0.90044 0.93558 0.33701 -0.68000
O 	O 	0.86168 0.90157 0.32560 -1.50000
O 	O 	0.83066 0.88340 0.29724 -1.14600
C 	C 	0.85625 0.91657 0.38185 0.50900
C 	C 	0.85056 0.93201 0.40381 -0.13500
C 	C 	0.86660 0.94567 0.41792 -0.00100
H 	H 	0.88370 0.94660 0.41510 0.04400
C 	C 	0.85384 0.95843 0.43765 0.02100
H 	H 	0.86170 0.96900 0.44890 0.03500
C 	C 	0.82930 0.95354 0.43821 -0.16100
C 	C 	0.81003 0.96330 0.45571 0.54500
C 	C 	0.79284 0.84391 0.31007 0.51600
C 	C 	0.76946 0.82945 0.31327 -0.14300
C 	C 	0.76120 0.80944 0.30013 0.01200
H 	H 	0.76950 0.80270 0.28650 0.04000
C 	C 	0.82705 0.88468 0.24345 0.53400
C 	C 	0.81055 0.89101 0.22178 -0.17200
C 	C 	0.80704 0.91352 0.21143 0.00200
H 	H 	0.81590 0.92760 0.21600 -0.01100
C 	C 	0.89047 0.95064 0.32184 0.53500
C 	C 	0.89471 0.97727 0.32721 -0.15400
C 	C 	0.90690 0.98680 0.34720 0.00800
H 	H 	0.91440 0.97710 0.35950 0.04000
O 	O 	0.81772 0.86107 0.37189 -0.66400
S 	S 	0.76566 0.82120 0.40120 0.02000
C 	C 	0.74370 0.86420 0.39670 -0.04600
C 	C 	0.78270 0.84610 0.39070 -0.09000
C 	C 	0.80890 0.84030 0.37790 0.43200
C 	C 	0.76620 0.86790 0.39030 0.01900
C 	C 	0.73940 0.83850 0.40520 -0.09600
Zr	Zr	0.36217 0.59129 0.21244 3.17300
Zr	Zr	0.33279 0.62043 0.16122 3.19400
S 	S 	0.32049 0.56576 0.08554 0.04000
O 	O 	0.37880 0.58529 0.12457 -0.63800
O 	O 	0.33768 0.59337 0.12884 -0.68600
O 	O 	0.28807 0.54231 0.04951 -0.77800
O 	O 	0.31740 0.52434 0.02587 -0.66400
O 	O 	0.29785 0.64089 0.17285 -0.69000
O 	O 	0.30549 0.66042 0.20939 -0.64900
O 	O 	0.32708 0.63740 0.24907 -0.66300
O 	O 	0.33925 0.59716 0.24779 -0.78100
O 	O 	0.37684 0.55463 0.19641 -0.78100
O 	O 	0.40044 0.56442 0.16299 -0.68000
O 	O 	0.36168 0.59843 0.17440 -1.50000
O 	O 	0.33066 0.61660 0.20276 -1.14600
C 	C 	0.35625 0.58343 0.11815 0.50900
C 	C 	0.35056 0.56799 0.09619 -0.13500
C 	C 	0.36660 0.55433 0.08208 -0.00100
H 	H 	0.38370 0.55340 0.08490 0.04400
C 	C 	0.35384 0.54157 0.06235 0.02100
H 	H 	0.36170 0.53100 0.05110 0.03500
C 	C 	0.32930 0.54646 0.06179 -0.16100
C 	C 	0.31003 0.53670 0.04429 0.54500
C 	C 	0.29284 0.65609 0.18993 0.51600
C 	C 	0.26946 0.67055 0.18673 -0.14300
C 	C 	0.26120 0.69056 0.19987 0.01200
H 	H 	0.26950 0.69730 0.21350 0.04000
C 	C 	0.32705 0.61532 0.25655 0.53400
C 	C 	0.31055 0.60899 0.27822 -0.17200
C 	C 	0.30704 0.58648 0.28857 0.00200
H 	H 	0.31590 0.57240 0.28400 -0.01100
C 	C 	0.39047 0.54936 0.17816 0.53500
C 	C 	0.39471 0.52273 0.17279 -0.15400
C 	C 	0.40690 0.51320 0.15280 0.00800
H 	H 	0.41440 0.52290 0.14050 0.04000
O 	O 	0.31772 0.63893 0.12811 -0.66400
S 	S 	0.26566 0.67880 0.09880 0.02000
C 	C 	0.24370 0.63580 0.10330 -0.04600
C 	C 	0.28270 0.65390 0.10930 -0.09000
C 	C 	0.30890 0.65970 0.12210 0.43200
C 	C 	0.26620 0.63210 0.10970 0.01900
C 	C 	0.23940 0.66150 0.09480 -0.09600
Zr	Zr	0.86217 0.09129 0.71244 3.17300
Zr	Zr	0.83279 0.12043 0.66122 3.19400
S 	S 	0.82049 0.06576 0.58554 0.04000
O 	O 	0.87880 0.08529 0.62457 -0.63800
O 	O 	0.83768 0.09337 0.62884 -0.68600
O 	O 	0.78807 0.04231 0.54951 -0.77800
O 	O 	0.81740 0.02434 0.52587 -0.66400
O 	O 	0.79785 0.14089 0.67285 -0.69000
O 	O 	0.80549 0.16042 0.70939 -0.64900
O 	O 	0.82708 0.13740 0.74907 -0.66300
O 	O 	0.83925 0.09716 0.74779 -0.78100
O 	O 	0.87684 0.05463 0.69641 -0.78100
O 	O 	0.90044 0.06442 0.66299 -0.68000
O 	O 	0.86168 0.09843 0.67440 -1.50000
O 	O 	0.83066 0.11660 0.70276 -1.14600
C 	C 	0.85625 0.08343 0.61815 0.50900
C 	C 	0.85056 0.06799 0.59619 -0.13500
C 	C 	0.86660 0.05433 0.58208 -0.00100
H 	H 	0.88370 0.05340 0.58490 0.04400
C 	C 	0.85384 0.04157 0.56235 0.02100
H 	H 	0.86170 0.03100 0.55110 0.03500
C 	C 	0.82930 0.04646 0.56179 -0.16100
C 	C 	0.81003 0.03670 0.54429 0.54500
C 	C 	0.79284 0.15609 0.68993 0.51600
C 	C 	0.76946 0.17055 0.68673 -0.14300
C 	C 	0.76120 0.19056 0.69987 0.01200
H 	H 	0.76950 0.19730 0.71350 0.04000
C 	C 	0.82705 0.11532 0.75655 0.53400
C 	C 	0.81055 0.10899 0.77822 -0.17200
C 	C 	0.80704 0.08648 0.78857 0.00200
H 	H 	0.81590 0.07240 0.78400 -0.01100
C 	C 	0.89047 0.04936 0.67816 0.53500
C 	C 	0.89471 0.02273 0.67279 -0.15400
C 	C 	0.90690 0.01320 0.65280 0.00700
H 	H 	0.91440 0.02290 0.64050 0.04000
O 	O 	0.81772 0.13893 0.62811 -0.66400
S 	S 	0.76566 0.17880 0.59880 0.02000
C 	C 	0.74370 0.13580 0.60330 -0.04600
C 	C 	0.78270 0.15390 0.60930 -0.09000
C 	C 	0.80890 0.15970 0.62210 0.43300
C 	C 	0.76620 0.13210 0.60970 0.01900
C 	C 	0.73940 0.16150 0.59480 -0.09600
Zr	Zr	0.63783 0.40871 0.21244 3.17300
Zr	Zr	0.66721 0.37957 0.16122 3.19400
S 	S 	0.67951 0.43424 0.08554 0.04000
O 	O 	0.62120 0.41471 0.12457 -0.63800
O 	O 	0.66232 0.40663 0.12884 -0.68600
O 	O 	0.71193 0.45769 0.04951 -0.77800
O 	O 	0.68260 0.47566 0.02587 -0.66400
O 	O 	0.70215 0.35911 0.17285 -0.69000
O 	O 	0.69451 0.33958 0.20939 -0.64900
O 	O 	0.67292 0.36260 0.24907 -0.66300
O 	O 	0.66075 0.40284 0.24779 -0.78100
O 	O 	0.62316 0.44537 0.19641 -0.78100
O 	O 	0.59956 0.43558 0.16299 -0.68000
O 	O 	0.63832 0.40157 0.17440 -1.50000
O 	O 	0.66934 0.38340 0.20276 -1.14600
C 	C 	0.64375 0.41657 0.11815 0.50900
C 	C 	0.64944 0.43201 0.09619 -0.13500
C 	C 	0.63340 0.44567 0.08208 -0.00100
H 	H 	0.61630 0.44660 0.08490 0.04400
C 	C 	0.64616 0.45843 0.06235 0.02100
H 	H 	0.63830 0.46900 0.05110 0.03500
C 	C 	0.67070 0.45354 0.06179 -0.16100
C 	C 	0.68997 0.46330 0.04429 0.54500
C 	C 	0.70716 0.34391 0.18993 0.51600
C 	C 	0.73054 0.32945 0.18673 -0.14300
C 	C 	0.73880 0.30944 0.19987 0.01200
H 	H 	0.73050 0.30270 0.21350 0.04000
C 	C 	0.67295 0.38468 0.25655 0.53400
C 	C 	0.68945 0.39101 0.27822 -0.17200
C 	C 	0.69296 0.41352 0.28857 0.00200
H 	H 	0.68410 0.42760 0.28400 -0.01100
C 	C 	0.60953 0.45064 0.17816 0.53500
C 	C 	0.60529 0.47727 0.17279 -0.15400
C 	C 	0.59310 0.48680 0.15280 0.00800
H 	H 	0.58560 0.47710 0.14050 0.04000
O 	O 	0.68228 0.36107 0.12811 -0.66400
S 	S 	0.73434 0.32120 0.09880 0.02000
C 	C 	0.75630 0.36420 0.10330 -0.04600
C 	C 	0.71730 0.34610 0.10930 -0.09000
C 	C 	0.69110 0.34030 0.12210 0.43200
C 	C 	0.73380 0.36790 0.10970 0.01900
C 	C 	0.76060 0.33850 0.09480 -0.09600
Zr	Zr	0.13783 0.90871 0.71244 3.17300
Zr	Zr	0.16721 0.87957 0.66122 3.19400
S 	S 	0.17951 0.93424 0.58554 0.04000
O 	O 	0.12120 0.91471 0.62457 -0.63800
O 	O 	0.16232 0.90663 0.62884 -0.68600
O 	O 	0.21193 0.95769 0.54951 -0.77800
O 	O 	0.18260 0.97566 0.52587 -0.66400
O 	O 	0.20215 0.85911 0.67285 -0.69000
O 	O 	0.19451 0.83958 0.70939 -0.64900
O 	O 	0.17292 0.86260 0.74907 -0.66300
O 	O 	0.16075 0.90284 0.74779 -0.78100
O 	O 	0.12316 0.94537 0.69641 -0.78100
O 	O 	0.09956 0.93558 0.66299 -0.68000
O 	O 	0.13832 0.90157 0.67440 -1.50000
O 	O 	0.16934 0.88340 0.70276 -1.14600
C 	C 	0.14375 0.91657 0.61815 0.50900
C 	C 	0.14944 0.93201 0.59619 -0.13500
C 	C 	0.13340 0.94567 0.58208 -0.00100
H 	H 	0.11630 0.94660 0.58490 0.04400
C 	C 	0.14616 0.95843 0.56235 0.02100
H 	H 	0.13830 0.96900 0.55110 0.03500
C 	C 	0.17070 0.95354 0.56179 -0.16100
C 	C 	0.18997 0.96330 0.54429 0.54500
C 	C 	0.20716 0.84391 0.68993 0.51600
C 	C 	0.23054 0.82945 0.68673 -0.14300
C 	C 	0.23880 0.80944 0.69987 0.01200
H 	H 	0.23050 0.80270 0.71350 0.04000
C 	C 	0.17295 0.88468 0.75655 0.53400
C 	C 	0.18945 0.89101 0.77822 -0.17200
C 	C 	0.19296 0.91352 0.78857 0.00200
H 	H 	0.18410 0.92760 0.78400 -0.01100
C 	C 	0.10953 0.95064 0.67816 0.53500
C 	C 	0.10529 0.97727 0.67279 -0.15400
C 	C 	0.09310 0.98680 0.65280 0.00800
H 	H 	0.08560 0.97710 0.64050 0.04000
O 	O 	0.18228 0.86107 0.62811 -0.66400
S 	S 	0.23434 0.82120 0.59880 0.02000
C 	C 	0.25630 0.86420 0.60330 -0.04600
C 	C 	0.21730 0.84610 0.60930 -0.09000
C 	C 	0.19110 0.84030 0.62210 0.43300
C 	C 	0.23380 0.86790 0.60970 0.01900
C 	C 	0.26060 0.83850 0.59480 -0.09600
Zr	Zr	0.78756 0.63783 0.59129 3.17300
Zr	Zr	0.83878 0.66721 0.62043 3.19400
S 	S 	0.91446 0.67951 0.56576 0.04000
O 	O 	0.87543 0.62120 0.58529 -0.63800
O 	O 	0.87116 0.66232 0.59337 -0.68600
O 	O 	0.95049 0.71193 0.54231 -0.77800
O 	O 	0.97413 0.68260 0.52434 -0.66400
O 	O 	0.82715 0.70215 0.64089 -0.69000
O 	O 	0.79061 0.69451 0.66042 -0.64900
O 	O 	0.75093 0.67292 0.63740 -0.66300
O 	O 	0.75221 0.66075 0.59716 -0.78100
O 	O 	0.80359 0.62316 0.55463 -0.78100
O 	O 	0.83701 0.59956 0.56442 -0.68000
O 	O 	0.82560 0.63832 0.59843 -1.50000
O 	O 	0.79724 0.66934 0.61660 -1.14600
C 	C 	0.88185 0.64375 0.58343 0.50900
C 	C 	0.90381 0.64944 0.56799 -0.13500
C 	C 	0.91792 0.63340 0.55433 -0.00100
H 	H 	0.91510 0.61630 0.55340 0.04400
C 	C 	0.93765 0.64616 0.54157 0.02100
H 	H 	0.94890 0.63830 0.53100 0.03500
C 	C 	0.93821 0.67070 0.54646 -0.16100
C 	C 	0.95571 0.68997 0.53670 0.54500
C 	C 	0.81007 0.70716 0.65609 0.51600
C 	C 	0.81327 0.73054 0.67055 -0.14300
C 	C 	0.80013 0.73880 0.69056 0.01200
H 	H 	0.78650 0.73050 0.69730 0.04000
C 	C 	0.74345 0.67295 0.61532 0.53400
C 	C 	0.72178 0.68945 0.60899 -0.17200
C 	C 	0.71143 0.69296 0.58648 0.00200
H 	H 	0.71600 0.68410 0.57240 -0.01100
C 	C 	0.82184 0.60953 0.54936 0.53500
C 	C 	0.82721 0.60529 0.52273 -0.15400
C 	C 	0.84720 0.59310 0.51320 0.00800
H 	H 	0.85950 0.58560 0.52290 0.04000
O 	O 	0.87189 0.68228 0.63893 -0.66400
S 	S 	0.90120 0.73434 0.67880 0.02000
C 	C 	0.89670 0.75630 0.63580 -0.04600
C 	C 	0.89070 0.71730 0.65390 -0.09000
C 	C 	0.87790 0.69110 0.65970 0.43300
C 	C 	0.89030 0.73380 0.63210 0.01900
C 	C 	0.90520 0.76060 0.66150 -0.09600
Zr	Zr	0.28756 0.13783 0.09129 3.17300
Zr	Zr	0.33878 0.16721 0.12043 3.19400
S 	S 	0.41446 0.17951 0.06576 0.04000
O 	O 	0.37543 0.12120 0.08529 -0.63800
O 	O 	0.37116 0.16232 0.09337 -0.68600
O 	O 	0.45049 0.21193 0.04231 -0.77800
O 	O 	0.47413 0.18260 0.02434 -0.66400
O 	O 	0.32715 0.20215 0.14089 -0.69000
O 	O 	0.29061 0.19451 0.16042 -0.64900
O 	O 	0.25093 0.17292 0.13740 -0.66300
O 	O 	0.25221 0.16075 0.09716 -0.78100
O 	O 	0.30359 0.12316 0.05463 -0.78100
O 	O 	0.33701 0.09956 0.06442 -0.68000
O 	O 	0.32560 0.13832 0.09843 -1.50000
O 	O 	0.29724 0.16934 0.11660 -1.14600
C 	C 	0.38185 0.14375 0.08343 0.50900
C 	C 	0.40381 0.14944 0.06799 -0.13500
C 	C 	0.41792 0.13340 0.05433 -0.00100
H 	H 	0.41510 0.11630 0.05340 0.04400
C 	C 	0.43765 0.14616 0.04157 0.02100
H 	H 	0.44890 0.13830 0.03100 0.03500
C 	C 	0.43821 0.17070 0.04646 -0.16100
C 	C 	0.45571 0.18997 0.03670 0.54500
C 	C 	0.31007 0.20716 0.15609 0.51600
C 	C 	0.31327 0.23054 0.17055 -0.14300
C 	C 	0.30013 0.23880 0.19056 0.01200
H 	H 	0.28650 0.23050 0.19730 0.04000
C 	C 	0.24345 0.17295 0.11532 0.53400
C 	C 	0.22178 0.18945 0.10899 -0.17200
C 	C 	0.21143 0.19296 0.08648 0.00200
H 	H 	0.21600 0.18410 0.07240 -0.01100
C 	C 	0.32184 0.10953 0.04936 0.53500
C 	C 	0.32721 0.10529 0.02273 -0.15400
C 	C 	0.34720 0.09310 0.01320 0.00700
H 	H 	0.35950 0.08560 0.02290 0.04000
O 	O 	0.37189 0.18228 0.13893 -0.66400
S 	S 	0.40120 0.23434 0.17880 0.02000
C 	C 	0.39670 0.25630 0.13580 -0.04600
C 	C 	0.39070 0.21730 0.15390 -0.09000
C 	C 	0.37790 0.19110 0.15970 0.43300
C 	C 	0.39030 0.23380 0.13210 0.01900
C 	C 	0.40520 0.26060 0.16150 -0.09600
Zr	Zr	0.78756 0.36217 0.40871 3.17300
Zr	Zr	0.83878 0.33279 0.37957 3.19400
S 	S 	0.91446 0.32049 0.43424 0.04000
O 	O 	0.87543 0.37880 0.41471 -0.63800
O 	O 	0.87116 0.33768 0.40663 -0.68600
O 	O 	0.95049 0.28807 0.45769 -0.77800
O 	O 	0.97413 0.31740 0.47566 -0.66400
O 	O 	0.82715 0.29785 0.35911 -0.69000
O 	O 	0.79061 0.30549 0.33958 -0.64900
O 	O 	0.75093 0.32708 0.36260 -0.66300
O 	O 	0.75221 0.33925 0.40284 -0.78100
O 	O 	0.80359 0.37684 0.44537 -0.78100
O 	O 	0.83701 0.40044 0.43558 -0.68000
O 	O 	0.82560 0.36168 0.40157 -1.50000
O 	O 	0.79724 0.33066 0.38340 -1.14600
C 	C 	0.88185 0.35625 0.41657 0.50900
C 	C 	0.90381 0.35056 0.43201 -0.13500
C 	C 	0.91792 0.36660 0.44567 -0.00100
H 	H 	0.91510 0.38370 0.44660 0.04400
C 	C 	0.93765 0.35384 0.45843 0.02100
H 	H 	0.94890 0.36170 0.46900 0.03500
C 	C 	0.93821 0.32930 0.45354 -0.16100
C 	C 	0.95571 0.31003 0.46330 0.54500
C 	C 	0.81007 0.29284 0.34391 0.51600
C 	C 	0.81327 0.26946 0.32945 -0.14300
C 	C 	0.80013 0.26120 0.30944 0.01200
H 	H 	0.78650 0.26950 0.30270 0.04000
C 	C 	0.74345 0.32705 0.38468 0.53400
C 	C 	0.72178 0.31055 0.39101 -0.17200
C 	C 	0.71143 0.30704 0.41352 0.00200
H 	H 	0.71600 0.31590 0.42760 -0.01100
C 	C 	0.82184 0.39047 0.45064 0.53500
C 	C 	0.82721 0.39471 0.47727 -0.15400
C 	C 	0.84720 0.40690 0.48680 0.00800
H 	H 	0.85950 0.41440 0.47710 0.04000
O 	O 	0.87189 0.31772 0.36107 -0.66400
S 	S 	0.90120 0.26566 0.32120 0.02000
C 	C 	0.89670 0.24370 0.36420 -0.04600
C 	C 	0.89070 0.28270 0.34610 -0.09000
C 	C 	0.87790 0.30890 0.34030 0.43300
C 	C 	0.89030 0.26620 0.36790 0.01900
C 	C 	0.90520 0.23940 0.33850 -0.09600
Zr	Zr	0.28756 0.86217 0.90871 3.17300
Zr	Zr	0.33878 0.83279 0.87957 3.19400
S 	S 	0.41446 0.82049 0.93424 0.04000
O 	O 	0.37543 0.87880 0.91471 -0.63800
O 	O 	0.37116 0.83768 0.90663 -0.68600
O 	O 	0.45049 0.78807 0.95769 -0.77800
O 	O 	0.47413 0.81740 0.97566 -0.66400
O 	O 	0.32715 0.79785 0.85911 -0.69000
O 	O 	0.29061 0.80549 0.83958 -0.64900
O 	O 	0.25093 0.82708 0.86260 -0.66300
O 	O 	0.25221 0.83925 0.90284 -0.78100
O 	O 	0.30359 0.87684 0.94537 -0.78100
O 	O 	0.33701 0.90044 0.93558 -0.68000
O 	O 	0.32560 0.86168 0.90157 -1.50000
O 	O 	0.29724 0.83066 0.88340 -1.14600
C 	C 	0.38185 0.85625 0.91657 0.50900
C 	C 	0.40381 0.85056 0.93201 -0.13500
C 	C 	0.41792 0.86660 0.94567 -0.00100
H 	H 	0.41510 0.88370 0.94660 0.04400
C 	C 	0.43765 0.85384 0.95843 0.02100
H 	H 	0.44890 0.86170 0.96900 0.03500
C 	C 	0.43821 0.82930 0.95354 -0.16100
C 	C 	0.45571 0.81003 0.96330 0.54500
C 	C 	0.31007 0.79284 0.84391 0.51600
C 	C 	0.31327 0.76946 0.82945 -0.14300
C 	C 	0.30013 0.76120 0.80944 0.01200
H 	H 	0.28650 0.76950 0.80270 0.04000
C 	C 	0.24345 0.82705 0.88468 0.53400
C 	C 	0.22178 0.81055 0.89101 -0.17200
C 	C 	0.21143 0.80704 0.91352 0.00200
H 	H 	0.21600 0.81590 0.92760 -0.01100
C 	C 	0.32184 0.89047 0.95064 0.53500
C 	C 	0.32721 0.89471 0.97727 -0.15400
C 	C 	0.34720 0.90690 0.98680 0.00800
H 	H 	0.35950 0.91440 0.97710 0.04000
O 	O 	0.37189 0.81772 0.86107 -0.66400
S 	S 	0.40120 0.76566 0.82120 0.02000
C 	C 	0.39670 0.74370 0.86420 -0.04600
C 	C 	0.39070 0.78270 0.84610 -0.09000
C 	C 	0.37790 0.80890 0.84030 0.43200
C 	C 	0.39030 0.76620 0.86790 0.01900
C 	C 	0.40520 0.73940 0.83850 -0.09600
Zr	Zr	0.21244 0.36217 0.59129 3.17300
Zr	Zr	0.16122 0.33279 0.62043 3.19400
S 	S 	0.08554 0.32049 0.56576 0.04000
O 	O 	0.12457 0.37880 0.58529 -0.63800
O 	O 	0.12884 0.33768 0.59337 -0.68600
O 	O 	0.04951 0.28807 0.54231 -0.77800
O 	O 	0.02587 0.31740 0.52434 -0.66400
O 	O 	0.17285 0.29785 0.64089 -0.69000
O 	O 	0.20939 0.30549 0.66042 -0.64900
O 	O 	0.24907 0.32708 0.63740 -0.66300
O 	O 	0.24779 0.33925 0.59716 -0.78100
O 	O 	0.19641 0.37684 0.55463 -0.78100
O 	O 	0.16299 0.40044 0.56442 -0.68000
O 	O 	0.17440 0.36168 0.59843 -1.50000
O 	O 	0.20276 0.33066 0.61660 -1.14600
C 	C 	0.11815 0.35625 0.58343 0.50900
C 	C 	0.09619 0.35056 0.56799 -0.13500
C 	C 	0.08208 0.36660 0.55433 -0.00100
H 	H 	0.08490 0.38370 0.55340 0.04400
C 	C 	0.06235 0.35384 0.54157 0.02100
H 	H 	0.05110 0.36170 0.53100 0.03500
C 	C 	0.06179 0.32930 0.54646 -0.16100
C 	C 	0.04429 0.31003 0.53670 0.54500
C 	C 	0.18993 0.29284 0.65609 0.51600
C 	C 	0.18673 0.26946 0.67055 -0.14300
C 	C 	0.19987 0.26120 0.69056 0.01200
H 	H 	0.21350 0.26950 0.69730 0.04000
C 	C 	0.25655 0.32705 0.61532 0.53400
C 	C 	0.27822 0.31055 0.60899 -0.17200
C 	C 	0.28857 0.30704 0.58648 0.00200
H 	H 	0.28400 0.31590 0.57240 -0.01100
C 	C 	0.17816 0.39047 0.54936 0.53500
C 	C 	0.17279 0.39471 0.52273 -0.15400
C 	C 	0.15280 0.40690 0.51320 0.00800
H 	H 	0.14050 0.41440 0.52290 0.04000
O 	O 	0.12811 0.31772 0.63893 -0.66400
S 	S 	0.09880 0.26566 0.67880 0.02000
C 	C 	0.10330 0.24370 0.63580 -0.04600
C 	C 	0.10930 0.28270 0.65390 -0.09000
C 	C 	0.12210 0.30890 0.65970 0.43200
C 	C 	0.10970 0.26620 0.63210 0.01900
C 	C 	0.09480 0.23940 0.66150 -0.09600
Zr	Zr	0.71244 0.86217 0.09129 3.17300
Zr	Zr	0.66122 0.83279 0.12043 3.19400
S 	S 	0.58554 0.82049 0.06576 0.04000
O 	O 	0.62457 0.87880 0.08529 -0.63800
O 	O 	0.62884 0.83768 0.09337 -0.68600
O 	O 	0.54951 0.78807 0.04231 -0.77800
O 	O 	0.52587 0.81740 0.02434 -0.66400
O 	O 	0.67285 0.79785 0.14089 -0.69000
O 	O 	0.70939 0.80549 0.16042 -0.64900
O 	O 	0.74907 0.82708 0.13740 -0.66300
O 	O 	0.74779 0.83925 0.09716 -0.78100
O 	O 	0.69641 0.87684 0.05463 -0.78100
O 	O 	0.66299 0.90044 0.06442 -0.68000
O 	O 	0.67440 0.86168 0.09843 -1.50000
O 	O 	0.70276 0.83066 0.11660 -1.14600
C 	C 	0.61815 0.85625 0.08343 0.50900
C 	C 	0.59619 0.85056 0.06799 -0.13500
C 	C 	0.58208 0.86660 0.05433 -0.00100
H 	H 	0.58490 0.88370 0.05340 0.04400
C 	C 	0.56235 0.85384 0.04157 0.02100
H 	H 	0.55110 0.86170 0.03100 0.03500
C 	C 	0.56179 0.82930 0.04646 -0.16100
C 	C 	0.54429 0.81003 0.03670 0.54500
C 	C 	0.68993 0.79284 0.15609 0.51600
C 	C 	0.68673 0.76946 0.17055 -0.14300
C 	C 	0.69987 0.76120 0.19056 0.01200
H 	H 	0.71350 0.76950 0.19730 0.04000
C 	C 	0.75655 0.82705 0.11532 0.53400
C 	C 	0.77822 0.81055 0.10899 -0.17200
C 	C 	0.78857 0.80704 0.08648 0.00200
H 	H 	0.78400 0.81590 0.07240 -0.01100
C 	C 	0.67816 0.89047 0.04936 0.53500
C 	C 	0.67279 0.89471 0.02273 -0.15400
C 	C 	0.65280 0.90690 0.01320 0.00700
H 	H 	0.64050 0.91440 0.02290 0.04000
O 	O 	0.62811 0.81772 0.13893 -0.66400
S 	S 	0.59880 0.76566 0.17880 0.02000
C 	C 	0.60330 0.74370 0.13580 -0.04600
C 	C 	0.60930 0.78270 0.15390 -0.09000
C 	C 	0.62210 0.80890 0.15970 0.43300
C 	C 	0.60970 0.76620 0.13210 0.01900
C 	C 	0.59480 0.73940 0.16150 -0.09600
Zr	Zr	0.21244 0.63783 0.40871 3.17300
Zr	Zr	0.16122 0.66721 0.37957 3.19400
S 	S 	0.08554 0.67951 0.43424 0.04000
O 	O 	0.12457 0.62120 0.41471 -0.63800
O 	O 	0.12884 0.66232 0.40663 -0.68600
O 	O 	0.04951 0.71193 0.45769 -0.77800
O 	O 	0.02587 0.68260 0.47566 -0.66400
O 	O 	0.17285 0.70215 0.35911 -0.69000
O 	O 	0.20939 0.69451 0.33958 -0.64900
O 	O 	0.24907 0.67292 0.36260 -0.66300
O 	O 	0.24779 0.66075 0.40284 -0.78100
O 	O 	0.19641 0.62316 0.44537 -0.78100
O 	O 	0.16299 0.59956 0.43558 -0.68000
O 	O 	0.17440 0.63832 0.40157 -1.50000
O 	O 	0.20276 0.66934 0.38340 -1.14600
C 	C 	0.11815 0.64375 0.41657 0.50900
C 	C 	0.09619 0.64944 0.43201 -0.13500
C 	C 	0.08208 0.63340 0.44567 -0.00100
H 	H 	0.08490 0.61630 0.44660 0.04400
C 	C 	0.06235 0.64616 0.45843 0.02100
H 	H 	0.05110 0.63830 0.46900 0.03500
C 	C 	0.06179 0.67070 0.45354 -0.16100
C 	C 	0.04429 0.68997 0.46330 0.54500
C 	C 	0.18993 0.70716 0.34391 0.51600
C 	C 	0.18673 0.73054 0.32945 -0.14300
C 	C 	0.19987 0.73880 0.30944 0.01200
H 	H 	0.21350 0.73050 0.30270 0.04000
C 	C 	0.25655 0.67295 0.38468 0.53400
C 	C 	0.27822 0.68945 0.39101 -0.17200
C 	C 	0.28857 0.69296 0.41352 0.00200
H 	H 	0.28400 0.68410 0.42760 -0.01100
C 	C 	0.17816 0.60953 0.45064 0.53500
C 	C 	0.17279 0.60529 0.47727 -0.15400
C 	C 	0.15280 0.59310 0.48680 0.00800
H 	H 	0.14050 0.58560 0.47710 0.04000
O 	O 	0.12811 0.68228 0.36107 -0.66400
S 	S 	0.09880 0.73434 0.32120 0.02000
C 	C 	0.10330 0.75630 0.36420 -0.04600
C 	C 	0.10930 0.71730 0.34610 -0.09000
C 	C 	0.12210 0.69110 0.34030 0.43200
C 	C 	0.10970 0.73380 0.36790 0.01900
C 	C 	0.09480 0.76060 0.33850 -0.09600
Zr	Zr	0.71244 0.13783 0.90871 3.17300
Zr	Zr	0.66122 0.16721 0.87957 3.19400
S 	S 	0.58554 0.17951 0.93424 0.04000
O 	O 	0.62457 0.12120 0.91471 -0.63800
O 	O 	0.62884 0.16232 0.90663 -0.68600
O 	O 	0.54951 0.21193 0.95769 -0.77800
O 	O 	0.52587 0.18260 0.97566 -0.66400
O 	O 	0.67285 0.20215 0.85911 -0.69000
O 	O 	0.70939 0.19451 0.83958 -0.64900
O 	O 	0.74907 0.17292 0.86260 -0.66300
O 	O 	0.74779 0.16075 0.90284 -0.78100
O 	O 	0.69641 0.12316 0.94537 -0.78100
O 	O 	0.66299 0.09956 0.93558 -0.68000
O 	O 	0.67440 0.13832 0.90157 -1.50000
O 	O 	0.70276 0.16934 0.88340 -1.14600
C 	C 	0.61815 0.14375 0.91657 0.50900
C 	C 	0.59619 0.14944 0.93201 -0.13500
C 	C 	0.58208 0.13340 0.94567 -0.00100
H 	H 	0.58490 0.11630 0.94660 0.04400
C 	C 	0.56235 0.14616 0.95843 0.02100
H 	H 	0.55110 0.13830 0.96900 0.03500
C 	C 	0.56179 0.17070 0.95354 -0.16100
C 	C 	0.54429 0.18997 0.96330 0.54500
C 	C 	0.68993 0.20716 0.84391 0.51600
C 	C 	0.68673 0.23054 0.82945 -0.14300
C 	C 	0.69987 0.23880 0.80944 0.01200
H 	H 	0.71350 0.23050 0.80270 0.04000
C 	C 	0.75655 0.17295 0.88468 0.53400
C 	C 	0.77822 0.18945 0.89101 -0.17200
C 	C 	0.78857 0.19296 0.91352 0.00200
H 	H 	0.78400 0.18410 0.92760 -0.01100
C 	C 	0.67816 0.10953 0.95064 0.53500
C 	C 	0.67279 0.10529 0.97727 -0.15400
C 	C 	0.65280 0.09310 0.98680 0.00800
H 	H 	0.64050 0.08560 0.97710 0.04000
O 	O 	0.62811 0.18228 0.86107 -0.66400
S 	S 	0.59880 0.23434 0.82120 0.02000
C 	C 	0.60330 0.25630 0.86420 -0.04600
C 	C 	0.60930 0.21730 0.84610 -0.09000
C 	C 	0.62210 0.19110 0.84030 0.43300
C 	C 	0.60970 0.23380 0.86790 0.01900
C 	C 	0.59480 0.26060 0.83850 -0.09600
Zr	Zr	0.59129 0.78756 0.63783 3.17300
Zr	Zr	0.62043 0.83878 0.66721 3.19400
S 	S 	0.56576 0.91446 0.67951 0.04000
O 	O 	0.58529 0.87543 0.62120 -0.63800
O 	O 	0.59337 0.87116 0.66232 -0.68600
O 	O 	0.54231 0.95049 0.71193 -0.77800
O 	O 	0.52434 0.97413 0.68260 -0.66400
O 	O 	0.64089 0.82715 0.70215 -0.69000
O 	O 	0.66042 0.79061 0.69451 -0.64900
O 	O 	0.63740 0.75093 0.67292 -0.66300
O 	O 	0.59716 0.75221 0.66075 -0.78100
O 	O 	0.55463 0.80359 0.62316 -0.78100
O 	O 	0.56442 0.83701 0.59956 -0.68000
O 	O 	0.59843 0.82560 0.63832 -1.50000
O 	O 	0.61660 0.79724 0.66934 -1.14600
C 	C 	0.58343 0.88185 0.64375 0.50900
C 	C 	0.56799 0.90381 0.64944 -0.13500
C 	C 	0.55433 0.91792 0.63340 -0.00100
H 	H 	0.55340 0.91510 0.61630 0.04400
C 	C 	0.54157 0.93765 0.64616 0.02100
H 	H 	0.53100 0.94890 0.63830 0.03500
C 	C 	0.54646 0.93821 0.67070 -0.16100
C 	C 	0.53670 0.95571 0.68997 0.54500
C 	C 	0.65609 0.81007 0.70716 0.51600
C 	C 	0.67055 0.81327 0.73054 -0.14300
C 	C 	0.69056 0.80013 0.73880 0.01200
H 	H 	0.69730 0.78650 0.73050 0.04000
C 	C 	0.61532 0.74345 0.67295 0.53400
C 	C 	0.60899 0.72178 0.68945 -0.17200
C 	C 	0.58648 0.71143 0.69296 0.00200
H 	H 	0.57240 0.71600 0.68410 -0.01100
C 	C 	0.54936 0.82184 0.60953 0.53500
C 	C 	0.52273 0.82721 0.60529 -0.15400
C 	C 	0.51320 0.84720 0.59310 0.00800
H 	H 	0.52290 0.85950 0.58560 0.04000
O 	O 	0.63893 0.87189 0.68228 -0.66400
S 	S 	0.67880 0.90120 0.73434 0.02000
C 	C 	0.63580 0.89670 0.75630 -0.04600
C 	C 	0.65390 0.89070 0.71730 -0.09000
C 	C 	0.65970 0.87790 0.69110 0.43300
C 	C 	0.63210 0.89030 0.73380 0.01900
C 	C 	0.66150 0.90520 0.76060 -0.09600
Zr	Zr	0.09129 0.28756 0.13783 3.17300
Zr	Zr	0.12043 0.33878 0.16721 3.19400
S 	S 	0.06576 0.41446 0.17951 0.04000
O 	O 	0.08529 0.37543 0.12120 -0.63800
O 	O 	0.09337 0.37116 0.16232 -0.68600
O 	O 	0.04231 0.45049 0.21193 -0.77800
O 	O 	0.02434 0.47413 0.18260 -0.66400
O 	O 	0.14089 0.32715 0.20215 -0.69000
O 	O 	0.16042 0.29061 0.19451 -0.64900
O 	O 	0.13740 0.25093 0.17292 -0.66300
O 	O 	0.09716 0.25221 0.16075 -0.78100
O 	O 	0.05463 0.30359 0.12316 -0.78100
O 	O 	0.06442 0.33701 0.09956 -0.68000
O 	O 	0.09843 0.32560 0.13832 -1.50000
O 	O 	0.11660 0.29724 0.16934 -1.14600
C 	C 	0.08343 0.38185 0.14375 0.50900
C 	C 	0.06799 0.40381 0.14944 -0.13500
C 	C 	0.05433 0.41792 0.13340 -0.00100
H 	H 	0.05340 0.41510 0.11630 0.04400
C 	C 	0.04157 0.43765 0.14616 0.02100
H 	H 	0.03100 0.44890 0.13830 0.03500
C 	C 	0.04646 0.43821 0.17070 -0.16100
C 	C 	0.03670 0.45571 0.18997 0.54500
C 	C 	0.15609 0.31007 0.20716 0.51600
C 	C 	0.17055 0.31327 0.23054 -0.14300
C 	C 	0.19056 0.30013 0.23880 0.01200
H 	H 	0.19730 0.28650 0.23050 0.04000
C 	C 	0.11532 0.24345 0.17295 0.53400
C 	C 	0.10899 0.22178 0.18945 -0.17200
C 	C 	0.08648 0.21143 0.19296 0.00200
H 	H 	0.07240 0.21600 0.18410 -0.01100
C 	C 	0.04936 0.32184 0.10953 0.53500
C 	C 	0.02273 0.32721 0.10529 -0.15400
C 	C 	0.01320 0.34720 0.09310 0.00700
H 	H 	0.02290 0.35950 0.08560 0.04000
O 	O 	0.13893 0.37189 0.18228 -0.66400
S 	S 	0.17880 0.40120 0.23434 0.02000
C 	C 	0.13580 0.39670 0.25630 -0.04600
C 	C 	0.15390 0.39070 0.21730 -0.09000
C 	C 	0.15970 0.37790 0.19110 0.43300
C 	C 	0.13210 0.39030 0.23380 0.01900
C 	C 	0.16150 0.40520 0.26060 -0.09600
Zr	Zr	0.40871 0.78756 0.36217 3.17300
Zr	Zr	0.37957 0.83878 0.33279 3.19400
S 	S 	0.43424 0.91446 0.32049 0.04000
O 	O 	0.41471 0.87543 0.37880 -0.63800
O 	O 	0.40663 0.87116 0.33768 -0.68600
O 	O 	0.45769 0.95049 0.28807 -0.77800
O 	O 	0.47566 0.97413 0.31740 -0.66400
O 	O 	0.35911 0.82715 0.29785 -0.69000
O 	O 	0.33958 0.79061 0.30549 -0.64900
O 	O 	0.36260 0.75093 0.32708 -0.66300
O 	O 	0.40284 0.75221 0.33925 -0.78100
O 	O 	0.44537 0.80359 0.37684 -0.78100
O 	O 	0.43558 0.83701 0.40044 -0.68000
O 	O 	0.40157 0.82560 0.36168 -1.50000
O 	O 	0.38340 0.79724 0.33066 -1.14600
C 	C 	0.41657 0.88185 0.35625 0.50900
C 	C 	0.43201 0.90381 0.35056 -0.13500
C 	C 	0.44567 0.91792 0.36660 -0.00100
H 	H 	0.44660 0.91510 0.38370 0.04400
C 	C 	0.45843 0.93765 0.35384 0.02100
H 	H 	0.46900 0.94890 0.36170 0.03500
C 	C 	0.45354 0.93821 0.32930 -0.16100
C 	C 	0.46330 0.95571 0.31003 0.54500
C 	C 	0.34391 0.81007 0.29284 0.51600
C 	C 	0.32945 0.81327 0.26946 -0.14300
C 	C 	0.30944 0.80013 0.26120 0.01200
H 	H 	0.30270 0.78650 0.26950 0.04000
C 	C 	0.38468 0.74345 0.32705 0.53400
C 	C 	0.39101 0.72178 0.31055 -0.17200
C 	C 	0.41352 0.71143 0.30704 0.00200
H 	H 	0.42760 0.71600 0.31590 -0.01100
C 	C 	0.45064 0.82184 0.39047 0.53500
C 	C 	0.47727 0.82721 0.39471 -0.15400
C 	C 	0.48680 0.84720 0.40690 0.00800
H 	H 	0.47710 0.85950 0.41440 0.04000
O 	O 	0.36107 0.87189 0.31772 -0.66400
S 	S 	0.32120 0.90120 0.26566 0.02000
C 	C 	0.36420 0.89670 0.24370 -0.04600
C 	C 	0.34610 0.89070 0.28270 -0.09000
C 	C 	0.34030 0.87790 0.30890 0.43300
C 	C 	0.36790 0.89030 0.26620 0.01900
C 	C 	0.33850 0.90520 0.23940 -0.09600
Zr	Zr	0.90871 0.28756 0.86217 3.17300
Zr	Zr	0.87957 0.33878 0.83279 3.19400
S 	S 	0.93424 0.41446 0.82049 0.04000
O 	O 	0.91471 0.37543 0.87880 -0.63800
O 	O 	0.90663 0.37116 0.83768 -0.68600
O 	O 	0.95769 0.45049 0.78807 -0.77800
O 	O 	0.97566 0.47413 0.81740 -0.66400
O 	O 	0.85911 0.32715 0.79785 -0.69000
O 	O 	0.83958 0.29061 0.80549 -0.64900
O 	O 	0.86260 0.25093 0.82708 -0.66300
O 	O 	0.90284 0.25221 0.83925 -0.78100
O 	O 	0.94537 0.30359 0.87684 -0.78100
O 	O 	0.93558 0.33701 0.90044 -0.68000
O 	O 	0.90157 0.32560 0.86168 -1.50000
O 	O 	0.88340 0.29724 0.83066 -1.14600
C 	C 	0.91657 0.38185 0.85625 0.50900
C 	C 	0.93201 0.40381 0.85056 -0.13500
C 	C 	0.94567 0.41792 0.86660 -0.00100
H 	H 	0.94660 0.41510 0.88370 0.04400
C 	C 	0.95843 0.43765 0.85384 0.02100
H 	H 	0.96900 0.44890 0.86170 0.03500
C 	C 	0.95354 0.43821 0.82930 -0.16100
C 	C 	0.96330 0.45571 0.81003 0.54500
C 	C 	0.84391 0.31007 0.79284 0.51600
C 	C 	0.82945 0.31327 0.76946 -0.14300
C 	C 	0.80944 0.30013 0.76120 0.01200
H 	H 	0.80270 0.28650 0.76950 0.04000
C 	C 	0.88468 0.24345 0.82705 0.53400
C 	C 	0.89101 0.22178 0.81055 -0.17200
C 	C 	0.91352 0.21143 0.80704 0.00200
H 	H 	0.92760 0.21600 0.81590 -0.01100
C 	C 	0.95064 0.32184 0.89047 0.53500
C 	C 	0.97727 0.32721 0.89471 -0.15400
C 	C 	0.98680 0.34720 0.90690 0.00800
H 	H 	0.97710 0.35950 0.91440 0.04000
O 	O 	0.86107 0.37189 0.81772 -0.66400
S 	S 	0.82120 0.40120 0.76566 0.02000
C 	C 	0.86420 0.39670 0.74370 -0.04600
C 	C 	0.84610 0.39070 0.78270 -0.09000
C 	C 	0.84030 0.37790 0.80890 0.43200
C 	C 	0.86790 0.39030 0.76620 0.01900
C 	C 	0.83850 0.40520 0.73940 -0.09600
Zr	Zr	0.59129 0.21244 0.36217 3.17300
Zr	Zr	0.62043 0.16122 0.33279 3.19400
S 	S 	0.56576 0.08554 0.32049 0.04000
O 	O 	0.58529 0.12457 0.37880 -0.63800
O 	O 	0.59337 0.12884 0.33768 -0.68600
O 	O 	0.54231 0.04951 0.28807 -0.77800
O 	O 	0.52434 0.02587 0.31740 -0.66400
O 	O 	0.64089 0.17285 0.29785 -0.69000
O 	O 	0.66042 0.20939 0.30549 -0.64900
O 	O 	0.63740 0.24907 0.32708 -0.66300
O 	O 	0.59716 0.24779 0.33925 -0.78100
O 	O 	0.55463 0.19641 0.37684 -0.78100
O 	O 	0.56442 0.16299 0.40044 -0.68000
O 	O 	0.59843 0.17440 0.36168 -1.50000
O 	O 	0.61660 0.20276 0.33066 -1.14600
C 	C 	0.58343 0.11815 0.35625 0.50900
C 	C 	0.56799 0.09619 0.35056 -0.13500
C 	C 	0.55433 0.08208 0.36660 -0.00100
H 	H 	0.55340 0.08490 0.38370 0.04400
C 	C 	0.54157 0.06235 0.35384 0.02100
H 	H 	0.53100 0.05110 0.36170 0.03500
C 	C 	0.54646 0.06179 0.32930 -0.16100
C 	C 	0.53670 0.04429 0.31003 0.54500
C 	C 	0.65609 0.18993 0.29284 0.51600
C 	C 	0.67055 0.18673 0.26946 -0.14300
C 	C 	0.69056 0.19987 0.26120 0.01200
H 	H 	0.69730 0.21350 0.26950 0.04000
C 	C 	0.61532 0.25655 0.32705 0.53400
C 	C 	0.60899 0.27822 0.31055 -0.17200
C 	C 	0.58648 0.28857 0.30704 0.00200
H 	H 	0.57240 0.28400 0.31590 -0.01100
C 	C 	0.54936 0.17816 0.39047 0.53500
C 	C 	0.52273 0.17279 0.39471 -0.15400
C 	C 	0.51320 0.15280 0.40690 0.00800
H 	H 	0.52290 0.14050 0.41440 0.04000
O 	O 	0.63893 0.12811 0.31772 -0.66400
S 	S 	0.67880 0.09880 0.26566 0.02000
C 	C 	0.63580 0.10330 0.24370 -0.04600
C 	C 	0.65390 0.10930 0.28270 -0.09000
C 	C 	0.65970 0.12210 0.30890 0.43200
C 	C 	0.63210 0.10970 0.26620 0.01900
C 	C 	0.66150 0.09480 0.23940 -0.09600
Zr	Zr	0.09129 0.71244 0.86217 3.17300
Zr	Zr	0.12043 0.66122 0.83279 3.19400
S 	S 	0.06576 0.58554 0.82049 0.04000
O 	O 	0.08529 0.62457 0.87880 -0.63800
O 	O 	0.09337 0.62884 0.83768 -0.68600
O 	O 	0.04231 0.54951 0.78807 -0.77800
O 	O 	0.02434 0.52587 0.81740 -0.66400
O 	O 	0.14089 0.67285 0.79785 -0.69000
O 	O 	0.16042 0.70939 0.80549 -0.64900
O 	O 	0.13740 0.74907 0.82708 -0.66300
O 	O 	0.09716 0.74779 0.83925 -0.78100
O 	O 	0.05463 0.69641 0.87684 -0.78100
O 	O 	0.06442 0.66299 0.90044 -0.68000
O 	O 	0.09843 0.67440 0.86168 -1.50000
O 	O 	0.11660 0.70276 0.83066 -1.14600
C 	C 	0.08343 0.61815 0.85625 0.50900
C 	C 	0.06799 0.59619 0.85056 -0.13500
C 	C 	0.05433 0.58208 0.86660 -0.00100
H 	H 	0.05340 0.58490 0.88370 0.04400
C 	C 	0.04157 0.56235 0.85384 0.02100
H 	H 	0.03100 0.55110 0.86170 0.03500
C 	C 	0.04646 0.56179 0.82930 -0.16100
C 	C 	0.03670 0.54429 0.81003 0.54500
C 	C 	0.15609 0.68993 0.79284 0.51600
C 	C 	0.17055 0.68673 0.76946 -0.14300
C 	C 	0.19056 0.69987 0.76120 0.01200
H 	H 	0.19730 0.71350 0.76950 0.04000
C 	C 	0.11532 0.75655 0.82705 0.53400
C 	C 	0.10899 0.77822 0.81055 -0.17200
C 	C 	0.08648 0.78857 0.80704 0.00200
H 	H 	0.07240 0.78400 0.81590 -0.01100
C 	C 	0.04936 0.67816 0.89047 0.53500
C 	C 	0.02273 0.67279 0.89471 -0.15400
C 	C 	0.01320 0.65280 0.90690 0.00700
H 	H 	0.02290 0.64050 0.91440 0.04000
O 	O 	0.13893 0.62811 0.81772 -0.66400
S 	S 	0.17880 0.59880 0.76566 0.02000
C 	C 	0.13580 0.60330 0.74370 -0.04600
C 	C 	0.15390 0.60930 0.78270 -0.09000
C 	C 	0.15970 0.62210 0.80890 0.43300
C 	C 	0.13210 0.60970 0.76620 0.01900
C 	C 	0.16150 0.59480 0.73940 -0.09600
Zr	Zr	0.40871 0.21244 0.63783 3.17300
Zr	Zr	0.37957 0.16122 0.66721 3.19400
S 	S 	0.43424 0.08554 0.67951 0.04000
O 	O 	0.41471 0.12457 0.62120 -0.63800
O 	O 	0.40663 0.12884 0.66232 -0.68600
O 	O 	0.45769 0.04951 0.71193 -0.77800
O 	O 	0.47566 0.02587 0.68260 -0.66400
O 	O 	0.35911 0.17285 0.70215 -0.69000
O 	O 	0.33958 0.20939 0.69451 -0.64900
O 	O 	0.36260 0.24907 0.67292 -0.66300
O 	O 	0.40284 0.24779 0.66075 -0.78100
O 	O 	0.44537 0.19641 0.62316 -0.78100
O 	O 	0.43558 0.16299 0.59956 -0.68000
O 	O 	0.40157 0.17440 0.63832 -1.50000
O 	O 	0.38340 0.20276 0.66934 -1.14600
C 	C 	0.41657 0.11815 0.64375 0.50900
C 	C 	0.43201 0.09619 0.64944 -0.13500
C 	C 	0.44567 0.08208 0.63340 -0.00100
H 	H 	0.44660 0.08490 0.61630 0.04400
C 	C 	0.45843 0.06235 0.64616 0.02100
H 	H 	0.46900 0.05110 0.63830 0.03500
C 	C 	0.45354 0.06179 0.67070 -0.16100
C 	C 	0.46330 0.04429 0.68997 0.54500
C 	C 	0.34391 0.18993 0.70716 0.51600
C 	C 	0.32945 0.18673 0.73054 -0.14300
C 	C 	0.30944 0.19987 0.73880 0.01200
H 	H 	0.30270 0.21350 0.73050 0.04000
C 	C 	0.38468 0.25655 0.67295 0.53400
C 	C 	0.39101 0.27822 0.68945 -0.17200
C 	C 	0.41352 0.28857 0.69296 0.00200
H 	H 	0.42760 0.28400 0.68410 -0.01100
C 	C 	0.45064 0.17816 0.60953 0.53500
C 	C 	0.47727 0.17279 0.60529 -0.15400
C 	C 	0.48680 0.15280 0.59310 0.00800
H 	H 	0.47710 0.14050 0.58560 0.04000
O 	O 	0.36107 0.12811 0.68228 -0.66400
S 	S 	0.32120 0.09880 0.73434 0.02000
C 	C 	0.36420 0.10330 0.75630 -0.04600
C 	C 	0.34610 0.10930 0.71730 -0.09000
C 	C 	0.34030 0.12210 0.69110 0.43200
C 	C 	0.36790 0.10970 0.73380 0.01900
C 	C 	0.33850 0.09480 0.76060 -0.09600
Zr	Zr	0.90871 0.71244 0.13783 3.17300
Zr	Zr	0.87957 0.66122 0.16721 3.19400
S 	S 	0.93424 0.58554 0.17951 0.04000
O 	O 	0.91471 0.62457 0.12120 -0.63800
O 	O 	0.90663 0.62884 0.16232 -0.68600
O 	O 	0.95769 0.54951 0.21193 -0.77800
O 	O 	0.97566 0.52587 0.18260 -0.66400
O 	O 	0.85911 0.67285 0.20215 -0.69000
O 	O 	0.83958 0.70939 0.19451 -0.64900
O 	O 	0.86260 0.74907 0.17292 -0.66300
O 	O 	0.90284 0.74779 0.16075 -0.78100
O 	O 	0.94537 0.69641 0.12316 -0.78100
O 	O 	0.93558 0.66299 0.09956 -0.68000
O 	O 	0.90157 0.67440 0.13832 -1.50000
O 	O 	0.88340 0.70276 0.16934 -1.14600
C 	C 	0.91657 0.61815 0.14375 0.50900
C 	C 	0.93201 0.59619 0.14944 -0.13500
C 	C 	0.94567 0.58208 0.13340 -0.00100
H 	H 	0.94660 0.58490 0.11630 0.04400
C 	C 	0.95843 0.56235 0.14616 0.02100
H 	H 	0.96900 0.55110 0.13830 0.03500
C 	C 	0.95354 0.56179 0.17070 -0.16100
C 	C 	0.96330 0.54429 0.18997 0.54500
C 	C 	0.84391 0.68993 0.20716 0.51600
C 	C 	0.82945 0.68673 0.23054 -0.14300
C 	C 	0.80944 0.69987 0.23880 0.01200
H 	H 	0.80270 0.71350 0.23050 0.04000
C 	C 	0.88468 0.75655 0.17295 0.53400
C 	C 	0.89101 0.77822 0.18945 -0.17200
C 	C 	0.91352 0.78857 0.19296 0.00200
H 	H 	0.92760 0.78400 0.18410 -0.01100
C 	C 	0.95064 0.67816 0.10953 0.53500
C 	C 	0.97727 0.67279 0.10529 -0.15400
C 	C 	0.98680 0.65280 0.09310 0.00800
H 	H 	0.97710 0.64050 0.08560 0.04000
O 	O 	0.86107 0.62811 0.18228 -0.66400
S 	S 	0.82120 0.59880 0.23434 0.02000
C 	C 	0.86420 0.60330 0.25630 -0.04600
C 	C 	0.84610 0.60930 0.21730 -0.09000
C 	C 	0.84030 0.62210 0.19110 0.43300
C 	C 	0.86790 0.60970 0.23380 0.01900
C 	C 	0.83850 0.59480 0.26060 -0.09600
Zr	Zr	0.59129 0.63783 0.21244 3.17300
Zr	Zr	0.62043 0.66721 0.16122 3.19400
S 	S 	0.56576 0.67951 0.08554 0.04000
O 	O 	0.58529 0.62120 0.12457 -0.63800
O 	O 	0.59337 0.66232 0.12884 -0.68600
O 	O 	0.54231 0.71193 0.04951 -0.77800
O 	O 	0.52434 0.68260 0.02587 -0.66400
O 	O 	0.64089 0.70215 0.17285 -0.69000
O 	O 	0.66042 0.69451 0.20939 -0.64900
O 	O 	0.63740 0.67292 0.24907 -0.66300
O 	O 	0.59716 0.66075 0.24779 -0.78100
O 	O 	0.55463 0.62316 0.19641 -0.78100
O 	O 	0.56442 0.59956 0.16299 -0.68000
O 	O 	0.59843 0.63832 0.17440 -1.50000
O 	O 	0.61660 0.66934 0.20276 -1.14600
C 	C 	0.58343 0.64375 0.11815 0.50900
C 	C 	0.56799 0.64944 0.09619 -0.13500
C 	C 	0.55433 0.63340 0.08208 -0.00100
H 	H 	0.55340 0.61630 0.08490 0.04400
C 	C 	0.54157 0.64616 0.06235 0.02100
H 	H 	0.53100 0.63830 0.05110 0.03500
C 	C 	0.54646 0.67070 0.06179 -0.16100
C 	C 	0.53670 0.68997 0.04429 0.54500
C 	C 	0.65609 0.70716 0.18993 0.51600
C 	C 	0.67055 0.73054 0.18673 -0.14300
C 	C 	0.69056 0.73880 0.19987 0.01200
H 	H 	0.69730 0.73050 0.21350 0.04000
C 	C 	0.61532 0.67295 0.25655 0.53400
C 	C 	0.60899 0.68945 0.27822 -0.17200
C 	C 	0.58648 0.69296 0.28857 0.00200
H 	H 	0.57240 0.68410 0.28400 -0.01100
C 	C 	0.54936 0.60953 0.17816 0.53500
C 	C 	0.52273 0.60529 0.17279 -0.15400
C 	C 	0.51320 0.59310 0.15280 0.00800
H 	H 	0.52290 0.58560 0.14050 0.04000
O 	O 	0.63893 0.68228 0.12811 -0.66400
S 	S 	0.67880 0.73434 0.09880 0.02000
C 	C 	0.63580 0.75630 0.10330 -0.04600
C 	C 	0.65390 0.71730 0.10930 -0.09000
C 	C 	0.65970 0.69110 0.12210 0.43200
C 	C 	0.63210 0.73380 0.10970 0.01900
C 	C 	0.66150 0.76060 0.09480 -0.09600
Zr	Zr	0.09129 0.13783 0.71244 3.17300
Zr	Zr	0.12043 0.16721 0.66122 3.19400
S 	S 	0.06576 0.17951 0.58554 0.04000
O 	O 	0.08529 0.12120 0.62457 -0.63800
O 	O 	0.09337 0.16232 0.62884 -0.68600
O 	O 	0.04231 0.21193 0.54951 -0.77800
O 	O 	0.02434 0.18260 0.52587 -0.66400
O 	O 	0.14089 0.20215 0.67285 -0.69000
O 	O 	0.16042 0.19451 0.70939 -0.64900
O 	O 	0.13740 0.17292 0.74907 -0.66300
O 	O 	0.09716 0.16075 0.74779 -0.78100
O 	O 	0.05463 0.12316 0.69641 -0.78100
O 	O 	0.06442 0.09956 0.66299 -0.68000
O 	O 	0.09843 0.13832 0.67440 -1.50000
O 	O 	0.11660 0.16934 0.70276 -1.14600
C 	C 	0.08343 0.14375 0.61815 0.50900
C 	C 	0.06799 0.14944 0.59619 -0.13500
C 	C 	0.05433 0.13340 0.58208 -0.00100
H 	H 	0.05340 0.11630 0.58490 0.04400
C 	C 	0.04157 0.14616 0.56235 0.02100
H 	H 	0.03100 0.13830 0.55110 0.03500
C 	C 	0.04646 0.17070 0.56179 -0.16100
C 	C 	0.03670 0.18997 0.54429 0.54500
C 	C 	0.15609 0.20716 0.68993 0.51600
C 	C 	0.17055 0.23054 0.68673 -0.14300
C 	C 	0.19056 0.23880 0.69987 0.01200
H 	H 	0.19730 0.23050 0.71350 0.04000
C 	C 	0.11532 0.17295 0.75655 0.53400
C 	C 	0.10899 0.18945 0.77822 -0.17200
C 	C 	0.08648 0.19296 0.78857 0.00200
H 	H 	0.07240 0.18410 0.78400 -0.01100
C 	C 	0.04936 0.10953 0.67816 0.53500
C 	C 	0.02273 0.10529 0.67279 -0.15400
C 	C 	0.01320 0.09310 0.65280 0.00700
H 	H 	0.02290 0.08560 0.64050 0.04000
O 	O 	0.13893 0.18228 0.62811 -0.66400
S 	S 	0.17880 0.23434 0.59880 0.02000
C 	C 	0.13580 0.25630 0.60330 -0.04600
C 	C 	0.15390 0.21730 0.60930 -0.09000
C 	C 	0.15970 0.19110 0.62210 0.43300
C 	C 	0.13210 0.23380 0.60970 0.01900
C 	C 	0.16150 0.26060 0.59480 -0.09600
Zr	Zr	0.40871 0.36217 0.21244 3.17300
Zr	Zr	0.37957 0.33279 0.16122 3.19400
S 	S 	0.43424 0.32049 0.08554 0.04000
O 	O 	0.41471 0.37880 0.12457 -0.63800
O 	O 	0.40663 0.33768 0.12884 -0.68600
O 	O 	0.45769 0.28807 0.04951 -0.77800
O 	O 	0.47566 0.31740 0.02587 -0.66400
O 	O 	0.35911 0.29785 0.17285 -0.69000
O 	O 	0.33958 0.30549 0.20939 -0.64900
O 	O 	0.36260 0.32708 0.24907 -0.66300
O 	O 	0.40284 0.33925 0.24779 -0.78100
O 	O 	0.44537 0.37684 0.19641 -0.78100
O 	O 	0.43558 0.40044 0.16299 -0.68000
O 	O 	0.40157 0.36168 0.17440 -1.50000
O 	O 	0.38340 0.33066 0.20276 -1.14600
C 	C 	0.41657 0.35625 0.11815 0.50900
C 	C 	0.43201 0.35056 0.09619 -0.13500
C 	C 	0.44567 0.36660 0.08208 -0.00100
H 	H 	0.44660 0.38370 0.08490 0.04400
C 	C 	0.45843 0.35384 0.06235 0.02100
H 	H 	0.46900 0.36170 0.05110 0.03500
C 	C 	0.45354 0.32930 0.06179 -0.16100
C 	C 	0.46330 0.31003 0.04429 0.54500
C 	C 	0.34391 0.29284 0.18993 0.51600
C 	C 	0.32945 0.26946 0.18673 -0.14300
C 	C 	0.30944 0.26120 0.19987 0.01200
H 	H 	0.30270 0.26950 0.21350 0.04000
C 	C 	0.38468 0.32705 0.25655 0.53400
C 	C 	0.39101 0.31055 0.27822 -0.17200
C 	C 	0.41352 0.30704 0.28857 0.00200
H 	H 	0.42760 0.31590 0.28400 -0.01100
C 	C 	0.45064 0.39047 0.17816 0.53500
C 	C 	0.47727 0.39471 0.17279 -0.15400
C 	C 	0.48680 0.40690 0.15280 0.00800
H 	H 	0.47710 0.41440 0.14050 0.04000
O 	O 	0.36107 0.31772 0.12811 -0.66400
S 	S 	0.32120 0.26566 0.09880 0.02000
C 	C 	0.36420 0.24370 0.10330 -0.04600
C 	C 	0.34610 0.28270 0.10930 -0.09000
C 	C 	0.34030 0.30890 0.12210 0.43200
C 	C 	0.36790 0.26620 0.10970 0.01900
C 	C 	0.33850 0.23940 0.09480 -0.09600
Zr	Zr	0.90871 0.86217 0.71244 3.17300
Zr	Zr	0.87957 0.83279 0.66122 3.19400
S 	S 	0.93424 0.82049 0.58554 0.04000
O 	O 	0.91471 0.87880 0.62457 -0.63800
O 	O 	0.90663 0.83768 0.62884 -0.68600
O 	O 	0.95769 0.78807 0.54951 -0.77800
O 	O 	0.97566 0.81740 0.52587 -0.66400
O 	O 	0.85911 0.79785 0.67285 -0.69000
O 	O 	0.83958 0.80549 0.70939 -0.64900
O 	O 	0.86260 0.82708 0.74907 -0.66300
O 	O 	0.90284 0.83925 0.74779 -0.78100
O 	O 	0.94537 0.87684 0.69641 -0.78100
O 	O 	0.93558 0.90044 0.66299 -0.68000
O 	O 	0.90157 0.86168 0.67440 -1.50000
O 	O 	0.88340 0.83066 0.70276 -1.14600
C 	C 	0.91657 0.85625 0.61815 0.50900
C 	C 	0.93201 0.85056 0.59619 -0.13500
C 	C 	0.94567 0.86660 0.58208 -0.00100
H 	H 	0.94660 0.88370 0.58490 0.04400
C 	C 	0.95843 0.85384 0.56235 0.02100
H 	H 	0.96900 0.86170 0.55110 0.03500
C 	C 	0.95354 0.82930 0.56179 -0.16100
C 	C 	0.96330 0.81003 0.54429 0.54500
C 	C 	0.84391 0.79284 0.68993 0.51600
C 	C 	0.82945 0.76946 0.68673 -0.14300
C 	C 	0.80944 0.76120 0.69987 0.01200
H 	H 	0.80270 0.76950 0.71350 0.04000
C 	C 	0.88468 0.82705 0.75655 0.53400
C 	C 	0.89101 0.81055 0.77822 -0.17200
C 	C 	0.91352 0.80704 0.78857 0.00200
H 	H 	0.92760 0.81590 0.78400 -0.01100
C 	C 	0.95064 0.89047 0.67816 0.53500
C 	C 	0.97727 0.89471 0.67279 -0.15400
C 	C 	0.98680 0.90690 0.65280 0.00800
H 	H 	0.97710 0.91440 0.64050 0.04000
O 	O 	0.86107 0.81772 0.62811 -0.66400
S 	S 	0.82120 0.76566 0.59880 0.02000
C 	C 	0.86420 0.74370 0.60330 -0.04600
C 	C 	0.84610 0.78270 0.60930 -0.09000
C 	C 	0.84030 0.80890 0.62210 0.43200
C 	C 	0.86790 0.76620 0.60970 0.01900
C 	C 	0.83850 0.73940 0.59480 -0.09600
Zr	Zr	0.59129 0.36217 0.78756 3.17300
Zr	Zr	0.62043 0.33279 0.83878 3.19400
S 	S 	0.56576 0.32049 0.91446 0.04000
O 	O 	0.58529 0.37880 0.87543 -0.63800
O 	O 	0.59337 0.33768 0.87116 -0.68600
O 	O 	0.54231 0.28807 0.95049 -0.77800
O 	O 	0.52434 0.31740 0.97413 -0.66400
O 	O 	0.64089 0.29785 0.82715 -0.69000
O 	O 	0.66042 0.30549 0.79061 -0.64900
O 	O 	0.63740 0.32708 0.75093 -0.66300
O 	O 	0.59716 0.33925 0.75221 -0.78100
O 	O 	0.55463 0.37684 0.80359 -0.78100
O 	O 	0.56442 0.40044 0.83701 -0.68000
O 	O 	0.59843 0.36168 0.82560 -1.50000
O 	O 	0.61660 0.33066 0.79724 -1.14600
C 	C 	0.58343 0.35625 0.88185 0.50900
C 	C 	0.56799 0.35056 0.90381 -0.13500
C 	C 	0.55433 0.36660 0.91792 -0.00100
H 	H 	0.55340 0.38370 0.91510 0.04400
C 	C 	0.54157 0.35384 0.93765 0.02100
H 	H 	0.53100 0.36170 0.94890 0.03500
C 	C 	0.54646 0.32930 0.93821 -0.16100
C 	C 	0.53670 0.31003 0.95571 0.54500
C 	C 	0.65609 0.29284 0.81007 0.51600
C 	C 	0.67055 0.26946 0.81327 -0.14300
C 	C 	0.69056 0.26120 0.80013 0.01200
H 	H 	0.69730 0.26950 0.78650 0.04000
C 	C 	0.61532 0.32705 0.74345 0.53400
C 	C 	0.60899 0.31055 0.72178 -0.17200
C 	C 	0.58648 0.30704 0.71143 0.00200
H 	H 	0.57240 0.31590 0.71600 -0.01100
C 	C 	0.54936 0.39047 0.82184 0.53500
C 	C 	0.52273 0.39471 0.82721 -0.15400
C 	C 	0.51320 0.40690 0.84720 0.00800
H 	H 	0.52290 0.41440 0.85950 0.04000
O 	O 	0.63893 0.31772 0.87189 -0.66400
S 	S 	0.67880 0.26566 0.90120 0.02000
C 	C 	0.63580 0.24370 0.89670 -0.04600
C 	C 	0.65390 0.28270 0.89070 -0.09000
C 	C 	0.65970 0.30890 0.87790 0.43300
C 	C 	0.63210 0.26620 0.89030 0.01900
C 	C 	0.66150 0.23940 0.90520 -0.09600
Zr	Zr	0.09129 0.86217 0.28756 3.17300
Zr	Zr	0.12043 0.83279 0.33878 3.19400
S 	S 	0.06576 0.82049 0.41446 0.04000
O 	O 	0.08529 0.87880 0.37543 -0.63800
O 	O 	0.09337 0.83768 0.37116 -0.68600
O 	O 	0.04231 0.78807 0.45049 -0.77800
O 	O 	0.02434 0.81740 0.47413 -0.66400
O 	O 	0.14089 0.79785 0.32715 -0.69000
O 	O 	0.16042 0.80549 0.29061 -0.64900
O 	O 	0.13740 0.82708 0.25093 -0.66300
O 	O 	0.09716 0.83925 0.25221 -0.78100
O 	O 	0.05463 0.87684 0.30359 -0.78100
O 	O 	0.06442 0.90044 0.33701 -0.68000
O 	O 	0.09843 0.86168 0.32560 -1.50000
O 	O 	0.11660 0.83066 0.29724 -1.14600
C 	C 	0.08343 0.85625 0.38185 0.50900
C 	C 	0.06799 0.85056 0.40381 -0.13500
C 	C 	0.05433 0.86660 0.41792 -0.00100
H 	H 	0.05340 0.88370 0.41510 0.04400
C 	C 	0.04157 0.85384 0.43765 0.02100
H 	H 	0.03100 0.86170 0.44890 0.03500
C 	C 	0.04646 0.82930 0.43821 -0.16100
C 	C 	0.03670 0.81003 0.45571 0.54500
C 	C 	0.15609 0.79284 0.31007 0.51600
C 	C 	0.17055 0.76946 0.31327 -0.14300
C 	C 	0.19056 0.76120 0.30013 0.01200
H 	H 	0.19730 0.76950 0.28650 0.04000
C 	C 	0.11532 0.82705 0.24345 0.53400
C 	C 	0.10899 0.81055 0.22178 -0.17200
C 	C 	0.08648 0.80704 0.21143 0.00200
H 	H 	0.07240 0.81590 0.21600 -0.01100
C 	C 	0.04936 0.89047 0.32184 0.53500
C 	C 	0.02273 0.89471 0.32721 -0.15400
C 	C 	0.01320 0.90690 0.34720 0.00700
H 	H 	0.02290 0.91440 0.35950 0.04000
O 	O 	0.13893 0.81772 0.37189 -0.66400
S 	S 	0.17880 0.76566 0.40120 0.02000
C 	C 	0.13580 0.74370 0.39670 -0.04600
C 	C 	0.15390 0.78270 0.39070 -0.09000
C 	C 	0.15970 0.80890 0.37790 0.43300
C 	C 	0.13210 0.76620 0.39030 0.01900
C 	C 	0.16150 0.73940 0.40520 -0.09600
Zr	Zr	0.40871 0.63783 0.78756 3.17300
Zr	Zr	0.37957 0.66721 0.83878 3.19400
S 	S 	0.43424 0.67951 0.91446 0.04000
O 	O 	0.41471 0.62120 0.87543 -0.63800
O 	O 	0.40663 0.66232 0.87116 -0.68600
O 	O 	0.45769 0.71193 0.95049 -0.77800
O 	O 	0.47566 0.68260 0.97413 -0.66400
O 	O 	0.35911 0.70215 0.82715 -0.69000
O 	O 	0.33958 0.69451 0.79061 -0.64900
O 	O 	0.36260 0.67292 0.75093 -0.66300
O 	O 	0.40284 0.66075 0.75221 -0.78100
O 	O 	0.44537 0.62316 0.80359 -0.78100
O 	O 	0.43558 0.59956 0.83701 -0.68000
O 	O 	0.40157 0.63832 0.82560 -1.50000
O 	O 	0.38340 0.66934 0.79724 -1.14600
C 	C 	0.41657 0.64375 0.88185 0.50900
C 	C 	0.43201 0.64944 0.90381 -0.13500
C 	C 	0.44567 0.63340 0.91792 -0.00100
H 	H 	0.44660 0.61630 0.91510 0.04400
C 	C 	0.45843 0.64616 0.93765 0.02100
H 	H 	0.46900 0.63830 0.94890 0.03500
C 	C 	0.45354 0.67070 0.93821 -0.16100
C 	C 	0.46330 0.68997 0.95571 0.54500
C 	C 	0.34391 0.70716 0.81007 0.51600
C 	C 	0.32945 0.73054 0.81327 -0.14300
C 	C 	0.30944 0.73880 0.80013 0.01200
H 	H 	0.30270 0.73050 0.78650 0.04000
C 	C 	0.38468 0.67295 0.74345 0.53400
C 	C 	0.39101 0.68945 0.72178 -0.17200
C 	C 	0.41352 0.69296 0.71143 0.00200
H 	H 	0.42760 0.68410 0.71600 -0.01100
C 	C 	0.45064 0.60953 0.82184 0.53500
C 	C 	0.47727 0.60529 0.82721 -0.15400
C 	C 	0.48680 0.59310 0.84720 0.00800
H 	H 	0.47710 0.58560 0.85950 0.04000
O 	O 	0.36107 0.68228 0.87189 -0.66400
S 	S 	0.32120 0.73434 0.90120 0.02000
C 	C 	0.36420 0.75630 0.89670 -0.04600
C 	C 	0.34610 0.71730 0.89070 -0.09000
C 	C 	0.34030 0.69110 0.87790 0.43300
C 	C 	0.36790 0.73380 0.89030 0.01900
C 	C 	0.33850 0.76060 0.90520 -0.09600
Zr	Zr	0.90871 0.13783 0.28756 3.17300
Zr	Zr	0.87957 0.16721 0.33878 3.19400
S 	S 	0.93424 0.17951 0.41446 0.04000
O 	O 	0.91471 0.12120 0.37543 -0.63800
O 	O 	0.90663 0.16232 0.37116 -0.68600
O 	O 	0.95769 0.21193 0.45049 -0.77800
O 	O 	0.97566 0.18260 0.47413 -0.66400
O 	O 	0.85911 0.20215 0.32715 -0.69000
O 	O 	0.83958 0.19451 0.29061 -0.64900
O 	O 	0.86260 0.17292 0.25093 -0.66300
O 	O 	0.90284 0.16075 0.25221 -0.78100
O 	O 	0.94537 0.12316 0.30359 -0.78100
O 	O 	0.93558 0.09956 0.33701 -0.68000
O 	O 	0.90157 0.13832 0.32560 -1.50000
O 	O 	0.88340 0.16934 0.29724 -1.14600
C 	C 	0.91657 0.14375 0.38185 0.50900
C 	C 	0.93201 0.14944 0.40381 -0.13500
C 	C 	0.94567 0.13340 0.41792 -0.00100
H 	H 	0.94660 0.11630 0.41510 0.04400
C 	C 	0.95843 0.14616 0.43765 0.02100
H 	H 	0.96900 0.13830 0.44890 0.03500
C 	C 	0.95354 0.17070 0.43821 -0.16100
C 	C 	0.96330 0.18997 0.45571 0.54500
C 	C 	0.84391 0.20716 0.31007 0.51600
C 	C 	0.82945 0.23054 0.31327 -0.14300
C 	C 	0.80944 0.23880 0.30013 0.01200
H 	H 	0.80270 0.23050 0.28650 0.04000
C 	C 	0.88468 0.17295 0.24345 0.53400
C 	C 	0.89101 0.18945 0.22178 -0.17200
C 	C 	0.91352 0.19296 0.21143 0.00200
H 	H 	0.92760 0.18410 0.21600 -0.01100
C 	C 	0.95064 0.10953 0.32184 0.53500
C 	C 	0.97727 0.10529 0.32721 -0.15400
C 	C 	0.98680 0.09310 0.34720 0.00800
H 	H 	0.97710 0.08560 0.35950 0.04000
O 	O 	0.86107 0.18228 0.37189 -0.66400
S 	S 	0.82120 0.23434 0.40120 0.02000
C 	C 	0.86420 0.25630 0.39670 -0.04600
C 	C 	0.84610 0.21730 0.39070 -0.09000
C 	C 	0.84030 0.19110 0.37790 0.43300
C 	C 	0.86790 0.23380 0.39030 0.01900
C 	C 	0.83850 0.26060 0.40520 -0.09600
Zr	Zr	0.63783 0.78756 0.40871 3.17300
Zr	Zr	0.66721 0.83878 0.37957 3.19400
S 	S 	0.67951 0.91446 0.43424 0.04000
O 	O 	0.62120 0.87543 0.41471 -0.63800
O 	O 	0.66232 0.87116 0.40663 -0.68600
O 	O 	0.71193 0.95049 0.45769 -0.77800
O 	O 	0.68260 0.97413 0.47566 -0.66400
O 	O 	0.70215 0.82715 0.35911 -0.69000
O 	O 	0.69451 0.79061 0.33958 -0.64900
O 	O 	0.67292 0.75093 0.36260 -0.66300
O 	O 	0.66075 0.75221 0.40284 -0.78100
O 	O 	0.62316 0.80359 0.44537 -0.78100
O 	O 	0.59956 0.83701 0.43558 -0.68000
O 	O 	0.63832 0.82560 0.40157 -1.50000
O 	O 	0.66934 0.79724 0.38340 -1.14600
C 	C 	0.64375 0.88185 0.41657 0.50900
C 	C 	0.64944 0.90381 0.43201 -0.13500
C 	C 	0.63340 0.91792 0.44567 -0.00100
H 	H 	0.61630 0.91510 0.44660 0.04400
C 	C 	0.64616 0.93765 0.45843 0.02100
H 	H 	0.63830 0.94890 0.46900 0.03500
C 	C 	0.67070 0.93821 0.45354 -0.16100
C 	C 	0.68997 0.95571 0.46330 0.54500
C 	C 	0.70716 0.81007 0.34391 0.51600
C 	C 	0.73054 0.81327 0.32945 -0.14300
C 	C 	0.73880 0.80013 0.30944 0.01200
H 	H 	0.73050 0.78650 0.30270 0.04000
C 	C 	0.67295 0.74345 0.38468 0.53400
C 	C 	0.68945 0.72178 0.39101 -0.17200
C 	C 	0.69296 0.71143 0.41352 0.00200
H 	H 	0.68410 0.71600 0.42760 -0.01100
C 	C 	0.60953 0.82184 0.45064 0.53500
C 	C 	0.60529 0.82721 0.47727 -0.15400
C 	C 	0.59310 0.84720 0.48680 0.00800
H 	H 	0.58560 0.85950 0.47710 0.04000
O 	O 	0.68228 0.87189 0.36107 -0.66400
S 	S 	0.73434 0.90120 0.32120 0.02000
C 	C 	0.75630 0.89670 0.36420 -0.04600
C 	C 	0.71730 0.89070 0.34610 -0.09000
C 	C 	0.69110 0.87790 0.34030 0.43300
C 	C 	0.73380 0.89030 0.36790 0.01900
C 	C 	0.76060 0.90520 0.33850 -0.09600
Zr	Zr	0.13783 0.28756 0.90871 3.17300
Zr	Zr	0.16721 0.33878 0.87957 3.19400
S 	S 	0.17951 0.41446 0.93424 0.04000
O 	O 	0.12120 0.37543 0.91471 -0.63800
O 	O 	0.16232 0.37116 0.90663 -0.68600
O 	O 	0.21193 0.45049 0.95769 -0.77800
O 	O 	0.18260 0.47413 0.97566 -0.66400
O 	O 	0.20215 0.32715 0.85911 -0.69000
O 	O 	0.19451 0.29061 0.83958 -0.64900
O 	O 	0.17292 0.25093 0.86260 -0.66300
O 	O 	0.16075 0.25221 0.90284 -0.78100
O 	O 	0.12316 0.30359 0.94537 -0.78100
O 	O 	0.09956 0.33701 0.93558 -0.68000
O 	O 	0.13832 0.32560 0.90157 -1.50000
O 	O 	0.16934 0.29724 0.88340 -1.14600
C 	C 	0.14375 0.38185 0.91657 0.50900
C 	C 	0.14944 0.40381 0.93201 -0.13500
C 	C 	0.13340 0.41792 0.94567 -0.00100
H 	H 	0.11630 0.41510 0.94660 0.04400
C 	C 	0.14616 0.43765 0.95843 0.02100
H 	H 	0.13830 0.44890 0.96900 0.03500
C 	C 	0.17070 0.43821 0.95354 -0.16100
C 	C 	0.18997 0.45571 0.96330 0.54500
C 	C 	0.20716 0.31007 0.84391 0.51600
C 	C 	0.23054 0.31327 0.82945 -0.14300
C 	C 	0.23880 0.30013 0.80944 0.01200
H 	H 	0.23050 0.28650 0.80270 0.04000
C 	C 	0.17295 0.24345 0.88468 0.53400
C 	C 	0.18945 0.22178 0.89101 -0.17200
C 	C 	0.19296 0.21143 0.91352 0.00200
H 	H 	0.18410 0.21600 0.92760 -0.01100
C 	C 	0.10953 0.32184 0.95064 0.53500
C 	C 	0.10529 0.32721 0.97727 -0.15400
C 	C 	0.09310 0.34720 0.98680 0.00800
H 	H 	0.08560 0.35950 0.97710 0.04000
O 	O 	0.18228 0.37189 0.86107 -0.66400
S 	S 	0.23434 0.40120 0.82120 0.02000
C 	C 	0.25630 0.39670 0.86420 -0.04600
C 	C 	0.21730 0.39070 0.84610 -0.09000
C 	C 	0.19110 0.37790 0.84030 0.43300
C 	C 	0.23380 0.39030 0.86790 0.01900
C 	C 	0.26060 0.40520 0.83850 -0.09600
Zr	Zr	0.36217 0.78756 0.59129 3.17300
Zr	Zr	0.33279 0.83878 0.62043 3.19400
S 	S 	0.32049 0.91446 0.56576 0.04000
O 	O 	0.37880 0.87543 0.58529 -0.63800
O 	O 	0.33768 0.87116 0.59337 -0.68600
O 	O 	0.28807 0.95049 0.54231 -0.77800
O 	O 	0.31740 0.97413 0.52434 -0.66400
O 	O 	0.29785 0.82715 0.64089 -0.69000
O 	O 	0.30549 0.79061 0.66042 -0.64900
O 	O 	0.32708 0.75093 0.63740 -0.66300
O 	O 	0.33925 0.75221 0.59716 -0.78100
O 	O 	0.37684 0.80359 0.55463 -0.78100
O 	O 	0.40044 0.83701 0.56442 -0.68000
O 	O 	0.36168 0.82560 0.59843 -1.50000
O 	O 	0.33066 0.79724 0.61660 -1.14600
C 	C 	0.35625 0.88185 0.58343 0.50900
C 	C 	0.35056 0.90381 0.56799 -0.13500
C 	C 	0.36660 0.91792 0.55433 -0.00100
H 	H 	0.38370 0.91510 0.55340 0.04400
C 	C 	0.35384 0.93765 0.54157 0.02100
H 	H 	0.36170 0.94890 0.53100 0.03500
C 	C 	0.32930 0.93821 0.54646 -0.16100
C 	C 	0.31003 0.95571 0.53670 0.54500
C 	C 	0.29284 0.81007 0.65609 0.51600
C 	C 	0.26946 0.81327 0.67055 -0.14300
C 	C 	0.26120 0.80013 0.69056 0.01200
H 	H 	0.26950 0.78650 0.69730 0.04000
C 	C 	0.32705 0.74345 0.61532 0.53400
C 	C 	0.31055 0.72178 0.60899 -0.17200
C 	C 	0.30704 0.71143 0.58648 0.00200
H 	H 	0.31590 0.71600 0.57240 -0.01100
C 	C 	0.39047 0.82184 0.54936 0.53500
C 	C 	0.39471 0.82721 0.52273 -0.15400
C 	C 	0.40690 0.84720 0.51320 0.00800
H 	H 	0.41440 0.85950 0.52290 0.04000
O 	O 	0.31772 0.87189 0.63893 -0.66400
S 	S 	0.26566 0.90120 0.67880 0.02000
C 	C 	0.24370 0.89670 0.63580 -0.04600
C 	C 	0.28270 0.89070 0.65390 -0.09000
C 	C 	0.30890 0.87790 0.65970 0.43300
C 	C 	0.26620 0.89030 0.63210 0.01900
C 	C 	0.23940 0.90520 0.66150 -0.09600
Zr	Zr	0.86217 0.28756 0.09129 3.17300
Zr	Zr	0.83279 0.33878 0.12043 3.19400
S 	S 	0.82049 0.41446 0.06576 0.04000
O 	O 	0.87880 0.37543 0.08529 -0.63800
O 	O 	0.83768 0.37116 0.09337 -0.68600
O 	O 	0.78807 0.45049 0.04231 -0.77800
O 	O 	0.81740 0.47413 0.02434 -0.66400
O 	O 	0.79785 0.32715 0.14089 -0.69000
O 	O 	0.80549 0.29061 0.16042 -0.64900
O 	O 	0.82708 0.25093 0.13740 -0.66300
O 	O 	0.83925 0.25221 0.09716 -0.78100
O 	O 	0.87684 0.30359 0.05463 -0.78100
O 	O 	0.90044 0.33701 0.06442 -0.68000
O 	O 	0.86168 0.32560 0.09843 -1.50000
O 	O 	0.83066 0.29724 0.11660 -1.14600
C 	C 	0.85625 0.38185 0.08343 0.50900
C 	C 	0.85056 0.40381 0.06799 -0.13500
C 	C 	0.86660 0.41792 0.05433 -0.00100
H 	H 	0.88370 0.41510 0.05340 0.04400
C 	C 	0.85384 0.43765 0.04157 0.02100
H 	H 	0.86170 0.44890 0.03100 0.03500
C 	C 	0.82930 0.43821 0.04646 -0.16100
C 	C 	0.81003 0.45571 0.03670 0.54500
C 	C 	0.79284 0.31007 0.15609 0.51600
C 	C 	0.76946 0.31327 0.17055 -0.14300
C 	C 	0.76120 0.30013 0.19056 0.01200
H 	H 	0.76950 0.28650 0.19730 0.04000
C 	C 	0.82705 0.24345 0.11532 0.53400
C 	C 	0.81055 0.22178 0.10899 -0.17200
C 	C 	0.80704 0.21143 0.08648 0.00200
H 	H 	0.81590 0.21600 0.07240 -0.01100
C 	C 	0.89047 0.32184 0.04936 0.53500
C 	C 	0.89471 0.32721 0.02273 -0.15400
C 	C 	0.90690 0.34720 0.01320 0.00700
H 	H 	0.91440 0.35950 0.02290 0.04000
O 	O 	0.81772 0.37189 0.13893 -0.66400
S 	S 	0.76566 0.40120 0.17880 0.02000
C 	C 	0.74370 0.39670 0.13580 -0.04600
C 	C 	0.78270 0.39070 0.15390 -0.09000
C 	C 	0.80890 0.37790 0.15970 0.43300
C 	C 	0.76620 0.39030 0.13210 0.01900
C 	C 	0.73940 0.40520 0.16150 -0.09600
Zr	Zr	0.36217 0.21244 0.40871 3.17300
Zr	Zr	0.33279 0.16122 0.37957 3.19400
S 	S 	0.32049 0.08554 0.43424 0.04000
O 	O 	0.37880 0.12457 0.41471 -0.63800
O 	O 	0.33768 0.12884 0.40663 -0.68600
O 	O 	0.28807 0.04951 0.45769 -0.77800
O 	O 	0.31740 0.02587 0.47566 -0.66400
O 	O 	0.29785 0.17285 0.35911 -0.69000
O 	O 	0.30549 0.20939 0.33958 -0.64900
O 	O 	0.32708 0.24907 0.36260 -0.66300
O 	O 	0.33925 0.24779 0.40284 -0.78100
O 	O 	0.37684 0.19641 0.44537 -0.78100
O 	O 	0.40044 0.16299 0.43558 -0.68000
O 	O 	0.36168 0.17440 0.40157 -1.50000
O 	O 	0.33066 0.20276 0.38340 -1.14600
C 	C 	0.35625 0.11815 0.41657 0.50900
C 	C 	0.35056 0.09619 0.43201 -0.13500
C 	C 	0.36660 0.08208 0.44567 -0.00100
H 	H 	0.38370 0.08490 0.44660 0.04400
C 	C 	0.35384 0.06235 0.45843 0.02100
H 	H 	0.36170 0.05110 0.46900 0.03500
C 	C 	0.32930 0.06179 0.45354 -0.16100
C 	C 	0.31003 0.04429 0.46330 0.54500
C 	C 	0.29284 0.18993 0.34391 0.51600
C 	C 	0.26946 0.18673 0.32945 -0.14300
C 	C 	0.26120 0.19987 0.30944 0.01200
H 	H 	0.26950 0.21350 0.30270 0.04000
C 	C 	0.32705 0.25655 0.38468 0.53400
C 	C 	0.31055 0.27822 0.39101 -0.17200
C 	C 	0.30704 0.28857 0.41352 0.00200
H 	H 	0.31590 0.28400 0.42760 -0.01100
C 	C 	0.39047 0.17816 0.45064 0.53500
C 	C 	0.39471 0.17279 0.47727 -0.15400
C 	C 	0.40690 0.15280 0.48680 0.00800
H 	H 	0.41440 0.14050 0.47710 0.04000
O 	O 	0.31772 0.12811 0.36107 -0.66400
S 	S 	0.26566 0.09880 0.32120 0.02000
C 	C 	0.24370 0.10330 0.36420 -0.04600
C 	C 	0.28270 0.10930 0.34610 -0.09000
C 	C 	0.30890 0.12210 0.34030 0.43200
C 	C 	0.26620 0.10970 0.36790 0.01900
C 	C 	0.23940 0.09480 0.33850 -0.09600
Zr	Zr	0.86217 0.71244 0.90871 3.17300
Zr	Zr	0.83279 0.66122 0.87957 3.19400
S 	S 	0.82049 0.58554 0.93424 0.04000
O 	O 	0.87880 0.62457 0.91471 -0.63800
O 	O 	0.83768 0.62884 0.90663 -0.68600
O 	O 	0.78807 0.54951 0.95769 -0.77800
O 	O 	0.81740 0.52587 0.97566 -0.66400
O 	O 	0.79785 0.67285 0.85911 -0.69000
O 	O 	0.80549 0.70939 0.83958 -0.64900
O 	O 	0.82708 0.74907 0.86260 -0.66300
O 	O 	0.83925 0.74779 0.90284 -0.78100
O 	O 	0.87684 0.69641 0.94537 -0.78100
O 	O 	0.90044 0.66299 0.93558 -0.68000
O 	O 	0.86168 0.67440 0.90157 -1.50000
O 	O 	0.83066 0.70276 0.88340 -1.14600
C 	C 	0.85625 0.61815 0.91657 0.50900
C 	C 	0.85056 0.59619 0.93201 -0.13500
C 	C 	0.86660 0.58208 0.94567 -0.00100
H 	H 	0.88370 0.58490 0.94660 0.04400
C 	C 	0.85384 0.56235 0.95843 0.02100
H 	H 	0.86170 0.55110 0.96900 0.03500
C 	C 	0.82930 0.56179 0.95354 -0.16100
C 	C 	0.81003 0.54429 0.96330 0.54500
C 	C 	0.79284 0.68993 0.84391 0.51600
C 	C 	0.76946 0.68673 0.82945 -0.14300
C 	C 	0.76120 0.69987 0.80944 0.01200
H 	H 	0.76950 0.71350 0.80270 0.04000
C 	C 	0.82705 0.75655 0.88468 0.53400
C 	C 	0.81055 0.77822 0.89101 -0.17200
C 	C 	0.80704 0.78857 0.91352 0.00200
H 	H 	0.81590 0.78400 0.92760 -0.01100
C 	C 	0.89047 0.67816 0.95064 0.53500
C 	C 	0.89471 0.67279 0.97727 -0.15400
C 	C 	0.90690 0.65280 0.98680 0.00800
H 	H 	0.91440 0.64050 0.97710 0.04000
O 	O 	0.81772 0.62811 0.86107 -0.66400
S 	S 	0.76566 0.59880 0.82120 0.02000
C 	C 	0.74370 0.60330 0.86420 -0.04600
C 	C 	0.78270 0.60930 0.84610 -0.09000
C 	C 	0.80890 0.62210 0.84030 0.43200
C 	C 	0.76620 0.60970 0.86790 0.01900
C 	C 	0.73940 0.59480 0.83850 -0.09600
Zr	Zr	0.63783 0.21244 0.59129 3.17300
Zr	Zr	0.66721 0.16122 0.62043 3.19400
S 	S 	0.67951 0.08554 0.56576 0.04000
O 	O 	0.62120 0.12457 0.58529 -0.63800
O 	O 	0.66232 0.12884 0.59337 -0.68600
O 	O 	0.71193 0.04951 0.54231 -0.77800
O 	O 	0.68260 0.02587 0.52434 -0.66400
O 	O 	0.70215 0.17285 0.64089 -0.69000
O 	O 	0.69451 0.20939 0.66042 -0.64900
O 	O 	0.67292 0.24907 0.63740 -0.66300
O 	O 	0.66075 0.24779 0.59716 -0.78100
O 	O 	0.62316 0.19641 0.55463 -0.78100
O 	O 	0.59956 0.16299 0.56442 -0.68000
O 	O 	0.63832 0.17440 0.59843 -1.50000
O 	O 	0.66934 0.20276 0.61660 -1.14600
C 	C 	0.64375 0.11815 0.58343 0.50900
C 	C 	0.64944 0.09619 0.56799 -0.13500
C 	C 	0.63340 0.08208 0.55433 -0.00100
H 	H 	0.61630 0.08490 0.55340 0.04400
C 	C 	0.64616 0.06235 0.54157 0.02100
H 	H 	0.63830 0.05110 0.53100 0.03500
C 	C 	0.67070 0.06179 0.54646 -0.16100
C 	C 	0.68997 0.04429 0.53670 0.54500
C 	C 	0.70716 0.18993 0.65609 0.51600
C 	C 	0.73054 0.18673 0.67055 -0.14300
C 	C 	0.73880 0.19987 0.69056 0.01200
H 	H 	0.73050 0.21350 0.69730 0.04000
C 	C 	0.67295 0.25655 0.61532 0.53400
C 	C 	0.68945 0.27822 0.60899 -0.17200
C 	C 	0.69296 0.28857 0.58648 0.00200
H 	H 	0.68410 0.28400 0.57240 -0.01100
C 	C 	0.60953 0.17816 0.54936 0.53500
C 	C 	0.60529 0.17279 0.52273 -0.15400
C 	C 	0.59310 0.15280 0.51320 0.00800
H 	H 	0.58560 0.14050 0.52290 0.04000
O 	O 	0.68228 0.12811 0.63893 -0.66400
S 	S 	0.73434 0.09880 0.67880 0.02000
C 	C 	0.75630 0.10330 0.63580 -0.04600
C 	C 	0.71730 0.10930 0.65390 -0.09000
C 	C 	0.69110 0.12210 0.65970 0.43200
C 	C 	0.73380 0.10970 0.63210 0.01900
C 	C 	0.76060 0.09480 0.66150 -0.09600
Zr	Zr	0.13783 0.71244 0.09129 3.17300
Zr	Zr	0.16721 0.66122 0.12043 3.19400
S 	S 	0.17951 0.58554 0.06576 0.04000
O 	O 	0.12120 0.62457 0.08529 -0.63800
O 	O 	0.16232 0.62884 0.09337 -0.68600
O 	O 	0.21193 0.54951 0.04231 -0.77800
O 	O 	0.18260 0.52587 0.02434 -0.66400
O 	O 	0.20215 0.67285 0.14089 -0.69000
O 	O 	0.19451 0.70939 0.16042 -0.64900
O 	O 	0.17292 0.74907 0.13740 -0.66300
O 	O 	0.16075 0.74779 0.09716 -0.78100
O 	O 	0.12316 0.69641 0.05463 -0.78100
O 	O 	0.09956 0.66299 0.06442 -0.68000
O 	O 	0.13832 0.67440 0.09843 -1.50000
O 	O 	0.16934 0.70276 0.11660 -1.14600
C 	C 	0.14375 0.61815 0.08343 0.50900
C 	C 	0.14944 0.59619 0.06799 -0.13500
C 	C 	0.13340 0.58208 0.05433 -0.00100
H 	H 	0.11630 0.58490 0.05340 0.04400
C 	C 	0.14616 0.56235 0.04157 0.02100
H 	H 	0.13830 0.55110 0.03100 0.03500
C 	C 	0.17070 0.56179 0.04646 -0.16100
C 	C 	0.18997 0.54429 0.03670 0.54500
C 	C 	0.20716 0.68993 0.15609 0.51600
C 	C 	0.23054 0.68673 0.17055 -0.14300
C 	C 	0.23880 0.69987 0.19056 0.01200
H 	H 	0.23050 0.71350 0.19730 0.04000
C 	C 	0.17295 0.75655 0.11532 0.53400
C 	C 	0.18945 0.77822 0.10899 -0.17200
C 	C 	0.19296 0.78857 0.08648 0.00200
H 	H 	0.18410 0.78400 0.07240 -0.01100
C 	C 	0.10953 0.67816 0.04936 0.53500
C 	C 	0.10529 0.67279 0.02273 -0.15400
C 	C 	0.09310 0.65280 0.01320 0.00700
H 	H 	0.08560 0.64050 0.02290 0.04000
O 	O 	0.18228 0.62811 0.13893 -0.66400
S 	S 	0.23434 0.59880 0.17880 0.02000
C 	C 	0.25630 0.60330 0.13580 -0.04600
C 	C 	0.21730 0.60930 0.15390 -0.09000
C 	C 	0.19110 0.62210 0.15970 0.43300
C 	C 	0.23380 0.60970 0.13210 0.01900
C 	C 	0.26060 0.59480 0.16150 -0.09600
Zr	Zr	0.78756 0.59129 0.36217 3.17300
Zr	Zr	0.83878 0.62043 0.33279 3.19400
S 	S 	0.91446 0.56576 0.32049 0.04000
O 	O 	0.87543 0.58529 0.37880 -0.63800
O 	O 	0.87116 0.59337 0.33768 -0.68600
O 	O 	0.95049 0.54231 0.28807 -0.77800
O 	O 	0.97413 0.52434 0.31740 -0.66400
O 	O 	0.82715 0.64089 0.29785 -0.69000
O 	O 	0.79061 0.66042 0.30549 -0.64900
O 	O 	0.75093 0.63740 0.32708 -0.66300
O 	O 	0.75221 0.59716 0.33925 -0.78100
O 	O 	0.80359 0.55463 0.37684 -0.78100
O 	O 	0.83701 0.56442 0.40044 -0.68000
O 	O 	0.82560 0.59843 0.36168 -1.50000
O 	O 	0.79724 0.61660 0.33066 -1.14600
C 	C 	0.88185 0.58343 0.35625 0.50900
C 	C 	0.90381 0.56799 0.35056 -0.13500
C 	C 	0.91792 0.55433 0.36660 -0.00100
H 	H 	0.91510 0.55340 0.38370 0.04400
C 	C 	0.93765 0.54157 0.35384 0.02100
H 	H 	0.94890 0.53100 0.36170 0.03500
C 	C 	0.93821 0.54646 0.32930 -0.16100
C 	C 	0.95571 0.53670 0.31003 0.54500
C 	C 	0.81007 0.65609 0.29284 0.51600
C 	C 	0.81327 0.67055 0.26946 -0.14300
C 	C 	0.80013 0.69056 0.26120 0.01200
H 	H 	0.78650 0.69730 0.26950 0.04000
C 	C 	0.74345 0.61532 0.32705 0.53400
C 	C 	0.72178 0.60899 0.31055 -0.17200
C 	C 	0.71143 0.58648 0.30704 0.00200
H 	H 	0.71600 0.57240 0.31590 -0.01100
C 	C 	0.82184 0.54936 0.39047 0.53500
C 	C 	0.82721 0.52273 0.39471 -0.15400
C 	C 	0.84720 0.51320 0.40690 0.00800
H 	H 	0.85950 0.52290 0.41440 0.04000
O 	O 	0.87189 0.63893 0.31772 -0.66400
S 	S 	0.90120 0.67880 0.26566 0.02000
C 	C 	0.89670 0.63580 0.24370 -0.04600
C 	C 	0.89070 0.65390 0.28270 -0.09000
C 	C 	0.87790 0.65970 0.30890 0.43300
C 	C 	0.89030 0.63210 0.26620 0.01900
C 	C 	0.90520 0.66150 0.23940 -0.09600
Zr	Zr	0.28756 0.09129 0.86217 3.17300
Zr	Zr	0.33878 0.12043 0.83279 3.19400
S 	S 	0.41446 0.06576 0.82049 0.04000
O 	O 	0.37543 0.08529 0.87880 -0.63800
O 	O 	0.37116 0.09337 0.83768 -0.68600
O 	O 	0.45049 0.04231 0.78807 -0.77800
O 	O 	0.47413 0.02434 0.81740 -0.66400
O 	O 	0.32715 0.14089 0.79785 -0.69000
O 	O 	0.29061 0.16042 0.80549 -0.64900
O 	O 	0.25093 0.13740 0.82708 -0.66300
O 	O 	0.25221 0.09716 0.83925 -0.78100
O 	O 	0.30359 0.05463 0.87684 -0.78100
O 	O 	0.33701 0.06442 0.90044 -0.68000
O 	O 	0.32560 0.09843 0.86168 -1.50000
O 	O 	0.29724 0.11660 0.83066 -1.14600
C 	C 	0.38185 0.08343 0.85625 0.50900
C 	C 	0.40381 0.06799 0.85056 -0.13500
C 	C 	0.41792 0.05433 0.86660 -0.00100
H 	H 	0.41510 0.05340 0.88370 0.04400
C 	C 	0.43765 0.04157 0.85384 0.02100
H 	H 	0.44890 0.03100 0.86170 0.03500
C 	C 	0.43821 0.04646 0.82930 -0.16100
C 	C 	0.45571 0.03670 0.81003 0.54500
C 	C 	0.31007 0.15609 0.79284 0.51600
C 	C 	0.31327 0.17055 0.76946 -0.14300
C 	C 	0.30013 0.19056 0.76120 0.01200
H 	H 	0.28650 0.19730 0.76950 0.04000
C 	C 	0.24345 0.11532 0.82705 0.53400
C 	C 	0.22178 0.10899 0.81055 -0.17200
C 	C 	0.21143 0.08648 0.80704 0.00200
H 	H 	0.21600 0.07240 0.81590 -0.01100
C 	C 	0.32184 0.04936 0.89047 0.53500
C 	C 	0.32721 0.02273 0.89471 -0.15400
C 	C 	0.34720 0.01320 0.90690 0.00700
H 	H 	0.35950 0.02290 0.91440 0.04000
O 	O 	0.37189 0.13893 0.81772 -0.66400
S 	S 	0.40120 0.17880 0.76566 0.02000
C 	C 	0.39670 0.13580 0.74370 -0.04600
C 	C 	0.39070 0.15390 0.78270 -0.09000
C 	C 	0.37790 0.15970 0.80890 0.43300
C 	C 	0.39030 0.13210 0.76620 0.01900
C 	C 	0.40520 0.16150 0.73940 -0.09600
Zr	Zr	0.78756 0.40871 0.63783 3.17300
Zr	Zr	0.83878 0.37957 0.66721 3.19400
S 	S 	0.91446 0.43424 0.67951 0.04000
O 	O 	0.87543 0.41471 0.62120 -0.63800
O 	O 	0.87116 0.40663 0.66232 -0.68600
O 	O 	0.95049 0.45769 0.71193 -0.77800
O 	O 	0.97413 0.47566 0.68260 -0.66400
O 	O 	0.82715 0.35911 0.70215 -0.69000
O 	O 	0.79061 0.33958 0.69451 -0.64900
O 	O 	0.75093 0.36260 0.67292 -0.66300
O 	O 	0.75221 0.40284 0.66075 -0.78100
O 	O 	0.80359 0.44537 0.62316 -0.78100
O 	O 	0.83701 0.43558 0.59956 -0.68000
O 	O 	0.82560 0.40157 0.63832 -1.50000
O 	O 	0.79724 0.38340 0.66934 -1.14600
C 	C 	0.88185 0.41657 0.64375 0.50900
C 	C 	0.90381 0.43201 0.64944 -0.13500
C 	C 	0.91792 0.44567 0.63340 -0.00100
H 	H 	0.91510 0.44660 0.61630 0.04400
C 	C 	0.93765 0.45843 0.64616 0.02100
H 	H 	0.94890 0.46900 0.63830 0.03500
C 	C 	0.93821 0.45354 0.67070 -0.16100
C 	C 	0.95571 0.46330 0.68997 0.54500
C 	C 	0.81007 0.34391 0.70716 0.51600
C 	C 	0.81327 0.32945 0.73054 -0.14300
C 	C 	0.80013 0.30944 0.73880 0.01200
H 	H 	0.78650 0.30270 0.73050 0.04000
C 	C 	0.74345 0.38468 0.67295 0.53400
C 	C 	0.72178 0.39101 0.68945 -0.17200
C 	C 	0.71143 0.41352 0.69296 0.00200
H 	H 	0.71600 0.42760 0.68410 -0.01100
C 	C 	0.82184 0.45064 0.60953 0.53500
C 	C 	0.82721 0.47727 0.60529 -0.15400
C 	C 	0.84720 0.48680 0.59310 0.00800
H 	H 	0.85950 0.47710 0.58560 0.04000
O 	O 	0.87189 0.36107 0.68228 -0.66400
S 	S 	0.90120 0.32120 0.73434 0.02000
C 	C 	0.89670 0.36420 0.75630 -0.04600
C 	C 	0.89070 0.34610 0.71730 -0.09000
C 	C 	0.87790 0.34030 0.69110 0.43300
C 	C 	0.89030 0.36790 0.73380 0.01900
C 	C 	0.90520 0.33850 0.76060 -0.09600
Zr	Zr	0.28756 0.90871 0.13783 3.17300
Zr	Zr	0.33878 0.87957 0.16721 3.19400
S 	S 	0.41446 0.93424 0.17951 0.04000
O 	O 	0.37543 0.91471 0.12120 -0.63800
O 	O 	0.37116 0.90663 0.16232 -0.68600
O 	O 	0.45049 0.95769 0.21193 -0.77800
O 	O 	0.47413 0.97566 0.18260 -0.66400
O 	O 	0.32715 0.85911 0.20215 -0.69000
O 	O 	0.29061 0.83958 0.19451 -0.64900
O 	O 	0.25093 0.86260 0.17292 -0.66300
O 	O 	0.25221 0.90284 0.16075 -0.78100
O 	O 	0.30359 0.94537 0.12316 -0.78100
O 	O 	0.33701 0.93558 0.09956 -0.68000
O 	O 	0.32560 0.90157 0.13832 -1.50000
O 	O 	0.29724 0.88340 0.16934 -1.14600
C 	C 	0.38185 0.91657 0.14375 0.50900
C 	C 	0.40381 0.93201 0.14944 -0.13500
C 	C 	0.41792 0.94567 0.13340 -0.00100
H 	H 	0.41510 0.94660 0.11630 0.04400
C 	C 	0.43765 0.95843 0.14616 0.02100
H 	H 	0.44890 0.96900 0.13830 0.03500
C 	C 	0.43821 0.95354 0.17070 -0.16100
C 	C 	0.45571 0.96330 0.18997 0.54500
C 	C 	0.31007 0.84391 0.20716 0.51600
C 	C 	0.31327 0.82945 0.23054 -0.14300
C 	C 	0.30013 0.80944 0.23880 0.01200
H 	H 	0.28650 0.80270 0.23050 0.04000
C 	C 	0.24345 0.88468 0.17295 0.53400
C 	C 	0.22178 0.89101 0.18945 -0.17200
C 	C 	0.21143 0.91352 0.19296 0.00200
H 	H 	0.21600 0.92760 0.18410 -0.01100
C 	C 	0.32184 0.95064 0.10953 0.53500
C 	C 	0.32721 0.97727 0.10529 -0.15400
C 	C 	0.34720 0.98680 0.09310 0.00800
H 	H 	0.35950 0.97710 0.08560 0.04000
O 	O 	0.37189 0.86107 0.18228 -0.66400
S 	S 	0.40120 0.82120 0.23434 0.02000
C 	C 	0.39670 0.86420 0.25630 -0.04600
C 	C 	0.39070 0.84610 0.21730 -0.09000
C 	C 	0.37790 0.84030 0.19110 0.43300
C 	C 	0.39030 0.86790 0.23380 0.01900
C 	C 	0.40520 0.83850 0.26060 -0.09600
Zr	Zr	0.21244 0.59129 0.63783 3.17300
Zr	Zr	0.16122 0.62043 0.66721 3.19400
S 	S 	0.08554 0.56576 0.67951 0.04000
O 	O 	0.12457 0.58529 0.62120 -0.63800
O 	O 	0.12884 0.59337 0.66232 -0.68600
O 	O 	0.04951 0.54231 0.71193 -0.77800
O 	O 	0.02587 0.52434 0.68260 -0.66400
O 	O 	0.17285 0.64089 0.70215 -0.69000
O 	O 	0.20939 0.66042 0.69451 -0.64900
O 	O 	0.24907 0.63740 0.67292 -0.66300
O 	O 	0.24779 0.59716 0.66075 -0.78100
O 	O 	0.19641 0.55463 0.62316 -0.78100
O 	O 	0.16299 0.56442 0.59956 -0.68000
O 	O 	0.17440 0.59843 0.63832 -1.50000
O 	O 	0.20276 0.61660 0.66934 -1.14600
C 	C 	0.11815 0.58343 0.64375 0.50900
C 	C 	0.09619 0.56799 0.64944 -0.13500
C 	C 	0.08208 0.55433 0.63340 -0.00100
H 	H 	0.08490 0.55340 0.61630 0.04400
C 	C 	0.06235 0.54157 0.64616 0.02100
H 	H 	0.05110 0.53100 0.63830 0.03500
C 	C 	0.06179 0.54646 0.67070 -0.16100
C 	C 	0.04429 0.53670 0.68997 0.54500
C 	C 	0.18993 0.65609 0.70716 0.51600
C 	C 	0.18673 0.67055 0.73054 -0.14300
C 	C 	0.19987 0.69056 0.73880 0.01200
H 	H 	0.21350 0.69730 0.73050 0.04000
C 	C 	0.25655 0.61532 0.67295 0.53400
C 	C 	0.27822 0.60899 0.68945 -0.17200
C 	C 	0.28857 0.58648 0.69296 0.00200
H 	H 	0.28400 0.57240 0.68410 -0.01100
C 	C 	0.17816 0.54936 0.60953 0.53500
C 	C 	0.17279 0.52273 0.60529 -0.15400
C 	C 	0.15280 0.51320 0.59310 0.00800
H 	H 	0.14050 0.52290 0.58560 0.04000
O 	O 	0.12811 0.63893 0.68228 -0.66400
S 	S 	0.09880 0.67880 0.73434 0.02000
C 	C 	0.10330 0.63580 0.75630 -0.04600
C 	C 	0.10930 0.65390 0.71730 -0.09000
C 	C 	0.12210 0.65970 0.69110 0.43200
C 	C 	0.10970 0.63210 0.73380 0.01900
C 	C 	0.09480 0.66150 0.76060 -0.09600
Zr	Zr	0.71244 0.09129 0.13783 3.17300
Zr	Zr	0.66122 0.12043 0.16721 3.19400
S 	S 	0.58554 0.06576 0.17951 0.04000
O 	O 	0.62457 0.08529 0.12120 -0.63800
O 	O 	0.62884 0.09337 0.16232 -0.68600
O 	O 	0.54951 0.04231 0.21193 -0.77800
O 	O 	0.52587 0.02434 0.18260 -0.66400
O 	O 	0.67285 0.14089 0.20215 -0.69000
O 	O 	0.70939 0.16042 0.19451 -0.64900
O 	O 	0.74907 0.13740 0.17292 -0.66300
O 	O 	0.74779 0.09716 0.16075 -0.78100
O 	O 	0.69641 0.05463 0.12316 -0.78100
O 	O 	0.66299 0.06442 0.09956 -0.68000
O 	O 	0.67440 0.09843 0.13832 -1.50000
O 	O 	0.70276 0.11660 0.16934 -1.14600
C 	C 	0.61815 0.08343 0.14375 0.50900
C 	C 	0.59619 0.06799 0.14944 -0.13500
C 	C 	0.58208 0.05433 0.13340 -0.00100
H 	H 	0.58490 0.05340 0.11630 0.04400
C 	C 	0.56235 0.04157 0.14616 0.02100
H 	H 	0.55110 0.03100 0.13830 0.03500
C 	C 	0.56179 0.04646 0.17070 -0.16100
C 	C 	0.54429 0.03670 0.18997 0.54500
C 	C 	0.68993 0.15609 0.20716 0.51600
C 	C 	0.68673 0.17055 0.23054 -0.14300
C 	C 	0.69987 0.19056 0.23880 0.01200
H 	H 	0.71350 0.19730 0.23050 0.04000
C 	C 	0.75655 0.11532 0.17295 0.53400
C 	C 	0.77822 0.10899 0.18945 -0.17200
C 	C 	0.78857 0.08648 0.19296 0.00200
H 	H 	0.78400 0.07240 0.18410 -0.01100
C 	C 	0.67816 0.04936 0.10953 0.53500
C 	C 	0.67279 0.02273 0.10529 -0.15400
C 	C 	0.65280 0.01320 0.09310 0.00700
H 	H 	0.64050 0.02290 0.08560 0.04000
O 	O 	0.62811 0.13893 0.18228 -0.66400
S 	S 	0.59880 0.17880 0.23434 0.02000
C 	C 	0.60330 0.13580 0.25630 -0.04600
C 	C 	0.60930 0.15390 0.21730 -0.09000
C 	C 	0.62210 0.15970 0.19110 0.43300
C 	C 	0.60970 0.13210 0.23380 0.01900
C 	C 	0.59480 0.16150 0.26060 -0.09600
Zr	Zr	0.21244 0.40871 0.36217 3.17300
Zr	Zr	0.16122 0.37957 0.33279 3.19400
S 	S 	0.08554 0.43424 0.32049 0.04000
O 	O 	0.12457 0.41471 0.37880 -0.63800
O 	O 	0.12884 0.40663 0.33768 -0.68600
O 	O 	0.04951 0.45769 0.28807 -0.77800
O 	O 	0.02587 0.47566 0.31740 -0.66400
O 	O 	0.17285 0.35911 0.29785 -0.69000
O 	O 	0.20939 0.33958 0.30549 -0.64900
O 	O 	0.24907 0.36260 0.32708 -0.66300
O 	O 	0.24779 0.40284 0.33925 -0.78100
O 	O 	0.19641 0.44537 0.37684 -0.78100
O 	O 	0.16299 0.43558 0.40044 -0.68000
O 	O 	0.17440 0.40157 0.36168 -1.50000
O 	O 	0.20276 0.38340 0.33066 -1.14600
C 	C 	0.11815 0.41657 0.35625 0.50900
C 	C 	0.09619 0.43201 0.35056 -0.13500
C 	C 	0.08208 0.44567 0.36660 -0.00100
H 	H 	0.08490 0.44660 0.38370 0.04400
C 	C 	0.06235 0.45843 0.35384 0.02100
H 	H 	0.05110 0.46900 0.36170 0.03500
C 	C 	0.06179 0.45354 0.32930 -0.16100
C 	C 	0.04429 0.46330 0.31003 0.54500
C 	C 	0.18993 0.34391 0.29284 0.51600
C 	C 	0.18673 0.32945 0.26946 -0.14300
C 	C 	0.19987 0.30944 0.26120 0.01200
H 	H 	0.21350 0.30270 0.26950 0.04000
C 	C 	0.25655 0.38468 0.32705 0.53400
C 	C 	0.27822 0.39101 0.31055 -0.17200
C 	C 	0.28857 0.41352 0.30704 0.00200
H 	H 	0.28400 0.42760 0.31590 -0.01100
C 	C 	0.17816 0.45064 0.39047 0.53500
C 	C 	0.17279 0.47727 0.39471 -0.15400
C 	C 	0.15280 0.48680 0.40690 0.00800
H 	H 	0.14050 0.47710 0.41440 0.04000
O 	O 	0.12811 0.36107 0.31772 -0.66400
S 	S 	0.09880 0.32120 0.26566 0.02000
C 	C 	0.10330 0.36420 0.24370 -0.04600
C 	C 	0.10930 0.34610 0.28270 -0.09000
C 	C 	0.12210 0.34030 0.30890 0.43200
C 	C 	0.10970 0.36790 0.26620 0.01900
C 	C 	0.09480 0.33850 0.23940 -0.09600
Zr	Zr	0.71244 0.90871 0.86217 3.17300
Zr	Zr	0.66122 0.87957 0.83279 3.19400
S 	S 	0.58554 0.93424 0.82049 0.04000
O 	O 	0.62457 0.91471 0.87880 -0.63800
O 	O 	0.62884 0.90663 0.83768 -0.68600
O 	O 	0.54951 0.95769 0.78807 -0.77800
O 	O 	0.52587 0.97566 0.81740 -0.66400
O 	O 	0.67285 0.85911 0.79785 -0.69000
O 	O 	0.70939 0.83958 0.80549 -0.64900
O 	O 	0.74907 0.86260 0.82708 -0.66300
O 	O 	0.74779 0.90284 0.83925 -0.78100
O 	O 	0.69641 0.94537 0.87684 -0.78100
O 	O 	0.66299 0.93558 0.90044 -0.68000
O 	O 	0.67440 0.90157 0.86168 -1.50000
O 	O 	0.70276 0.88340 0.83066 -1.14600
C 	C 	0.61815 0.91657 0.85625 0.50900
C 	C 	0.59619 0.93201 0.85056 -0.13500
C 	C 	0.58208 0.94567 0.86660 -0.00100
H 	H 	0.58490 0.94660 0.88370 0.04400
C 	C 	0.56235 0.95843 0.85384 0.02100
H 	H 	0.55110 0.96900 0.86170 0.03500
C 	C 	0.56179 0.95354 0.82930 -0.16100
C 	C 	0.54429 0.96330 0.81003 0.54500
C 	C 	0.68993 0.84391 0.79284 0.51600
C 	C 	0.68673 0.82945 0.76946 -0.14300
C 	C 	0.69987 0.80944 0.76120 0.01200
H 	H 	0.71350 0.80270 0.76950 0.04000
C 	C 	0.75655 0.88468 0.82705 0.53400
C 	C 	0.77822 0.89101 0.81055 -0.17200
C 	C 	0.78857 0.91352 0.80704 0.00200
H 	H 	0.78400 0.92760 0.81590 -0.01100
C 	C 	0.67816 0.95064 0.89047 0.53500
C 	C 	0.67279 0.97727 0.89471 -0.15400
C 	C 	0.65280 0.98680 0.90690 0.00800
H 	H 	0.64050 0.97710 0.91440 0.04000
O 	O 	0.62811 0.86107 0.81772 -0.66400
S 	S 	0.59880 0.82120 0.76566 0.02000
C 	C 	0.60330 0.86420 0.74370 -0.04600
C 	C 	0.60930 0.84610 0.78270 -0.09000
C 	C 	0.62210 0.84030 0.80890 0.43200
C 	C 	0.60970 0.86790 0.76620 0.01900
C 	C 	0.59480 0.83850 0.73940 -0.09600
Zr	Zr	0.34568 0.34568 0.21607 3.21300
Zr	Zr	0.39567 0.39567 0.15742 3.21400
O 	O 	0.37245 0.37245 0.22174 -1.50800
O 	O 	0.40127 0.40127 0.20061 -1.14600
O 	O 	0.34743 0.34743 0.17724 -1.42000
O 	O 	0.36807 0.36807 0.14163 -1.04900
O 	O 	0.31780 0.31780 0.11800 -0.41700
Zr	Zr	0.84568 0.84568 0.71607 3.21300
Zr	Zr	0.89567 0.89567 0.65742 3.21400
O 	O 	0.87245 0.87245 0.72174 -1.50800
O 	O 	0.90127 0.90127 0.70061 -1.14600
O 	O 	0.84743 0.84743 0.67724 -1.42000
O 	O 	0.86807 0.86807 0.64163 -1.04900
O 	O 	0.81780 0.81780 0.61800 -0.41700
Zr	Zr	0.65432 0.65432 0.21607 3.21300
Zr	Zr	0.60433 0.60433 0.15742 3.21400
O 	O 	0.62755 0.62755 0.22174 -1.50800
O 	O 	0.59873 0.59873 0.20061 -1.14600
O 	O 	0.65257 0.65257 0.17724 -1.42000
O 	O 	0.63193 0.63193 0.14163 -1.04900
O 	O 	0.68220 0.68220 0.11800 -0.41700
Zr	Zr	0.15432 0.15432 0.71607 3.21300
Zr	Zr	0.10433 0.10433 0.65742 3.21400
O 	O 	0.12755 0.12755 0.72174 -1.50800
O 	O 	0.09873 0.09873 0.70061 -1.14600
O 	O 	0.15257 0.15257 0.67724 -1.42000
O 	O 	0.13193 0.13193 0.64163 -1.04900
O 	O 	0.18220 0.18220 0.61800 -0.41600
Zr	Zr	0.65432 0.34568 0.78393 3.21300
Zr	Zr	0.60433 0.39567 0.84258 3.21400
O 	O 	0.62755 0.37245 0.77826 -1.50800
O 	O 	0.59873 0.40127 0.79939 -1.14600
O 	O 	0.65257 0.34743 0.82276 -1.42000
O 	O 	0.63193 0.36807 0.85837 -1.04900
O 	O 	0.68220 0.31780 0.88200 -0.41600
Zr	Zr	0.15432 0.84568 0.28393 3.21300
Zr	Zr	0.10433 0.89567 0.34258 3.21400
O 	O 	0.12755 0.87245 0.27826 -1.50800
O 	O 	0.09873 0.90127 0.29939 -1.14600
O 	O 	0.15257 0.84743 0.32276 -1.42000
O 	O 	0.13193 0.86807 0.35837 -1.04900
O 	O 	0.18220 0.81780 0.38200 -0.41600
Zr	Zr	0.34568 0.65432 0.78393 3.21300
Zr	Zr	0.39567 0.60433 0.84258 3.21400
O 	O 	0.37245 0.62755 0.77826 -1.50800
O 	O 	0.40127 0.59873 0.79939 -1.14600
O 	O 	0.34743 0.65257 0.82276 -1.42000
O 	O 	0.36807 0.63193 0.85837 -1.04900
O 	O 	0.31780 0.68220 0.88200 -0.41600
Zr	Zr	0.84568 0.15432 0.28393 3.21300
Zr	Zr	0.89567 0.10433 0.34258 3.21400
O 	O 	0.87245 0.12755 0.27826 -1.50800
O 	O 	0.90127 0.09873 0.29939 -1.14600
O 	O 	0.84743 0.15257 0.32276 -1.42000
O 	O 	0.86807 0.13193 0.35837 -1.04900
O 	O 	0.81780 0.18220 0.38200 -0.41600
Zr	Zr	0.21607 0.34568 0.34568 3.21300
Zr	Zr	0.15742 0.39567 0.39567 3.21400
O 	O 	0.22174 0.37245 0.37245 -1.50800
O 	O 	0.20061 0.40127 0.40127 -1.14600
O 	O 	0.17724 0.34743 0.34743 -1.42000
O 	O 	0.14163 0.36807 0.36807 -1.04900
O 	O 	0.11800 0.31780 0.31780 -0.41700
Zr	Zr	0.71607 0.84568 0.84568 3.21300
Zr	Zr	0.65742 0.89567 0.89567 3.21400
O 	O 	0.72174 0.87245 0.87245 -1.50800
O 	O 	0.70061 0.90127 0.90127 -1.14600
O 	O 	0.67724 0.84743 0.84743 -1.42000
O 	O 	0.64163 0.86807 0.86807 -1.04900
O 	O 	0.61800 0.81780 0.81780 -0.41700
Zr	Zr	0.21607 0.65432 0.65432 3.21300
Zr	Zr	0.15742 0.60433 0.60433 3.21400
O 	O 	0.22174 0.62755 0.62755 -1.50800
O 	O 	0.20061 0.59873 0.59873 -1.14600
O 	O 	0.17724 0.65257 0.65257 -1.42000
O 	O 	0.14163 0.63193 0.63193 -1.04900
O 	O 	0.11800 0.68220 0.68220 -0.41700
Zr	Zr	0.71607 0.15432 0.15432 3.21300
Zr	Zr	0.65742 0.10433 0.10433 3.21400
O 	O 	0.72174 0.12755 0.12755 -1.50800
O 	O 	0.70061 0.09873 0.09873 -1.14600
O 	O 	0.67724 0.15257 0.15257 -1.42000
O 	O 	0.64163 0.13193 0.13193 -1.04900
O 	O 	0.61800 0.18220 0.18220 -0.41600
Zr	Zr	0.78393 0.65432 0.34568 3.21300
Zr	Zr	0.84258 0.60433 0.39567 3.21400
O 	O 	0.77826 0.62755 0.37245 -1.50800
O 	O 	0.79939 0.59873 0.40127 -1.14600
O 	O 	0.82276 0.65257 0.34743 -1.42000
O 	O 	0.85837 0.63193 0.36807 -1.04900
O 	O 	0.88200 0.68220 0.31780 -0.41600
Zr	Zr	0.28393 0.15432 0.84568 3.21300
Zr	Zr	0.34258 0.10433 0.89567 3.21400
O 	O 	0.27826 0.12755 0.87245 -1.50800
O 	O 	0.29939 0.09873 0.90127 -1.14600
O 	O 	0.32276 0.15257 0.84743 -1.42000
O 	O 	0.35837 0.13193 0.86807 -1.04900
O 	O 	0.38200 0.18220 0.81780 -0.41600
Zr	Zr	0.78393 0.34568 0.65432 3.21300
Zr	Zr	0.84258 0.39567 0.60433 3.21400
O 	O 	0.77826 0.37245 0.62755 -1.50800
O 	O 	0.79939 0.40127 0.59873 -1.14600
O 	O 	0.82276 0.34743 0.65257 -1.42000
O 	O 	0.85837 0.36807 0.63193 -1.04900
O 	O 	0.88200 0.31780 0.68220 -0.41600
Zr	Zr	0.28393 0.84568 0.15432 3.21300
Zr	Zr	0.34258 0.89567 0.10433 3.21400
O 	O 	0.27826 0.87245 0.12755 -1.50800
O 	O 	0.29939 0.90127 0.09873 -1.14600
O 	O 	0.32276 0.84743 0.15257 -1.42000
O 	O 	0.35837 0.86807 0.13193 -1.04900
O 	O 	0.38200 0.81780 0.18220 -0.41600
Zr	Zr	0.34568 0.21607 0.34568 3.21300
Zr	Zr	0.39567 0.15742 0.39567 3.21400
O 	O 	0.37245 0.22174 0.37245 -1.50800
O 	O 	0.40127 0.20061 0.40127 -1.14600
O 	O 	0.34743 0.17724 0.34743 -1.42000
O 	O 	0.36807 0.14163 0.36807 -1.04900
O 	O 	0.31780 0.11800 0.31780 -0.41700
Zr	Zr	0.84568 0.71607 0.84568 3.21300
Zr	Zr	0.89567 0.65742 0.89567 3.21400
O 	O 	0.87245 0.72174 0.87245 -1.50800
O 	O 	0.90127 0.70061 0.90127 -1.14600
O 	O 	0.84743 0.67724 0.84743 -1.42000
O 	O 	0.86807 0.64163 0.86807 -1.04900
O 	O 	0.81780 0.61800 0.81780 -0.41700
Zr	Zr	0.65432 0.21607 0.65432 3.21300
Zr	Zr	0.60433 0.15742 0.60433 3.21400
O 	O 	0.62755 0.22174 0.62755 -1.50800
O 	O 	0.59873 0.20061 0.59873 -1.14600
O 	O 	0.65257 0.17724 0.65257 -1.42000
O 	O 	0.63193 0.14163 0.63193 -1.04900
O 	O 	0.68220 0.11800 0.68220 -0.41700
Zr	Zr	0.15432 0.71607 0.15432 3.21300
Zr	Zr	0.10433 0.65742 0.10433 3.21400
O 	O 	0.12755 0.72174 0.12755 -1.50800
O 	O 	0.09873 0.70061 0.09873 -1.14600
O 	O 	0.15257 0.67724 0.15257 -1.42000
O 	O 	0.13193 0.64163 0.13193 -1.04900
O 	O 	0.18220 0.61800 0.18220 -0.41600
Zr	Zr	0.34568 0.78393 0.65432 3.21300
Zr	Zr	0.39567 0.84258 0.60433 3.21400
O 	O 	0.37245 0.77826 0.62755 -1.50800
O 	O 	0.40127 0.79939 0.59873 -1.14600
O 	O 	0.34743 0.82276 0.65257 -1.42000
O 	O 	0.36807 0.85837 0.63193 -1.04900
O 	O 	0.31780 0.88200 0.68220 -0.41600
Zr	Zr	0.84568 0.28393 0.15432 3.21300
Zr	Zr	0.89567 0.34258 0.10433 3.21400
O 	O 	0.87245 0.27826 0.12755 -1.50800
O 	O 	0.90127 0.29939 0.09873 -1.14600
O 	O 	0.84743 0.32276 0.15257 -1.42000
O 	O 	0.86807 0.35837 0.13193 -1.04900
O 	O 	0.81780 0.38200 0.18220 -0.41600
Zr	Zr	0.65432 0.78393 0.34568 3.21300
Zr	Zr	0.60433 0.84258 0.39567 3.21400
O 	O 	0.62755 0.77826 0.37245 -1.50800
O 	O 	0.59873 0.79939 0.40127 -1.14600
O 	O 	0.65257 0.82276 0.34743 -1.42000
O 	O 	0.63193 0.85837 0.36807 -1.04900
O 	O 	0.68220 0.88200 0.31780 -0.41600
Zr	Zr	0.15432 0.28393 0.84568 3.21300
Zr	Zr	0.10433 0.34258 0.89567 3.21400
O 	O 	0.12755 0.27826 0.87245 -1.50800
O 	O 	0.09873 0.29939 0.90127 -1.14600
O 	O 	0.15257 0.32276 0.84743 -1.42000
O 	O 	0.13193 0.35837 0.86807 -1.04900
O 	O 	0.18220 0.38200 0.81780 -0.41600
Zr	Zr	0.34568 0.34568 0.78393 3.21300
Zr	Zr	0.39567 0.39567 0.84258 3.21400
O 	O 	0.37245 0.37245 0.77826 -1.50800
O 	O 	0.40127 0.40127 0.79939 -1.14600
O 	O 	0.34743 0.34743 0.82276 -1.42000
O 	O 	0.36807 0.36807 0.85837 -1.04900
O 	O 	0.31780 0.31780 0.88200 -0.41600
Zr	Zr	0.84568 0.84568 0.28393 3.21300
Zr	Zr	0.89567 0.89567 0.34258 3.21400
O 	O 	0.87245 0.87245 0.27826 -1.50800
O 	O 	0.90127 0.90127 0.29939 -1.14600
O 	O 	0.84743 0.84743 0.32276 -1.42000
O 	O 	0.86807 0.86807 0.35837 -1.04900
O 	O 	0.81780 0.81780 0.38200 -0.41700
Zr	Zr	0.65432 0.65432 0.78393 3.21300
Zr	Zr	0.60433 0.60433 0.84258 3.21400
O 	O 	0.62755 0.62755 0.77826 -1.50800
O 	O 	0.59873 0.59873 0.79939 -1.14600
O 	O 	0.65257 0.65257 0.82276 -1.42000
O 	O 	0.63193 0.63193 0.85837 -1.04900
O 	O 	0.68220 0.68220 0.88200 -0.41600
Zr	Zr	0.15432 0.15432 0.28393 3.21300
Zr	Zr	0.10433 0.10433 0.34258 3.21400
O 	O 	0.12755 0.12755 0.27826 -1.50800
O 	O 	0.09873 0.09873 0.29939 -1.14600
O 	O 	0.15257 0.15257 0.32276 -1.42000
O 	O 	0.13193 0.13193 0.35837 -1.04900
O 	O 	0.18220 0.18220 0.38200 -0.41600
Zr	Zr	0.34568 0.65432 0.21607 3.21300
Zr	Zr	0.39567 0.60433 0.15742 3.21400
O 	O 	0.37245 0.62755 0.22174 -1.50800
O 	O 	0.40127 0.59873 0.20061 -1.14600
O 	O 	0.34743 0.65257 0.17724 -1.42000
O 	O 	0.36807 0.63193 0.14163 -1.04900
O 	O 	0.31780 0.68220 0.11800 -0.41700
Zr	Zr	0.84568 0.15432 0.71607 3.21300
Zr	Zr	0.89567 0.10433 0.65742 3.21400
O 	O 	0.87245 0.12755 0.72174 -1.50800
O 	O 	0.90127 0.09873 0.70061 -1.14600
O 	O 	0.84743 0.15257 0.67724 -1.42000
O 	O 	0.86807 0.13193 0.64163 -1.04900
O 	O 	0.81780 0.18220 0.61800 -0.41700
Zr	Zr	0.65432 0.34568 0.21607 3.21300
Zr	Zr	0.60433 0.39567 0.15742 3.21400
O 	O 	0.62755 0.37245 0.22174 -1.50800
O 	O 	0.59873 0.40127 0.20061 -1.14600
O 	O 	0.65257 0.34743 0.17724 -1.42000
O 	O 	0.63193 0.36807 0.14163 -1.04900
O 	O 	0.68220 0.31780 0.11800 -0.41700
Zr	Zr	0.15432 0.84568 0.71607 3.21300
Zr	Zr	0.10433 0.89567 0.65742 3.21400
O 	O 	0.12755 0.87245 0.72174 -1.50800
O 	O 	0.09873 0.90127 0.70061 -1.14600
O 	O 	0.15257 0.84743 0.67724 -1.42000
O 	O 	0.13193 0.86807 0.64163 -1.04900
O 	O 	0.18220 0.81780 0.61800 -0.41700
Zr	Zr	0.34568 0.21607 0.65432 3.21300
Zr	Zr	0.39567 0.15742 0.60433 3.21400
O 	O 	0.37245 0.22174 0.62755 -1.50800
O 	O 	0.40127 0.20061 0.59873 -1.14600
O 	O 	0.34743 0.17724 0.65257 -1.42000
O 	O 	0.36807 0.14163 0.63193 -1.04900
O 	O 	0.31780 0.11800 0.68220 -0.41700
Zr	Zr	0.84568 0.71607 0.15432 3.21300
Zr	Zr	0.89567 0.65742 0.10433 3.21400
O 	O 	0.87245 0.72174 0.12755 -1.50800
O 	O 	0.90127 0.70061 0.09873 -1.14600
O 	O 	0.84743 0.67724 0.15257 -1.42000
O 	O 	0.86807 0.64163 0.13193 -1.04900
O 	O 	0.81780 0.61800 0.18220 -0.41700
Zr	Zr	0.65432 0.21607 0.34568 3.21300
Zr	Zr	0.60433 0.15742 0.39567 3.21400
O 	O 	0.62755 0.22174 0.37245 -1.50800
O 	O 	0.59873 0.20061 0.40127 -1.14600
O 	O 	0.65257 0.17724 0.34743 -1.42000
O 	O 	0.63193 0.14163 0.36807 -1.04900
O 	O 	0.68220 0.11800 0.31780 -0.41700
Zr	Zr	0.15432 0.71607 0.84568 3.21300
Zr	Zr	0.10433 0.65742 0.89567 3.21400
O 	O 	0.12755 0.72174 0.87245 -1.50800
O 	O 	0.09873 0.70061 0.90127 -1.14600
O 	O 	0.15257 0.67724 0.84743 -1.42000
O 	O 	0.13193 0.64163 0.86807 -1.04900
O 	O 	0.18220 0.61800 0.81780 -0.41700
Zr	Zr	0.65432 0.78393 0.65432 3.21300
Zr	Zr	0.60433 0.84258 0.60433 3.21400
O 	O 	0.62755 0.77826 0.62755 -1.50800
O 	O 	0.59873 0.79939 0.59873 -1.14600
O 	O 	0.65257 0.82276 0.65257 -1.42000
O 	O 	0.63193 0.85837 0.63193 -1.04900
O 	O 	0.68220 0.88200 0.68220 -0.41600
Zr	Zr	0.15432 0.28393 0.15432 3.21300
Zr	Zr	0.10433 0.34258 0.10433 3.21400
O 	O 	0.12755 0.27826 0.12755 -1.50800
O 	O 	0.09873 0.29939 0.09873 -1.14600
O 	O 	0.15257 0.32276 0.15257 -1.42000
O 	O 	0.13193 0.35837 0.13193 -1.04900
O 	O 	0.18220 0.38200 0.18220 -0.41600
Zr	Zr	0.34568 0.78393 0.34568 3.21300
Zr	Zr	0.39567 0.84258 0.39567 3.21400
O 	O 	0.37245 0.77826 0.37245 -1.50800
O 	O 	0.40127 0.79939 0.40127 -1.14600
O 	O 	0.34743 0.82276 0.34743 -1.42000
O 	O 	0.36807 0.85837 0.36807 -1.04900
O 	O 	0.31780 0.88200 0.31780 -0.41600
Zr	Zr	0.84568 0.28393 0.84568 3.21300
Zr	Zr	0.89567 0.34258 0.89567 3.21400
O 	O 	0.87245 0.27826 0.87245 -1.50800
O 	O 	0.90127 0.29939 0.90127 -1.14600
O 	O 	0.84743 0.32276 0.84743 -1.42000
O 	O 	0.86807 0.35837 0.86807 -1.04900
O 	O 	0.81780 0.38200 0.81780 -0.41700
Zr	Zr	0.21607 0.34568 0.65432 3.21300
Zr	Zr	0.15742 0.39567 0.60433 3.21400
O 	O 	0.22174 0.37245 0.62755 -1.50800
O 	O 	0.20061 0.40127 0.59873 -1.14600
O 	O 	0.17724 0.34743 0.65257 -1.42000
O 	O 	0.14163 0.36807 0.63193 -1.04900
O 	O 	0.11800 0.31780 0.68220 -0.41700
Zr	Zr	0.71607 0.84568 0.15432 3.21300
Zr	Zr	0.65742 0.89567 0.10433 3.21400
O 	O 	0.72174 0.87245 0.12755 -1.50800
O 	O 	0.70061 0.90127 0.09873 -1.14600
O 	O 	0.67724 0.84743 0.15257 -1.42000
O 	O 	0.64163 0.86807 0.13193 -1.04900
O 	O 	0.61800 0.81780 0.18220 -0.41700
Zr	Zr	0.21607 0.65432 0.34568 3.21300
Zr	Zr	0.15742 0.60433 0.39567 3.21400
O 	O 	0.22174 0.62755 0.37245 -1.50800
O 	O 	0.20061 0.59873 0.40127 -1.14600
O 	O 	0.17724 0.65257 0.34743 -1.42000
O 	O 	0.14163 0.63193 0.36807 -1.04900
O 	O 	0.11800 0.68220 0.31780 -0.41700
Zr	Zr	0.71607 0.15432 0.84568 3.21300
Zr	Zr	0.65742 0.10433 0.89567 3.21400
O 	O 	0.72174 0.12755 0.87245 -1.50800
O 	O 	0.70061 0.09873 0.90127 -1.14600
O 	O 	0.67724 0.15257 0.84743 -1.42000
O 	O 	0.64163 0.13193 0.86807 -1.04900
O 	O 	0.61800 0.18220 0.81780 -0.41700
Zr	Zr	0.78393 0.34568 0.34568 3.21300
Zr	Zr	0.84258 0.39567 0.39567 3.21400
O 	O 	0.77826 0.37245 0.37245 -1.50800
O 	O 	0.79939 0.40127 0.40127 -1.14600
O 	O 	0.82276 0.34743 0.34743 -1.42000
O 	O 	0.85837 0.36807 0.36807 -1.04900
O 	O 	0.88200 0.31780 0.31780 -0.41600
Zr	Zr	0.28393 0.84568 0.84568 3.21300
Zr	Zr	0.34258 0.89567 0.89567 3.21400
O 	O 	0.27826 0.87245 0.87245 -1.50800
O 	O 	0.29939 0.90127 0.90127 -1.14600
O 	O 	0.32276 0.84743 0.84743 -1.42000
O 	O 	0.35837 0.86807 0.86807 -1.04900
O 	O 	0.38200 0.81780 0.81780 -0.41700
Zr	Zr	0.78393 0.65432 0.65432 3.21300
Zr	Zr	0.84258 0.60433 0.60433 3.21400
O 	O 	0.77826 0.62755 0.62755 -1.50800
O 	O 	0.79939 0.59873 0.59873 -1.14600
O 	O 	0.82276 0.65257 0.65257 -1.42000
O 	O 	0.85837 0.63193 0.63193 -1.04900
O 	O 	0.88200 0.68220 0.68220 -0.41600
Zr	Zr	0.28393 0.15432 0.15432 3.21300
Zr	Zr	0.34258 0.10433 0.10433 3.21400
O 	O 	0.27826 0.12755 0.12755 -1.50800
O 	O 	0.29939 0.09873 0.09873 -1.14600
O 	O 	0.32276 0.15257 0.15257 -1.42000
O 	O 	0.35837 0.13193 0.13193 -1.04900
O 	O 	0.38200 0.18220 0.18220 -0.41600
Zr	Zr	0.25000 0.46703 0.03297 3.17400
S 	S 	0.25000 0.33723 0.16277 0.10100
Zr	Zr	0.75000 0.53297 0.03297 3.17400
S 	S 	0.75000 0.66277 0.16277 0.10100
Zr	Zr	0.75000 0.46703 0.96703 3.17400
S 	S 	0.75000 0.33723 0.83723 0.10100
Zr	Zr	0.25000 0.53297 0.96703 3.17400
S 	S 	0.25000 0.66277 0.83723 0.10100
Zr	Zr	0.03297 0.25000 0.46703 3.17400
S 	S 	0.16277 0.25000 0.33723 0.10100
Zr	Zr	0.03297 0.75000 0.53297 3.17400
S 	S 	0.16277 0.75000 0.66277 0.10100
Zr	Zr	0.96703 0.75000 0.46703 3.17400
S 	S 	0.83723 0.75000 0.33723 0.10100
Zr	Zr	0.96703 0.25000 0.53297 3.17400
S 	S 	0.83723 0.25000 0.66277 0.10100
Zr	Zr	0.46703 0.03297 0.25000 3.17400
S 	S 	0.33723 0.16277 0.25000 0.10100
Zr	Zr	0.53297 0.03297 0.75000 3.17400
S 	S 	0.66277 0.16277 0.75000 0.10100
Zr	Zr	0.46703 0.96703 0.75000 3.17400
S 	S 	0.33723 0.83723 0.75000 0.10100
Zr	Zr	0.53297 0.96703 0.25000 3.17400
S 	S 	0.66277 0.83723 0.25000 0.10100
Zr	Zr	0.46703 0.25000 0.96703 3.17400
S 	S 	0.33723 0.25000 0.83723 0.10100
Zr	Zr	0.53297 0.75000 0.96703 3.17400
S 	S 	0.66277 0.75000 0.83723 0.10100
Zr	Zr	0.46703 0.75000 0.03297 3.17400
S 	S 	0.33723 0.75000 0.16277 0.10100
Zr	Zr	0.53297 0.25000 0.03297 3.17400
S 	S 	0.66277 0.25000 0.16277 0.10100
Zr	Zr	0.25000 0.03297 0.53297 3.17400
S 	S 	0.25000 0.16277 0.66277 0.10100
Zr	Zr	0.75000 0.03297 0.46703 3.17400
S 	S 	0.75000 0.16277 0.33723 0.10100
Zr	Zr	0.75000 0.96703 0.53297 3.17400
S 	S 	0.75000 0.83723 0.66277 0.10100
Zr	Zr	0.25000 0.96703 0.46703 3.17400
S 	S 	0.25000 0.83723 0.33723 0.10100
Zr	Zr	0.03297 0.46703 0.75000 3.17400
S 	S 	0.16277 0.33723 0.75000 0.10100
Zr	Zr	0.03297 0.53297 0.25000 3.17400
S 	S 	0.16277 0.66277 0.25000 0.10100
Zr	Zr	0.96703 0.46703 0.25000 3.17400
S 	S 	0.83723 0.33723 0.25000 0.10100
Zr	Zr	0.96703 0.53297 0.75000 3.17400
S 	S 	0.83723 0.66277 0.75000 0.10100
Zr	Zr	0.75000 0.53297 0.96703 3.17400
S 	S 	0.75000 0.66277 0.83723 0.10100
Zr	Zr	0.25000 0.03297 0.46703 3.17400
S 	S 	0.25000 0.16277 0.33723 0.10100
Zr	Zr	0.25000 0.46703 0.96703 3.17400
S 	S 	0.25000 0.33723 0.83723 0.10100
Zr	Zr	0.25000 0.53297 0.03297 3.17400
S 	S 	0.25000 0.66277 0.16277 0.10100
Zr	Zr	0.75000 0.46703 0.03297 3.17400
S 	S 	0.75000 0.33723 0.16277 0.10100
Zr	Zr	0.96703 0.75000 0.53297 3.17400
S 	S 	0.83723 0.75000 0.66277 0.10100
Zr	Zr	0.46703 0.25000 0.03297 3.17400
S 	S 	0.33723 0.25000 0.16277 0.10100
Zr	Zr	0.96703 0.25000 0.46703 3.17400
S 	S 	0.83723 0.25000 0.33723 0.10100
Zr	Zr	0.03297 0.25000 0.53297 3.17400
S 	S 	0.16277 0.25000 0.66277 0.10100
Zr	Zr	0.03297 0.75000 0.46703 3.17400
S 	S 	0.16277 0.75000 0.33723 0.10100
Zr	Zr	0.53297 0.96703 0.75000 3.17400
S 	S 	0.66277 0.83723 0.75000 0.10100
Zr	Zr	0.03297 0.46703 0.25000 3.17400
S 	S 	0.16277 0.33723 0.25000 0.10100
Zr	Zr	0.46703 0.96703 0.25000 3.17400
S 	S 	0.33723 0.83723 0.25000 0.10100
Zr	Zr	0.53297 0.03297 0.25000 3.17400
S 	S 	0.66277 0.16277 0.25000 0.10100
Zr	Zr	0.46703 0.03297 0.75000 3.17400
S 	S 	0.33723 0.16277 0.75000 0.10100
Zr	Zr	0.53297 0.75000 0.03297 3.17400
S 	S 	0.66277 0.75000 0.16277 0.10100
Zr	Zr	0.53297 0.25000 0.96703 3.17400
S 	S 	0.66277 0.25000 0.83723 0.10100
Zr	Zr	0.46703 0.75000 0.96703 3.17400
S 	S 	0.33723 0.75000 0.83723 0.10100
Zr	Zr	0.75000 0.96703 0.46703 3.17400
S 	S 	0.75000 0.83723 0.33723 0.10100
Zr	Zr	0.25000 0.96703 0.53297 3.17400
S 	S 	0.25000 0.83723 0.66277 0.10100
Zr	Zr	0.75000 0.03297 0.53297 3.17400
S 	S 	0.75000 0.16277 0.66277 0.10100
Zr	Zr	0.96703 0.53297 0.25000 3.17400
S 	S 	0.83723 0.66277 0.25000 0.10100
Zr	Zr	0.96703 0.46703 0.75000 3.17400
S 	S 	0.83723 0.33723 0.75000 0.10100
Zr	Zr	0.03297 0.53297 0.75000 3.17400
S 	S 	0.16277 0.66277 0.75000 0.10100
Zr	Zr	0.29596 0.50000 -0.00000 3.21300
Zr	Zr	0.79596 0.00000 0.50000 3.21300
Zr	Zr	0.70404 0.50000 -0.00000 3.21300
Zr	Zr	0.20404 0.00000 0.50000 3.21300
Zr	Zr	0.00000 0.29596 0.50000 3.21300
Zr	Zr	0.50000 0.79596 -0.00000 3.21300
Zr	Zr	0.00000 0.70404 0.50000 3.21300
Zr	Zr	0.50000 0.20404 -0.00000 3.21300
Zr	Zr	0.50000 -0.00000 0.29596 3.21300
Zr	Zr	-0.00000 0.50000 0.79596 3.21300
Zr	Zr	0.50000 0.00000 0.70404 3.21300
Zr	Zr	0.00000 0.50000 0.20404 3.21300
Zr	Zr	0.50000 0.29596 -0.00000 3.21300
Zr	Zr	0.00000 0.79596 0.50000 3.21300
Zr	Zr	0.50000 0.70404 -0.00000 3.21300
Zr	Zr	0.00000 0.20404 0.50000 3.21300
Zr	Zr	0.29596 0.00000 0.50000 3.21300
Zr	Zr	0.79596 0.50000 -0.00000 3.21300
Zr	Zr	0.70404 0.00000 0.50000 3.21300
Zr	Zr	0.20404 0.50000 -0.00000 3.21300
Zr	Zr	0.00000 0.50000 0.70404 3.21300
Zr	Zr	0.50000 0.00000 0.20404 3.21300
Zr	Zr	0.00000 0.50000 0.29596 3.21300
Zr	Zr	0.50000 0.00000 0.79596 3.21300
S 	S 	0.29068 0.36918 0.29068 0.10400
S 	S 	0.79068 0.86918 0.79068 0.10400
S 	S 	0.70932 0.63082 0.29068 0.10400
S 	S 	0.20932 0.13082 0.79068 0.10400
S 	S 	0.70932 0.36918 0.70932 0.10400
S 	S 	0.20932 0.86918 0.20932 0.10400
S 	S 	0.29068 0.63082 0.70932 0.10400
S 	S 	0.79068 0.13082 0.20932 0.10400
S 	S 	0.29068 0.29068 0.36918 0.10400
S 	S 	0.79068 0.79068 0.86918 0.10400
S 	S 	0.29068 0.70932 0.63082 0.10400
S 	S 	0.79068 0.20932 0.13082 0.10400
S 	S 	0.70932 0.70932 0.36918 0.10400
S 	S 	0.20932 0.20932 0.86918 0.10400
S 	S 	0.70932 0.29068 0.63082 0.10400
S 	S 	0.20932 0.79068 0.13082 0.10400
S 	S 	0.36918 0.29068 0.29068 0.10400
S 	S 	0.86918 0.79068 0.79068 0.10400
S 	S 	0.63082 0.29068 0.70932 0.10400
S 	S 	0.13082 0.79068 0.20932 0.10400
S 	S 	0.36918 0.70932 0.70932 0.10400
S 	S 	0.86918 0.20932 0.20932 0.10400
S 	S 	0.63082 0.70932 0.29068 0.10400
S 	S 	0.13082 0.20932 0.79068 0.10400
S 	S 	0.36918 0.29068 0.70932 0.10400
S 	S 	0.86918 0.79068 0.20932 0.10400
S 	S 	0.63082 0.70932 0.70932 0.10400
S 	S 	0.13082 0.20932 0.20932 0.10400
S 	S 	0.36918 0.70932 0.29068 0.10400
S 	S 	0.86918 0.20932 0.79068 0.10400
S 	S 	0.63082 0.29068 0.29068 0.10400
S 	S 	0.13082 0.79068 0.79068 0.10400
S 	S 	0.29068 0.29068 0.63082 0.10400
S 	S 	0.79068 0.79068 0.13082 0.10400
S 	S 	0.70932 0.29068 0.36918 0.10400
S 	S 	0.20932 0.79068 0.86918 0.10400
S 	S 	0.70932 0.70932 0.63082 0.10400
S 	S 	0.20932 0.20932 0.13082 0.10400
S 	S 	0.29068 0.70932 0.36918 0.10400
S 	S 	0.79068 0.20932 0.86918 0.10400
S 	S 	0.29068 0.36918 0.70932 0.10400
S 	S 	0.79068 0.86918 0.20932 0.10400
S 	S 	0.29068 0.63082 0.29068 0.10400
S 	S 	0.79068 0.13082 0.79068 0.10400
S 	S 	0.70932 0.36918 0.29068 0.10400
S 	S 	0.20932 0.86918 0.79068 0.10400
S 	S 	0.70932 0.63082 0.70932 0.10400
S 	S 	0.20932 0.13082 0.20932 0.10400
S 	S 	0.38324 0.50000 0.19185 -0.01400
O 	O 	0.26961 0.50000 0.02802 -1.50500
S 	S 	0.88324 0.00000 0.69185 -0.01400
O 	O 	0.76961 -0.00000 0.52802 -1.50500
S 	S 	0.61676 0.50000 0.19185 -0.01400
O 	O 	0.73039 0.50000 0.02802 -1.50500
S 	S 	0.11676 0.00000 0.69185 -0.01400
O 	O 	0.23039 -0.00000 0.52802 -1.50500
S 	S 	0.61676 0.50000 0.80815 -0.01400
O 	O 	0.73039 0.50000 0.97198 -1.50500
S 	S 	0.11676 0.00000 0.30815 -0.01400
O 	O 	0.23039 0.00000 0.47198 -1.50500
S 	S 	0.38324 0.50000 0.80815 -0.01400
O 	O 	0.26961 0.50000 0.97198 -1.50500
S 	S 	0.88324 0.00000 0.30815 -0.01400
O 	O 	0.76961 0.00000 0.47198 -1.50500
S 	S 	0.19185 0.38324 0.50000 -0.01400
O 	O 	0.02802 0.26961 0.50000 -1.50500
S 	S 	0.69185 0.88324 -0.00000 -0.01400
O 	O 	0.52802 0.76961 -0.00000 -1.50500
S 	S 	0.19185 0.61676 0.50000 -0.01400
O 	O 	0.02802 0.73039 0.50000 -1.50500
S 	S 	0.69185 0.11676 -0.00000 -0.01400
O 	O 	0.52802 0.23039 -0.00000 -1.50500
S 	S 	0.80815 0.61676 0.50000 -0.01400
O 	O 	0.97198 0.73039 0.50000 -1.50500
S 	S 	0.30815 0.11676 -0.00000 -0.01400
O 	O 	0.47198 0.23039 -0.00000 -1.50500
S 	S 	0.80815 0.38324 0.50000 -0.01400
O 	O 	0.97198 0.26961 0.50000 -1.50500
S 	S 	0.30815 0.88324 -0.00000 -0.01400
O 	O 	0.47198 0.76961 -0.00000 -1.50500
S 	S 	0.50000 0.19185 0.38324 -0.01400
O 	O 	0.50000 0.02802 0.26961 -1.50500
S 	S 	-0.00000 0.69185 0.88324 -0.01400
O 	O 	0.00000 0.52802 0.76961 -1.50500
S 	S 	0.50000 0.19185 0.61676 -0.01400
O 	O 	0.50000 0.02802 0.73039 -1.50500
S 	S 	-0.00000 0.69185 0.11676 -0.01400
O 	O 	-0.00000 0.52802 0.23039 -1.50500
S 	S 	0.50000 0.80815 0.61676 -0.01400
O 	O 	0.50000 0.97198 0.73039 -1.50500
S 	S 	0.00000 0.30815 0.11676 -0.01400
O 	O 	-0.00000 0.47198 0.23039 -1.50500
S 	S 	0.50000 0.80815 0.38324 -0.01400
O 	O 	0.50000 0.97198 0.26961 -1.50500
S 	S 	-0.00000 0.30815 0.88324 -0.01400
O 	O 	0.00000 0.47198 0.76961 -1.50500
S 	S 	0.50000 0.38324 0.80815 -0.01400
O 	O 	0.50000 0.26961 0.97198 -1.50500
S 	S 	-0.00000 0.88324 0.30815 -0.01400
O 	O 	0.00000 0.76961 0.47198 -1.50500
S 	S 	0.50000 0.61676 0.80815 -0.01400
O 	O 	0.50000 0.73039 0.97198 -1.50500
S 	S 	-0.00000 0.11676 0.30815 -0.01400
O 	O 	-0.00000 0.23039 0.47198 -1.50500
S 	S 	0.50000 0.61676 0.19185 -0.01400
O 	O 	0.50000 0.73039 0.02802 -1.50500
S 	S 	-0.00000 0.11676 0.69185 -0.01400
O 	O 	-0.00000 0.23039 0.52802 -1.50500
S 	S 	0.50000 0.38324 0.19185 -0.01400
O 	O 	0.50000 0.26961 0.02802 -1.50500
S 	S 	-0.00000 0.88324 0.69185 -0.01400
O 	O 	0.00000 0.76961 0.52802 -1.50500
S 	S 	0.38324 0.19185 0.50000 -0.01400
O 	O 	0.26961 0.02802 0.50000 -1.50500
S 	S 	0.88324 0.69185 -0.00000 -0.01400
O 	O 	0.76961 0.52802 -0.00000 -1.50500
S 	S 	0.61676 0.19185 0.50000 -0.01400
O 	O 	0.73039 0.02802 0.50000 -1.50500
S 	S 	0.11676 0.69185 -0.00000 -0.01400
O 	O 	0.23039 0.52802 -0.00000 -1.50500
S 	S 	0.61676 0.80815 0.50000 -0.01400
O 	O 	0.73039 0.97198 0.50000 -1.50500
S 	S 	0.11676 0.30815 -0.00000 -0.01400
O 	O 	0.23039 0.47198 -0.00000 -1.50500
S 	S 	0.38324 0.80815 0.50000 -0.01400
O 	O 	0.26961 0.97198 0.50000 -1.50500
S 	S 	0.88324 0.30815 -0.00000 -0.01400
O 	O 	0.76961 0.47198 -0.00000 -1.50500
S 	S 	0.19185 0.50000 0.61676 -0.01400
O 	O 	0.02802 0.50000 0.73039 -1.50500
S 	S 	0.69185 0.00000 0.11676 -0.01400
O 	O 	0.52802 0.00000 0.23039 -1.50500
S 	S 	0.19185 0.50000 0.38324 -0.01400
O 	O 	0.02802 0.50000 0.26961 -1.50500
S 	S 	0.69185 -0.00000 0.88324 -0.01400
O 	O 	0.52802 0.00000 0.76961 -1.50500
S 	S 	0.80815 0.50000 0.38324 -0.01400
O 	O 	0.97198 0.50000 0.26961 -1.50500
S 	S 	0.30815 -0.00000 0.88324 -0.01400
O 	O 	0.47198 0.00000 0.76961 -1.50500
S 	S 	0.80815 0.50000 0.61676 -0.01400
O 	O 	0.97198 0.50000 0.73039 -1.50500
S 	S 	0.30815 0.00000 0.11676 -0.01400
O 	O 	0.47198 0.00000 0.23039 -1.50500
O 	O 	0.27548 0.46224 -0.00000 -1.14000
O 	O 	0.77548 0.96224 0.50000 -1.14000
O 	O 	0.72452 0.53776 -0.00000 -1.14000
O 	O 	0.22452 0.03776 0.50000 -1.14000
O 	O 	0.72452 0.46224 -0.00000 -1.14000
O 	O 	0.22452 0.96224 0.50000 -1.14000
O 	O 	0.27548 0.53776 -0.00000 -1.14000
O 	O 	0.77548 0.03776 0.50000 -1.14000
O 	O 	-0.00000 0.27548 0.46224 -1.14000
O 	O 	0.50000 0.77548 0.96224 -1.14000
O 	O 	0.00000 0.72452 0.53776 -1.14000
O 	O 	0.50000 0.22452 0.03776 -1.14000
O 	O 	-0.00000 0.72452 0.46224 -1.14000
O 	O 	0.50000 0.22452 0.96224 -1.14000
O 	O 	-0.00000 0.27548 0.53776 -1.14000
O 	O 	0.50000 0.77548 0.03776 -1.14000
O 	O 	0.46224 -0.00000 0.27548 -1.14000
O 	O 	0.96224 0.50000 0.77548 -1.14000
O 	O 	0.53776 0.00000 0.72452 -1.14000
O 	O 	0.03776 0.50000 0.22452 -1.14000
O 	O 	0.46224 0.00000 0.72452 -1.14000
O 	O 	0.96224 0.50000 0.22452 -1.14000
O 	O 	0.53776 -0.00000 0.27548 -1.14000
O 	O 	0.03776 0.50000 0.77548 -1.14000
O 	O 	0.46224 0.27548 -0.00000 -1.14000
O 	O 	0.96224 0.77548 0.50000 -1.14000
O 	O 	0.53776 0.72452 -0.00000 -1.14000
O 	O 	0.03776 0.22452 0.50000 -1.14000
O 	O 	0.46224 0.72452 -0.00000 -1.14000
O 	O 	0.96224 0.22452 0.50000 -1.14000
O 	O 	0.53776 0.27548 -0.00000 -1.14000
O 	O 	0.03776 0.77548 0.50000 -1.14000
O 	O 	0.27548 -0.00000 0.53776 -1.14000
O 	O 	0.77548 0.50000 0.03776 -1.14000
O 	O 	0.72452 0.00000 0.46224 -1.14000
O 	O 	0.22452 0.50000 0.96224 -1.14000
O 	O 	0.72452 -0.00000 0.53776 -1.14000
O 	O 	0.22452 0.50000 0.03776 -1.14000
O 	O 	0.27548 0.00000 0.46224 -1.14000
O 	O 	0.77548 0.50000 0.96224 -1.14000
O 	O 	-0.00000 0.46224 0.72452 -1.14000
O 	O 	0.50000 0.96224 0.22452 -1.14000
O 	O 	-0.00000 0.53776 0.27548 -1.14000
O 	O 	0.50000 0.03776 0.77548 -1.14000
O 	O 	-0.00000 0.46224 0.27548 -1.14000
O 	O 	0.50000 0.96224 0.77548 -1.14000
O 	O 	0.00000 0.53776 0.72452 -1.14000
O 	O 	0.50000 0.03776 0.22452 -1.14000
