data_crystal

_cell_length_a 56.79200
_cell_length_b 14.33100
_cell_length_c 32.17000
_cell_angle_alpha 90.00000
_cell_angle_beta  90.00000
_cell_angle_gamma 90.00000

_symmetry_space_group_name_	'P 1'
_symmetry_space_group_name_H-M	'P 1'

loop_
_symmetry_equiv_pos_as_xyz
  x,y,z

loop_
_atom_site_label
_atom_site_type_symbol
_atom_site_fract_x
_atom_site_fract_y
_atom_site_fract_z
_atom_site_charge
Cu	Cu	0.40614 0.88210 0.48232 0.85600
O 	O 	0.32916 0.60730 0.60610 -0.27200
O 	O 	0.26777 0.41220 0.67570 -0.18400
O 	O 	0.30319 0.15350 0.52460 -0.21800
N 	N 	0.38277 0.78890 0.50510 -0.23000
N 	N 	0.18439 0.28010 0.71239 -0.26900
N 	N 	0.38476 0.98420 0.49850 -0.23600
N 	N 	0.33815 0.56810 0.54100 -0.24300
H 	H 	0.33560 0.52180 0.52360 0.12600
N 	N 	0.24391 0.31840 0.62860 -0.23000
H 	H 	0.24310 0.28340 0.60620 0.12900
N 	N 	0.34089 0.20490 0.54010 -0.23400
H 	H 	0.34890 0.25050 0.55180 0.12600
C 	C 	0.37283 0.78590 0.54500 0.07100
H 	H 	0.37630 0.83410 0.56430 -0.00400
C 	C 	0.35779 0.71260 0.55680 -0.15300
H 	H 	0.35150 0.70760 0.58410 0.11300
C 	C 	0.35254 0.64520 0.52450 0.13500
C 	C 	0.36114 0.64120 0.47910 -0.14000
H 	H 	0.35710 0.59750 0.45810 0.07600
C 	C 	0.37726 0.72220 0.47610 0.05300
H 	H 	0.38500 0.72900 0.45010 -0.02100
C 	C 	0.32843 0.55850 0.57880 0.26700
C 	C 	0.18794 0.24880 0.67800 0.13700
H 	H 	0.17480 0.21300 0.66910 -0.02700
C 	C 	0.20719 0.24940 0.64440 -0.18700
H 	H 	0.20730 0.21510 0.61920 0.10200
C 	C 	0.22499 0.31260 0.65910 0.19300
C 	C 	0.22248 0.35990 0.69500 -0.21100
H 	H 	0.23410 0.40480 0.70230 0.13600
C 	C 	0.20456 0.34640 0.72070 0.09600
H 	H 	0.20440 0.38060 0.74600 -0.00800
C 	C 	0.26240 0.37500 0.63350 0.15200
C 	C 	0.39234 0.05750 0.52690 0.06000
H 	H 	0.40810 0.05470 0.53680 -0.00400
C 	C 	0.37870 0.12980 0.54040 -0.15600
H 	H 	0.38420 0.17740 0.55840 0.08500
C 	C 	0.35440 0.12610 0.52380 0.14900
C 	C 	0.34517 0.05630 0.49600 -0.16500
H 	H 	0.32950 0.05780 0.48590 0.10800
C 	C 	0.36077 0.98800 0.48550 0.07200
H 	H 	0.35520 0.93900 0.46810 -0.01100
C 	C 	0.31751 0.21360 0.53880 0.20800
C 	C 	0.31441 0.46260 0.57910 -0.04900
C 	C 	0.29600 0.46190 0.60740 -0.02500
H 	H 	0.29260 0.51200 0.62580 0.06500
C 	C 	0.28302 0.37900 0.60590 -0.02200
C 	C 	0.28994 0.29710 0.58800 -0.02700
H 	H 	0.28240 0.23990 0.59480 0.05100
C 	C 	0.30882 0.29990 0.55900 -0.04400
C 	C 	0.32192 0.38510 0.55440 -0.02500
H 	H 	0.33490 0.38980 0.53590 0.03000
O 	O 	0.07793 0.45780 0.61830 -0.22300
O 	O 	0.00294 0.62160 0.59320 -0.22700
O 	O 	0.01226 0.14580 0.53680 -0.25300
N 	N 	0.13618 0.26680 0.70681 -0.25200
N 	N 	0.93002 0.77990 0.52340 -0.25800
N 	N 	0.93086 0.97780 0.53360 -0.24600
N 	N 	0.07633 0.30530 0.62950 -0.26100
H 	H 	0.06850 0.25370 0.62410 0.12400
N 	N 	0.97714 0.55690 0.54630 -0.24700
H 	H 	0.97470 0.50870 0.52990 0.12900
N 	N 	0.97747 0.20000 0.56080 -0.24600
H 	H 	0.97100 0.24840 0.57310 0.12700
C 	C 	0.13318 0.34170 0.68320 0.14000
H 	H 	0.14460 0.38960 0.68600 -0.02000
C 	C 	0.11578 0.35790 0.65550 -0.22400
H 	H 	0.11590 0.41190 0.63840 0.13300
C 	C 	0.09745 0.29250 0.65280 0.21100
C 	C 	0.09988 0.21430 0.67570 -0.21100
H 	H 	0.08830 0.16690 0.67230 0.09800
C 	C 	0.11754 0.19770 0.70340 0.08800
H 	H 	0.11770 0.14280 0.71990 -0.01600
C 	C 	0.06709 0.37850 0.61550 0.22900
C 	C 	0.93214 0.70940 0.50000 0.15500
H 	H 	0.92330 0.70760 0.47500 -0.03200
C 	C 	0.94654 0.63600 0.50900 -0.22400
H 	H 	0.94640 0.58340 0.49090 0.11200
C 	C 	0.96145 0.63470 0.54360 0.19600
C 	C 	0.96007 0.71170 0.57100 -0.18300
H 	H 	0.96960 0.71660 0.59520 0.11500
C 	C 	0.94328 0.78180 0.55940 0.08600
H 	H 	0.94110 0.83300 0.57780 -0.01700
C 	C 	0.99552 0.55390 0.57290 0.22200
C 	C 	0.92493 0.04630 0.55850 0.11800
H 	H 	0.90940 0.04580 0.56950 -0.03300
C 	C 	0.93931 0.11850 0.56970 -0.20100
H 	H 	0.93470 0.16310 0.59000 0.09600
C 	C 	0.96162 0.12320 0.54930 0.17800
C 	C 	0.96900 0.05450 0.52290 -0.17300
H 	H 	0.98450 0.05380 0.51170 0.11900
C 	C 	0.95126 0.98030 0.51280 0.07900
H 	H 	0.95450 0.93550 0.49180 0.00600
C 	C 	0.00092 0.20360 0.55430 0.25200
C 	C 	0.04291 0.37910 0.59740 -0.07300
C 	C 	0.03049 0.46160 0.59480 0.00500
H 	H 	0.03680 0.51690 0.60680 0.05800
C 	C 	0.00873 0.46450 0.57440 -0.07100
C 	C 	0.99825 0.37930 0.56420 0.00700
H 	H 	0.98220 0.37840 0.55620 0.02100
C 	C 	0.01084 0.29480 0.56540 -0.08100
C 	C 	0.03180 0.29170 0.58520 0.00800
H 	H 	0.03920 0.23370 0.59090 0.02600
Cu	Cu	0.40614 0.61790 0.01768 0.85500
O 	O 	0.32916 0.89270 0.89390 -0.27300
O 	O 	0.26777 0.08780 0.82430 -0.18500
O 	O 	0.30319 0.34650 0.97540 -0.21900
N 	N 	0.38277 0.71110 0.99490 -0.22900
N 	N 	0.18439 0.21990 0.78761 -0.26900
N 	N 	0.38476 0.51580 0.00150 -0.23700
N 	N 	0.33815 0.93190 0.95900 -0.24300
H 	H 	0.33560 0.97820 0.97640 0.12600
N 	N 	0.24391 0.18160 0.87140 -0.23000
H 	H 	0.24310 0.21660 0.89380 0.12900
N 	N 	0.34089 0.29510 0.95990 -0.23500
H 	H 	0.34890 0.24950 0.94820 0.12600
C 	C 	0.37283 0.71410 0.95500 0.07100
H 	H 	0.37630 0.66590 0.93570 -0.00400
C 	C 	0.35779 0.78740 0.94320 -0.15300
H 	H 	0.35150 0.79240 0.91590 0.11300
C 	C 	0.35254 0.85480 0.97550 0.13700
C 	C 	0.36114 0.85880 0.02090 -0.14200
H 	H 	0.35710 0.90250 0.04190 0.07600
C 	C 	0.37726 0.77780 0.02390 0.05100
H 	H 	0.38500 0.77100 0.04990 -0.02000
C 	C 	0.32843 0.94150 0.92120 0.26700
C 	C 	0.18794 0.25120 0.82200 0.13700
H 	H 	0.17480 0.28700 0.83090 -0.02700
C 	C 	0.20719 0.25060 0.85560 -0.18700
H 	H 	0.20730 0.28490 0.88080 0.10200
C 	C 	0.22499 0.18740 0.84090 0.19300
C 	C 	0.22248 0.14010 0.80500 -0.21100
H 	H 	0.23410 0.09520 0.79770 0.13600
C 	C 	0.20456 0.15360 0.77930 0.09600
H 	H 	0.20440 0.11940 0.75400 -0.00800
C 	C 	0.26240 0.12500 0.86650 0.15200
C 	C 	0.39234 0.44250 0.97310 0.06200
H 	H 	0.40810 0.44530 0.96320 -0.00400
C 	C 	0.37870 0.37020 0.95960 -0.15800
H 	H 	0.38420 0.32260 0.94160 0.08600
C 	C 	0.35440 0.37390 0.97620 0.15200
C 	C 	0.34517 0.44370 0.00400 -0.16900
H 	H 	0.32950 0.44220 0.01410 0.10800
C 	C 	0.36077 0.51200 0.01450 0.07300
H 	H 	0.35520 0.56100 0.03190 -0.01100
C 	C 	0.31751 0.28640 0.96120 0.20800
C 	C 	0.31441 0.03740 0.92090 -0.04900
C 	C 	0.29600 0.03810 0.89260 -0.02500
H 	H 	0.29260 0.98800 0.87420 0.06500
C 	C 	0.28302 0.12100 0.89410 -0.02200
C 	C 	0.28994 0.20290 0.91200 -0.02700
H 	H 	0.28240 0.26010 0.90520 0.05100
C 	C 	0.30882 0.20010 0.94100 -0.04400
C 	C 	0.32192 0.11490 0.94560 -0.02500
H 	H 	0.33490 0.11020 0.96410 0.03000
O 	O 	0.07793 0.04220 0.88170 -0.22300
O 	O 	0.00294 0.87840 0.90680 -0.22700
O 	O 	0.01226 0.35420 0.96320 -0.25300
N 	N 	0.13618 0.23320 0.79319 -0.25200
N 	N 	0.93002 0.72010 0.97660 -0.25500
N 	N 	0.93086 0.52220 0.96640 -0.24600
N 	N 	0.07633 0.19470 0.87050 -0.26100
H 	H 	0.06850 0.24630 0.87590 0.12400
N 	N 	0.97714 0.94310 0.95370 -0.24600
H 	H 	0.97470 0.99130 0.97010 0.12900
N 	N 	0.97747 0.30000 0.93920 -0.24600
H 	H 	0.97100 0.25160 0.92690 0.12700
C 	C 	0.13318 0.15830 0.81680 0.14000
H 	H 	0.14460 0.11040 0.81400 -0.02000
C 	C 	0.11578 0.14210 0.84450 -0.22400
H 	H 	0.11590 0.08810 0.86160 0.13300
C 	C 	0.09745 0.20750 0.84720 0.21100
C 	C 	0.09988 0.28570 0.82430 -0.21100
H 	H 	0.08830 0.33310 0.82770 0.09800
C 	C 	0.11754 0.30230 0.79660 0.08800
H 	H 	0.11770 0.35720 0.78010 -0.01600
C 	C 	0.06709 0.12150 0.88450 0.22900
C 	C 	0.93214 0.79060 -0.00000 0.14700
H 	H 	0.92330 0.79240 0.02500 -0.03000
C 	C 	0.94654 0.86400 0.99100 -0.21400
H 	H 	0.94640 0.91660 0.00910 0.10700
C 	C 	0.96145 0.86530 0.95640 0.19300
C 	C 	0.96007 0.78830 0.92900 -0.18000
H 	H 	0.96960 0.78340 0.90480 0.11400
C 	C 	0.94328 0.71820 0.94060 0.08500
H 	H 	0.94110 0.66700 0.92220 -0.01700
C 	C 	0.99552 0.94610 0.92710 0.22200
C 	C 	0.92493 0.45370 0.94150 0.11800
H 	H 	0.90940 0.45420 0.93050 -0.03300
C 	C 	0.93931 0.38150 0.93030 -0.20200
H 	H 	0.93470 0.33690 0.91000 0.09600
C 	C 	0.96162 0.37680 0.95070 0.17900
C 	C 	0.96900 0.44550 0.97710 -0.17400
H 	H 	0.98450 0.44620 0.98830 0.12000
C 	C 	0.95126 0.51970 0.98720 0.08300
H 	H 	0.95450 0.56450 0.00820 0.00400
C 	C 	0.00092 0.29640 0.94570 0.25200
C 	C 	0.04291 0.12090 0.90260 -0.07300
C 	C 	0.03049 0.03840 0.90520 0.00500
H 	H 	0.03680 0.98310 0.89320 0.05800
C 	C 	0.00873 0.03550 0.92560 -0.07000
C 	C 	0.99825 0.12070 0.93580 0.00700
H 	H 	0.98220 0.12160 0.94380 0.02100
C 	C 	0.01084 0.20520 0.93460 -0.08000
C 	C 	0.03180 0.20830 0.91480 0.00800
H 	H 	0.03920 0.26630 0.90910 0.02600
Cu	Cu	0.90614 0.88210 0.51768 0.85500
O 	O 	0.82916 0.60730 0.39390 -0.27300
O 	O 	0.76777 0.41220 0.32430 -0.18500
O 	O 	0.80319 0.15350 0.47540 -0.21900
N 	N 	0.88277 0.78890 0.49490 -0.23000
N 	N 	0.68439 0.28010 0.28761 -0.26900
N 	N 	0.88476 0.98420 0.50150 -0.23600
N 	N 	0.83815 0.56810 0.45900 -0.24300
H 	H 	0.83560 0.52180 0.47640 0.12600
N 	N 	0.74391 0.31840 0.37140 -0.23000
H 	H 	0.74310 0.28340 0.39380 0.12900
N 	N 	0.84089 0.20490 0.45990 -0.23400
H 	H 	0.84890 0.25050 0.44820 0.12600
C 	C 	0.87283 0.78590 0.45500 0.07100
H 	H 	0.87630 0.83410 0.43570 -0.00400
C 	C 	0.85779 0.71260 0.44320 -0.15300
H 	H 	0.85150 0.70760 0.41590 0.11300
C 	C 	0.85254 0.64520 0.47550 0.13500
C 	C 	0.86114 0.64120 0.52090 -0.14000
H 	H 	0.85710 0.59750 0.54190 0.07600
C 	C 	0.87726 0.72220 0.52390 0.05300
H 	H 	0.88500 0.72900 0.54990 -0.02100
C 	C 	0.82843 0.55850 0.42120 0.26700
C 	C 	0.68794 0.24880 0.32200 0.13700
H 	H 	0.67480 0.21300 0.33090 -0.02700
C 	C 	0.70719 0.24940 0.35560 -0.18700
H 	H 	0.70730 0.21510 0.38080 0.10200
C 	C 	0.72499 0.31260 0.34090 0.19300
C 	C 	0.72248 0.35990 0.30500 -0.21100
H 	H 	0.73410 0.40480 0.29770 0.13600
C 	C 	0.70456 0.34640 0.27930 0.09600
H 	H 	0.70440 0.38060 0.25400 -0.00800
C 	C 	0.76240 0.37500 0.36650 0.15200
C 	C 	0.89234 0.05750 0.47310 0.06000
H 	H 	0.90810 0.05470 0.46320 -0.00400
C 	C 	0.87870 0.12980 0.45960 -0.15600
H 	H 	0.88420 0.17740 0.44160 0.08500
C 	C 	0.85440 0.12610 0.47620 0.14900
C 	C 	0.84517 0.05630 0.50400 -0.16500
H 	H 	0.82950 0.05780 0.51410 0.10800
C 	C 	0.86077 0.98800 0.51450 0.07200
H 	H 	0.85520 0.93900 0.53190 -0.01100
C 	C 	0.81751 0.21360 0.46120 0.20800
C 	C 	0.81441 0.46260 0.42090 -0.04900
C 	C 	0.79600 0.46190 0.39260 -0.02500
H 	H 	0.79260 0.51200 0.37420 0.06500
C 	C 	0.78302 0.37900 0.39410 -0.02200
C 	C 	0.78994 0.29710 0.41200 -0.02700
H 	H 	0.78240 0.23990 0.40520 0.05100
C 	C 	0.80882 0.29990 0.44100 -0.04400
C 	C 	0.82192 0.38510 0.44560 -0.02500
H 	H 	0.83490 0.38980 0.46410 0.03000
O 	O 	0.57793 0.45780 0.38170 -0.22300
O 	O 	0.50294 0.62160 0.40680 -0.22700
O 	O 	0.51226 0.14580 0.46320 -0.25300
N 	N 	0.63618 0.26680 0.29319 -0.25200
N 	N 	0.43002 0.77990 0.47660 -0.25800
N 	N 	0.43086 0.97780 0.46640 -0.24600
N 	N 	0.57633 0.30530 0.37050 -0.26100
H 	H 	0.56850 0.25370 0.37590 0.12400
N 	N 	0.47714 0.55690 0.45370 -0.24700
H 	H 	0.47470 0.50870 0.47010 0.12900
N 	N 	0.47747 0.20000 0.43920 -0.24600
H 	H 	0.47100 0.24840 0.42690 0.12700
C 	C 	0.63318 0.34170 0.31680 0.14000
H 	H 	0.64460 0.38960 0.31400 -0.02000
C 	C 	0.61578 0.35790 0.34450 -0.22400
H 	H 	0.61590 0.41190 0.36160 0.13300
C 	C 	0.59745 0.29250 0.34720 0.21100
C 	C 	0.59988 0.21430 0.32430 -0.21100
H 	H 	0.58830 0.16690 0.32770 0.09800
C 	C 	0.61754 0.19770 0.29660 0.08800
H 	H 	0.61770 0.14280 0.28010 -0.01600
C 	C 	0.56709 0.37850 0.38450 0.22900
C 	C 	0.43214 0.70940 0.50000 0.15500
H 	H 	0.42330 0.70760 0.52500 -0.03200
C 	C 	0.44654 0.63600 0.49100 -0.22400
H 	H 	0.44640 0.58340 0.50910 0.11200
C 	C 	0.46145 0.63470 0.45640 0.19600
C 	C 	0.46007 0.71170 0.42900 -0.18300
H 	H 	0.46960 0.71660 0.40480 0.11500
C 	C 	0.44328 0.78180 0.44060 0.08600
H 	H 	0.44110 0.83300 0.42220 -0.01700
C 	C 	0.49552 0.55390 0.42710 0.22200
C 	C 	0.42493 0.04630 0.44150 0.11800
H 	H 	0.40940 0.04580 0.43050 -0.03300
C 	C 	0.43931 0.11850 0.43030 -0.20100
H 	H 	0.43470 0.16310 0.41000 0.09600
C 	C 	0.46162 0.12320 0.45070 0.17800
C 	C 	0.46900 0.05450 0.47710 -0.17300
H 	H 	0.48450 0.05380 0.48830 0.11900
C 	C 	0.45126 0.98030 0.48720 0.07900
H 	H 	0.45450 0.93550 0.50820 0.00600
C 	C 	0.50092 0.20360 0.44570 0.25200
C 	C 	0.54291 0.37910 0.40260 -0.07300
C 	C 	0.53049 0.46160 0.40520 0.00500
H 	H 	0.53680 0.51690 0.39320 0.05800
C 	C 	0.50873 0.46450 0.42560 -0.07100
C 	C 	0.49825 0.37930 0.43580 0.00700
H 	H 	0.48220 0.37840 0.44380 0.02100
C 	C 	0.51084 0.29480 0.43460 -0.08100
C 	C 	0.53180 0.29170 0.41480 0.00800
H 	H 	0.53920 0.23370 0.40910 0.02600
Cu	Cu	0.90614 0.61790 0.98232 0.85600
O 	O 	0.82916 0.89270 0.10610 -0.27300
O 	O 	0.76777 0.08780 0.17570 -0.18500
O 	O 	0.80319 0.34650 0.02460 -0.22000
N 	N 	0.88277 0.71110 0.00510 -0.23100
N 	N 	0.68439 0.21990 0.21239 -0.26900
N 	N 	0.88476 0.51580 0.99850 -0.23400
N 	N 	0.83815 0.93190 0.04100 -0.24200
H 	H 	0.83560 0.97820 0.02360 0.12600
N 	N 	0.74391 0.18160 0.12860 -0.23000
H 	H 	0.74310 0.21660 0.10620 0.12800
N 	N 	0.84089 0.29510 0.04010 -0.23400
H 	H 	0.84890 0.24950 0.05180 0.12600
C 	C 	0.87283 0.71410 0.04500 0.07000
H 	H 	0.87630 0.66590 0.06430 -0.00400
C 	C 	0.85779 0.78740 0.05680 -0.15200
H 	H 	0.85150 0.79240 0.08410 0.11200
C 	C 	0.85254 0.85480 0.02450 0.13300
C 	C 	0.86114 0.85880 0.97910 -0.13900
H 	H 	0.85710 0.90250 0.95810 0.07600
C 	C 	0.87726 0.77780 0.97610 0.05500
H 	H 	0.88500 0.77100 0.95010 -0.02100
C 	C 	0.82843 0.94150 0.07880 0.26700
C 	C 	0.68794 0.25120 0.17800 0.13700
H 	H 	0.67480 0.28700 0.16910 -0.02700
C 	C 	0.70719 0.25060 0.14440 -0.18700
H 	H 	0.70730 0.28490 0.11920 0.10200
C 	C 	0.72499 0.18740 0.15910 0.19300
C 	C 	0.72248 0.14010 0.19500 -0.21000
H 	H 	0.73410 0.09520 0.20230 0.13600
C 	C 	0.70456 0.15360 0.22070 0.09600
H 	H 	0.70440 0.11940 0.24600 -0.00800
C 	C 	0.76240 0.12500 0.13350 0.15200
C 	C 	0.89234 0.44250 0.02690 0.05700
H 	H 	0.90810 0.44530 0.03680 -0.00400
C 	C 	0.87870 0.37020 0.04040 -0.15500
H 	H 	0.88420 0.32260 0.05840 0.08400
C 	C 	0.85440 0.37390 0.02380 0.14700
C 	C 	0.84517 0.44370 0.99600 -0.16200
H 	H 	0.82950 0.44220 0.98590 0.10700
C 	C 	0.86077 0.51200 0.98550 0.07100
H 	H 	0.85520 0.56100 0.96810 -0.01000
C 	C 	0.81751 0.28640 0.03880 0.20800
C 	C 	0.81441 0.03740 0.07910 -0.04900
C 	C 	0.79600 0.03810 0.10740 -0.02500
H 	H 	0.79260 0.98800 0.12580 0.06500
C 	C 	0.78302 0.12100 0.10590 -0.02200
C 	C 	0.78994 0.20290 0.08800 -0.02700
H 	H 	0.78240 0.26010 0.09480 0.05100
C 	C 	0.80882 0.20010 0.05900 -0.04400
C 	C 	0.82192 0.11490 0.05440 -0.02500
H 	H 	0.83490 0.11020 0.03590 0.03000
O 	O 	0.57793 0.04220 0.11830 -0.22300
O 	O 	0.50294 0.87840 0.09320 -0.22700
O 	O 	0.51226 0.35420 0.03680 -0.25400
N 	N 	0.63618 0.23320 0.20681 -0.25200
N 	N 	0.43002 0.72010 0.02340 -0.25800
N 	N 	0.43086 0.52220 0.03360 -0.24500
N 	N 	0.57633 0.19470 0.12950 -0.26100
H 	H 	0.56850 0.24630 0.12410 0.12400
N 	N 	0.47714 0.94310 0.04630 -0.24700
H 	H 	0.47470 0.99130 0.02990 0.12900
N 	N 	0.47747 0.30000 0.06080 -0.24600
H 	H 	0.47100 0.25160 0.07310 0.12700
C 	C 	0.63318 0.15830 0.18320 0.14000
H 	H 	0.64460 0.11040 0.18600 -0.02000
C 	C 	0.61578 0.14210 0.15550 -0.22400
H 	H 	0.61590 0.08810 0.13840 0.13300
C 	C 	0.59745 0.20750 0.15280 0.21000
C 	C 	0.59988 0.28570 0.17570 -0.21100
H 	H 	0.58830 0.33310 0.17230 0.09800
C 	C 	0.61754 0.30230 0.20340 0.08800
H 	H 	0.61770 0.35720 0.21990 -0.01600
C 	C 	0.56709 0.12150 0.11550 0.22900
C 	C 	0.43214 0.79060 -0.00000 0.15300
H 	H 	0.42330 0.79240 0.97500 -0.03000
C 	C 	0.44654 0.86400 0.00900 -0.22600
H 	H 	0.44640 0.91660 0.99090 0.11400
C 	C 	0.46145 0.86530 0.04360 0.19600
C 	C 	0.46007 0.78830 0.07100 -0.18300
H 	H 	0.46960 0.78340 0.09520 0.11500
C 	C 	0.44328 0.71820 0.05940 0.08600
H 	H 	0.44110 0.66700 0.07780 -0.01700
C 	C 	0.49552 0.94610 0.07290 0.22200
C 	C 	0.42493 0.45370 0.05850 0.11700
H 	H 	0.40940 0.45420 0.06950 -0.03300
C 	C 	0.43931 0.38150 0.06970 -0.20100
H 	H 	0.43470 0.33690 0.09000 0.09600
C 	C 	0.46162 0.37680 0.04930 0.17700
C 	C 	0.46900 0.44550 0.02290 -0.17100
H 	H 	0.48450 0.44620 0.01170 0.11800
C 	C 	0.45126 0.51970 0.01280 0.07500
H 	H 	0.45450 0.56450 0.99180 0.00900
C 	C 	0.50092 0.29640 0.05430 0.25200
C 	C 	0.54291 0.12090 0.09740 -0.07300
C 	C 	0.53049 0.03840 0.09480 0.00500
H 	H 	0.53680 0.98310 0.10680 0.05800
C 	C 	0.50873 0.03550 0.07440 -0.07100
C 	C 	0.49825 0.12070 0.06420 0.00700
H 	H 	0.48220 0.12160 0.05620 0.02100
C 	C 	0.51084 0.20520 0.06540 -0.08100
C 	C 	0.53180 0.20830 0.08520 0.00800
H 	H 	0.53920 0.26630 0.09090 0.02600
Cu	Cu	0.16032 0.25000 0.75000 0.87300
Cu	Cu	0.66032 0.25000 0.25000 0.87300
Cu	Cu	0.09386 0.11790 0.48232 0.85500
O 	O 	0.17084 0.39270 0.60610 -0.27300
O 	O 	0.23223 0.58780 0.67570 -0.18500
O 	O 	0.19681 0.84650 0.52460 -0.21900
N 	N 	0.11723 0.21110 0.50510 -0.23000
N 	N 	0.31561 0.71990 0.71239 -0.26900
N 	N 	0.11524 0.01580 0.49850 -0.23600
N 	N 	0.16185 0.43190 0.54100 -0.24300
H 	H 	0.16440 0.47820 0.52360 0.12600
N 	N 	0.25609 0.68160 0.62860 -0.23000
H 	H 	0.25690 0.71660 0.60620 0.12900
N 	N 	0.15911 0.79510 0.54010 -0.23400
H 	H 	0.15110 0.74950 0.55180 0.12600
C 	C 	0.12717 0.21410 0.54500 0.07100
H 	H 	0.12370 0.16590 0.56430 -0.00400
C 	C 	0.14221 0.28740 0.55680 -0.15300
H 	H 	0.14850 0.29240 0.58410 0.11300
C 	C 	0.14746 0.35480 0.52450 0.13500
C 	C 	0.13886 0.35880 0.47910 -0.14000
H 	H 	0.14290 0.40250 0.45810 0.07600
C 	C 	0.12274 0.27780 0.47610 0.05300
H 	H 	0.11500 0.27100 0.45010 -0.02100
C 	C 	0.17157 0.44150 0.57880 0.26700
C 	C 	0.31206 0.75120 0.67800 0.13700
H 	H 	0.32520 0.78700 0.66910 -0.02700
C 	C 	0.29281 0.75060 0.64440 -0.18700
H 	H 	0.29270 0.78490 0.61920 0.10200
C 	C 	0.27501 0.68740 0.65910 0.19300
C 	C 	0.27752 0.64010 0.69500 -0.21100
H 	H 	0.26590 0.59520 0.70230 0.13600
C 	C 	0.29544 0.65360 0.72070 0.09600
H 	H 	0.29560 0.61940 0.74600 -0.00800
C 	C 	0.23760 0.62500 0.63350 0.15200
C 	C 	0.10766 0.94250 0.52690 0.06000
H 	H 	0.09190 0.94530 0.53680 -0.00400
C 	C 	0.12130 0.87020 0.54040 -0.15600
H 	H 	0.11580 0.82260 0.55840 0.08500
C 	C 	0.14560 0.87390 0.52380 0.14900
C 	C 	0.15483 0.94370 0.49600 -0.16500
H 	H 	0.17050 0.94220 0.48590 0.10800
C 	C 	0.13923 0.01200 0.48550 0.07200
H 	H 	0.14480 0.06100 0.46810 -0.01100
C 	C 	0.18249 0.78640 0.53880 0.20800
C 	C 	0.18559 0.53740 0.57910 -0.04900
C 	C 	0.20400 0.53810 0.60740 -0.02500
H 	H 	0.20740 0.48800 0.62580 0.06500
C 	C 	0.21698 0.62100 0.60590 -0.02200
C 	C 	0.21006 0.70290 0.58800 -0.02700
H 	H 	0.21760 0.76010 0.59480 0.05100
C 	C 	0.19118 0.70010 0.55900 -0.04400
C 	C 	0.17808 0.61490 0.55440 -0.02500
H 	H 	0.16510 0.61020 0.53590 0.03000
O 	O 	0.42207 0.54220 0.61830 -0.22300
O 	O 	0.49706 0.37840 0.59320 -0.22700
O 	O 	0.48774 0.85420 0.53680 -0.25300
N 	N 	0.36382 0.73320 0.70681 -0.25200
N 	N 	0.56998 0.22010 0.52340 -0.25800
N 	N 	0.56914 0.02220 0.53360 -0.24600
N 	N 	0.42367 0.69470 0.62950 -0.26100
H 	H 	0.43150 0.74630 0.62410 0.12400
N 	N 	0.52286 0.44310 0.54630 -0.24700
H 	H 	0.52530 0.49130 0.52990 0.12900
N 	N 	0.52253 0.80000 0.56080 -0.24600
H 	H 	0.52900 0.75160 0.57310 0.12700
C 	C 	0.36682 0.65830 0.68320 0.14000
H 	H 	0.35540 0.61040 0.68600 -0.02000
C 	C 	0.38422 0.64210 0.65550 -0.22400
H 	H 	0.38410 0.58810 0.63840 0.13300
C 	C 	0.40255 0.70750 0.65280 0.21100
C 	C 	0.40012 0.78570 0.67570 -0.21100
H 	H 	0.41170 0.83310 0.67230 0.09800
C 	C 	0.38246 0.80230 0.70340 0.08800
H 	H 	0.38230 0.85720 0.71990 -0.01600
C 	C 	0.43291 0.62150 0.61550 0.22900
C 	C 	0.56786 0.29060 0.50000 0.15500
H 	H 	0.57670 0.29240 0.47500 -0.03200
C 	C 	0.55346 0.36400 0.50900 -0.22400
H 	H 	0.55360 0.41660 0.49090 0.11200
C 	C 	0.53855 0.36530 0.54360 0.19600
C 	C 	0.53993 0.28830 0.57100 -0.18300
H 	H 	0.53040 0.28340 0.59520 0.11500
C 	C 	0.55672 0.21820 0.55940 0.08600
H 	H 	0.55890 0.16700 0.57780 -0.01700
C 	C 	0.50448 0.44610 0.57290 0.22200
C 	C 	0.57507 0.95370 0.55850 0.11800
H 	H 	0.59060 0.95420 0.56950 -0.03300
C 	C 	0.56069 0.88150 0.56970 -0.20100
H 	H 	0.56530 0.83690 0.59000 0.09600
C 	C 	0.53838 0.87680 0.54930 0.17800
C 	C 	0.53100 0.94550 0.52290 -0.17300
H 	H 	0.51550 0.94620 0.51170 0.11900
C 	C 	0.54874 0.01970 0.51280 0.07900
H 	H 	0.54550 0.06450 0.49180 0.00600
C 	C 	0.49908 0.79640 0.55430 0.25200
C 	C 	0.45709 0.62090 0.59740 -0.07300
C 	C 	0.46951 0.53840 0.59480 0.00500
H 	H 	0.46320 0.48310 0.60680 0.05800
C 	C 	0.49127 0.53550 0.57440 -0.07100
C 	C 	0.50175 0.62070 0.56420 0.00700
H 	H 	0.51780 0.62160 0.55620 0.02100
C 	C 	0.48916 0.70520 0.56540 -0.08100
C 	C 	0.46820 0.70830 0.58520 0.00800
H 	H 	0.46080 0.76630 0.59090 0.02600
Cu	Cu	0.09386 0.38210 0.01768 0.85500
O 	O 	0.17084 0.10730 0.89390 -0.27300
O 	O 	0.23223 0.91220 0.82430 -0.18500
O 	O 	0.19681 0.65350 0.97540 -0.21900
N 	N 	0.11723 0.28890 0.99490 -0.22900
N 	N 	0.31561 0.78010 0.78761 -0.26900
N 	N 	0.11524 0.48420 0.00150 -0.23700
N 	N 	0.16185 0.06810 0.95900 -0.24300
H 	H 	0.16440 0.02180 0.97640 0.12600
N 	N 	0.25609 0.81840 0.87140 -0.23000
H 	H 	0.25690 0.78340 0.89380 0.12900
N 	N 	0.15911 0.70490 0.95990 -0.23500
H 	H 	0.15110 0.75050 0.94820 0.12600
C 	C 	0.12717 0.28590 0.95500 0.07100
H 	H 	0.12370 0.33410 0.93570 -0.00400
C 	C 	0.14221 0.21260 0.94320 -0.15300
H 	H 	0.14850 0.20760 0.91590 0.11300
C 	C 	0.14746 0.14520 0.97550 0.13700
C 	C 	0.13886 0.14120 0.02090 -0.14200
H 	H 	0.14290 0.09750 0.04190 0.07600
C 	C 	0.12274 0.22220 0.02390 0.05100
H 	H 	0.11500 0.22900 0.04990 -0.02000
C 	C 	0.17157 0.05850 0.92120 0.26700
C 	C 	0.31206 0.74880 0.82200 0.13700
H 	H 	0.32520 0.71300 0.83090 -0.02700
C 	C 	0.29281 0.74940 0.85560 -0.18700
H 	H 	0.29270 0.71510 0.88080 0.10200
C 	C 	0.27501 0.81260 0.84090 0.19300
C 	C 	0.27752 0.85990 0.80500 -0.21100
H 	H 	0.26590 0.90480 0.79770 0.13600
C 	C 	0.29544 0.84640 0.77930 0.09600
H 	H 	0.29560 0.88060 0.75400 -0.00800
C 	C 	0.23760 0.87500 0.86650 0.15200
C 	C 	0.10766 0.55750 0.97310 0.06200
H 	H 	0.09190 0.55470 0.96320 -0.00400
C 	C 	0.12130 0.62980 0.95960 -0.15800
H 	H 	0.11580 0.67740 0.94160 0.08600
C 	C 	0.14560 0.62610 0.97620 0.15200
C 	C 	0.15483 0.55630 0.00400 -0.16900
H 	H 	0.17050 0.55780 0.01410 0.10800
C 	C 	0.13923 0.48800 0.01450 0.07300
H 	H 	0.14480 0.43900 0.03190 -0.01100
C 	C 	0.18249 0.71360 0.96120 0.20800
C 	C 	0.18559 0.96260 0.92090 -0.04900
C 	C 	0.20400 0.96190 0.89260 -0.02500
H 	H 	0.20740 0.01200 0.87420 0.06500
C 	C 	0.21698 0.87900 0.89410 -0.02200
C 	C 	0.21006 0.79710 0.91200 -0.02700
H 	H 	0.21760 0.73990 0.90520 0.05100
C 	C 	0.19118 0.79990 0.94100 -0.04400
C 	C 	0.17808 0.88510 0.94560 -0.02500
H 	H 	0.16510 0.88980 0.96410 0.03000
O 	O 	0.42207 0.95780 0.88170 -0.22300
O 	O 	0.49706 0.12160 0.90680 -0.22700
O 	O 	0.48774 0.64580 0.96320 -0.25300
N 	N 	0.36382 0.76680 0.79319 -0.25200
N 	N 	0.56998 0.27990 0.97660 -0.25500
N 	N 	0.56914 0.47780 0.96640 -0.24600
N 	N 	0.42367 0.80530 0.87050 -0.26100
H 	H 	0.43150 0.75370 0.87590 0.12400
N 	N 	0.52286 0.05690 0.95370 -0.24600
H 	H 	0.52530 0.00870 0.97010 0.12900
N 	N 	0.52253 0.70000 0.93920 -0.24600
H 	H 	0.52900 0.74840 0.92690 0.12700
C 	C 	0.36682 0.84170 0.81680 0.14000
H 	H 	0.35540 0.88960 0.81400 -0.02000
C 	C 	0.38422 0.85790 0.84450 -0.22400
H 	H 	0.38410 0.91190 0.86160 0.13300
C 	C 	0.40255 0.79250 0.84720 0.21100
C 	C 	0.40012 0.71430 0.82430 -0.21100
H 	H 	0.41170 0.66690 0.82770 0.09800
C 	C 	0.38246 0.69770 0.79660 0.08800
H 	H 	0.38230 0.64280 0.78010 -0.01600
C 	C 	0.43291 0.87850 0.88450 0.22900
C 	C 	0.56786 0.20940 -0.00000 0.14700
H 	H 	0.57670 0.20760 0.02500 -0.03000
C 	C 	0.55346 0.13600 0.99100 -0.21400
H 	H 	0.55360 0.08340 0.00910 0.10700
C 	C 	0.53855 0.13470 0.95640 0.19300
C 	C 	0.53993 0.21170 0.92900 -0.18000
H 	H 	0.53040 0.21660 0.90480 0.11400
C 	C 	0.55672 0.28180 0.94060 0.08500
H 	H 	0.55890 0.33300 0.92220 -0.01700
C 	C 	0.50448 0.05390 0.92710 0.22200
C 	C 	0.57507 0.54630 0.94150 0.11800
H 	H 	0.59060 0.54580 0.93050 -0.03300
C 	C 	0.56069 0.61850 0.93030 -0.20200
H 	H 	0.56530 0.66310 0.91000 0.09600
C 	C 	0.53838 0.62320 0.95070 0.17900
C 	C 	0.53100 0.55450 0.97710 -0.17400
H 	H 	0.51550 0.55380 0.98830 0.12000
C 	C 	0.54874 0.48030 0.98720 0.08300
H 	H 	0.54550 0.43550 0.00820 0.00400
C 	C 	0.49908 0.70360 0.94570 0.25200
C 	C 	0.45709 0.87910 0.90260 -0.07300
C 	C 	0.46951 0.96160 0.90520 0.00500
H 	H 	0.46320 0.01690 0.89320 0.05800
C 	C 	0.49127 0.96450 0.92560 -0.07000
C 	C 	0.50175 0.87930 0.93580 0.00700
H 	H 	0.51780 0.87840 0.94380 0.02100
C 	C 	0.48916 0.79480 0.93460 -0.08000
C 	C 	0.46820 0.79170 0.91480 0.00800
H 	H 	0.46080 0.73370 0.90910 0.02600
Cu	Cu	0.59386 0.11790 0.51768 0.85500
O 	O 	0.67084 0.39270 0.39390 -0.27300
O 	O 	0.73223 0.58780 0.32430 -0.18500
O 	O 	0.69681 0.84650 0.47540 -0.21900
N 	N 	0.61723 0.21110 0.49490 -0.23000
N 	N 	0.81561 0.71990 0.28761 -0.26900
N 	N 	0.61524 0.01580 0.50150 -0.23600
N 	N 	0.66185 0.43190 0.45900 -0.24300
H 	H 	0.66440 0.47820 0.47640 0.12600
N 	N 	0.75609 0.68160 0.37140 -0.23000
H 	H 	0.75690 0.71660 0.39380 0.12900
N 	N 	0.65911 0.79510 0.45990 -0.23400
H 	H 	0.65110 0.74950 0.44820 0.12600
C 	C 	0.62717 0.21410 0.45500 0.07100
H 	H 	0.62370 0.16590 0.43570 -0.00400
C 	C 	0.64221 0.28740 0.44320 -0.15300
H 	H 	0.64850 0.29240 0.41590 0.11300
C 	C 	0.64746 0.35480 0.47550 0.13500
C 	C 	0.63886 0.35880 0.52090 -0.14000
H 	H 	0.64290 0.40250 0.54190 0.07600
C 	C 	0.62274 0.27780 0.52390 0.05300
H 	H 	0.61500 0.27100 0.54990 -0.02100
C 	C 	0.67157 0.44150 0.42120 0.26700
C 	C 	0.81206 0.75120 0.32200 0.13700
H 	H 	0.82520 0.78700 0.33090 -0.02700
C 	C 	0.79281 0.75060 0.35560 -0.18700
H 	H 	0.79270 0.78490 0.38080 0.10200
C 	C 	0.77501 0.68740 0.34090 0.19300
C 	C 	0.77752 0.64010 0.30500 -0.21100
H 	H 	0.76590 0.59520 0.29770 0.13600
C 	C 	0.79544 0.65360 0.27930 0.09600
H 	H 	0.79560 0.61940 0.25400 -0.00800
C 	C 	0.73760 0.62500 0.36650 0.15200
C 	C 	0.60766 0.94250 0.47310 0.06000
H 	H 	0.59190 0.94530 0.46320 -0.00400
C 	C 	0.62130 0.87020 0.45960 -0.15600
H 	H 	0.61580 0.82260 0.44160 0.08500
C 	C 	0.64560 0.87390 0.47620 0.14900
C 	C 	0.65483 0.94370 0.50400 -0.16500
H 	H 	0.67050 0.94220 0.51410 0.10800
C 	C 	0.63923 0.01200 0.51450 0.07200
H 	H 	0.64480 0.06100 0.53190 -0.01100
C 	C 	0.68249 0.78640 0.46120 0.20800
C 	C 	0.68559 0.53740 0.42090 -0.04900
C 	C 	0.70400 0.53810 0.39260 -0.02500
H 	H 	0.70740 0.48800 0.37420 0.06500
C 	C 	0.71698 0.62100 0.39410 -0.02200
C 	C 	0.71006 0.70290 0.41200 -0.02700
H 	H 	0.71760 0.76010 0.40520 0.05100
C 	C 	0.69118 0.70010 0.44100 -0.04400
C 	C 	0.67808 0.61490 0.44560 -0.02500
H 	H 	0.66510 0.61020 0.46410 0.03000
O 	O 	0.92207 0.54220 0.38170 -0.22300
O 	O 	0.99706 0.37840 0.40680 -0.22700
O 	O 	0.98774 0.85420 0.46320 -0.25300
N 	N 	0.86382 0.73320 0.29319 -0.25200
N 	N 	0.06998 0.22010 0.47660 -0.25800
N 	N 	0.06914 0.02220 0.46640 -0.24600
N 	N 	0.92367 0.69470 0.37050 -0.26100
H 	H 	0.93150 0.74630 0.37590 0.12400
N 	N 	0.02286 0.44310 0.45370 -0.24700
H 	H 	0.02530 0.49130 0.47010 0.12900
N 	N 	0.02253 0.80000 0.43920 -0.24600
H 	H 	0.02900 0.75160 0.42690 0.12700
C 	C 	0.86682 0.65830 0.31680 0.14000
H 	H 	0.85540 0.61040 0.31400 -0.02000
C 	C 	0.88422 0.64210 0.34450 -0.22400
H 	H 	0.88410 0.58810 0.36160 0.13300
C 	C 	0.90255 0.70750 0.34720 0.21100
C 	C 	0.90012 0.78570 0.32430 -0.21100
H 	H 	0.91170 0.83310 0.32770 0.09800
C 	C 	0.88246 0.80230 0.29660 0.08800
H 	H 	0.88230 0.85720 0.28010 -0.01600
C 	C 	0.93291 0.62150 0.38450 0.22900
C 	C 	0.06786 0.29060 0.50000 0.15500
H 	H 	0.07670 0.29240 0.52500 -0.03200
C 	C 	0.05346 0.36400 0.49100 -0.22400
H 	H 	0.05360 0.41660 0.50910 0.11200
C 	C 	0.03855 0.36530 0.45640 0.19600
C 	C 	0.03993 0.28830 0.42900 -0.18300
H 	H 	0.03040 0.28340 0.40480 0.11500
C 	C 	0.05672 0.21820 0.44060 0.08600
H 	H 	0.05890 0.16700 0.42220 -0.01700
C 	C 	0.00448 0.44610 0.42710 0.22200
C 	C 	0.07507 0.95370 0.44150 0.11800
H 	H 	0.09060 0.95420 0.43050 -0.03300
C 	C 	0.06069 0.88150 0.43030 -0.20100
H 	H 	0.06530 0.83690 0.41000 0.09600
C 	C 	0.03838 0.87680 0.45070 0.17800
C 	C 	0.03100 0.94550 0.47710 -0.17300
H 	H 	0.01550 0.94620 0.48830 0.11900
C 	C 	0.04874 0.01970 0.48720 0.07900
H 	H 	0.04550 0.06450 0.50820 0.00600
C 	C 	0.99908 0.79640 0.44570 0.25200
C 	C 	0.95709 0.62090 0.40260 -0.07300
C 	C 	0.96951 0.53840 0.40520 0.00500
H 	H 	0.96320 0.48310 0.39320 0.05800
C 	C 	0.99127 0.53550 0.42560 -0.07100
C 	C 	0.00175 0.62070 0.43580 0.00700
H 	H 	0.01780 0.62160 0.44380 0.02100
C 	C 	0.98916 0.70520 0.43460 -0.08100
C 	C 	0.96820 0.70830 0.41480 0.00800
H 	H 	0.96080 0.76630 0.40910 0.02600
Cu	Cu	0.59386 0.38210 0.98232 0.85600
O 	O 	0.67084 0.10730 0.10610 -0.27300
O 	O 	0.73223 0.91220 0.17570 -0.18500
O 	O 	0.69681 0.65350 0.02460 -0.22000
N 	N 	0.61723 0.28890 0.00510 -0.23100
N 	N 	0.81561 0.78010 0.21239 -0.26900
N 	N 	0.61524 0.48420 0.99850 -0.23400
N 	N 	0.66185 0.06810 0.04100 -0.24200
H 	H 	0.66440 0.02180 0.02360 0.12600
N 	N 	0.75609 0.81840 0.12860 -0.23000
H 	H 	0.75690 0.78340 0.10620 0.12800
N 	N 	0.65911 0.70490 0.04010 -0.23400
H 	H 	0.65110 0.75050 0.05180 0.12600
C 	C 	0.62717 0.28590 0.04500 0.07000
H 	H 	0.62370 0.33410 0.06430 -0.00400
C 	C 	0.64221 0.21260 0.05680 -0.15200
H 	H 	0.64850 0.20760 0.08410 0.11200
C 	C 	0.64746 0.14520 0.02450 0.13300
C 	C 	0.63886 0.14120 0.97910 -0.13900
H 	H 	0.64290 0.09750 0.95810 0.07600
C 	C 	0.62274 0.22220 0.97610 0.05500
H 	H 	0.61500 0.22900 0.95010 -0.02100
C 	C 	0.67157 0.05850 0.07880 0.26700
C 	C 	0.81206 0.74880 0.17800 0.13700
H 	H 	0.82520 0.71300 0.16910 -0.02700
C 	C 	0.79281 0.74940 0.14440 -0.18700
H 	H 	0.79270 0.71510 0.11920 0.10200
C 	C 	0.77501 0.81260 0.15910 0.19300
C 	C 	0.77752 0.85990 0.19500 -0.21000
H 	H 	0.76590 0.90480 0.20230 0.13600
C 	C 	0.79544 0.84640 0.22070 0.09600
H 	H 	0.79560 0.88060 0.24600 -0.00800
C 	C 	0.73760 0.87500 0.13350 0.15200
C 	C 	0.60766 0.55750 0.02690 0.05700
H 	H 	0.59190 0.55470 0.03680 -0.00400
C 	C 	0.62130 0.62980 0.04040 -0.15500
H 	H 	0.61580 0.67740 0.05840 0.08400
C 	C 	0.64560 0.62610 0.02380 0.14700
C 	C 	0.65483 0.55630 0.99600 -0.16200
H 	H 	0.67050 0.55780 0.98590 0.10700
C 	C 	0.63923 0.48800 0.98550 0.07100
H 	H 	0.64480 0.43900 0.96810 -0.01000
C 	C 	0.68249 0.71360 0.03880 0.20800
C 	C 	0.68559 0.96260 0.07910 -0.04900
C 	C 	0.70400 0.96190 0.10740 -0.02500
H 	H 	0.70740 0.01200 0.12580 0.06500
C 	C 	0.71698 0.87900 0.10590 -0.02200
C 	C 	0.71006 0.79710 0.08800 -0.02700
H 	H 	0.71760 0.73990 0.09480 0.05100
C 	C 	0.69118 0.79990 0.05900 -0.04400
C 	C 	0.67808 0.88510 0.05440 -0.02500
H 	H 	0.66510 0.88980 0.03590 0.03000
O 	O 	0.92207 0.95780 0.11830 -0.22300
O 	O 	0.99706 0.12160 0.09320 -0.22700
O 	O 	0.98774 0.64580 0.03680 -0.25400
N 	N 	0.86382 0.76680 0.20681 -0.25200
N 	N 	0.06998 0.27990 0.02340 -0.25800
N 	N 	0.06914 0.47780 0.03360 -0.24500
N 	N 	0.92367 0.80530 0.12950 -0.26100
H 	H 	0.93150 0.75370 0.12410 0.12400
N 	N 	0.02286 0.05690 0.04630 -0.24700
H 	H 	0.02530 0.00870 0.02990 0.12900
N 	N 	0.02253 0.70000 0.06080 -0.24600
H 	H 	0.02900 0.74840 0.07310 0.12700
C 	C 	0.86682 0.84170 0.18320 0.14000
H 	H 	0.85540 0.88960 0.18600 -0.02000
C 	C 	0.88422 0.85790 0.15550 -0.22400
H 	H 	0.88410 0.91190 0.13840 0.13300
C 	C 	0.90255 0.79250 0.15280 0.21000
C 	C 	0.90012 0.71430 0.17570 -0.21100
H 	H 	0.91170 0.66690 0.17230 0.09800
C 	C 	0.88246 0.69770 0.20340 0.08800
H 	H 	0.88230 0.64280 0.21990 -0.01600
C 	C 	0.93291 0.87850 0.11550 0.22900
C 	C 	0.06786 0.20940 -0.00000 0.15300
H 	H 	0.07670 0.20760 0.97500 -0.03000
C 	C 	0.05346 0.13600 0.00900 -0.22600
H 	H 	0.05360 0.08340 0.99090 0.11400
C 	C 	0.03855 0.13470 0.04360 0.19600
C 	C 	0.03993 0.21170 0.07100 -0.18300
H 	H 	0.03040 0.21660 0.09520 0.11500
C 	C 	0.05672 0.28180 0.05940 0.08600
H 	H 	0.05890 0.33300 0.07780 -0.01700
C 	C 	0.00448 0.05390 0.07290 0.22200
C 	C 	0.07507 0.54630 0.05850 0.11700
H 	H 	0.09060 0.54580 0.06950 -0.03300
C 	C 	0.06069 0.61850 0.06970 -0.20100
H 	H 	0.06530 0.66310 0.09000 0.09600
C 	C 	0.03838 0.62320 0.04930 0.17700
C 	C 	0.03100 0.55450 0.02290 -0.17100
H 	H 	0.01550 0.55380 0.01170 0.11800
C 	C 	0.04874 0.48030 0.01280 0.07500
H 	H 	0.04550 0.43550 0.99180 0.00900
C 	C 	0.99908 0.70360 0.05430 0.25200
C 	C 	0.95709 0.87910 0.09740 -0.07300
C 	C 	0.96951 0.96160 0.09480 0.00500
H 	H 	0.96320 0.01690 0.10680 0.05800
C 	C 	0.99127 0.96450 0.07440 -0.07100
C 	C 	0.00175 0.87930 0.06420 0.00700
H 	H 	0.01780 0.87840 0.05620 0.02100
C 	C 	0.98916 0.79480 0.06540 -0.08100
C 	C 	0.96820 0.79170 0.08520 0.00800
H 	H 	0.96080 0.73370 0.09090 0.02600
Cu	Cu	0.33968 0.75000 0.75000 0.87300
Cu	Cu	0.83968 0.75000 0.25000 0.87300
