data_crystal

_cell_length_a 8.58510
_cell_length_b 15.41180
_cell_length_c 28.04670
_cell_angle_alpha 90.00000
_cell_angle_beta  90.00000
_cell_angle_gamma 90.00000

_symmetry_space_group_name_	'P 1'
_symmetry_space_group_name_H-M	'P 1'

loop_
_symmetry_equiv_pos_as_xyz
  x,y,z

loop_
_atom_site_label
_atom_site_type_symbol
_atom_site_fract_x
_atom_site_fract_y
_atom_site_fract_z
_atom_site_charge
Tb	Tb	0.05160 0.79758 0.41386 1.93600
Tb	Tb	0.44840 0.29758 0.58614 1.95500
Tb	Tb	0.94840 0.20242 0.91386 1.93400
Tb	Tb	0.55160 0.70242 0.08614 1.95500
Tb	Tb	0.94840 0.20242 0.58614 1.93600
Tb	Tb	0.55160 0.70242 0.41386 1.95500
Tb	Tb	0.05160 0.79758 0.08614 1.93500
Tb	Tb	0.44840 0.29758 0.91386 1.95600
H 	H 	0.91380 0.51520 0.40320 0.03000
H 	H 	0.88430 0.37570 0.44860 0.05100
H 	H 	0.65660 0.59340 0.29510 0.03300
H 	H 	0.58620 0.01520 0.59680 0.03100
H 	H 	0.61570 0.87570 0.55140 0.05000
H 	H 	0.84340 0.09340 0.70490 0.03000
H 	H 	0.08620 0.48480 0.90320 0.03000
H 	H 	0.11570 0.62430 0.94860 0.05000
H 	H 	0.34340 0.40660 0.79510 0.03300
H 	H 	0.41380 0.98480 0.09680 0.03000
H 	H 	0.38430 0.12430 0.05140 0.05100
H 	H 	0.15660 0.90660 0.20490 0.03000
H 	H 	0.08620 0.48480 0.59680 0.03000
H 	H 	0.11570 0.62430 0.55140 0.05100
H 	H 	0.34340 0.40660 0.70490 0.03300
H 	H 	0.41380 0.98480 0.40320 0.03100
H 	H 	0.38430 0.12430 0.44860 0.05000
H 	H 	0.15660 0.90660 0.29510 0.03000
H 	H 	0.91380 0.51520 0.09680 0.03000
H 	H 	0.88430 0.37570 0.05140 0.05000
H 	H 	0.65660 0.59340 0.20490 0.03300
H 	H 	0.58620 0.01520 0.90320 0.03000
H 	H 	0.61570 0.87570 0.94860 0.05100
H 	H 	0.84340 0.09340 0.79510 0.03000
C 	C 	0.14790 0.33520 0.51020 0.46100
C 	C 	0.20390 0.60580 0.42250 0.42800
C 	C 	0.10240 0.40110 0.47420 -0.02100
C 	C 	0.98690 0.49030 0.42350 -0.00800
C 	C 	0.97020 0.41240 0.44900 -0.03100
C 	C 	0.85210 0.72990 0.33590 0.40100
C 	C 	0.80600 0.69560 0.28880 -0.00900
C 	C 	0.71140 0.63090 0.27520 -0.01700
C 	C 	0.13010 0.52240 0.43420 -0.03200
C 	C 	0.35210 0.83520 0.48980 0.46200
C 	C 	0.29610 0.10580 0.57750 0.42500
C 	C 	0.39760 0.90110 0.52580 -0.02100
C 	C 	0.51310 0.99030 0.57650 -0.01700
C 	C 	0.52980 0.91240 0.55100 -0.02800
C 	C 	0.64790 0.22990 0.66410 0.40100
C 	C 	0.69400 0.19560 0.71120 -0.01100
C 	C 	0.78860 0.13090 0.72480 -0.01900
C 	C 	0.36990 0.02240 0.56580 -0.02300
C 	C 	0.85210 0.66480 0.01020 0.46300
C 	C 	0.79610 0.39420 0.92250 0.42900
C 	C 	0.89760 0.59890 0.97420 -0.02400
C 	C 	0.01310 0.50970 0.92350 -0.00800
C 	C 	0.02980 0.58760 0.94900 -0.02800
C 	C 	0.14790 0.27010 0.83590 0.40100
C 	C 	0.19400 0.30440 0.78880 -0.00900
C 	C 	0.28860 0.36910 0.77520 -0.01700
C 	C 	0.86990 0.47760 0.93420 -0.03300
C 	C 	0.64790 0.16480 0.98980 0.46100
C 	C 	0.70390 0.89420 0.07750 0.42600
C 	C 	0.60240 0.09890 0.02580 -0.02000
C 	C 	0.48690 0.00970 0.07650 -0.01500
C 	C 	0.47020 0.08760 0.05100 -0.02900
C 	C 	0.35210 0.77010 0.16410 0.40000
C 	C 	0.30600 0.80440 0.21120 -0.01100
C 	C 	0.21140 0.86910 0.22480 -0.01900
C 	C 	0.63010 0.97760 0.06580 -0.02400
C 	C 	0.85210 0.66480 0.48980 0.46100
C 	C 	0.79610 0.39420 0.57750 0.42800
C 	C 	0.89760 0.59890 0.52580 -0.02100
C 	C 	0.01310 0.50970 0.57650 -0.00800
C 	C 	0.02980 0.58760 0.55100 -0.03100
C 	C 	0.14790 0.27010 0.66410 0.40100
C 	C 	0.19400 0.30440 0.71120 -0.00900
C 	C 	0.28860 0.36910 0.72480 -0.01700
C 	C 	0.86990 0.47760 0.56580 -0.03200
C 	C 	0.64790 0.16480 0.51020 0.46200
C 	C 	0.70390 0.89420 0.42250 0.42500
C 	C 	0.60240 0.09890 0.47420 -0.02100
C 	C 	0.48690 0.00970 0.42350 -0.01700
C 	C 	0.47020 0.08760 0.44900 -0.02800
C 	C 	0.35210 0.77010 0.33590 0.40100
C 	C 	0.30600 0.80440 0.28880 -0.01100
C 	C 	0.21140 0.86910 0.27520 -0.01900
C 	C 	0.63010 0.97760 0.43420 -0.02300
C 	C 	0.14790 0.33520 0.98980 0.46300
C 	C 	0.20390 0.60580 0.07750 0.42900
C 	C 	0.10240 0.40110 0.02580 -0.02400
C 	C 	0.98690 0.49030 0.07650 -0.00800
C 	C 	0.97020 0.41240 0.05100 -0.02800
C 	C 	0.85210 0.72990 0.16410 0.40100
C 	C 	0.80600 0.69560 0.21120 -0.00900
C 	C 	0.71140 0.63090 0.22480 -0.01700
C 	C 	0.13010 0.52240 0.06580 -0.03300
C 	C 	0.35210 0.83520 0.01020 0.46100
C 	C 	0.29610 0.10580 0.92250 0.42600
C 	C 	0.39760 0.90110 0.97420 -0.02000
C 	C 	0.51310 0.99030 0.92350 -0.01500
C 	C 	0.52980 0.91240 0.94900 -0.02900
C 	C 	0.64790 0.22990 0.83590 0.40000
C 	C 	0.69400 0.19560 0.78880 -0.01100
C 	C 	0.78860 0.13090 0.77520 -0.01900
C 	C 	0.36990 0.02240 0.93420 -0.02400
O 	O 	0.28460 0.33860 0.52580 -0.51600
O 	O 	0.04370 0.28310 0.52197 -0.49400
O 	O 	0.20440 0.46710 0.46535 -0.14900
O 	O 	0.12440 0.65560 0.39699 -0.49700
O 	O 	0.33680 0.62060 0.43894 -0.50200
O 	O 	0.95020 0.79040 0.33743 -0.47000
O 	O 	0.79320 0.69630 0.37264 -0.52800
O 	O 	0.21540 0.83860 0.47420 -0.51500
O 	O 	0.45630 0.78310 0.47803 -0.49800
O 	O 	0.29560 0.96710 0.53465 -0.15200
O 	O 	0.37560 0.15560 0.60301 -0.49500
O 	O 	0.16320 0.12060 0.56106 -0.49700
O 	O 	0.54980 0.29040 0.66257 -0.47800
O 	O 	0.70680 0.19630 0.62736 -0.52900
O 	O 	0.71540 0.66140 0.02580 -0.51600
O 	O 	0.95630 0.71690 0.02197 -0.49300
O 	O 	0.79560 0.53290 0.96535 -0.14800
O 	O 	0.87560 0.34440 0.89699 -0.49700
O 	O 	0.66320 0.37940 0.93894 -0.50300
O 	O 	0.04980 0.20960 0.83743 -0.47000
O 	O 	0.20680 0.30370 0.87264 -0.52800
O 	O 	0.78460 0.16140 0.97420 -0.51500
O 	O 	0.54370 0.21690 0.97803 -0.49800
O 	O 	0.70440 0.03290 0.03465 -0.15100
O 	O 	0.62440 0.84440 0.10301 -0.49500
O 	O 	0.83680 0.87940 0.06106 -0.49600
O 	O 	0.45020 0.70960 0.16257 -0.47800
O 	O 	0.29320 0.80370 0.12736 -0.52900
O 	O 	0.71540 0.66140 0.47420 -0.51600
O 	O 	0.95630 0.71690 0.47803 -0.49400
O 	O 	0.79560 0.53290 0.53465 -0.14900
O 	O 	0.87560 0.34440 0.60301 -0.49700
O 	O 	0.66320 0.37940 0.56106 -0.50200
O 	O 	0.04980 0.20960 0.66257 -0.47000
O 	O 	0.20680 0.30370 0.62736 -0.52800
O 	O 	0.78460 0.16140 0.52580 -0.51500
O 	O 	0.54370 0.21690 0.52197 -0.49800
O 	O 	0.70440 0.03290 0.46535 -0.15200
O 	O 	0.62440 0.84440 0.39699 -0.49500
O 	O 	0.83680 0.87940 0.43894 -0.49700
O 	O 	0.45020 0.70960 0.33743 -0.47800
O 	O 	0.29320 0.80370 0.37264 -0.52900
O 	O 	0.28460 0.33860 0.97420 -0.51600
O 	O 	0.04370 0.28310 0.97803 -0.49300
O 	O 	0.20440 0.46710 0.03465 -0.14800
O 	O 	0.12440 0.65560 0.10301 -0.49700
O 	O 	0.33680 0.62060 0.06106 -0.50300
O 	O 	0.95020 0.79040 0.16257 -0.47000
O 	O 	0.79320 0.69630 0.12736 -0.52800
O 	O 	0.21540 0.83860 0.02580 -0.51500
O 	O 	0.45630 0.78310 0.02197 -0.49800
O 	O 	0.29560 0.96710 0.96535 -0.15100
O 	O 	0.37560 0.15560 0.89699 -0.49500
O 	O 	0.16320 0.12060 0.93894 -0.49600
O 	O 	0.54980 0.29040 0.83743 -0.47800
O 	O 	0.70680 0.19630 0.87264 -0.52900
O 	O 	0.86580 0.73690 0.25000 -0.13700
O 	O 	0.63420 0.23690 0.75000 -0.14000
O 	O 	0.13420 0.26310 0.75000 -0.13700
O 	O 	0.36580 0.76310 0.25000 -0.14000
