data_crystal

_cell_length_a 16.17800
_cell_length_b 16.17800
_cell_length_c 6.83770
_cell_angle_alpha 90.00000
_cell_angle_beta  90.00000
_cell_angle_gamma 90.00000

_symmetry_space_group_name_	'P 1'
_symmetry_space_group_name_H-M	'P 1'

loop_
_symmetry_equiv_pos_as_xyz
  x,y,z

loop_
_atom_site_label
_atom_site_type_symbol
_atom_site_fract_x
_atom_site_fract_y
_atom_site_fract_z
_atom_site_charge
N 	N 	0.31870 0.52770 0.21640 -0.22000
O 	O 	0.32940 0.41970 0.75530 -0.22200
O 	O 	0.42690 0.48140 0.93120 -0.48300
C 	C 	0.35340 0.46150 0.90370 0.31900
C 	C 	0.29300 0.48930 0.04880 -0.01800
C 	C 	0.17910 0.61910 0.60000 -0.02700
N 	N 	0.18130 0.97230 0.21640 -0.22600
O 	O 	0.17060 0.08030 0.75530 -0.22100
O 	O 	0.07310 0.01860 0.93120 -0.47800
C 	C 	0.14660 0.03850 0.90370 0.31600
C 	C 	0.20700 0.01070 0.04880 -0.01300
C 	C 	0.32090 0.88090 0.60000 -0.02700
N 	N 	0.97230 0.31870 0.71640 -0.22300
O 	O 	0.08030 0.32940 0.25530 -0.22300
O 	O 	0.01860 0.42690 0.43120 -0.48300
C 	C 	0.03850 0.35340 0.40370 0.31700
C 	C 	0.01070 0.29300 0.54880 -0.01500
C 	C 	0.88090 0.17910 0.10000 -0.02900
N 	N 	0.52770 0.18130 0.71640 -0.22100
O 	O 	0.41970 0.17060 0.25530 -0.22300
O 	O 	0.48140 0.07310 0.43120 -0.48300
C 	C 	0.46150 0.14660 0.40370 0.31700
C 	C 	0.48930 0.20700 0.54880 -0.01700
C 	C 	0.61910 0.32090 0.10000 -0.02700
N 	N 	0.68130 0.02770 0.78360 -0.22400
O 	O 	0.67060 0.91970 0.24470 -0.22200
O 	O 	0.57310 0.98140 0.06880 -0.48300
C 	C 	0.64660 0.96150 0.09630 0.31600
C 	C 	0.70700 0.98930 0.95120 -0.01400
C 	C 	0.82090 0.11910 0.40000 -0.02900
N 	N 	0.81870 0.47230 0.78360 -0.22100
O 	O 	0.82940 0.58030 0.24470 -0.22300
O 	O 	0.92690 0.51860 0.06880 -0.48200
C 	C 	0.85340 0.53850 0.09630 0.32000
C 	C 	0.79300 0.51070 0.95120 -0.02000
C 	C 	0.67910 0.38090 0.40000 -0.02700
N 	N 	0.02770 0.81870 0.28360 -0.22500
O 	O 	0.91970 0.82940 0.74470 -0.22200
O 	O 	0.98140 0.92690 0.56880 -0.47900
C 	C 	0.96150 0.85340 0.59630 0.31600
C 	C 	0.98930 0.79300 0.45120 -0.01100
C 	C 	0.11910 0.67910 0.90000 -0.02700
N 	N 	0.47230 0.68130 0.28360 -0.22100
O 	O 	0.58030 0.67060 0.74470 -0.22300
O 	O 	0.51860 0.57310 0.56880 -0.48300
C 	C 	0.53850 0.64660 0.59630 0.31700
C 	C 	0.51070 0.70700 0.45120 -0.01700
C 	C 	0.38090 0.82090 0.90000 -0.02600
N 	N 	0.68130 0.47230 0.78360 -0.22100
O 	O 	0.67060 0.58030 0.24470 -0.22300
O 	O 	0.57310 0.51860 0.06880 -0.48400
C 	C 	0.64660 0.53850 0.09630 0.31800
C 	C 	0.70700 0.51070 0.95120 -0.01800
C 	C 	0.82090 0.38090 0.40000 -0.02700
N 	N 	0.81870 0.02770 0.78360 -0.22600
O 	O 	0.82940 0.91970 0.24470 -0.22100
O 	O 	0.92690 0.98140 0.06880 -0.47800
C 	C 	0.85340 0.96150 0.09630 0.31600
C 	C 	0.79300 0.98930 0.95120 -0.01300
C 	C 	0.67910 0.11910 0.40000 -0.02700
N 	N 	0.02770 0.68130 0.28360 -0.22300
O 	O 	0.91970 0.67060 0.74470 -0.22300
O 	O 	0.98140 0.57310 0.56880 -0.48300
C 	C 	0.96150 0.64660 0.59630 0.31700
C 	C 	0.98930 0.70700 0.45120 -0.01500
C 	C 	0.11910 0.82090 0.90000 -0.02900
N 	N 	0.47230 0.81870 0.28360 -0.22100
O 	O 	0.58030 0.82940 0.74470 -0.22300
O 	O 	0.51860 0.92690 0.56880 -0.48300
C 	C 	0.53850 0.85340 0.59630 0.31700
C 	C 	0.51070 0.79300 0.45120 -0.01700
C 	C 	0.38090 0.67910 0.90000 -0.02700
N 	N 	0.31870 0.97230 0.21640 -0.22400
O 	O 	0.32940 0.08030 0.75530 -0.22200
O 	O 	0.42690 0.01860 0.93120 -0.48300
C 	C 	0.35340 0.03850 0.90370 0.31600
C 	C 	0.29300 0.01070 0.04880 -0.01400
C 	C 	0.17910 0.88090 0.60000 -0.02900
N 	N 	0.18130 0.52770 0.21640 -0.22100
O 	O 	0.17060 0.41970 0.75530 -0.22300
O 	O 	0.07310 0.48140 0.93120 -0.48200
C 	C 	0.14660 0.46150 0.90370 0.32000
C 	C 	0.20700 0.48930 0.04880 -0.02000
C 	C 	0.32090 0.61910 0.60000 -0.02700
N 	N 	0.97230 0.18130 0.71640 -0.22500
O 	O 	0.08030 0.17060 0.25530 -0.22200
O 	O 	0.01860 0.07310 0.43120 -0.47900
C 	C 	0.03850 0.14660 0.40370 0.31600
C 	C 	0.01070 0.20700 0.54880 -0.01100
C 	C 	0.88090 0.32090 0.10000 -0.02700
N 	N 	0.52770 0.31870 0.71640 -0.22100
O 	O 	0.41970 0.32940 0.25530 -0.22300
O 	O 	0.48140 0.42690 0.43120 -0.48300
C 	C 	0.46150 0.35340 0.40370 0.31700
C 	C 	0.48930 0.29300 0.54880 -0.01700
C 	C 	0.61910 0.17910 0.10000 -0.02600
Cd	Cd	0.45721 0.54279 0.25000 1.23000
Cd	Cd	0.04279 0.95721 0.25000 1.22600
Cd	Cd	0.95721 0.45721 0.75000 1.22900
Cd	Cd	0.54279 0.04279 0.75000 1.22900
Cd	Cd	0.54279 0.45721 0.75000 1.23000
Cd	Cd	0.95721 0.04279 0.75000 1.22600
Cd	Cd	0.04279 0.54279 0.25000 1.22900
Cd	Cd	0.45721 0.95721 0.25000 1.22900
C 	C 	0.25000 0.59080 0.50400 -0.05200
C 	C 	0.25000 0.54920 0.31270 0.12900
C 	C 	0.25000 0.90920 0.50400 -0.05200
C 	C 	0.25000 0.95080 0.31270 0.12800
C 	C 	0.90920 0.25000 0.00400 -0.04600
C 	C 	0.95080 0.25000 0.81270 0.12300
C 	C 	0.59080 0.25000 0.00400 -0.04900
C 	C 	0.54920 0.25000 0.81270 0.12700
C 	C 	0.75000 0.09080 0.49600 -0.05200
C 	C 	0.75000 0.04920 0.68730 0.12800
C 	C 	0.75000 0.40920 0.49600 -0.05200
C 	C 	0.75000 0.45080 0.68730 0.12900
C 	C 	0.09080 0.75000 0.99600 -0.04600
C 	C 	0.04920 0.75000 0.18730 0.12300
C 	C 	0.40920 0.75000 0.99600 -0.04900
C 	C 	0.45080 0.75000 0.18730 0.12700
