data_crystal

_cell_length_a 9.03890
_cell_length_b 24.49800
_cell_length_c 45.85300
_cell_angle_alpha 90.00000
_cell_angle_beta  90.00000
_cell_angle_gamma 90.00000

_symmetry_space_group_name_	'P 1'
_symmetry_space_group_name_H-M	'P 1'

loop_
_symmetry_equiv_pos_as_xyz
  x,y,z

loop_
_atom_site_label
_atom_site_type_symbol
_atom_site_fract_x
_atom_site_fract_y
_atom_site_fract_z
_atom_site_charge
Cd	Cd	0.91412 0.53713 0.85085 1.22900
Cd	Cd	0.41412 0.96287 0.64915 1.23900
Cd	Cd	0.58588 0.46287 0.85085 1.22900
Cd	Cd	0.08588 0.03713 0.64915 1.21900
Cd	Cd	0.08588 0.46287 0.14915 1.22900
Cd	Cd	0.58588 0.03713 0.35085 1.21900
Cd	Cd	0.41412 0.53713 0.14915 1.23000
Cd	Cd	0.91412 0.96287 0.35085 1.24000
Cd	Cd	0.25000 0.50000 0.81325 1.22100
Cd	Cd	0.75000 0.00000 0.68675 1.20900
Cd	Cd	0.75000 0.50000 0.18675 1.22100
Cd	Cd	0.25000 -0.00000 0.31325 1.20900
H 	H 	0.98050 0.44540 0.75460 -0.00200
H 	H 	0.96990 0.37480 0.72160 0.07600
H 	H 	0.77070 0.28340 0.78190 0.07700
H 	H 	0.78950 0.35210 0.81530 0.01300
H 	H 	0.04210 0.29090 0.70340 0.06700
H 	H 	0.04510 0.21310 0.67670 0.01500
H 	H 	0.67990 0.16110 0.71740 0.02000
H 	H 	0.67220 0.23970 0.74350 0.07300
H 	H 	0.44860 0.53420 0.91320 -0.00100
H 	H 	0.44110 0.54090 0.96330 0.09400
H 	H 	0.16840 0.42510 0.00690 0.05100
H 	H 	0.18130 0.42810 0.05870 0.06000
H 	H 	0.48050 0.05460 0.74540 -0.01000
H 	H 	0.46990 0.12520 0.77840 0.07300
H 	H 	0.27070 0.21660 0.71810 0.07800
H 	H 	0.28950 0.14790 0.68470 0.01200
H 	H 	0.54210 0.20910 0.79660 0.06600
H 	H 	0.54510 0.28690 0.82330 0.01600
H 	H 	0.17990 0.33890 0.78260 0.02100
H 	H 	0.17220 0.26030 0.75650 0.07200
H 	H 	0.94860 0.96580 0.58680 -0.00400
H 	H 	0.94110 0.95910 0.53670 0.09100
H 	H 	0.66840 0.07490 0.49310 0.04800
H 	H 	0.68130 0.07190 0.44130 0.06200
H 	H 	0.51950 0.55460 0.75460 -0.00200
H 	H 	0.53010 0.62520 0.72160 0.07600
H 	H 	0.72930 0.71660 0.78190 0.07800
H 	H 	0.71050 0.64790 0.81530 0.01400
H 	H 	0.45790 0.70910 0.70340 0.06800
H 	H 	0.45490 0.78690 0.67670 0.01800
H 	H 	0.82010 0.83890 0.71740 0.02200
H 	H 	0.82780 0.76030 0.74350 0.07300
H 	H 	0.05140 0.46580 0.91320 -0.00200
H 	H 	0.05890 0.45910 0.96330 0.09300
H 	H 	0.33160 0.57490 0.00690 0.05300
H 	H 	0.31870 0.57190 0.05870 0.06200
H 	H 	0.01950 0.94540 0.74540 0.00700
H 	H 	0.03010 0.87480 0.77840 0.07800
H 	H 	0.22930 0.78340 0.71810 0.07600
H 	H 	0.21050 0.85210 0.68470 0.01500
H 	H 	0.95790 0.79090 0.79660 0.06900
H 	H 	0.95490 0.71310 0.82330 0.01600
H 	H 	0.32010 0.66110 0.78260 0.02100
H 	H 	0.32780 0.73970 0.75650 0.07400
H 	H 	0.55140 0.03420 0.58680 -0.00600
H 	H 	0.55890 0.04090 0.53670 0.09100
H 	H 	0.83160 0.92510 0.49310 0.04400
H 	H 	0.81870 0.92810 0.44130 0.05300
H 	H 	0.01950 0.55460 0.24540 -0.00200
H 	H 	0.03010 0.62520 0.27840 0.07600
H 	H 	0.22930 0.71660 0.21810 0.07900
H 	H 	0.21050 0.64790 0.18470 0.01400
H 	H 	0.95790 0.70910 0.29660 0.06700
H 	H 	0.95490 0.78690 0.32330 0.01600
H 	H 	0.32010 0.83890 0.28260 0.02200
H 	H 	0.32780 0.76030 0.25650 0.07300
H 	H 	0.55140 0.46580 0.08680 -0.00200
H 	H 	0.55890 0.45910 0.03670 0.09300
H 	H 	0.83160 0.57490 0.99310 0.05300
H 	H 	0.81870 0.57190 0.94130 0.06200
H 	H 	0.51950 0.94540 0.25460 0.00700
H 	H 	0.53010 0.87480 0.22160 0.07800
H 	H 	0.72930 0.78340 0.28190 0.07600
H 	H 	0.71050 0.85210 0.31530 0.01500
H 	H 	0.45790 0.79090 0.20340 0.07100
H 	H 	0.45490 0.71310 0.17670 0.01800
H 	H 	0.82010 0.66110 0.21740 0.02100
H 	H 	0.82780 0.73970 0.24350 0.07400
H 	H 	0.05140 0.03420 0.41320 -0.00600
H 	H 	0.05890 0.04090 0.46330 0.09100
H 	H 	0.33160 0.92510 0.50690 0.04400
H 	H 	0.31870 0.92810 0.55870 0.05300
H 	H 	0.48050 0.44540 0.24540 -0.00200
H 	H 	0.46990 0.37480 0.27840 0.07500
H 	H 	0.27070 0.28340 0.21810 0.07600
H 	H 	0.28950 0.35210 0.18470 0.01300
H 	H 	0.54210 0.29090 0.29660 0.06800
H 	H 	0.54510 0.21310 0.32330 0.01700
H 	H 	0.17990 0.16110 0.28260 0.02000
H 	H 	0.17220 0.23970 0.25650 0.07300
H 	H 	0.94860 0.53420 0.08680 -0.00100
H 	H 	0.94110 0.54090 0.03670 0.09400
H 	H 	0.66840 0.42510 0.99310 0.05100
H 	H 	0.68130 0.42810 0.94130 0.06000
H 	H 	0.98050 0.05460 0.25460 -0.01000
H 	H 	0.96990 0.12520 0.22160 0.07300
H 	H 	0.77070 0.21660 0.28190 0.07900
H 	H 	0.78950 0.14790 0.31530 0.01200
H 	H 	0.04210 0.20910 0.20340 0.06400
H 	H 	0.04510 0.28690 0.17670 0.01400
H 	H 	0.67990 0.33890 0.21740 0.02100
H 	H 	0.67220 0.26030 0.24350 0.07200
H 	H 	0.44860 0.96580 0.41320 -0.00400
H 	H 	0.44110 0.95910 0.46330 0.09200
H 	H 	0.16840 0.07490 0.50690 0.04800
H 	H 	0.18130 0.07190 0.55870 0.06200
C 	C 	0.90080 0.45103 0.81012 0.37300
C 	C 	0.88640 0.40775 0.78856 -0.16800
C 	C 	0.93870 0.41240 0.76036 0.07700
C 	C 	0.93190 0.37033 0.74028 -0.14400
C 	C 	0.86720 0.32138 0.74857 0.06200
C 	C 	0.81460 0.31617 0.77642 -0.13800
C 	C 	0.82430 0.35741 0.79639 0.07500
C 	C 	0.86290 0.27385 0.72792 0.04100
C 	C 	0.97010 0.26450 0.70671 -0.12600
C 	C 	0.97210 0.21785 0.69077 0.06800
C 	C 	0.86820 0.17735 0.69501 -0.14900
C 	C 	0.75400 0.18705 0.71493 0.06000
C 	C 	0.75010 0.23372 0.73066 -0.12200
C 	C 	0.88180 0.12185 0.68089 0.42600
C 	C 	0.36670 0.52118 0.92326 0.10700
C 	C 	0.36490 0.52350 0.95330 -0.16800
C 	C 	0.20330 0.45620 0.01628 -0.06400
C 	C 	0.21040 0.46000 0.04935 -0.03200
C 	C 	0.40080 0.04897 0.68988 0.37500
C 	C 	0.38640 0.09225 0.71144 -0.17500
C 	C 	0.43870 0.08760 0.73964 0.08000
C 	C 	0.43190 0.12967 0.75972 -0.14900
C 	C 	0.36720 0.17862 0.75143 0.06400
C 	C 	0.31460 0.18383 0.72358 -0.14200
C 	C 	0.32430 0.14259 0.70361 0.07700
C 	C 	0.36290 0.22615 0.77208 0.03800
C 	C 	0.47010 0.23550 0.79329 -0.12500
C 	C 	0.47210 0.28215 0.80923 0.06300
C 	C 	0.36820 0.32265 0.80499 -0.14700
C 	C 	0.25400 0.31295 0.78507 0.05800
C 	C 	0.25010 0.26628 0.76934 -0.12000
C 	C 	0.38180 0.37815 0.81911 0.42600
C 	C 	0.86670 0.97882 0.57674 0.14600
C 	C 	0.86490 0.97650 0.54670 -0.13300
C 	C 	0.70330 0.04380 0.48372 -0.05600
C 	C 	0.71040 0.04000 0.45065 -0.03800
C 	C 	0.59920 0.54897 0.81012 0.37300
C 	C 	0.61360 0.59225 0.78856 -0.16800
C 	C 	0.56130 0.58760 0.76036 0.07700
C 	C 	0.56810 0.62967 0.74028 -0.14400
C 	C 	0.63280 0.67862 0.74857 0.06300
C 	C 	0.68540 0.68383 0.77642 -0.13800
C 	C 	0.67570 0.64259 0.79639 0.07500
C 	C 	0.63710 0.72615 0.72792 0.04000
C 	C 	0.52990 0.73550 0.70671 -0.12500
C 	C 	0.52790 0.78215 0.69077 0.06400
C 	C 	0.63180 0.82265 0.69501 -0.14400
C 	C 	0.74600 0.81295 0.71493 0.05900
C 	C 	0.74990 0.76628 0.73066 -0.12000
C 	C 	0.61820 0.87815 0.68089 0.42600
C 	C 	0.13330 0.47882 0.92326 0.10700
C 	C 	0.13510 0.47650 0.95330 -0.16800
C 	C 	0.29670 0.54380 0.01628 -0.06400
C 	C 	0.28960 0.54000 0.04935 -0.03100
C 	C 	0.09920 0.95103 0.68988 0.37000
C 	C 	0.11360 0.90775 0.71144 -0.15900
C 	C 	0.06130 0.91240 0.73964 0.07400
C 	C 	0.06810 0.87033 0.75972 -0.13800
C 	C 	0.13280 0.82138 0.75143 0.06000
C 	C 	0.18540 0.81617 0.72358 -0.13400
C 	C 	0.17570 0.85741 0.70361 0.07100
C 	C 	0.13710 0.77385 0.77208 0.04300
C 	C 	0.02990 0.76450 0.79329 -0.12600
C 	C 	0.02790 0.71785 0.80923 0.06900
C 	C 	0.13180 0.67735 0.80499 -0.14800
C 	C 	0.24600 0.68705 0.78507 0.06100
C 	C 	0.24990 0.73372 0.76934 -0.12200
C 	C 	0.11820 0.62185 0.81911 0.42700
C 	C 	0.63330 0.02118 0.57674 0.10900
C 	C 	0.63510 0.02350 0.54670 -0.17000
C 	C 	0.79670 0.95620 0.48372 -0.02100
C 	C 	0.78960 0.96000 0.45065 0.00900
C 	C 	0.09920 0.54897 0.18988 0.37300
C 	C 	0.11360 0.59225 0.21144 -0.16800
C 	C 	0.06130 0.58760 0.23964 0.07800
C 	C 	0.06810 0.62967 0.25972 -0.14400
C 	C 	0.13280 0.67862 0.25143 0.06300
C 	C 	0.18540 0.68383 0.22358 -0.13900
C 	C 	0.17570 0.64259 0.20361 0.07500
C 	C 	0.13710 0.72615 0.27208 0.04000
C 	C 	0.02990 0.73550 0.29329 -0.12400
C 	C 	0.02790 0.78215 0.30923 0.06700
C 	C 	0.13180 0.82265 0.30499 -0.14500
C 	C 	0.24600 0.81295 0.28507 0.05900
C 	C 	0.24990 0.76628 0.26934 -0.12000
C 	C 	0.11820 0.87815 0.31911 0.42600
C 	C 	0.63330 0.47882 0.07674 0.10700
C 	C 	0.63510 0.47650 0.04670 -0.16800
C 	C 	0.79670 0.54380 0.98372 -0.06400
C 	C 	0.78960 0.54000 0.95065 -0.03100
C 	C 	0.59920 0.95103 0.31012 0.37000
C 	C 	0.61360 0.90775 0.28856 -0.15900
C 	C 	0.56130 0.91240 0.26036 0.07300
C 	C 	0.56810 0.87033 0.24028 -0.13700
C 	C 	0.63280 0.82138 0.24857 0.06000
C 	C 	0.68540 0.81617 0.27642 -0.13300
C 	C 	0.67570 0.85741 0.29639 0.07100
C 	C 	0.63710 0.77385 0.22792 0.04400
C 	C 	0.52990 0.76450 0.20671 -0.12800
C 	C 	0.52790 0.71785 0.19077 0.06600
C 	C 	0.63180 0.67735 0.19501 -0.14700
C 	C 	0.74600 0.68705 0.21493 0.06100
C 	C 	0.74990 0.73372 0.23066 -0.12200
C 	C 	0.61820 0.62185 0.18089 0.42700
C 	C 	0.13330 0.02118 0.42326 0.11000
C 	C 	0.13510 0.02350 0.45330 -0.17000
C 	C 	0.29670 0.95620 0.51628 -0.02000
C 	C 	0.28960 0.96000 0.54935 0.01000
C 	C 	0.40080 0.45103 0.18988 0.37300
C 	C 	0.38640 0.40775 0.21144 -0.16800
C 	C 	0.43870 0.41240 0.23964 0.07700
C 	C 	0.43190 0.37033 0.25972 -0.14300
C 	C 	0.36720 0.32138 0.25143 0.06200
C 	C 	0.31460 0.31617 0.22358 -0.13800
C 	C 	0.32430 0.35741 0.20361 0.07400
C 	C 	0.36290 0.27385 0.27208 0.04100
C 	C 	0.47010 0.26450 0.29329 -0.12700
C 	C 	0.47210 0.21785 0.30923 0.06500
C 	C 	0.36820 0.17735 0.30499 -0.14800
C 	C 	0.25400 0.18705 0.28507 0.05900
C 	C 	0.25010 0.23372 0.26934 -0.12200
C 	C 	0.38180 0.12185 0.31911 0.42600
C 	C 	0.86670 0.52118 0.07674 0.10700
C 	C 	0.86490 0.52350 0.04670 -0.16800
C 	C 	0.70330 0.45620 0.98372 -0.06400
C 	C 	0.71040 0.46000 0.95065 -0.03200
C 	C 	0.90080 0.04897 0.31012 0.37500
C 	C 	0.88640 0.09225 0.28856 -0.17500
C 	C 	0.93870 0.08760 0.26036 0.08000
C 	C 	0.93190 0.12967 0.24028 -0.14900
C 	C 	0.86720 0.17862 0.24857 0.06400
C 	C 	0.81460 0.18383 0.27642 -0.14200
C 	C 	0.82430 0.14259 0.29639 0.07800
C 	C 	0.86290 0.22615 0.22792 0.03800
C 	C 	0.97010 0.23550 0.20671 -0.12400
C 	C 	0.97210 0.28215 0.19077 0.06500
C 	C 	0.86820 0.32265 0.19501 -0.14700
C 	C 	0.75400 0.31295 0.21493 0.05800
C 	C 	0.75010 0.26628 0.23066 -0.12100
C 	C 	0.88180 0.37815 0.18089 0.42600
C 	C 	0.36670 0.97882 0.42326 0.14700
C 	C 	0.36490 0.97650 0.45330 -0.13200
C 	C 	0.20330 0.04380 0.51628 -0.05600
C 	C 	0.21040 0.04000 0.54935 -0.03800
C 	C 	0.25000 0.50000 0.87511 0.40300
C 	C 	0.25000 0.50000 0.90806 -0.19400
C 	C 	0.25000 0.50000 0.96857 0.09500
C 	C 	0.25000 0.50000 0.00122 -0.00100
C 	C 	0.25000 0.50000 0.06799 -0.01700
C 	C 	0.25000 0.50000 0.10201 0.33200
C 	C 	0.75000 0.00000 0.62489 0.36800
C 	C 	0.75000 0.00000 0.59194 -0.22900
C 	C 	0.75000 0.00000 0.53143 0.06600
C 	C 	0.75000 0.00000 0.49878 -0.04000
C 	C 	0.75000 -0.00000 0.43201 -0.05100
C 	C 	0.75000 0.00000 0.39799 0.28600
C 	C 	0.75000 0.50000 0.12489 0.40300
C 	C 	0.75000 0.50000 0.09194 -0.19400
C 	C 	0.75000 0.50000 0.03143 0.09500
C 	C 	0.75000 0.50000 0.99878 -0.00100
C 	C 	0.75000 0.50000 0.93201 -0.01700
C 	C 	0.75000 0.50000 0.89799 0.33200
C 	C 	0.25000 0.00000 0.37511 0.36700
C 	C 	0.25000 0.00000 0.40806 -0.22900
C 	C 	0.25000 0.00000 0.46857 0.06500
C 	C 	0.25000 -0.00000 0.50122 -0.04100
C 	C 	0.25000 0.00000 0.56799 -0.05200
C 	C 	0.25000 0.00000 0.60201 0.28400
O 	O 	0.98280 0.49269 0.80454 -0.48000
O 	O 	0.82960 0.44856 0.83393 -0.49600
O 	O 	0.99610 0.11371 0.66604 -0.46400
O 	O 	0.78150 0.08948 0.68509 -0.48000
O 	O 	0.13140 0.49131 0.86162 -0.50800
O 	O 	0.17610 0.46000 0.10520 -0.46000
O 	O 	0.48280 0.00731 0.69546 -0.49700
O 	O 	0.32960 0.05144 0.66607 -0.50600
O 	O 	0.49610 0.38629 0.83396 -0.46000
O 	O 	0.28150 0.41052 0.81491 -0.47500
O 	O 	0.63140 0.00869 0.63838 -0.51100
O 	O 	0.67610 0.04000 0.39480 -0.45100
O 	O 	0.51720 0.50731 0.80454 -0.47900
O 	O 	0.67040 0.55144 0.83393 -0.49500
O 	O 	0.50390 0.88629 0.66604 -0.45300
O 	O 	0.71850 0.91052 0.68509 -0.46400
O 	O 	0.36860 0.50869 0.86162 -0.50800
O 	O 	0.32390 0.54000 0.10520 -0.45800
O 	O 	0.01720 0.99269 0.69546 -0.45900
O 	O 	0.17040 0.94856 0.66607 -0.48300
O 	O 	0.00390 0.61371 0.83396 -0.45800
O 	O 	0.21850 0.58948 0.81491 -0.47400
O 	O 	0.86860 0.99131 0.63838 -0.46700
O 	O 	0.82390 0.96000 0.39480 -0.41700
O 	O 	0.01720 0.50731 0.19546 -0.48000
O 	O 	0.17040 0.55144 0.16607 -0.49500
O 	O 	0.00390 0.88629 0.33396 -0.45200
O 	O 	0.21850 0.91052 0.31491 -0.46300
O 	O 	0.86860 0.50869 0.13838 -0.50800
O 	O 	0.82390 0.54000 0.89480 -0.45800
O 	O 	0.51720 0.99269 0.30454 -0.45900
O 	O 	0.67040 0.94856 0.33393 -0.48300
O 	O 	0.50390 0.61371 0.16604 -0.45900
O 	O 	0.71850 0.58948 0.18509 -0.47400
O 	O 	0.36860 0.99131 0.36162 -0.46600
O 	O 	0.32390 0.96000 0.60520 -0.41500
O 	O 	0.48280 0.49269 0.19546 -0.47900
O 	O 	0.32960 0.44856 0.16607 -0.49600
O 	O 	0.49610 0.11371 0.33396 -0.46500
O 	O 	0.28150 0.08948 0.31491 -0.48100
O 	O 	0.63140 0.49131 0.13838 -0.50800
O 	O 	0.67610 0.46000 0.89480 -0.45900
O 	O 	0.98280 0.00731 0.30454 -0.49700
O 	O 	0.82960 0.05144 0.33393 -0.50500
O 	O 	0.99610 0.38629 0.16604 -0.46000
O 	O 	0.78150 0.41052 0.18509 -0.47500
O 	O 	0.13140 0.00869 0.36162 -0.51100
O 	O 	0.17610 0.04000 0.60520 -0.45100
