data_crystal

_cell_length_a 35.91000
_cell_length_b 14.83300
_cell_length_c 32.04000
_cell_angle_alpha 90.00000
_cell_angle_beta  102.97700
_cell_angle_gamma 90.00000

_symmetry_space_group_name_	'P 1'
_symmetry_space_group_name_H-M	'P 1'

loop_
_symmetry_equiv_pos_as_xyz
  x,y,z

loop_
_atom_site_label
_atom_site_type_symbol
_atom_site_fract_x
_atom_site_fract_y
_atom_site_fract_z
_atom_site_charge
I 	I 	0.39548 0.76237 0.90472 -0.37800
I 	I 	0.72475 0.23084 0.78916 -0.37100
I 	I 	0.61928 0.15515 0.69325 -0.39600
I 	I 	0.35655 0.91676 0.01091 -0.36000
I 	I 	0.62482 0.74269 0.04369 -0.38000
I 	I 	0.53243 0.65371 0.11554 -0.34500
Zn	Zn	0.66465 0.13170 0.76684 1.16100
Zn	Zn	0.37553 0.90645 0.93862 1.16100
Zn	Zn	0.59000 0.62888 0.08142 1.16000
C 	C 	0.64300 0.21190 0.84470 0.07600
H 	H 	0.66460 0.24890 0.84470 -0.01100
C 	C 	0.62270 0.22930 0.87440 -0.12500
H 	H 	0.62960 0.27820 0.89380 0.08600
C 	C 	0.59200 0.17640 0.87650 0.06700
C 	C 	0.56830 0.19550 0.90880 0.10400
C 	C 	0.53660 0.39220 0.01290 -0.10100
H 	H 	0.51380 0.35910 0.01190 0.06600
C 	C 	0.56340 0.36240 0.98990 0.04700
C 	C 	0.54400 0.47110 0.03700 0.05300
H 	H 	0.52570 0.49150 0.05230 -0.00300
C 	C 	0.59670 0.41270 0.99190 -0.11200
H 	H 	0.61540 0.39500 0.97670 0.07800
C 	C 	0.52040 0.15500 0.94080 0.09400
C 	C 	0.60130 0.49070 0.01760 0.06800
H 	H 	0.62390 0.52520 0.01940 -0.01300
C 	C 	0.55610 0.27820 0.96300 0.09200
C 	C 	0.48580 0.09860 0.94210 0.04600
C 	C 	0.60540 0.09270 0.81700 0.06600
H 	H 	0.59940 0.04400 0.79740 -0.01400
C 	C 	0.58280 0.10620 0.84730 -0.11400
H 	H 	0.56160 0.06810 0.84770 0.08200
C 	C 	0.69574 0.58050 0.73800 0.10100
C 	C 	0.82350 0.55210 0.89560 0.06200
H 	H 	0.83810 0.58560 0.91890 0.00000
C 	C 	0.81160 0.41870 0.85870 0.06600
H 	H 	0.81710 0.35660 0.85610 -0.00400
C 	C 	0.67380 0.52750 0.70090 0.05100
C 	C 	0.65660 0.39190 0.65960 0.06600
H 	H 	0.66060 0.32930 0.65590 -0.01000
C 	C 	0.65550 0.93640 0.74680 0.05100
H 	H 	0.63290 0.95820 0.72820 -0.01000
C 	C 	0.78270 0.45780 0.82780 -0.12100
H 	H 	0.76940 0.42350 0.80400 0.09200
C 	C 	0.77345 0.54740 0.83210 0.04500
C 	C 	0.70566 0.71390 0.77360 0.10300
C 	C 	0.74259 0.59090 0.79940 0.08500
C 	C 	0.69630 0.81100 0.77460 0.04900
C 	C 	0.72020 0.87250 0.80160 -0.10800
H 	H 	0.74250 0.85210 0.82130 0.07600
C 	C 	0.71070 0.96270 0.79910 0.06100
H 	H 	0.72720 0.00380 0.81720 -0.00700
C 	C 	0.64610 0.57200 0.66940 -0.11100
H 	H 	0.64190 0.63480 0.67170 0.09000
C 	C 	0.79480 0.59610 0.86690 -0.11400
H 	H 	0.78960 0.65800 0.87070 0.08000
C 	C 	0.62520 0.52350 0.63550 0.06000
H 	H 	0.60660 0.55450 0.61460 0.00100
C 	C 	0.67880 0.43570 0.69530 -0.12000
H 	H 	0.69720 0.40290 0.71550 0.08000
C 	C 	0.66330 0.84390 0.74710 -0.10600
H 	H 	0.64640 0.80400 0.72890 0.07900
C 	C 	0.43620 0.00020 0.90590 0.06600
H 	H 	0.42390 0.96850 0.88080 -0.01000
C 	C 	0.43800 0.04120 0.97590 0.06000
H 	H 	0.42750 0.03780 0.00050 0.00100
C 	C 	0.46980 0.09500 0.97730 -0.11600
H 	H 	0.48050 0.12900 0.00230 0.07500
C 	C 	0.46810 0.05060 0.90430 -0.11100
H 	H 	0.47790 0.05310 0.87910 0.08400
N 	N 	0.42138 0.99330 0.94060 -0.26600
N 	N 	0.53944 0.13710 0.90990 -0.13100
N 	N 	0.57724 0.26870 0.93330 -0.13300
N 	N 	0.52820 0.22220 0.97050 -0.14200
N 	N 	0.63520 0.14640 0.81500 -0.27400
N 	N 	0.57634 0.51930 0.03930 -0.26600
N 	N 	0.62982 0.43460 0.63040 -0.26500
N 	N 	0.68476 0.66670 0.74050 -0.13300
N 	N 	0.72405 0.53950 0.76610 -0.13600
N 	N 	0.73445 0.67960 0.80470 -0.13400
N 	N 	0.83204 0.46470 0.89220 -0.26900
N 	N 	0.67893 0.99610 0.77200 -0.26700
I 	I 	0.89548 0.26237 0.90472 -0.37900
I 	I 	0.22475 0.73084 0.78916 -0.37100
I 	I 	0.11928 0.65515 0.69325 -0.39600
I 	I 	0.85655 0.41676 0.01091 -0.36100
I 	I 	0.12482 0.24269 0.04369 -0.38000
I 	I 	0.03243 0.15371 0.11554 -0.34500
Zn	Zn	0.16465 0.63170 0.76684 1.16100
Zn	Zn	0.87553 0.40645 0.93862 1.16100
Zn	Zn	0.09000 0.12888 0.08142 1.16000
C 	C 	0.14300 0.71190 0.84470 0.07600
H 	H 	0.16460 0.74890 0.84470 -0.01100
C 	C 	0.12270 0.72930 0.87440 -0.12400
H 	H 	0.12960 0.77820 0.89380 0.08600
C 	C 	0.09200 0.67640 0.87650 0.06700
C 	C 	0.06830 0.69550 0.90880 0.10400
C 	C 	0.03660 0.89220 0.01290 -0.10100
H 	H 	0.01380 0.85910 0.01190 0.06600
C 	C 	0.06340 0.86240 0.98990 0.04700
C 	C 	0.04400 0.97110 0.03700 0.05300
H 	H 	0.02570 0.99150 0.05230 -0.00300
C 	C 	0.09670 0.91270 0.99190 -0.11100
H 	H 	0.11540 0.89500 0.97670 0.07700
C 	C 	0.02040 0.65500 0.94080 0.09300
C 	C 	0.10130 0.99070 0.01760 0.06700
H 	H 	0.12390 0.02520 0.01940 -0.01300
C 	C 	0.05610 0.77820 0.96300 0.09200
C 	C 	0.98580 0.59860 0.94210 0.04600
C 	C 	0.10540 0.59270 0.81700 0.06600
H 	H 	0.09940 0.54400 0.79740 -0.01400
C 	C 	0.08280 0.60620 0.84730 -0.11400
H 	H 	0.06160 0.56810 0.84770 0.08200
C 	C 	0.19574 0.08050 0.73800 0.10100
C 	C 	0.32350 0.05210 0.89560 0.06100
H 	H 	0.33810 0.08560 0.91890 0.00000
C 	C 	0.31160 0.91870 0.85870 0.06600
H 	H 	0.31710 0.85660 0.85610 -0.00400
C 	C 	0.17380 0.02750 0.70090 0.05100
C 	C 	0.15660 0.89190 0.65960 0.06600
H 	H 	0.16060 0.82930 0.65590 -0.01000
C 	C 	0.15550 0.43640 0.74680 0.05100
H 	H 	0.13290 0.45820 0.72820 -0.01000
C 	C 	0.28270 0.95780 0.82780 -0.12100
H 	H 	0.26940 0.92350 0.80400 0.09200
C 	C 	0.27345 0.04740 0.83210 0.04500
C 	C 	0.20566 0.21390 0.77360 0.10300
C 	C 	0.24259 0.09090 0.79940 0.08500
C 	C 	0.19630 0.31100 0.77460 0.04800
C 	C 	0.22020 0.37250 0.80160 -0.10800
H 	H 	0.24250 0.35210 0.82130 0.07500
C 	C 	0.21070 0.46270 0.79910 0.06000
H 	H 	0.22720 0.50380 0.81720 -0.00600
C 	C 	0.14610 0.07200 0.66940 -0.11000
H 	H 	0.14190 0.13480 0.67170 0.09000
C 	C 	0.29480 0.09610 0.86690 -0.11400
H 	H 	0.28960 0.15800 0.87070 0.08000
C 	C 	0.12520 0.02350 0.63550 0.06000
H 	H 	0.10660 0.05450 0.61460 0.00100
C 	C 	0.17880 0.93570 0.69530 -0.12000
H 	H 	0.19720 0.90290 0.71550 0.08000
C 	C 	0.16330 0.34390 0.74710 -0.10600
H 	H 	0.14640 0.30400 0.72890 0.07900
C 	C 	0.93620 0.50020 0.90590 0.06600
H 	H 	0.92390 0.46850 0.88080 -0.01100
C 	C 	0.93800 0.54120 0.97590 0.06000
H 	H 	0.92750 0.53780 0.00050 0.00100
C 	C 	0.96980 0.59500 0.97730 -0.11600
H 	H 	0.98050 0.62900 0.00230 0.07500
C 	C 	0.96810 0.55060 0.90430 -0.11100
H 	H 	0.97790 0.55310 0.87910 0.08400
N 	N 	0.92138 0.49330 0.94060 -0.26700
N 	N 	0.03944 0.63710 0.90990 -0.13100
N 	N 	0.07724 0.76870 0.93330 -0.13300
N 	N 	0.02820 0.72220 0.97050 -0.14200
N 	N 	0.13520 0.64640 0.81500 -0.27400
N 	N 	0.07634 0.01930 0.03930 -0.26500
N 	N 	0.12982 0.93460 0.63040 -0.26500
N 	N 	0.18476 0.16670 0.74050 -0.13300
N 	N 	0.22405 0.03950 0.76610 -0.13700
N 	N 	0.23445 0.17960 0.80470 -0.13400
N 	N 	0.33204 0.96470 0.89220 -0.26800
N 	N 	0.17893 0.49610 0.77200 -0.26700
I 	I 	0.39548 0.23763 0.40472 -0.37900
I 	I 	0.72475 0.76916 0.28916 -0.37200
I 	I 	0.61928 0.84485 0.19325 -0.39700
I 	I 	0.35655 0.08324 0.51091 -0.36100
I 	I 	0.62482 0.25731 0.54369 -0.38000
I 	I 	0.53243 0.34629 0.61554 -0.34500
Zn	Zn	0.66465 0.86830 0.26684 1.16100
Zn	Zn	0.37553 0.09355 0.43862 1.16100
Zn	Zn	0.59000 0.37112 0.58142 1.16000
C 	C 	0.64300 0.78810 0.34470 0.07600
H 	H 	0.66460 0.75110 0.34470 -0.01100
C 	C 	0.62270 0.77070 0.37440 -0.12500
H 	H 	0.62960 0.72180 0.39380 0.08600
C 	C 	0.59200 0.82360 0.37650 0.06700
C 	C 	0.56830 0.80450 0.40880 0.10400
C 	C 	0.53660 0.60780 0.51290 -0.10100
H 	H 	0.51380 0.64090 0.51190 0.06600
C 	C 	0.56340 0.63760 0.48990 0.04700
C 	C 	0.54400 0.52890 0.53700 0.05300
H 	H 	0.52570 0.50850 0.55230 -0.00300
C 	C 	0.59670 0.58730 0.49190 -0.11200
H 	H 	0.61540 0.60500 0.47670 0.07800
C 	C 	0.52040 0.84500 0.44080 0.09400
C 	C 	0.60130 0.50930 0.51760 0.06800
H 	H 	0.62390 0.47480 0.51940 -0.01300
C 	C 	0.55610 0.72180 0.46300 0.09200
C 	C 	0.48580 0.90140 0.44210 0.04600
C 	C 	0.60540 0.90730 0.31700 0.06600
H 	H 	0.59940 0.95600 0.29740 -0.01400
C 	C 	0.58280 0.89380 0.34730 -0.11400
H 	H 	0.56160 0.93190 0.34770 0.08200
C 	C 	0.69574 0.41950 0.23800 0.10100
C 	C 	0.82350 0.44790 0.39560 0.06200
H 	H 	0.83810 0.41440 0.41890 0.00000
C 	C 	0.81160 0.58130 0.35870 0.06600
H 	H 	0.81710 0.64340 0.35610 -0.00400
C 	C 	0.67380 0.47250 0.20090 0.05100
C 	C 	0.65660 0.60810 0.15960 0.06600
H 	H 	0.66060 0.67070 0.15590 -0.01000
C 	C 	0.65550 0.06360 0.24680 0.05100
H 	H 	0.63290 0.04180 0.22820 -0.01000
C 	C 	0.78270 0.54220 0.32780 -0.12100
H 	H 	0.76940 0.57650 0.30400 0.09200
C 	C 	0.77345 0.45260 0.33210 0.04500
C 	C 	0.70566 0.28610 0.27360 0.10300
C 	C 	0.74259 0.40910 0.29940 0.08500
C 	C 	0.69630 0.18900 0.27460 0.04900
C 	C 	0.72020 0.12750 0.30160 -0.10800
H 	H 	0.74250 0.14790 0.32130 0.07600
C 	C 	0.71070 0.03730 0.29910 0.06100
H 	H 	0.72720 0.99620 0.31720 -0.00700
C 	C 	0.64610 0.42800 0.16940 -0.11100
H 	H 	0.64190 0.36520 0.17170 0.09000
C 	C 	0.79480 0.40390 0.36690 -0.11400
H 	H 	0.78960 0.34200 0.37070 0.08000
C 	C 	0.62520 0.47650 0.13550 0.06000
H 	H 	0.60660 0.44550 0.11460 0.00100
C 	C 	0.67880 0.56430 0.19530 -0.12000
H 	H 	0.69720 0.59710 0.21550 0.08000
C 	C 	0.66330 0.15610 0.24710 -0.10600
H 	H 	0.64640 0.19600 0.22890 0.07900
C 	C 	0.43620 0.99980 0.40590 0.06600
H 	H 	0.42390 0.03150 0.38080 -0.01000
C 	C 	0.43800 0.95880 0.47590 0.06000
H 	H 	0.42750 0.96220 0.50050 0.00100
C 	C 	0.46980 0.90500 0.47730 -0.11600
H 	H 	0.48050 0.87100 0.50230 0.07500
C 	C 	0.46810 0.94940 0.40430 -0.11100
H 	H 	0.47790 0.94690 0.37910 0.08400
N 	N 	0.42138 0.00670 0.44060 -0.26700
N 	N 	0.53944 0.86290 0.40990 -0.13100
N 	N 	0.57724 0.73130 0.43330 -0.13300
N 	N 	0.52820 0.77780 0.47050 -0.14200
N 	N 	0.63520 0.85360 0.31500 -0.27400
N 	N 	0.57634 0.48070 0.53930 -0.26600
N 	N 	0.62982 0.56540 0.13040 -0.26500
N 	N 	0.68476 0.33330 0.24050 -0.13300
N 	N 	0.72405 0.46050 0.26610 -0.13600
N 	N 	0.73445 0.32040 0.30470 -0.13400
N 	N 	0.83204 0.53530 0.39220 -0.26800
N 	N 	0.67893 0.00390 0.27200 -0.26700
I 	I 	0.89548 0.73763 0.40472 -0.37900
I 	I 	0.22475 0.26916 0.28916 -0.37100
I 	I 	0.11928 0.34485 0.19325 -0.39600
I 	I 	0.85655 0.58324 0.51091 -0.36100
I 	I 	0.12482 0.75731 0.54369 -0.38000
I 	I 	0.03243 0.84629 0.61554 -0.34500
Zn	Zn	0.16465 0.36830 0.26684 1.16100
Zn	Zn	0.87553 0.59355 0.43862 1.16100
Zn	Zn	0.09000 0.87112 0.58142 1.16000
C 	C 	0.14300 0.28810 0.34470 0.07600
H 	H 	0.16460 0.25110 0.34470 -0.01100
C 	C 	0.12270 0.27070 0.37440 -0.12400
H 	H 	0.12960 0.22180 0.39380 0.08600
C 	C 	0.09200 0.32360 0.37650 0.06700
C 	C 	0.06830 0.30450 0.40880 0.10400
C 	C 	0.03660 0.10780 0.51290 -0.10100
H 	H 	0.01380 0.14090 0.51190 0.06600
C 	C 	0.06340 0.13760 0.48990 0.04700
C 	C 	0.04400 0.02890 0.53700 0.05300
H 	H 	0.02570 0.00850 0.55230 -0.00300
C 	C 	0.09670 0.08730 0.49190 -0.11100
H 	H 	0.11540 0.10500 0.47670 0.07700
C 	C 	0.02040 0.34500 0.44080 0.09300
C 	C 	0.10130 0.00930 0.51760 0.06800
H 	H 	0.12390 0.97480 0.51940 -0.01300
C 	C 	0.05610 0.22180 0.46300 0.09200
C 	C 	0.98580 0.40140 0.44210 0.04600
C 	C 	0.10540 0.40730 0.31700 0.06600
H 	H 	0.09940 0.45600 0.29740 -0.01400
C 	C 	0.08280 0.39380 0.34730 -0.11400
H 	H 	0.06160 0.43190 0.34770 0.08200
C 	C 	0.19574 0.91950 0.23800 0.10100
C 	C 	0.32350 0.94790 0.39560 0.06100
H 	H 	0.33810 0.91440 0.41890 0.00000
C 	C 	0.31160 0.08130 0.35870 0.06600
H 	H 	0.31710 0.14340 0.35610 -0.00400
C 	C 	0.17380 0.97250 0.20090 0.05100
C 	C 	0.15660 0.10810 0.15960 0.06600
H 	H 	0.16060 0.17070 0.15590 -0.01000
C 	C 	0.15550 0.56360 0.24680 0.05100
H 	H 	0.13290 0.54180 0.22820 -0.01000
C 	C 	0.28270 0.04220 0.32780 -0.12100
H 	H 	0.26940 0.07650 0.30400 0.09200
C 	C 	0.27345 0.95260 0.33210 0.04500
C 	C 	0.20566 0.78610 0.27360 0.10300
C 	C 	0.24259 0.90910 0.29940 0.08500
C 	C 	0.19630 0.68900 0.27460 0.04800
C 	C 	0.22020 0.62750 0.30160 -0.10800
H 	H 	0.24250 0.64790 0.32130 0.07500
C 	C 	0.21070 0.53730 0.29910 0.06000
H 	H 	0.22720 0.49620 0.31720 -0.00600
C 	C 	0.14610 0.92800 0.16940 -0.11000
H 	H 	0.14190 0.86520 0.17170 0.09000
C 	C 	0.29480 0.90390 0.36690 -0.11400
H 	H 	0.28960 0.84200 0.37070 0.08000
C 	C 	0.12520 0.97650 0.13550 0.06000
H 	H 	0.10660 0.94550 0.11460 0.00100
C 	C 	0.17880 0.06430 0.19530 -0.11900
H 	H 	0.19720 0.09710 0.21550 0.08000
C 	C 	0.16330 0.65610 0.24710 -0.10600
H 	H 	0.14640 0.69600 0.22890 0.07900
C 	C 	0.93620 0.49980 0.40590 0.06600
H 	H 	0.92390 0.53150 0.38080 -0.01100
C 	C 	0.93800 0.45880 0.47590 0.06000
H 	H 	0.92750 0.46220 0.50050 0.00100
C 	C 	0.96980 0.40500 0.47730 -0.11600
H 	H 	0.98050 0.37100 0.50230 0.07500
C 	C 	0.96810 0.44940 0.40430 -0.11100
H 	H 	0.97790 0.44690 0.37910 0.08400
N 	N 	0.92138 0.50670 0.44060 -0.26700
N 	N 	0.03944 0.36290 0.40990 -0.13100
N 	N 	0.07724 0.23130 0.43330 -0.13300
N 	N 	0.02820 0.27780 0.47050 -0.14200
N 	N 	0.13520 0.35360 0.31500 -0.27400
N 	N 	0.07634 0.98070 0.53930 -0.26500
N 	N 	0.12982 0.06540 0.13040 -0.26500
N 	N 	0.18476 0.83330 0.24050 -0.13300
N 	N 	0.22405 0.96050 0.26610 -0.13700
N 	N 	0.23445 0.82040 0.30470 -0.13400
N 	N 	0.33204 0.03530 0.39220 -0.26800
N 	N 	0.17893 0.50390 0.27200 -0.26700
I 	I 	0.60452 0.76237 0.59528 -0.37900
I 	I 	0.27525 0.23084 0.71084 -0.37200
I 	I 	0.38072 0.15515 0.80675 -0.39700
I 	I 	0.64345 0.91676 0.48909 -0.36100
I 	I 	0.37518 0.74269 0.45631 -0.38000
I 	I 	0.46757 0.65371 0.38446 -0.34500
Zn	Zn	0.33535 0.13170 0.73316 1.16100
Zn	Zn	0.62447 0.90645 0.56138 1.16100
Zn	Zn	0.41000 0.62888 0.41858 1.16000
C 	C 	0.35700 0.21190 0.65530 0.07600
H 	H 	0.33540 0.24890 0.65530 -0.01100
C 	C 	0.37730 0.22930 0.62560 -0.12500
H 	H 	0.37040 0.27820 0.60620 0.08600
C 	C 	0.40800 0.17640 0.62350 0.06700
C 	C 	0.43170 0.19550 0.59120 0.10400
C 	C 	0.46340 0.39220 0.48710 -0.10100
H 	H 	0.48620 0.35910 0.48810 0.06600
C 	C 	0.43660 0.36240 0.51010 0.04700
C 	C 	0.45600 0.47110 0.46300 0.05300
H 	H 	0.47430 0.49150 0.44770 -0.00300
C 	C 	0.40330 0.41270 0.50810 -0.11200
H 	H 	0.38460 0.39500 0.52330 0.07800
C 	C 	0.47960 0.15500 0.55920 0.09400
C 	C 	0.39870 0.49070 0.48240 0.06800
H 	H 	0.37610 0.52520 0.48060 -0.01300
C 	C 	0.44390 0.27820 0.53700 0.09200
C 	C 	0.51420 0.09860 0.55790 0.04600
C 	C 	0.39460 0.09270 0.68300 0.06600
H 	H 	0.40060 0.04400 0.70260 -0.01400
C 	C 	0.41720 0.10620 0.65270 -0.11400
H 	H 	0.43840 0.06810 0.65230 0.08200
C 	C 	0.30426 0.58050 0.76200 0.10100
C 	C 	0.17650 0.55210 0.60440 0.06200
H 	H 	0.16190 0.58560 0.58110 0.00000
C 	C 	0.18840 0.41870 0.64130 0.06600
H 	H 	0.18290 0.35660 0.64390 -0.00400
C 	C 	0.32620 0.52750 0.79910 0.05100
C 	C 	0.34340 0.39190 0.84040 0.06600
H 	H 	0.33940 0.32930 0.84410 -0.01000
C 	C 	0.34450 0.93640 0.75320 0.05100
H 	H 	0.36710 0.95820 0.77180 -0.01000
C 	C 	0.21730 0.45780 0.67220 -0.12100
H 	H 	0.23060 0.42350 0.69600 0.09200
C 	C 	0.22655 0.54740 0.66790 0.04500
C 	C 	0.29434 0.71390 0.72640 0.10300
C 	C 	0.25741 0.59090 0.70060 0.08500
C 	C 	0.30370 0.81100 0.72540 0.04900
C 	C 	0.27980 0.87250 0.69840 -0.10800
H 	H 	0.25750 0.85210 0.67870 0.07600
C 	C 	0.28930 0.96270 0.70090 0.06100
H 	H 	0.27280 0.00380 0.68280 -0.00700
C 	C 	0.35390 0.57200 0.83060 -0.11100
H 	H 	0.35810 0.63480 0.82830 0.09000
C 	C 	0.20520 0.59610 0.63310 -0.11400
H 	H 	0.21040 0.65800 0.62930 0.08000
C 	C 	0.37480 0.52350 0.86450 0.06000
H 	H 	0.39340 0.55450 0.88540 0.00100
C 	C 	0.32120 0.43570 0.80470 -0.12000
H 	H 	0.30280 0.40290 0.78450 0.08000
C 	C 	0.33670 0.84390 0.75290 -0.10600
H 	H 	0.35360 0.80400 0.77110 0.07900
C 	C 	0.56380 0.00020 0.59410 0.06600
H 	H 	0.57610 0.96850 0.61920 -0.01000
C 	C 	0.56200 0.04120 0.52410 0.06000
H 	H 	0.57250 0.03780 0.49950 0.00100
C 	C 	0.53020 0.09500 0.52270 -0.11600
H 	H 	0.51950 0.12900 0.49770 0.07500
C 	C 	0.53190 0.05060 0.59570 -0.11100
H 	H 	0.52210 0.05310 0.62090 0.08400
N 	N 	0.57862 0.99330 0.55940 -0.26700
N 	N 	0.46056 0.13710 0.59010 -0.13100
N 	N 	0.42276 0.26870 0.56670 -0.13300
N 	N 	0.47180 0.22220 0.52950 -0.14200
N 	N 	0.36480 0.14640 0.68500 -0.27400
N 	N 	0.42366 0.51930 0.46070 -0.26600
N 	N 	0.37018 0.43460 0.86960 -0.26500
N 	N 	0.31524 0.66670 0.75950 -0.13300
N 	N 	0.27595 0.53950 0.73390 -0.13600
N 	N 	0.26555 0.67960 0.69530 -0.13400
N 	N 	0.16796 0.46470 0.60780 -0.26800
N 	N 	0.32107 0.99610 0.72800 -0.26700
I 	I 	0.10452 0.26237 0.59528 -0.37900
I 	I 	0.77525 0.73084 0.71084 -0.37100
I 	I 	0.88072 0.65515 0.80675 -0.39600
I 	I 	0.14345 0.41676 0.48909 -0.36100
I 	I 	0.87518 0.24269 0.45631 -0.38000
I 	I 	0.96757 0.15371 0.38446 -0.34500
Zn	Zn	0.83535 0.63170 0.73316 1.16100
Zn	Zn	0.12447 0.40645 0.56138 1.16100
Zn	Zn	0.91000 0.12888 0.41858 1.16000
C 	C 	0.85700 0.71190 0.65530 0.07600
H 	H 	0.83540 0.74890 0.65530 -0.01100
C 	C 	0.87730 0.72930 0.62560 -0.12400
H 	H 	0.87040 0.77820 0.60620 0.08600
C 	C 	0.90800 0.67640 0.62350 0.06700
C 	C 	0.93170 0.69550 0.59120 0.10400
C 	C 	0.96340 0.89220 0.48710 -0.10100
H 	H 	0.98620 0.85910 0.48810 0.06600
C 	C 	0.93660 0.86240 0.51010 0.04700
C 	C 	0.95600 0.97110 0.46300 0.05300
H 	H 	0.97430 0.99150 0.44770 -0.00300
C 	C 	0.90330 0.91270 0.50810 -0.11100
H 	H 	0.88460 0.89500 0.52330 0.07700
C 	C 	0.97960 0.65500 0.55920 0.09300
C 	C 	0.89870 0.99070 0.48240 0.06800
H 	H 	0.87610 0.02520 0.48060 -0.01300
C 	C 	0.94390 0.77820 0.53700 0.09200
C 	C 	0.01420 0.59860 0.55790 0.04600
C 	C 	0.89460 0.59270 0.68300 0.06600
H 	H 	0.90060 0.54400 0.70260 -0.01400
C 	C 	0.91720 0.60620 0.65270 -0.11400
H 	H 	0.93840 0.56810 0.65230 0.08200
C 	C 	0.80426 0.08050 0.76200 0.10100
C 	C 	0.67650 0.05210 0.60440 0.06100
H 	H 	0.66190 0.08560 0.58110 0.00000
C 	C 	0.68840 0.91870 0.64130 0.06600
H 	H 	0.68290 0.85660 0.64390 -0.00400
C 	C 	0.82620 0.02750 0.79910 0.05100
C 	C 	0.84340 0.89190 0.84040 0.06600
H 	H 	0.83940 0.82930 0.84410 -0.01000
C 	C 	0.84450 0.43640 0.75320 0.05100
H 	H 	0.86710 0.45820 0.77180 -0.01000
C 	C 	0.71730 0.95780 0.67220 -0.12100
H 	H 	0.73060 0.92350 0.69600 0.09200
C 	C 	0.72655 0.04740 0.66790 0.04500
C 	C 	0.79434 0.21390 0.72640 0.10300
C 	C 	0.75741 0.09090 0.70060 0.08500
C 	C 	0.80370 0.31100 0.72540 0.04800
C 	C 	0.77980 0.37250 0.69840 -0.10800
H 	H 	0.75750 0.35210 0.67870 0.07500
C 	C 	0.78930 0.46270 0.70090 0.06000
H 	H 	0.77280 0.50380 0.68280 -0.00600
C 	C 	0.85390 0.07200 0.83060 -0.11000
H 	H 	0.85810 0.13480 0.82830 0.09000
C 	C 	0.70520 0.09610 0.63310 -0.11400
H 	H 	0.71040 0.15800 0.62930 0.08000
C 	C 	0.87480 0.02350 0.86450 0.06000
H 	H 	0.89340 0.05450 0.88540 0.00100
C 	C 	0.82120 0.93570 0.80470 -0.11900
H 	H 	0.80280 0.90290 0.78450 0.08000
C 	C 	0.83670 0.34390 0.75290 -0.10600
H 	H 	0.85360 0.30400 0.77110 0.07900
C 	C 	0.06380 0.50020 0.59410 0.06600
H 	H 	0.07610 0.46850 0.61920 -0.01100
C 	C 	0.06200 0.54120 0.52410 0.06000
H 	H 	0.07250 0.53780 0.49950 0.00100
C 	C 	0.03020 0.59500 0.52270 -0.11600
H 	H 	0.01950 0.62900 0.49770 0.07500
C 	C 	0.03190 0.55060 0.59570 -0.11100
H 	H 	0.02210 0.55310 0.62090 0.08400
N 	N 	0.07862 0.49330 0.55940 -0.26700
N 	N 	0.96056 0.63710 0.59010 -0.13100
N 	N 	0.92276 0.76870 0.56670 -0.13300
N 	N 	0.97180 0.72220 0.52950 -0.14200
N 	N 	0.86480 0.64640 0.68500 -0.27400
N 	N 	0.92366 0.01930 0.46070 -0.26500
N 	N 	0.87018 0.93460 0.86960 -0.26500
N 	N 	0.81524 0.16670 0.75950 -0.13300
N 	N 	0.77595 0.03950 0.73390 -0.13700
N 	N 	0.76555 0.17960 0.69530 -0.13400
N 	N 	0.66796 0.96470 0.60780 -0.26800
N 	N 	0.82107 0.49610 0.72800 -0.26700
I 	I 	0.60452 0.23763 0.09528 -0.37900
I 	I 	0.27525 0.76916 0.21084 -0.37200
I 	I 	0.38072 0.84485 0.30675 -0.39700
I 	I 	0.64345 0.08324 0.98909 -0.36100
I 	I 	0.37518 0.25731 0.95631 -0.38000
I 	I 	0.46757 0.34629 0.88446 -0.34500
Zn	Zn	0.33535 0.86830 0.23316 1.16100
Zn	Zn	0.62447 0.09355 0.06138 1.16100
Zn	Zn	0.41000 0.37112 0.91858 1.16000
C 	C 	0.35700 0.78810 0.15530 0.07600
H 	H 	0.33540 0.75110 0.15530 -0.01100
C 	C 	0.37730 0.77070 0.12560 -0.12500
H 	H 	0.37040 0.72180 0.10620 0.08600
C 	C 	0.40800 0.82360 0.12350 0.06700
C 	C 	0.43170 0.80450 0.09120 0.10400
C 	C 	0.46340 0.60780 0.98710 -0.10100
H 	H 	0.48620 0.64090 0.98810 0.06600
C 	C 	0.43660 0.63760 0.01010 0.04700
C 	C 	0.45600 0.52890 0.96300 0.05300
H 	H 	0.47430 0.50850 0.94770 -0.00300
C 	C 	0.40330 0.58730 0.00810 -0.11200
H 	H 	0.38460 0.60500 0.02330 0.07800
C 	C 	0.47960 0.84500 0.05920 0.09400
C 	C 	0.39870 0.50930 0.98240 0.06800
H 	H 	0.37610 0.47480 0.98060 -0.01300
C 	C 	0.44390 0.72180 0.03700 0.09200
C 	C 	0.51420 0.90140 0.05790 0.04600
C 	C 	0.39460 0.90730 0.18300 0.06600
H 	H 	0.40060 0.95600 0.20260 -0.01400
C 	C 	0.41720 0.89380 0.15270 -0.11400
H 	H 	0.43840 0.93190 0.15230 0.08200
C 	C 	0.30426 0.41950 0.26200 0.10100
C 	C 	0.17650 0.44790 0.10440 0.06200
H 	H 	0.16190 0.41440 0.08110 0.00000
C 	C 	0.18840 0.58130 0.14130 0.06600
H 	H 	0.18290 0.64340 0.14390 -0.00400
C 	C 	0.32620 0.47250 0.29910 0.05100
C 	C 	0.34340 0.60810 0.34040 0.06600
H 	H 	0.33940 0.67070 0.34410 -0.01000
C 	C 	0.34450 0.06360 0.25320 0.05100
H 	H 	0.36710 0.04180 0.27180 -0.01000
C 	C 	0.21730 0.54220 0.17220 -0.12100
H 	H 	0.23060 0.57650 0.19600 0.09200
C 	C 	0.22655 0.45260 0.16790 0.04500
C 	C 	0.29434 0.28610 0.22640 0.10300
C 	C 	0.25741 0.40910 0.20060 0.08500
C 	C 	0.30370 0.18900 0.22540 0.04900
C 	C 	0.27980 0.12750 0.19840 -0.10800
H 	H 	0.25750 0.14790 0.17870 0.07600
C 	C 	0.28930 0.03730 0.20090 0.06100
H 	H 	0.27280 0.99620 0.18280 -0.00700
C 	C 	0.35390 0.42800 0.33060 -0.11100
H 	H 	0.35810 0.36520 0.32830 0.09000
C 	C 	0.20520 0.40390 0.13310 -0.11400
H 	H 	0.21040 0.34200 0.12930 0.08000
C 	C 	0.37480 0.47650 0.36450 0.06000
H 	H 	0.39340 0.44550 0.38540 0.00100
C 	C 	0.32120 0.56430 0.30470 -0.12000
H 	H 	0.30280 0.59710 0.28450 0.08000
C 	C 	0.33670 0.15610 0.25290 -0.10600
H 	H 	0.35360 0.19600 0.27110 0.07900
C 	C 	0.56380 0.99980 0.09410 0.06600
H 	H 	0.57610 0.03150 0.11920 -0.01000
C 	C 	0.56200 0.95880 0.02410 0.06000
H 	H 	0.57250 0.96220 0.99950 0.00100
C 	C 	0.53020 0.90500 0.02270 -0.11600
H 	H 	0.51950 0.87100 0.99770 0.07500
C 	C 	0.53190 0.94940 0.09570 -0.11100
H 	H 	0.52210 0.94690 0.12090 0.08400
N 	N 	0.57862 0.00670 0.05940 -0.26600
N 	N 	0.46056 0.86290 0.09010 -0.13100
N 	N 	0.42276 0.73130 0.06670 -0.13300
N 	N 	0.47180 0.77780 0.02950 -0.14200
N 	N 	0.36480 0.85360 0.18500 -0.27400
N 	N 	0.42366 0.48070 0.96070 -0.26600
N 	N 	0.37018 0.56540 0.36960 -0.26500
N 	N 	0.31524 0.33330 0.25950 -0.13300
N 	N 	0.27595 0.46050 0.23390 -0.13600
N 	N 	0.26555 0.32040 0.19530 -0.13400
N 	N 	0.16796 0.53530 0.10780 -0.26900
N 	N 	0.32107 0.00390 0.22800 -0.26700
I 	I 	0.10452 0.73763 0.09528 -0.37900
I 	I 	0.77525 0.26916 0.21084 -0.37100
I 	I 	0.88072 0.34485 0.30675 -0.39600
I 	I 	0.14345 0.58324 0.98909 -0.36100
I 	I 	0.87518 0.75731 0.95631 -0.38000
I 	I 	0.96757 0.84629 0.88446 -0.34500
Zn	Zn	0.83535 0.36830 0.23316 1.16100
Zn	Zn	0.12447 0.59355 0.06138 1.16100
Zn	Zn	0.91000 0.87112 0.91858 1.16000
C 	C 	0.85700 0.28810 0.15530 0.07600
H 	H 	0.83540 0.25110 0.15530 -0.01100
C 	C 	0.87730 0.27070 0.12560 -0.12400
H 	H 	0.87040 0.22180 0.10620 0.08600
C 	C 	0.90800 0.32360 0.12350 0.06700
C 	C 	0.93170 0.30450 0.09120 0.10400
C 	C 	0.96340 0.10780 0.98710 -0.10100
H 	H 	0.98620 0.14090 0.98810 0.06600
C 	C 	0.93660 0.13760 0.01010 0.04700
C 	C 	0.95600 0.02890 0.96300 0.05300
H 	H 	0.97430 0.00850 0.94770 -0.00300
C 	C 	0.90330 0.08730 0.00810 -0.11100
H 	H 	0.88460 0.10500 0.02330 0.07700
C 	C 	0.97960 0.34500 0.05920 0.09300
C 	C 	0.89870 0.00930 0.98240 0.06700
H 	H 	0.87610 0.97480 0.98060 -0.01300
C 	C 	0.94390 0.22180 0.03700 0.09200
C 	C 	0.01420 0.40140 0.05790 0.04600
C 	C 	0.89460 0.40730 0.18300 0.06600
H 	H 	0.90060 0.45600 0.20260 -0.01400
C 	C 	0.91720 0.39380 0.15270 -0.11400
H 	H 	0.93840 0.43190 0.15230 0.08200
C 	C 	0.80426 0.91950 0.26200 0.10100
C 	C 	0.67650 0.94790 0.10440 0.06100
H 	H 	0.66190 0.91440 0.08110 0.00000
C 	C 	0.68840 0.08130 0.14130 0.06600
H 	H 	0.68290 0.14340 0.14390 -0.00400
C 	C 	0.82620 0.97250 0.29910 0.05100
C 	C 	0.84340 0.10810 0.34040 0.06600
H 	H 	0.83940 0.17070 0.34410 -0.01000
C 	C 	0.84450 0.56360 0.25320 0.05100
H 	H 	0.86710 0.54180 0.27180 -0.01000
C 	C 	0.71730 0.04220 0.17220 -0.12100
H 	H 	0.73060 0.07650 0.19600 0.09200
C 	C 	0.72655 0.95260 0.16790 0.04500
C 	C 	0.79434 0.78610 0.22640 0.10300
C 	C 	0.75741 0.90910 0.20060 0.08500
C 	C 	0.80370 0.68900 0.22540 0.04800
C 	C 	0.77980 0.62750 0.19840 -0.10800
H 	H 	0.75750 0.64790 0.17870 0.07500
C 	C 	0.78930 0.53730 0.20090 0.06000
H 	H 	0.77280 0.49620 0.18280 -0.00600
C 	C 	0.85390 0.92800 0.33060 -0.11000
H 	H 	0.85810 0.86520 0.32830 0.09000
C 	C 	0.70520 0.90390 0.13310 -0.11400
H 	H 	0.71040 0.84200 0.12930 0.08000
C 	C 	0.87480 0.97650 0.36450 0.06000
H 	H 	0.89340 0.94550 0.38540 0.00100
C 	C 	0.82120 0.06430 0.30470 -0.12000
H 	H 	0.80280 0.09710 0.28450 0.08000
C 	C 	0.83670 0.65610 0.25290 -0.10600
H 	H 	0.85360 0.69600 0.27110 0.07900
C 	C 	0.06380 0.49980 0.09410 0.06600
H 	H 	0.07610 0.53150 0.11920 -0.01100
C 	C 	0.06200 0.45880 0.02410 0.06000
H 	H 	0.07250 0.46220 0.99950 0.00100
C 	C 	0.03020 0.40500 0.02270 -0.11600
H 	H 	0.01950 0.37100 0.99770 0.07500
C 	C 	0.03190 0.44940 0.09570 -0.11100
H 	H 	0.02210 0.44690 0.12090 0.08400
N 	N 	0.07862 0.50670 0.05940 -0.26700
N 	N 	0.96056 0.36290 0.09010 -0.13100
N 	N 	0.92276 0.23130 0.06670 -0.13300
N 	N 	0.97180 0.27780 0.02950 -0.14200
N 	N 	0.86480 0.35360 0.18500 -0.27400
N 	N 	0.92366 0.98070 0.96070 -0.26500
N 	N 	0.87018 0.06540 0.36960 -0.26500
N 	N 	0.81524 0.83330 0.25950 -0.13300
N 	N 	0.77595 0.96050 0.23390 -0.13700
N 	N 	0.76555 0.82040 0.19530 -0.13400
N 	N 	0.66796 0.03530 0.10780 -0.26800
N 	N 	0.82107 0.50390 0.22800 -0.26700
