data_crystal

_cell_length_a 20.52620
_cell_length_b 20.52620
_cell_length_c 20.15200
_cell_angle_alpha 90.00000
_cell_angle_beta  90.00000
_cell_angle_gamma 120.00000

_symmetry_space_group_name_	'P 1'
_symmetry_space_group_name_H-M	'P 1'

loop_
_symmetry_equiv_pos_as_xyz
  x,y,z

loop_
_atom_site_label
_atom_site_type_symbol
_atom_site_fract_x
_atom_site_fract_y
_atom_site_fract_z
_atom_site_charge
C 	C 	0.16770 0.30040 0.11100 0.10000
C 	C 	0.17820 0.34410 0.05580 -0.07100
H 	H 	0.14730 0.32300 0.01690 0.03700
C 	C 	0.22990 0.42040 0.05980 0.02700
C 	C 	0.27080 0.45330 0.11620 -0.08200
H 	H 	0.31210 0.50440 0.11530 0.05100
C 	C 	0.25860 0.40710 0.16950 0.01600
H 	H 	0.28130 0.42980 0.21140 0.02200
C 	C 	0.20400 0.33240 0.16840 -0.10700
H 	H 	0.20390 0.30000 0.20300 0.06300
N 	N 	0.12240 0.22200 0.10633 -0.00100
C 	C 	0.10070 0.17310 0.15770 -0.00300
H 	H 	0.11160 0.18790 0.20360 0.01800
N 	N 	0.06290 0.10510 0.13646 -0.21900
C 	C 	0.09640 0.17700 0.05151 0.03700
H 	H 	0.11150 0.19410 0.00660 -0.00200
N 	N 	0.24620 0.46440 0.00070 -0.07300
C 	C 	0.24870 0.43920 0.93760 0.03700
H 	H 	0.24200 0.39030 0.92750 0.02100
N 	N 	0.27130 0.49240 0.89390 -0.07800
H 	H 	0.26540 0.56720 0.02630 -0.03400
C 	C 	0.83437 0.63373 0.44433 0.06500
C 	C 	0.84487 0.67743 0.38913 -0.07400
H 	H 	0.81397 0.65633 0.35023 0.04100
C 	C 	0.89657 0.75373 0.39313 0.04300
C 	C 	0.93747 0.78663 0.44953 -0.07600
H 	H 	0.97877 0.83773 0.44863 0.07300
C 	C 	0.92527 0.74043 0.50283 0.01400
H 	H 	0.94797 0.76313 0.54473 0.04100
C 	C 	0.87067 0.66573 0.50173 -0.07900
H 	H 	0.87057 0.63333 0.53633 0.06200
N 	N 	0.78907 0.55533 0.43966 -0.06000
C 	C 	0.76737 0.50643 0.49103 0.03700
H 	H 	0.77827 0.52123 0.53693 0.00300
N 	N 	0.72957 0.43843 0.46979 -0.10100
C 	C 	0.76307 0.51033 0.38484 0.03900
H 	H 	0.77817 0.52743 0.33993 -0.00100
N 	N 	0.91287 0.79773 0.33403 -0.06500
C 	C 	0.91537 0.77253 0.27093 0.04400
H 	H 	0.90867 0.72363 0.26083 0.02500
N 	N 	0.93797 0.82573 0.22723 -0.07100
H 	H 	0.93207 0.90053 0.35963 -0.01200
C 	C 	0.50103 0.96707 0.77767 0.08600
C 	C 	0.51153 0.01077 0.72247 -0.14200
H 	H 	0.48063 0.98967 0.68357 0.09100
C 	C 	0.56323 0.08707 0.72647 0.06800
C 	C 	0.60413 0.11997 0.78287 -0.07900
H 	H 	0.64543 0.17107 0.78197 0.05000
C 	C 	0.59193 0.07377 0.83617 -0.05200
H 	H 	0.61463 0.09647 0.87807 0.03900
C 	C 	0.53733 0.99907 0.83507 -0.03200
H 	H 	0.53723 0.96667 0.86967 0.05400
N 	N 	0.45573 0.88867 0.77300 -0.07200
C 	C 	0.43403 0.83977 0.82437 0.03500
H 	H 	0.44493 0.85457 0.87027 0.00400
N 	N 	0.39623 0.77177 0.80313 -0.10000
C 	C 	0.42973 0.84367 0.71818 0.03900
H 	H 	0.44483 0.86077 0.67327 -0.00100
N 	N 	0.57953 0.13107 0.66737 -0.08700
C 	C 	0.58203 0.10587 0.60427 0.04300
H 	H 	0.57533 0.05697 0.59417 0.00200
N 	N 	0.60463 0.15907 0.56057 -0.08200
H 	H 	0.59873 0.23387 0.69297 -0.02100
C 	C 	0.69960 0.86730 0.11100 0.10700
C 	C 	0.65590 0.83410 0.05580 -0.07100
H 	H 	0.67700 0.82430 0.01690 0.04300
C 	C 	0.57960 0.80950 0.05980 0.03200
C 	C 	0.54670 0.81750 0.11620 -0.08400
H 	H 	0.49560 0.80770 0.11530 0.05300
C 	C 	0.59290 0.85150 0.16950 0.02400
H 	H 	0.57020 0.85150 0.21140 0.02300
C 	C 	0.66760 0.87160 0.16840 -0.10900
H 	H 	0.70000 0.90390 0.20300 0.07500
N 	N 	0.77800 0.90040 0.10633 -0.00100
C 	C 	0.82690 0.92760 0.15770 0.00300
H 	H 	0.81210 0.92370 0.20360 0.02700
N 	N 	0.89490 0.95780 0.13646 -0.20100
C 	C 	0.82300 0.91940 0.05151 0.04200
H 	H 	0.80590 0.91740 0.00660 0.00600
N 	N 	0.53560 0.78180 0.00070 -0.07200
C 	C 	0.56080 0.80950 0.93760 0.03700
H 	H 	0.60970 0.85170 0.92750 0.02900
N 	N 	0.50760 0.77890 0.89390 -0.07700
H 	H 	0.43280 0.69820 0.02630 -0.03300
C 	C 	0.36627 0.20063 0.44433 0.06100
C 	C 	0.32257 0.16743 0.38913 -0.07300
H 	H 	0.34367 0.15763 0.35023 0.03700
C 	C 	0.24627 0.14283 0.39313 0.03400
C 	C 	0.21337 0.15083 0.44953 -0.07400
H 	H 	0.16227 0.14103 0.44863 0.04200
C 	C 	0.25957 0.18483 0.50283 -0.00100
H 	H 	0.23687 0.18483 0.54473 0.02600
C 	C 	0.33427 0.20493 0.50173 -0.07600
H 	H 	0.36667 0.23723 0.53633 0.05500
N 	N 	0.44467 0.23373 0.43966 -0.06000
C 	C 	0.49357 0.26093 0.49103 0.03600
H 	H 	0.47877 0.25703 0.53693 0.00200
N 	N 	0.56157 0.29113 0.46979 -0.10200
C 	C 	0.48967 0.25273 0.38484 0.03700
H 	H 	0.47257 0.25073 0.33993 -0.00200
N 	N 	0.20227 0.11513 0.33403 -0.06600
C 	C 	0.22747 0.14283 0.27093 0.03700
H 	H 	0.27637 0.18503 0.26083 0.01800
N 	N 	0.17427 0.11223 0.22723 -0.07700
H 	H 	0.09947 0.03153 0.35963 -0.04100
C 	C 	0.03293 0.53397 0.77767 0.03500
C 	C 	0.98923 0.50077 0.72247 0.00000
H 	H 	0.01033 0.49097 0.68357 -0.00100
C 	C 	0.91293 0.47617 0.72647 0.05300
C 	C 	0.88003 0.48417 0.78287 -0.10700
H 	H 	0.82893 0.47437 0.78197 0.06000
C 	C 	0.92623 0.51817 0.83617 0.07700
H 	H 	0.90353 0.51817 0.87807 0.01300
C 	C 	0.00093 0.53827 0.83507 -0.13500
H 	H 	0.03333 0.57057 0.86967 0.06500
N 	N 	0.11133 0.56707 0.77300 -0.06600
C 	C 	0.16023 0.59427 0.82437 0.03300
H 	H 	0.14543 0.59037 0.87027 0.00200
N 	N 	0.22823 0.62447 0.80313 -0.10100
C 	C 	0.15633 0.58607 0.71818 0.03600
H 	H 	0.13923 0.58407 0.67327 -0.00400
N 	N 	0.86893 0.44847 0.66737 -0.08300
C 	C 	0.89413 0.47617 0.60427 0.04500
H 	H 	0.94303 0.51837 0.59417 0.03300
N 	N 	0.84093 0.44557 0.56057 -0.07800
H 	H 	0.76613 0.36487 0.69297 -0.01900
C 	C 	0.13270 0.83230 0.11100 -0.03300
C 	C 	0.16590 0.82180 0.05580 -0.07300
H 	H 	0.17570 0.85270 0.01690 0.04800
C 	C 	0.19050 0.77010 0.05980 0.12800
C 	C 	0.18250 0.72920 0.11620 -0.11700
H 	H 	0.19230 0.68790 0.11530 0.06100
C 	C 	0.14850 0.74140 0.16950 -0.00700
H 	H 	0.14850 0.71870 0.21140 0.02800
C 	C 	0.12840 0.79600 0.16840 -0.03100
H 	H 	0.09610 0.79610 0.20300 0.03600
N 	N 	0.09960 0.87760 0.10633 -0.21200
C 	C 	0.07240 0.89930 0.15770 0.10600
H 	H 	0.07630 0.88840 0.20360 -0.03700
N 	N 	0.04220 0.93710 0.13646 0.13400
C 	C 	0.08060 0.90360 0.05151 0.03100
H 	H 	0.08260 0.88850 0.00660 -0.01800
N 	N 	0.21820 0.75380 0.00070 -0.14100
C 	C 	0.19050 0.75130 0.93760 0.07500
H 	H 	0.14830 0.75800 0.92750 0.00500
N 	N 	0.22110 0.72870 0.89390 -0.08800
H 	H 	0.30180 0.73460 0.02630 -0.03100
C 	C 	0.79937 0.16563 0.44433 0.05100
C 	C 	0.83257 0.15513 0.38913 -0.06600
H 	H 	0.84237 0.18603 0.35023 0.05700
C 	C 	0.85717 0.10343 0.39313 0.11000
C 	C 	0.84917 0.06253 0.44953 -0.12900
H 	H 	0.85897 0.02123 0.44863 0.05100
C 	C 	0.81517 0.07473 0.50283 0.02100
H 	H 	0.81517 0.05203 0.54473 0.00600
C 	C 	0.79507 0.12933 0.50173 -0.09400
H 	H 	0.76277 0.12943 0.53633 0.05700
N 	N 	0.76627 0.21093 0.43966 -0.09200
C 	C 	0.73907 0.23263 0.49103 0.03300
H 	H 	0.74297 0.22173 0.53693 0.00100
N 	N 	0.70887 0.27043 0.46979 -0.09400
C 	C 	0.74727 0.23693 0.38484 0.03600
H 	H 	0.74927 0.22183 0.33993 -0.00500
N 	N 	0.88487 0.08713 0.33403 -0.12600
C 	C 	0.85717 0.08463 0.27093 0.05100
H 	H 	0.81497 0.09133 0.26083 0.00700
N 	N 	0.88777 0.06203 0.22723 -0.09200
H 	H 	0.96847 0.06793 0.35963 -0.00500
C 	C 	0.46603 0.49897 0.77767 0.05700
C 	C 	0.49923 0.48847 0.72247 -0.07100
H 	H 	0.50903 0.51937 0.68357 0.04500
C 	C 	0.52383 0.43677 0.72647 0.06500
C 	C 	0.51583 0.39587 0.78287 -0.09400
H 	H 	0.52563 0.35457 0.78197 0.05500
C 	C 	0.48183 0.40807 0.83617 0.01100
H 	H 	0.48183 0.38537 0.87807 0.02600
C 	C 	0.46173 0.46267 0.83507 -0.08200
H 	H 	0.42943 0.46277 0.86967 0.05900
N 	N 	0.43293 0.54427 0.77300 -0.07400
C 	C 	0.40573 0.56597 0.82437 0.03600
H 	H 	0.40963 0.55507 0.87027 0.00200
N 	N 	0.37553 0.60377 0.80313 -0.09400
C 	C 	0.41393 0.57027 0.71818 0.03700
H 	H 	0.41593 0.55517 0.67327 -0.00300
N 	N 	0.55153 0.42047 0.66737 -0.08800
C 	C 	0.52383 0.41797 0.60427 0.04500
H 	H 	0.48163 0.42467 0.59417 0.01700
N 	N 	0.55443 0.39537 0.56057 -0.08100
H 	H 	0.63513 0.40127 0.69297 -0.02000
C 	C 	0.30040 0.16770 0.88900 0.10300
C 	C 	0.34410 0.17820 0.94420 -0.07000
H 	H 	0.32300 0.14730 0.98310 0.04300
C 	C 	0.42040 0.22990 0.94020 0.02700
C 	C 	0.45330 0.27080 0.88380 -0.08000
H 	H 	0.50440 0.31210 0.88470 0.05200
C 	C 	0.40710 0.25860 0.83050 0.01700
H 	H 	0.42980 0.28130 0.78860 0.02200
C 	C 	0.33240 0.20400 0.83160 -0.10700
H 	H 	0.30000 0.20390 0.79700 0.06400
N 	N 	0.22200 0.12240 0.89367 -0.00100
C 	C 	0.17310 0.10070 0.84230 -0.00200
H 	H 	0.18790 0.11160 0.79640 0.01700
N 	N 	0.10510 0.06290 0.86354 -0.21800
C 	C 	0.17700 0.09640 0.94849 0.03800
H 	H 	0.19410 0.11150 0.99340 0.00400
N 	N 	0.46440 0.24620 0.99930 -0.05200
C 	C 	0.43920 0.24870 0.06240 0.02500
H 	H 	0.39030 0.24200 0.07250 0.01800
N 	N 	0.49240 0.27130 0.10610 -0.07700
H 	H 	0.56720 0.26540 0.97370 -0.00600
C 	C 	0.96707 0.50103 0.22233 0.08600
C 	C 	0.01077 0.51153 0.27753 -0.14200
H 	H 	0.98967 0.48063 0.31643 0.09100
C 	C 	0.08707 0.56323 0.27353 0.06800
C 	C 	0.11997 0.60413 0.21713 -0.07900
H 	H 	0.17107 0.64543 0.21803 0.05000
C 	C 	0.07377 0.59193 0.16383 -0.05400
H 	H 	0.09647 0.61463 0.12193 0.03600
C 	C 	0.99907 0.53733 0.16493 -0.03200
H 	H 	0.96667 0.53723 0.13033 0.05200
N 	N 	0.88867 0.45573 0.22700 -0.07200
C 	C 	0.83977 0.43403 0.17563 0.03600
H 	H 	0.85457 0.44493 0.12973 0.00300
N 	N 	0.77177 0.39623 0.19687 -0.10100
C 	C 	0.84367 0.42973 0.28182 0.03900
H 	H 	0.86077 0.44483 0.32673 -0.00100
N 	N 	0.13107 0.57953 0.33263 -0.08700
C 	C 	0.10587 0.58203 0.39573 0.04300
H 	H 	0.05697 0.57533 0.40583 0.00200
N 	N 	0.15907 0.60463 0.43943 -0.08200
H 	H 	0.23387 0.59873 0.30703 -0.02100
C 	C 	0.63373 0.83437 0.55567 0.06600
C 	C 	0.67743 0.84487 0.61087 -0.07400
H 	H 	0.65633 0.81397 0.64977 0.04100
C 	C 	0.75373 0.89657 0.60687 0.04300
C 	C 	0.78663 0.93747 0.55047 -0.07600
H 	H 	0.83773 0.97877 0.55137 0.07300
C 	C 	0.74043 0.92527 0.49717 0.01400
H 	H 	0.76313 0.94797 0.45527 0.04200
C 	C 	0.66573 0.87067 0.49827 -0.07900
H 	H 	0.63333 0.87057 0.46367 0.06200
N 	N 	0.55533 0.78907 0.56034 -0.06000
C 	C 	0.50643 0.76737 0.50897 0.03700
H 	H 	0.52123 0.77827 0.46307 0.00300
N 	N 	0.43843 0.72957 0.53021 -0.10100
C 	C 	0.51033 0.76307 0.61516 0.03900
H 	H 	0.52743 0.77817 0.66007 -0.00100
N 	N 	0.79773 0.91287 0.66597 -0.06500
C 	C 	0.77253 0.91537 0.72907 0.04400
H 	H 	0.72363 0.90867 0.73917 0.02600
N 	N 	0.82573 0.93797 0.77277 -0.07000
H 	H 	0.90053 0.93207 0.64037 -0.01200
C 	C 	0.86730 0.69960 0.88900 0.10600
C 	C 	0.83410 0.65590 0.94420 -0.07100
H 	H 	0.82430 0.67700 0.98310 0.04700
C 	C 	0.80950 0.57960 0.94020 0.03300
C 	C 	0.81750 0.54670 0.88380 -0.08200
H 	H 	0.80770 0.49560 0.88470 0.05300
C 	C 	0.85150 0.59290 0.83050 0.02400
H 	H 	0.85150 0.57020 0.78860 0.02300
C 	C 	0.87160 0.66760 0.83160 -0.10800
H 	H 	0.90390 0.70000 0.79700 0.07500
N 	N 	0.90040 0.77800 0.89367 -0.00300
C 	C 	0.92760 0.82690 0.84230 0.00500
H 	H 	0.92370 0.81210 0.79640 0.02700
N 	N 	0.95780 0.89490 0.86354 -0.19700
C 	C 	0.91940 0.82300 0.94849 0.04300
H 	H 	0.91740 0.80590 0.99340 0.01000
N 	N 	0.78180 0.53560 0.99930 -0.05400
C 	C 	0.80950 0.56080 0.06240 0.02700
H 	H 	0.85170 0.60970 0.07250 0.02600
N 	N 	0.77890 0.50760 0.10610 -0.07600
H 	H 	0.69820 0.43280 0.97370 -0.00600
C 	C 	0.53397 0.03293 0.22233 0.03400
C 	C 	0.50077 0.98923 0.27753 0.00200
H 	H 	0.49097 0.01033 0.31643 -0.00300
C 	C 	0.47617 0.91293 0.27353 0.05300
C 	C 	0.48417 0.88003 0.21713 -0.10800
H 	H 	0.47437 0.82893 0.21803 0.06100
C 	C 	0.51817 0.92623 0.16383 0.08000
H 	H 	0.51817 0.90353 0.12193 0.01000
C 	C 	0.53827 0.00093 0.16493 -0.13800
H 	H 	0.57057 0.03333 0.13033 0.06300
N 	N 	0.56707 0.11133 0.22700 -0.06600
C 	C 	0.59427 0.16023 0.17563 0.03300
H 	H 	0.59037 0.14543 0.12973 0.00100
N 	N 	0.62447 0.22823 0.19687 -0.10200
C 	C 	0.58607 0.15633 0.28182 0.03600
H 	H 	0.58407 0.13923 0.32673 -0.00400
N 	N 	0.44847 0.86893 0.33263 -0.08300
C 	C 	0.47617 0.89413 0.39573 0.04500
H 	H 	0.51837 0.94303 0.40583 0.03300
N 	N 	0.44557 0.84093 0.43943 -0.07800
H 	H 	0.36487 0.76613 0.30703 -0.01900
C 	C 	0.20063 0.36627 0.55567 0.06100
C 	C 	0.16743 0.32257 0.61087 -0.07300
H 	H 	0.15763 0.34367 0.64977 0.03700
C 	C 	0.14283 0.24627 0.60687 0.03500
C 	C 	0.15083 0.21337 0.55047 -0.07500
H 	H 	0.14103 0.16227 0.55137 0.04200
C 	C 	0.18483 0.25957 0.49717 -0.00000
H 	H 	0.18483 0.23687 0.45527 0.02600
C 	C 	0.20493 0.33427 0.49827 -0.07600
H 	H 	0.23723 0.36667 0.46367 0.05500
N 	N 	0.23373 0.44467 0.56034 -0.06000
C 	C 	0.26093 0.49357 0.50897 0.03600
H 	H 	0.25703 0.47877 0.46307 0.00200
N 	N 	0.29113 0.56157 0.53021 -0.10100
C 	C 	0.25273 0.48967 0.61516 0.03700
H 	H 	0.25073 0.47257 0.66007 -0.00200
N 	N 	0.11513 0.20227 0.66597 -0.06700
C 	C 	0.14283 0.22747 0.72907 0.03700
H 	H 	0.18503 0.27637 0.73917 0.01800
N 	N 	0.11223 0.17427 0.77277 -0.07700
H 	H 	0.03153 0.09947 0.64037 -0.04000
C 	C 	0.83230 0.13270 0.88900 -0.03000
C 	C 	0.82180 0.16590 0.94420 -0.07300
H 	H 	0.85270 0.17570 0.98310 0.05300
C 	C 	0.77010 0.19050 0.94020 0.12800
C 	C 	0.72920 0.18250 0.88380 -0.11500
H 	H 	0.68790 0.19230 0.88470 0.06200
C 	C 	0.74140 0.14850 0.83050 -0.00600
H 	H 	0.71870 0.14850 0.78860 0.02800
C 	C 	0.79600 0.12840 0.83160 -0.03200
H 	H 	0.79610 0.09610 0.79700 0.03700
N 	N 	0.87760 0.09960 0.89367 -0.20900
C 	C 	0.89930 0.07240 0.84230 0.10500
H 	H 	0.88840 0.07630 0.79640 -0.03700
N 	N 	0.93710 0.04220 0.86354 0.12900
C 	C 	0.90360 0.08060 0.94849 0.03300
H 	H 	0.88850 0.08260 0.99340 -0.01300
N 	N 	0.75380 0.21820 0.99930 -0.11900
C 	C 	0.75130 0.19050 0.06240 0.06200
H 	H 	0.75800 0.14830 0.07250 0.00200
N 	N 	0.72870 0.22110 0.10610 -0.08600
H 	H 	0.73460 0.30180 0.97370 -0.00400
C 	C 	0.49897 0.46603 0.22233 0.05700
C 	C 	0.48847 0.49923 0.27753 -0.07100
H 	H 	0.51937 0.50903 0.31643 0.04500
C 	C 	0.43677 0.52383 0.27353 0.06500
C 	C 	0.39587 0.51583 0.21713 -0.09500
H 	H 	0.35457 0.52563 0.21803 0.05600
C 	C 	0.40807 0.48183 0.16383 0.01100
H 	H 	0.38537 0.48183 0.12193 0.02300
C 	C 	0.46267 0.46173 0.16493 -0.08200
H 	H 	0.46277 0.42943 0.13033 0.05600
N 	N 	0.54427 0.43293 0.22700 -0.07400
C 	C 	0.56597 0.40573 0.17563 0.03700
H 	H 	0.55507 0.40963 0.12973 0.00100
N 	N 	0.60377 0.37553 0.19687 -0.09400
C 	C 	0.57027 0.41393 0.28182 0.03700
H 	H 	0.55517 0.41593 0.32673 -0.00300
N 	N 	0.42047 0.55153 0.33263 -0.08800
C 	C 	0.41797 0.52383 0.39573 0.04500
H 	H 	0.42467 0.48163 0.40583 0.01700
N 	N 	0.39537 0.55443 0.43943 -0.08100
H 	H 	0.40127 0.63513 0.30703 -0.02000
C 	C 	0.16563 0.79937 0.55567 0.05100
C 	C 	0.15513 0.83257 0.61087 -0.06600
H 	H 	0.18603 0.84237 0.64977 0.05700
C 	C 	0.10343 0.85717 0.60687 0.11000
C 	C 	0.06253 0.84917 0.55047 -0.12900
H 	H 	0.02123 0.85897 0.55137 0.05100
C 	C 	0.07473 0.81517 0.49717 0.02100
H 	H 	0.05203 0.81517 0.45527 0.00600
C 	C 	0.12933 0.79507 0.49827 -0.09400
H 	H 	0.12943 0.76277 0.46367 0.05700
N 	N 	0.21093 0.76627 0.56034 -0.09200
C 	C 	0.23263 0.73907 0.50897 0.03300
H 	H 	0.22173 0.74297 0.46307 0.00100
N 	N 	0.27043 0.70887 0.53021 -0.09400
C 	C 	0.23693 0.74727 0.61516 0.03600
H 	H 	0.22183 0.74927 0.66007 -0.00500
N 	N 	0.08713 0.88487 0.66597 -0.12500
C 	C 	0.08463 0.85717 0.72907 0.05100
H 	H 	0.09133 0.81497 0.73917 0.00800
N 	N 	0.06203 0.88777 0.77277 -0.09100
H 	H 	0.06793 0.96847 0.64037 -0.00500
C 	C 	0.83230 0.69960 0.88900 0.02000
C 	C 	0.82180 0.65590 0.94420 -0.07200
H 	H 	0.85270 0.67700 0.98310 0.05200
C 	C 	0.77010 0.57960 0.94020 0.09500
C 	C 	0.72920 0.54670 0.88380 -0.10400
H 	H 	0.68790 0.49560 0.88470 0.05900
C 	C 	0.74140 0.59290 0.83050 0.00700
H 	H 	0.71870 0.57020 0.78860 0.02600
C 	C 	0.79600 0.66760 0.83160 -0.06000
H 	H 	0.79610 0.70000 0.79700 0.05300
N 	N 	0.87760 0.77800 0.89367 -0.13600
C 	C 	0.89930 0.82690 0.84230 0.07200
H 	H 	0.88840 0.81210 0.79640 -0.01200
N 	N 	0.93710 0.89490 0.86354 0.02000
C 	C 	0.90360 0.82300 0.94849 0.03800
H 	H 	0.88850 0.80590 0.99340 -0.00300
N 	N 	0.75380 0.53560 0.99930 -0.09700
C 	C 	0.75130 0.56080 0.06240 0.05000
H 	H 	0.75800 0.60970 0.07250 0.01300
N 	N 	0.72870 0.50760 0.10610 -0.08200
H 	H 	0.73460 0.43280 0.97370 -0.00500
C 	C 	0.49897 0.03293 0.22233 0.03100
C 	C 	0.48847 0.98923 0.27753 0.00100
H 	H 	0.51937 0.01033 0.31643 -0.00300
C 	C 	0.43677 0.91293 0.27353 0.05100
C 	C 	0.39587 0.88003 0.21713 -0.10600
H 	H 	0.35457 0.82893 0.21803 0.06000
C 	C 	0.40807 0.92623 0.16383 0.07900
H 	H 	0.38537 0.90353 0.12193 0.01000
C 	C 	0.46267 0.00093 0.16493 -0.13700
H 	H 	0.46277 0.03333 0.13033 0.06200
N 	N 	0.54427 0.11133 0.22700 -0.06900
C 	C 	0.56597 0.16023 0.17563 0.03500
H 	H 	0.55507 0.14543 0.12973 0.00000
N 	N 	0.60377 0.22823 0.19687 -0.09600
C 	C 	0.57027 0.15633 0.28182 0.03500
H 	H 	0.55517 0.13923 0.32673 -0.00400
N 	N 	0.42047 0.86893 0.33263 -0.08100
C 	C 	0.41797 0.89413 0.39573 0.04300
H 	H 	0.42467 0.94303 0.40583 0.03400
N 	N 	0.39537 0.84093 0.43943 -0.07800
H 	H 	0.40127 0.76613 0.30703 -0.01900
C 	C 	0.16563 0.36627 0.55567 0.05300
C 	C 	0.15513 0.32257 0.61087 -0.06800
H 	H 	0.18603 0.34367 0.64977 0.05000
C 	C 	0.10343 0.24627 0.60687 0.08200
C 	C 	0.06253 0.21337 0.55047 -0.11100
H 	H 	0.02123 0.16227 0.55137 0.03600
C 	C 	0.07473 0.25957 0.49717 0.00900
H 	H 	0.05203 0.23687 0.45527 0.00600
C 	C 	0.12933 0.33427 0.49827 -0.08700
H 	H 	0.12943 0.36667 0.46367 0.05400
N 	N 	0.21093 0.44467 0.56034 -0.08100
C 	C 	0.23263 0.49357 0.50897 0.03300
H 	H 	0.22173 0.47877 0.46307 0.00100
N 	N 	0.27043 0.56157 0.53021 -0.09700
C 	C 	0.23693 0.48967 0.61516 0.03600
H 	H 	0.22183 0.47257 0.66007 -0.00500
N 	N 	0.08713 0.20227 0.66597 -0.10700
C 	C 	0.08463 0.22747 0.72907 0.04400
H 	H 	0.09133 0.27637 0.73917 0.00800
N 	N 	0.06203 0.17427 0.77277 -0.09000
H 	H 	0.06793 0.09947 0.64037 -0.02800
C 	C 	0.30040 0.13270 0.88900 0.01100
C 	C 	0.34410 0.16590 0.94420 -0.07100
H 	H 	0.32300 0.17570 0.98310 0.04800
C 	C 	0.42040 0.19050 0.94020 0.09400
C 	C 	0.45330 0.18250 0.88380 -0.10300
H 	H 	0.50440 0.19230 0.88470 0.05800
C 	C 	0.40710 0.14850 0.83050 -0.00100
H 	H 	0.42980 0.14850 0.78860 0.02600
C 	C 	0.33240 0.12840 0.83160 -0.05600
H 	H 	0.30000 0.09610 0.79700 0.04100
N 	N 	0.22200 0.09960 0.89367 -0.14100
C 	C 	0.17310 0.07240 0.84230 0.06700
H 	H 	0.18790 0.07630 0.79640 -0.02300
N 	N 	0.10510 0.04220 0.86354 0.00800
C 	C 	0.17700 0.08060 0.94849 0.03200
H 	H 	0.19410 0.08260 0.99340 -0.01100
N 	N 	0.46440 0.21820 0.99930 -0.09700
C 	C 	0.43920 0.19050 0.06240 0.04900
H 	H 	0.39030 0.14830 0.07250 0.00500
N 	N 	0.49240 0.22110 0.10610 -0.08400
H 	H 	0.56720 0.30180 0.97370 -0.00500
C 	C 	0.96707 0.46603 0.22233 0.08500
C 	C 	0.01077 0.49923 0.27753 -0.14100
H 	H 	0.98967 0.50903 0.31643 0.09100
C 	C 	0.08707 0.52383 0.27353 0.07600
C 	C 	0.11997 0.51583 0.21713 -0.08300
H 	H 	0.17107 0.52563 0.21803 0.05100
C 	C 	0.07377 0.48183 0.16383 -0.05400
H 	H 	0.09647 0.48183 0.12193 0.03600
C 	C 	0.99907 0.46173 0.16493 -0.03000
H 	H 	0.96667 0.42943 0.13033 0.05200
N 	N 	0.88867 0.43293 0.22700 -0.07500
C 	C 	0.83977 0.40573 0.17563 0.03600
H 	H 	0.85457 0.40963 0.12973 0.00200
N 	N 	0.77177 0.37553 0.19687 -0.09700
C 	C 	0.84367 0.41393 0.28182 0.03900
H 	H 	0.86077 0.41593 0.32673 -0.00100
N 	N 	0.13107 0.55153 0.33263 -0.09200
C 	C 	0.10587 0.52383 0.39573 0.04600
H 	H 	0.05697 0.48163 0.40583 0.00100
N 	N 	0.15907 0.55443 0.43943 -0.08300
H 	H 	0.23387 0.63513 0.30703 -0.02000
C 	C 	0.63373 0.79937 0.55567 0.05700
C 	C 	0.67743 0.83257 0.61087 -0.06900
H 	H 	0.65633 0.84237 0.64977 0.05200
C 	C 	0.75373 0.85717 0.60687 0.08800
C 	C 	0.78663 0.84917 0.55047 -0.11100
H 	H 	0.83773 0.85897 0.55137 0.06800
C 	C 	0.74043 0.81517 0.49717 0.02200
H 	H 	0.76313 0.81517 0.45527 0.02300
C 	C 	0.66573 0.79507 0.49827 -0.08900
H 	H 	0.63333 0.76277 0.46367 0.06100
N 	N 	0.55533 0.76627 0.56034 -0.08100
C 	C 	0.50643 0.73907 0.50897 0.03500
H 	H 	0.52123 0.74297 0.46307 0.00200
N 	N 	0.43843 0.70887 0.53021 -0.09600
C 	C 	0.51033 0.74727 0.61516 0.03700
H 	H 	0.52743 0.74927 0.66007 -0.00300
N 	N 	0.79773 0.88487 0.66597 -0.10300
C 	C 	0.77253 0.85717 0.72907 0.05100
H 	H 	0.72363 0.81497 0.73917 0.01600
N 	N 	0.82573 0.88777 0.77277 -0.08200
H 	H 	0.90053 0.96847 0.64037 0.00100
C 	C 	0.86730 0.16770 0.88900 0.15100
C 	C 	0.83410 0.17820 0.94420 -0.07000
H 	H 	0.82430 0.14730 0.98310 0.04300
C 	C 	0.80950 0.22990 0.94020 -0.00300
C 	C 	0.81750 0.27080 0.88380 -0.07000
H 	H 	0.80770 0.31210 0.88470 0.04900
C 	C 	0.85150 0.25860 0.83050 0.03000
H 	H 	0.85150 0.28130 0.78860 0.02100
C 	C 	0.87160 0.20400 0.83160 -0.13400
H 	H 	0.90390 0.20390 0.79700 0.08100
N 	N 	0.90040 0.12240 0.89367 0.06900
C 	C 	0.92760 0.10070 0.84230 -0.03300
H 	H 	0.92370 0.11160 0.79640 0.04300
N 	N 	0.95780 0.06290 0.86354 -0.32100
C 	C 	0.91940 0.09640 0.94849 0.04400
H 	H 	0.91740 0.11150 0.99340 0.01500
N 	N 	0.78180 0.24620 0.99930 -0.03000
C 	C 	0.80950 0.24870 0.06240 0.01300
H 	H 	0.85170 0.24200 0.07250 0.02900
N 	N 	0.77890 0.27130 0.10610 -0.07300
H 	H 	0.69820 0.26540 0.97370 -0.00600
C 	C 	0.53397 0.50103 0.22233 0.06100
C 	C 	0.50077 0.51153 0.27753 -0.07100
H 	H 	0.49097 0.48063 0.31643 0.04500
C 	C 	0.47617 0.56323 0.27353 0.05900
C 	C 	0.48417 0.60413 0.21713 -0.09200
H 	H 	0.47437 0.64543 0.21803 0.05500
C 	C 	0.51817 0.59193 0.16383 0.01100
H 	H 	0.51817 0.61463 0.12193 0.02300
C 	C 	0.53827 0.53733 0.16493 -0.08400
H 	H 	0.57057 0.53723 0.13033 0.05700
N 	N 	0.56707 0.45573 0.22700 -0.06700
C 	C 	0.59427 0.43403 0.17563 0.03400
H 	H 	0.59037 0.44493 0.12973 0.00200
N 	N 	0.62447 0.39623 0.19687 -0.10400
C 	C 	0.58607 0.42973 0.28182 0.03700
H 	H 	0.58407 0.44483 0.32673 -0.00200
N 	N 	0.44847 0.57953 0.33263 -0.08400
C 	C 	0.47617 0.58203 0.39573 0.04400
H 	H 	0.51837 0.57533 0.40583 0.01700
N 	N 	0.44557 0.60463 0.43943 -0.08000
H 	H 	0.36487 0.59873 0.30703 -0.02000
C 	C 	0.20063 0.83437 0.55567 0.06800
C 	C 	0.16743 0.84487 0.61087 -0.07600
H 	H 	0.15763 0.81397 0.64977 0.03300
C 	C 	0.14283 0.89657 0.60687 0.01500
C 	C 	0.15083 0.93747 0.55047 -0.05700
H 	H 	0.14103 0.97877 0.55137 0.06200
C 	C 	0.18483 0.92527 0.49717 0.00300
H 	H 	0.18483 0.94797 0.45527 0.04500
C 	C 	0.20493 0.87067 0.49827 -0.07200
H 	H 	0.23723 0.87057 0.46367 0.06000
N 	N 	0.23373 0.78907 0.56034 -0.04900
C 	C 	0.26093 0.76737 0.50897 0.03700
H 	H 	0.25703 0.77827 0.46307 0.00300
N 	N 	0.29113 0.72957 0.53021 -0.10400
C 	C 	0.25273 0.76307 0.61516 0.03900
H 	H 	0.25073 0.77817 0.66007 -0.00000
N 	N 	0.11513 0.91287 0.66597 -0.04500
C 	C 	0.14283 0.91537 0.72907 0.03700
H 	H 	0.18503 0.90867 0.73917 0.02800
N 	N 	0.11223 0.93797 0.77277 -0.06600
H 	H 	0.03153 0.93207 0.64037 -0.03200
C 	C 	0.69960 0.83230 0.11100 0.01700
C 	C 	0.65590 0.82180 0.05580 -0.07300
H 	H 	0.67700 0.85270 0.01690 0.04800
C 	C 	0.57960 0.77010 0.05980 0.09600
C 	C 	0.54670 0.72920 0.11620 -0.10600
H 	H 	0.49560 0.68790 0.11530 0.05900
C 	C 	0.59290 0.74140 0.16950 0.00600
H 	H 	0.57020 0.71870 0.21140 0.02700
C 	C 	0.66760 0.79600 0.16840 -0.05900
H 	H 	0.70000 0.79610 0.20300 0.05300
N 	N 	0.77800 0.87760 0.10633 -0.13900
C 	C 	0.82690 0.89930 0.15770 0.07200
H 	H 	0.81210 0.88840 0.20360 -0.01200
N 	N 	0.89490 0.93710 0.13646 0.02400
C 	C 	0.82300 0.90360 0.05151 0.03600
H 	H 	0.80590 0.88850 0.00660 -0.00700
N 	N 	0.53560 0.75380 0.00070 -0.11700
C 	C 	0.56080 0.75130 0.93760 0.06300
H 	H 	0.60970 0.75800 0.92750 0.01500
N 	N 	0.50760 0.72870 0.89390 -0.08300
H 	H 	0.43280 0.73460 0.02630 -0.03200
C 	C 	0.36627 0.16563 0.44433 0.05300
C 	C 	0.32257 0.15513 0.38913 -0.06800
H 	H 	0.34367 0.18603 0.35023 0.05000
C 	C 	0.24627 0.10343 0.39313 0.08300
C 	C 	0.21337 0.06253 0.44953 -0.11100
H 	H 	0.16227 0.02123 0.44863 0.03600
C 	C 	0.25957 0.07473 0.50283 0.00900
H 	H 	0.23687 0.05203 0.54473 0.00500
C 	C 	0.33427 0.12933 0.50173 -0.08800
H 	H 	0.36667 0.12943 0.53633 0.05400
N 	N 	0.44467 0.21093 0.43966 -0.08200
C 	C 	0.49357 0.23263 0.49103 0.03300
H 	H 	0.47877 0.22173 0.53693 0.00100
N 	N 	0.56157 0.27043 0.46979 -0.09700
C 	C 	0.48967 0.23693 0.38484 0.03600
H 	H 	0.47257 0.22183 0.33993 -0.00500
N 	N 	0.20227 0.08713 0.33403 -0.10700
C 	C 	0.22747 0.08463 0.27093 0.04400
H 	H 	0.27637 0.09133 0.26083 0.00700
N 	N 	0.17427 0.06203 0.22723 -0.09100
H 	H 	0.09947 0.06793 0.35963 -0.02800
C 	C 	0.03293 0.49897 0.77767 0.03100
C 	C 	0.98923 0.48847 0.72247 -0.00100
H 	H 	0.01033 0.51937 0.68357 -0.00100
C 	C 	0.91293 0.43677 0.72647 0.05100
C 	C 	0.88003 0.39587 0.78287 -0.10500
H 	H 	0.82893 0.35457 0.78197 0.06000
C 	C 	0.92623 0.40807 0.83617 0.07600
H 	H 	0.90353 0.38537 0.87807 0.01300
C 	C 	0.00093 0.46267 0.83507 -0.13500
H 	H 	0.03333 0.46277 0.86967 0.06400
N 	N 	0.11133 0.54427 0.77300 -0.06900
C 	C 	0.16023 0.56597 0.82437 0.03500
H 	H 	0.14543 0.55507 0.87027 0.00200
N 	N 	0.22823 0.60377 0.80313 -0.09600
C 	C 	0.15633 0.57027 0.71818 0.03600
H 	H 	0.13923 0.55517 0.67327 -0.00400
N 	N 	0.86893 0.42047 0.66737 -0.08100
C 	C 	0.89413 0.41797 0.60427 0.04300
H 	H 	0.94303 0.42467 0.59417 0.03300
N 	N 	0.84093 0.39537 0.56057 -0.07800
H 	H 	0.76613 0.40127 0.69297 -0.01900
C 	C 	0.13270 0.30040 0.11100 0.01000
C 	C 	0.16590 0.34410 0.05580 -0.07100
H 	H 	0.17570 0.32300 0.01690 0.04300
C 	C 	0.19050 0.42040 0.05980 0.09300
C 	C 	0.18250 0.45330 0.11620 -0.10400
H 	H 	0.19230 0.50440 0.11530 0.05700
C 	C 	0.14850 0.40710 0.16950 -0.00200
H 	H 	0.14850 0.42980 0.21140 0.02600
C 	C 	0.12840 0.33240 0.16840 -0.05600
H 	H 	0.09610 0.30000 0.20300 0.04000
N 	N 	0.09960 0.22200 0.10633 -0.14200
C 	C 	0.07240 0.17310 0.15770 0.06600
H 	H 	0.07630 0.18790 0.20360 -0.02300
N 	N 	0.04220 0.10510 0.13646 0.00700
C 	C 	0.08060 0.17700 0.05151 0.03100
H 	H 	0.08260 0.19410 0.00660 -0.01600
N 	N 	0.21820 0.46440 0.00070 -0.11800
C 	C 	0.19050 0.43920 0.93760 0.06200
H 	H 	0.14830 0.39030 0.92750 0.00800
N 	N 	0.22110 0.49240 0.89390 -0.08500
H 	H 	0.30180 0.56720 0.02630 -0.03300
C 	C 	0.79937 0.63373 0.44433 0.05700
C 	C 	0.83257 0.67743 0.38913 -0.06900
H 	H 	0.84237 0.65633 0.35023 0.05200
C 	C 	0.85717 0.75373 0.39313 0.08800
C 	C 	0.84917 0.78663 0.44953 -0.11100
H 	H 	0.85897 0.83773 0.44863 0.06800
C 	C 	0.81517 0.74043 0.50283 0.02200
H 	H 	0.81517 0.76313 0.54473 0.02300
C 	C 	0.79507 0.66573 0.50173 -0.08900
H 	H 	0.76277 0.63333 0.53633 0.06100
N 	N 	0.76627 0.55533 0.43966 -0.08100
C 	C 	0.73907 0.50643 0.49103 0.03500
H 	H 	0.74297 0.52123 0.53693 0.00200
N 	N 	0.70887 0.43843 0.46979 -0.09600
C 	C 	0.74727 0.51033 0.38484 0.03700
H 	H 	0.74927 0.52743 0.33993 -0.00300
N 	N 	0.88487 0.79773 0.33403 -0.10300
C 	C 	0.85717 0.77253 0.27093 0.05100
H 	H 	0.81497 0.72363 0.26083 0.01600
N 	N 	0.88777 0.82573 0.22723 -0.08300
H 	H 	0.96847 0.90053 0.35963 0.00100
C 	C 	0.46603 0.96707 0.77767 0.08500
C 	C 	0.49923 0.01077 0.72247 -0.14100
H 	H 	0.50903 0.98967 0.68357 0.09100
C 	C 	0.52383 0.08707 0.72647 0.07600
C 	C 	0.51583 0.11997 0.78287 -0.08300
H 	H 	0.52563 0.17107 0.78197 0.05100
C 	C 	0.48183 0.07377 0.83617 -0.05200
H 	H 	0.48183 0.09647 0.87807 0.03800
C 	C 	0.46173 0.99907 0.83507 -0.03100
H 	H 	0.42943 0.96667 0.86967 0.05400
N 	N 	0.43293 0.88867 0.77300 -0.07500
C 	C 	0.40573 0.83977 0.82437 0.03600
H 	H 	0.40963 0.85457 0.87027 0.00400
N 	N 	0.37553 0.77177 0.80313 -0.09700
C 	C 	0.41393 0.84367 0.71818 0.03900
H 	H 	0.41593 0.86077 0.67327 -0.00100
N 	N 	0.55153 0.13107 0.66737 -0.09200
C 	C 	0.52383 0.10587 0.60427 0.04600
H 	H 	0.48163 0.05697 0.59417 0.00000
N 	N 	0.55443 0.15907 0.56057 -0.08300
H 	H 	0.63513 0.23387 0.69297 -0.02000
C 	C 	0.16770 0.86730 0.11100 0.15100
C 	C 	0.17820 0.83410 0.05580 -0.07000
H 	H 	0.14730 0.82430 0.01690 0.03800
C 	C 	0.22990 0.80950 0.05980 -0.00400
C 	C 	0.27080 0.81750 0.11620 -0.07100
H 	H 	0.31210 0.80770 0.11530 0.04900
C 	C 	0.25860 0.85150 0.16950 0.03000
H 	H 	0.28130 0.85150 0.21140 0.02100
C 	C 	0.20400 0.87160 0.16840 -0.13500
H 	H 	0.20390 0.90390 0.20300 0.08200
N 	N 	0.12240 0.90040 0.10633 0.07100
C 	C 	0.10070 0.92760 0.15770 -0.03500
H 	H 	0.11160 0.92370 0.20360 0.04400
N 	N 	0.06290 0.95780 0.13646 -0.32600
C 	C 	0.09640 0.91940 0.05151 0.04300
H 	H 	0.11150 0.91740 0.00660 0.01000
N 	N 	0.24620 0.78180 0.00070 -0.04800
C 	C 	0.24870 0.80950 0.93760 0.02400
H 	H 	0.24200 0.85170 0.92750 0.03200
N 	N 	0.27130 0.77890 0.89390 -0.07400
H 	H 	0.26540 0.69820 0.02630 -0.03300
C 	C 	0.83437 0.20063 0.44433 0.06800
C 	C 	0.84487 0.16743 0.38913 -0.07600
H 	H 	0.81397 0.15763 0.35023 0.03300
C 	C 	0.89657 0.14283 0.39313 0.01500
C 	C 	0.93747 0.15083 0.44953 -0.05700
H 	H 	0.97877 0.14103 0.44863 0.06200
C 	C 	0.92527 0.18483 0.50283 0.00200
H 	H 	0.94797 0.18483 0.54473 0.04500
C 	C 	0.87067 0.20493 0.50173 -0.07200
H 	H 	0.87057 0.23723 0.53633 0.06000
N 	N 	0.78907 0.23373 0.43966 -0.04900
C 	C 	0.76737 0.26093 0.49103 0.03700
H 	H 	0.77827 0.25703 0.53693 0.00300
N 	N 	0.72957 0.29113 0.46979 -0.10400
C 	C 	0.76307 0.25273 0.38484 0.03900
H 	H 	0.77817 0.25073 0.33993 -0.00000
N 	N 	0.91287 0.11513 0.33403 -0.04500
C 	C 	0.91537 0.14283 0.27093 0.03700
H 	H 	0.90867 0.18503 0.26083 0.02700
N 	N 	0.93797 0.11223 0.22723 -0.06700
H 	H 	0.93207 0.03153 0.35963 -0.03200
C 	C 	0.50103 0.53397 0.77767 0.06100
C 	C 	0.51153 0.50077 0.72247 -0.07100
H 	H 	0.48063 0.49097 0.68357 0.04500
C 	C 	0.56323 0.47617 0.72647 0.05900
C 	C 	0.60413 0.48417 0.78287 -0.09200
H 	H 	0.64543 0.47437 0.78197 0.05500
C 	C 	0.59193 0.51817 0.83617 0.01100
H 	H 	0.61463 0.51817 0.87807 0.02600
C 	C 	0.53733 0.53827 0.83507 -0.08300
H 	H 	0.53723 0.57057 0.86967 0.06000
N 	N 	0.45573 0.56707 0.77300 -0.06700
C 	C 	0.43403 0.59427 0.82437 0.03400
H 	H 	0.44493 0.59037 0.87027 0.00400
N 	N 	0.39623 0.62447 0.80313 -0.10300
C 	C 	0.42973 0.58607 0.71818 0.03700
H 	H 	0.44483 0.58407 0.67327 -0.00200
N 	N 	0.57953 0.44847 0.66737 -0.08400
C 	C 	0.58203 0.47617 0.60427 0.04400
H 	H 	0.57533 0.51837 0.59417 0.01700
N 	N 	0.60463 0.44557 0.56057 -0.08000
H 	H 	0.59873 0.36487 0.69297 -0.02000
Cd	Cd	-0.00000 0.00000 -0.00000 1.14200
Cd	Cd	0.66667 0.33333 0.33333 1.18000
Cd	Cd	0.33333 0.66667 0.66667 1.18000
Cd	Cd	-0.00000 0.00000 0.20544 1.16100
Cd	Cd	0.66667 0.33333 0.53878 1.19600
Cd	Cd	0.33333 0.66667 0.87211 1.19700
Cd	Cd	0.00000 0.00000 0.79456 1.16200
Cd	Cd	0.66667 0.33333 0.12789 1.19500
Cd	Cd	0.33333 0.66667 0.46122 1.19600
N 	N 	0.05380 0.10759 0.06787 -0.23000
N 	N 	0.27875 0.55750 0.93235 -0.23100
C 	C 	0.26805 0.53610 0.99130 0.19200
N 	N 	0.72046 0.44092 0.40120 -0.21200
N 	N 	0.94542 0.89083 0.26568 -0.20100
C 	C 	0.93472 0.86943 0.32463 0.14700
N 	N 	0.38713 0.77426 0.73454 -0.21300
N 	N 	0.61208 0.22417 0.59902 -0.22300
C 	C 	0.60138 0.20277 0.65797 0.14900
N 	N 	0.89241 0.94620 0.06787 -0.19400
N 	N 	0.44250 0.72125 0.93235 -0.23000
C 	C 	0.46390 0.73195 0.99130 0.19100
N 	N 	0.55908 0.27954 0.40120 -0.21300
N 	N 	0.10917 0.05458 0.26568 -0.23800
C 	C 	0.13057 0.06528 0.32463 0.14700
N 	N 	0.22574 0.61287 0.73454 -0.21300
N 	N 	0.77583 0.38792 0.59902 -0.22300
C 	C 	0.79723 0.39862 0.65797 0.14700
N 	N 	0.05380 0.94620 0.06787 -0.20900
N 	N 	0.27875 0.72125 0.93235 -0.23000
C 	C 	0.26805 0.73195 0.99130 0.19000
N 	N 	0.72046 0.27954 0.40120 -0.21300
N 	N 	0.94542 0.05458 0.26568 -0.21800
C 	C 	0.93472 0.06528 0.32463 0.14700
N 	N 	0.38713 0.61287 0.73454 -0.21300
N 	N 	0.61208 0.38792 0.59902 -0.22300
C 	C 	0.60138 0.39862 0.65797 0.14800
N 	N 	0.10759 0.05380 0.93213 -0.22300
N 	N 	0.55750 0.27875 0.06765 -0.21500
C 	C 	0.53610 0.26805 0.00870 0.09600
N 	N 	0.77426 0.38713 0.26546 -0.21300
N 	N 	0.22417 0.61208 0.40098 -0.22300
C 	C 	0.20277 0.60138 0.34203 0.14900
N 	N 	0.44092 0.72046 0.59880 -0.21200
N 	N 	0.89083 0.94542 0.73432 -0.20200
C 	C 	0.86943 0.93472 0.67537 0.14700
N 	N 	0.94620 0.89241 0.93213 -0.18900
N 	N 	0.72125 0.44250 0.06765 -0.21500
C 	C 	0.73195 0.46390 0.00870 0.10100
N 	N 	0.61287 0.22574 0.26546 -0.21300
N 	N 	0.38792 0.77583 0.40098 -0.22300
C 	C 	0.39862 0.79723 0.34203 0.14700
N 	N 	0.27954 0.55908 0.59880 -0.21300
N 	N 	0.05458 0.10917 0.73432 -0.23800
C 	C 	0.06528 0.13057 0.67537 0.14700
N 	N 	0.94620 0.05380 0.93213 -0.20300
N 	N 	0.72125 0.27875 0.06765 -0.21500
C 	C 	0.73195 0.26805 0.00870 0.09700
N 	N 	0.61287 0.38713 0.26546 -0.21300
N 	N 	0.38792 0.61208 0.40098 -0.22300
C 	C 	0.39862 0.60138 0.34203 0.14800
N 	N 	0.27954 0.72046 0.59880 -0.21300
N 	N 	0.05458 0.94542 0.73432 -0.21800
C 	C 	0.06528 0.93472 0.67537 0.14700
