data_crystal

_cell_length_a 13.52850
_cell_length_b 13.52850
_cell_length_c 14.27700
_cell_angle_alpha 61.71970
_cell_angle_beta  61.71970
_cell_angle_gamma 60.00000

_symmetry_space_group_name_	'P 1'
_symmetry_space_group_name_H-M	'P 1'

loop_
_symmetry_equiv_pos_as_xyz
  x,y,z

loop_
_atom_site_label
_atom_site_type_symbol
_atom_site_fract_x
_atom_site_fract_y
_atom_site_fract_z
_atom_site_charge
Li	Li	0.40725 0.09275 0.75000 0.51900
Li	Li	0.09275 0.75000 0.75000 0.52200
Li	Li	0.75000 0.40725 0.75000 0.52600
Li	Li	0.59275 0.90725 0.25000 0.52500
Li	Li	0.90725 0.25000 0.25000 0.52200
Li	Li	0.25000 0.59275 0.25000 0.51800
Mo	Mo	-0.00000 0.00000 -0.00000 0.87100
Mo	Mo	0.50000 0.50000 0.50000 1.03400
C 	C 	0.15797 0.05077 0.89239 -0.23600
C 	C 	0.05077 0.89887 0.89239 -0.13700
C 	C 	0.89887 0.15797 0.89239 -0.12900
C 	C 	0.34203 0.60113 0.60761 -0.21200
C 	C 	0.44923 0.34203 0.60761 -0.22300
C 	C 	0.60113 0.44923 0.60761 -0.20600
C 	C 	0.84203 0.94923 0.10761 -0.13100
C 	C 	0.94923 0.10113 0.10761 -0.23000
C 	C 	0.10113 0.84203 0.10761 -0.23900
C 	C 	0.65797 0.39887 0.39239 -0.22000
C 	C 	0.55077 0.65797 0.39239 -0.20900
C 	C 	0.39887 0.55077 0.39239 -0.22600
N 	N 	0.24243 0.07693 0.83491 -0.23000
N 	N 	0.07693 0.84573 0.83491 -0.22200
N 	N 	0.84573 0.24243 0.83491 -0.21300
N 	N 	0.25757 0.65427 0.66509 -0.21300
N 	N 	0.42307 0.25757 0.66509 -0.22400
N 	N 	0.65427 0.42307 0.66509 -0.20400
N 	N 	0.75757 0.92307 0.16509 -0.21700
N 	N 	0.92307 0.15427 0.16509 -0.22400
N 	N 	0.15427 0.75757 0.16509 -0.23500
N 	N 	0.74243 0.34573 0.33491 -0.22000
N 	N 	0.57693 0.74243 0.33491 -0.20800
N 	N 	0.34573 0.57693 0.33491 -0.22900
