data_crystal

_cell_length_a 7.45740
_cell_length_b 12.46300
_cell_length_c 29.45100
_cell_angle_alpha 96.32400
_cell_angle_beta  90.00000
_cell_angle_gamma 90.00000

_symmetry_space_group_name_	'P 1'
_symmetry_space_group_name_H-M	'P 1'

loop_
_symmetry_equiv_pos_as_xyz
  x,y,z

loop_
_atom_site_label
_atom_site_type_symbol
_atom_site_fract_x
_atom_site_fract_y
_atom_site_fract_z
_atom_site_charge
Mn	Mn	0.43186 0.48411 0.76729 1.27300
Mn	Mn	0.93186 0.51589 0.73271 1.29100
Mn	Mn	0.56814 0.51589 0.23271 1.27900
Mn	Mn	0.06814 0.48411 0.26729 1.25500
Mn	Mn	0.50000 -0.00000 0.50000 1.23500
Mn	Mn	-0.00000 0.00000 -0.00000 1.19700
Mn	Mn	-0.00000 -0.00000 0.50000 1.21600
Mn	Mn	0.50000 0.00000 -0.00000 1.22200
H 	H 	0.46200 0.35920 0.51280 0.01200
H 	H 	0.46460 0.53510 0.54580 0.07700
H 	H 	0.12930 0.45490 0.64260 0.03600
H 	H 	0.10440 0.28470 0.60530 0.00900
H 	H 	0.27090 0.69310 0.55740 0.05100
H 	H 	0.24100 0.78880 0.71250 0.01100
H 	H 	0.99930 0.99870 0.63190 0.26800
H 	H 	0.96470 0.17760 0.66080 -0.01200
H 	H 	0.37350 0.14830 0.74690 -0.06600
H 	H 	0.39550 0.96700 0.72070 0.22000
H 	H 	0.96200 0.64080 0.98720 0.04200
H 	H 	0.96460 0.46490 0.95420 0.10500
H 	H 	0.62930 0.54510 0.85740 0.04200
H 	H 	0.60440 0.71530 0.89470 0.01800
H 	H 	0.77090 0.30690 0.94260 0.05000
H 	H 	0.74100 0.21120 0.78750 0.07300
H 	H 	0.49930 0.00130 0.86810 -0.05500
H 	H 	0.46470 0.82240 0.83920 0.08300
H 	H 	0.87350 0.85170 0.75310 0.09800
H 	H 	0.89550 0.03300 0.77930 -0.02700
H 	H 	0.53800 0.64080 0.48720 0.01000
H 	H 	0.53540 0.46490 0.45420 0.07700
H 	H 	0.87070 0.54510 0.35740 0.05300
H 	H 	0.89560 0.71530 0.39470 0.02800
H 	H 	0.72910 0.30690 0.44260 0.03300
H 	H 	0.75900 0.21120 0.28750 0.08400
H 	H 	0.00070 0.00130 0.36810 -0.13500
H 	H 	0.03530 0.82240 0.33920 0.02200
H 	H 	0.62650 0.85170 0.25310 0.09500
H 	H 	0.60450 0.03300 0.27930 -0.05100
H 	H 	0.03800 0.35920 0.01280 -0.01800
H 	H 	0.03540 0.53510 0.04580 0.04900
H 	H 	0.37070 0.45490 0.14260 0.04500
H 	H 	0.39560 0.28470 0.10530 0.01800
H 	H 	0.22910 0.69310 0.05740 0.03800
H 	H 	0.25900 0.78880 0.21250 0.01400
H 	H 	0.50070 0.99870 0.13190 0.21900
H 	H 	0.53530 0.17760 0.16080 -0.06400
H 	H 	0.12650 0.14830 0.24690 -0.08200
H 	H 	0.10450 0.96700 0.22070 0.20600
C 	C 	0.26640 0.19080 0.53153 0.41500
C 	C 	0.27830 0.30330 0.55454 -0.15900
C 	C 	0.38950 0.37930 0.53803 0.06600
C 	C 	0.39410 0.48450 0.55845 -0.13300
C 	C 	0.29610 0.51560 0.59719 0.05200
C 	C 	0.19130 0.43700 0.61546 -0.11200
C 	C 	0.17980 0.33440 0.59366 0.05700
C 	C 	0.28550 0.63050 0.61774 0.03500
C 	C 	0.26710 0.71220 0.58882 -0.06700
C 	C 	0.24370 0.81990 0.60495 -0.03000
C 	C 	0.23080 0.89750 0.56893 0.36100
C 	C 	0.23280 0.85070 0.65210 -0.12400
C 	C 	0.24910 0.77000 0.68109 0.04500
C 	C 	0.27710 0.66220 0.66471 -0.14100
C 	C 	0.31110 0.58510 0.69958 0.35400
C 	C 	0.20530 0.96610 0.67172 0.38400
C 	C 	0.07510 0.02870 0.65495 -0.53100
C 	C 	0.05520 0.13640 0.67201 0.22800
C 	C 	0.16990 0.18290 0.70575 -0.29200
C 	C 	0.29760 0.11860 0.72378 0.28500
C 	C 	0.31300 0.01030 0.70755 -0.47500
C 	C 	0.16290 0.30420 0.72023 0.46600
C 	C 	0.76640 0.80920 0.96847 0.40500
C 	C 	0.77830 0.69670 0.94546 -0.13700
C 	C 	0.88950 0.62070 0.96197 0.07200
C 	C 	0.89410 0.51550 0.94155 -0.13400
C 	C 	0.79610 0.48440 0.90281 0.07700
C 	C 	0.69130 0.56300 0.88454 -0.11500
C 	C 	0.67980 0.66560 0.90634 0.05900
C 	C 	0.78550 0.36950 0.88226 -0.00800
C 	C 	0.76710 0.28780 0.91118 0.00300
C 	C 	0.74370 0.18010 0.89505 -0.12200
C 	C 	0.73080 0.10250 0.93107 0.39800
C 	C 	0.73280 0.14930 0.84790 0.11100
C 	C 	0.74910 0.23000 0.81891 -0.09000
C 	C 	0.77710 0.33780 0.83529 -0.06700
C 	C 	0.81110 0.41490 0.80042 0.32700
C 	C 	0.70530 0.03390 0.82828 -0.18000
C 	C 	0.57510 0.97130 0.84505 0.16500
C 	C 	0.55520 0.86360 0.82799 -0.13800
C 	C 	0.66990 0.81710 0.79425 -0.00200
C 	C 	0.79760 0.88140 0.77622 -0.12800
C 	C 	0.81300 0.98970 0.79245 0.15300
C 	C 	0.66290 0.69580 0.77977 0.37000
C 	C 	0.73360 0.80920 0.46847 0.41000
C 	C 	0.72170 0.69670 0.44546 -0.14900
C 	C 	0.61050 0.62070 0.46197 0.07200
C 	C 	0.60590 0.51550 0.44155 -0.14500
C 	C 	0.70390 0.48440 0.40281 0.07900
C 	C 	0.80870 0.56300 0.38454 -0.11800
C 	C 	0.82020 0.66560 0.40634 0.06300
C 	C 	0.71450 0.36950 0.38226 -0.02100
C 	C 	0.73290 0.28780 0.41118 0.01600
C 	C 	0.75630 0.18010 0.39505 -0.14100
C 	C 	0.76920 0.10250 0.43107 0.40700
C 	C 	0.76720 0.14930 0.34790 0.14200
C 	C 	0.75090 0.23000 0.31891 -0.10800
C 	C 	0.72290 0.33780 0.33529 -0.05600
C 	C 	0.68890 0.41490 0.30042 0.32100
C 	C 	0.79470 0.03390 0.32828 -0.22700
C 	C 	0.92490 0.97130 0.34505 0.26800
C 	C 	0.94480 0.86360 0.32799 -0.07900
C 	C 	0.83010 0.81710 0.29425 -0.00800
C 	C 	0.70240 0.88140 0.27622 -0.14100
C 	C 	0.68700 0.98970 0.29245 0.18400
C 	C 	0.83710 0.69580 0.27977 0.37500
C 	C 	0.23360 0.19080 0.03153 0.41700
C 	C 	0.22170 0.30330 0.05454 -0.16800
C 	C 	0.11050 0.37930 0.03803 0.06300
C 	C 	0.10590 0.48450 0.05845 -0.14000
C 	C 	0.20390 0.51560 0.09719 0.04900
C 	C 	0.30870 0.43700 0.11546 -0.11200
C 	C 	0.32020 0.33440 0.09366 0.05800
C 	C 	0.21450 0.63050 0.11774 0.02800
C 	C 	0.23290 0.71220 0.08882 -0.06100
C 	C 	0.25630 0.81990 0.10495 -0.04100
C 	C 	0.26920 0.89750 0.06893 0.36400
C 	C 	0.26720 0.85070 0.15210 -0.11000
C 	C 	0.25090 0.77000 0.18109 0.03700
C 	C 	0.22290 0.66220 0.16471 -0.13900
C 	C 	0.18890 0.58510 0.19958 0.35200
C 	C 	0.29470 0.96610 0.17172 0.36600
C 	C 	0.42490 0.02870 0.15495 -0.47300
C 	C 	0.44480 0.13640 0.17201 0.29200
C 	C 	0.33010 0.18290 0.20575 -0.31100
C 	C 	0.20240 0.11860 0.22378 0.29200
C 	C 	0.18700 0.01030 0.20755 -0.47700
C 	C 	0.33710 0.30420 0.22023 0.47500
O 	O 	0.40070 0.15620 0.50850 -0.51000
O 	O 	0.12480 0.13950 0.53598 -0.51400
O 	O 	0.36960 0.94840 0.56081 -0.44400
O 	O 	0.08230 0.89920 0.54896 -0.48800
O 	O 	0.20050 0.58204 0.73241 -0.54800
O 	O 	0.45340 0.53350 0.69756 -0.42500
O 	O 	0.02930 0.35510 0.70825 -0.49900
O 	O 	0.29460 0.34220 0.74304 -0.50100
O 	O 	0.90070 0.84380 0.99150 -0.44100
O 	O 	0.62480 0.86050 0.96402 -0.45700
O 	O 	0.86960 0.05160 0.93919 -0.44600
O 	O 	0.58230 0.10080 0.95104 -0.47000
O 	O 	0.70050 0.41796 0.76759 -0.51800
O 	O 	0.95340 0.46650 0.80244 -0.40300
O 	O 	0.52930 0.64490 0.79175 -0.45300
O 	O 	0.79460 0.65780 0.75696 -0.46100
O 	O 	0.59930 0.84380 0.49150 -0.48900
O 	O 	0.87520 0.86050 0.46402 -0.45200
O 	O 	0.63040 0.05160 0.43919 -0.48700
O 	O 	0.91770 0.10080 0.45104 -0.46200
O 	O 	0.79950 0.41796 0.26759 -0.50000
O 	O 	0.54660 0.46650 0.30244 -0.42500
O 	O 	0.97070 0.64490 0.29175 -0.41900
O 	O 	0.70540 0.65780 0.25696 -0.46400
O 	O 	0.09930 0.15620 0.00850 -0.54300
O 	O 	0.37520 0.13950 0.03598 -0.50700
O 	O 	0.13040 0.94840 0.06081 -0.47000
O 	O 	0.41770 0.89920 0.04896 -0.47900
O 	O 	0.29950 0.58204 0.23241 -0.53800
O 	O 	0.04660 0.53350 0.19756 -0.45400
O 	O 	0.47070 0.35510 0.20825 -0.47300
O 	O 	0.20540 0.34220 0.24304 -0.51200
