data_crystal

_cell_length_a 32.70200
_cell_length_b 32.70200
_cell_length_c 32.70200
_cell_angle_alpha 90.00000
_cell_angle_beta  90.00000
_cell_angle_gamma 90.00000

_symmetry_space_group_name_	'P 1'
_symmetry_space_group_name_H-M	'P 1'

loop_
_symmetry_equiv_pos_as_xyz
  x,y,z

loop_
_atom_site_label
_atom_site_type_symbol
_atom_site_fract_x
_atom_site_fract_y
_atom_site_fract_z
_atom_site_charge
C 	C 	0.70410 0.32950 0.13160 0.00000
H 	H 	0.71180 0.34310 0.15610 0.00000
C 	C 	0.72600 0.29970 0.11330 0.00600
H 	H 	0.75250 0.29030 0.12090 0.01800
C 	C 	0.66950 0.31001 0.08113 0.10900
H 	H 	0.64810 0.30750 0.06160 -0.03700
C 	C 	0.71130 0.25220 0.05580 0.20600
C 	C 	0.68610 0.24437 0.02250 -0.24800
H 	H 	0.66340 0.26170 0.01690 0.11600
N 	N 	0.66981 0.33707 0.11030 -0.29300
N 	N 	0.70284 0.28604 0.08190 -0.16000
C 	C 	0.70410 0.82950 0.63160 0.00000
H 	H 	0.71180 0.84310 0.65610 0.00000
C 	C 	0.72600 0.79970 0.61330 0.00600
H 	H 	0.75250 0.79030 0.62090 0.01800
C 	C 	0.66950 0.81001 0.58113 0.10900
H 	H 	0.64810 0.80750 0.56160 -0.03700
C 	C 	0.71130 0.75220 0.55580 0.20600
C 	C 	0.68610 0.74437 0.52250 -0.24800
H 	H 	0.66340 0.76170 0.51690 0.11600
N 	N 	0.66981 0.83707 0.61030 -0.29300
N 	N 	0.70284 0.78604 0.58190 -0.16000
C 	C 	0.20410 0.32950 0.63160 0.00000
H 	H 	0.21180 0.34310 0.65610 0.00000
C 	C 	0.22600 0.29970 0.61330 0.00600
H 	H 	0.25250 0.29030 0.62090 0.01800
C 	C 	0.16950 0.31001 0.58113 0.10900
H 	H 	0.14810 0.30750 0.56160 -0.03700
C 	C 	0.21130 0.25220 0.55580 0.20600
C 	C 	0.18610 0.24437 0.52250 -0.24800
H 	H 	0.16340 0.26170 0.51690 0.11600
N 	N 	0.16981 0.33707 0.61030 -0.29300
N 	N 	0.20284 0.28604 0.58190 -0.16000
C 	C 	0.20410 0.82950 0.13160 0.00000
H 	H 	0.21180 0.84310 0.15610 0.00000
C 	C 	0.22600 0.79970 0.11330 0.00600
H 	H 	0.25250 0.79030 0.12090 0.01800
C 	C 	0.16950 0.81001 0.08113 0.10900
H 	H 	0.14810 0.80750 0.06160 -0.03700
C 	C 	0.21130 0.75220 0.05580 0.20600
C 	C 	0.18610 0.74437 0.02250 -0.24800
H 	H 	0.16340 0.76170 0.01690 0.11600
N 	N 	0.16981 0.83707 0.11030 -0.29300
N 	N 	0.20284 0.78604 0.08190 -0.16000
C 	C 	0.54590 0.42050 0.63160 0.00000
H 	H 	0.53820 0.40690 0.65610 0.00000
C 	C 	0.52400 0.45030 0.61330 0.00600
H 	H 	0.49750 0.45970 0.62090 0.01800
C 	C 	0.58050 0.43999 0.58113 0.10900
H 	H 	0.60190 0.44250 0.56160 -0.03700
C 	C 	0.53870 0.49780 0.55580 0.20600
C 	C 	0.56390 0.50563 0.52250 -0.24800
H 	H 	0.58660 0.48830 0.51690 0.11600
N 	N 	0.58019 0.41293 0.61030 -0.29300
N 	N 	0.54716 0.46396 0.58190 -0.16000
C 	C 	0.54590 0.92050 0.13160 0.00000
H 	H 	0.53820 0.90690 0.15610 0.00000
C 	C 	0.52400 0.95030 0.11330 0.00600
H 	H 	0.49750 0.95970 0.12090 0.01800
C 	C 	0.58050 0.93999 0.08113 0.10900
H 	H 	0.60190 0.94250 0.06160 -0.03700
C 	C 	0.53870 0.99780 0.05580 0.20400
C 	C 	0.56390 0.00563 0.02250 -0.24600
H 	H 	0.58660 0.98830 0.01690 0.11500
N 	N 	0.58019 0.91293 0.11030 -0.29300
N 	N 	0.54716 0.96396 0.08190 -0.16000
C 	C 	0.04590 0.42050 0.13160 0.00000
H 	H 	0.03820 0.40690 0.15610 0.00000
C 	C 	0.02400 0.45030 0.11330 0.00700
H 	H 	0.99750 0.45970 0.12090 0.01800
C 	C 	0.08050 0.43999 0.08113 0.10900
H 	H 	0.10190 0.44250 0.06160 -0.03700
C 	C 	0.03870 0.49780 0.05580 0.20500
C 	C 	0.06390 0.50563 0.02250 -0.24600
H 	H 	0.08660 0.48830 0.01690 0.11500
N 	N 	0.08019 0.41293 0.11030 -0.29300
N 	N 	0.04716 0.46396 0.08190 -0.16000
C 	C 	0.04590 0.92050 0.63160 0.00100
H 	H 	0.03820 0.90690 0.65610 0.00000
C 	C 	0.02400 0.95030 0.61330 0.00500
H 	H 	0.99750 0.95970 0.62090 0.01900
C 	C 	0.08050 0.93999 0.58113 0.10900
H 	H 	0.10190 0.94250 0.56160 -0.03700
C 	C 	0.03870 0.99780 0.55580 0.20400
C 	C 	0.06390 0.00563 0.52250 -0.24600
H 	H 	0.08660 0.98830 0.51690 0.11500
N 	N 	0.08019 0.91293 0.61030 -0.29300
N 	N 	0.04716 0.96396 0.58190 -0.16000
C 	C 	0.04590 0.82950 0.11840 0.00000
H 	H 	0.03820 0.84310 0.09390 0.00000
C 	C 	0.02400 0.79970 0.13670 0.00600
H 	H 	0.99750 0.79030 0.12910 0.01800
C 	C 	0.08050 0.81001 0.16887 0.10900
H 	H 	0.10190 0.80750 0.18840 -0.03700
C 	C 	0.03870 0.75220 0.19420 0.20600
C 	C 	0.06390 0.74437 0.22750 -0.24800
H 	H 	0.08660 0.76170 0.23310 0.11600
N 	N 	0.08019 0.83707 0.13970 -0.29300
N 	N 	0.04716 0.78604 0.16810 -0.16000
C 	C 	0.04590 0.32950 0.61840 0.00000
H 	H 	0.03820 0.34310 0.59390 0.00000
C 	C 	0.02400 0.29970 0.63670 0.00600
H 	H 	0.99750 0.29030 0.62910 0.01700
C 	C 	0.08050 0.31001 0.66887 0.10800
H 	H 	0.10190 0.30750 0.68840 -0.03800
C 	C 	0.03870 0.25220 0.69420 0.20500
C 	C 	0.06390 0.24437 0.72750 -0.24900
H 	H 	0.08660 0.26170 0.73310 0.11500
N 	N 	0.08019 0.33707 0.63970 -0.29400
N 	N 	0.04716 0.28604 0.66810 -0.16100
C 	C 	0.54590 0.82950 0.61840 -0.00100
H 	H 	0.53820 0.84310 0.59390 -0.00100
C 	C 	0.52400 0.79970 0.63670 0.00500
H 	H 	0.49750 0.79030 0.62910 0.01700
C 	C 	0.58050 0.81001 0.66887 0.10800
H 	H 	0.60190 0.80750 0.68840 -0.03800
C 	C 	0.53870 0.75220 0.69420 0.20500
C 	C 	0.56390 0.74437 0.72750 -0.24900
H 	H 	0.58660 0.76170 0.73310 0.11500
N 	N 	0.58019 0.83707 0.63970 -0.29400
N 	N 	0.54716 0.78604 0.66810 -0.16100
C 	C 	0.54590 0.32950 0.11840 -0.00100
H 	H 	0.53820 0.34310 0.09390 -0.00100
C 	C 	0.52400 0.29970 0.13670 0.00500
H 	H 	0.49750 0.29030 0.12910 0.01700
C 	C 	0.58050 0.31001 0.16887 0.10800
H 	H 	0.60190 0.30750 0.18840 -0.03800
C 	C 	0.53870 0.25220 0.19420 0.20500
C 	C 	0.56390 0.24437 0.22750 -0.24900
H 	H 	0.58660 0.26170 0.23310 0.11500
N 	N 	0.58019 0.33707 0.13970 -0.29400
N 	N 	0.54716 0.28604 0.16810 -0.16100
C 	C 	0.20410 0.92050 0.61840 -0.00100
H 	H 	0.21180 0.90690 0.59390 -0.00100
C 	C 	0.22600 0.95030 0.63670 0.00500
H 	H 	0.25250 0.95970 0.62910 0.01700
C 	C 	0.16950 0.93999 0.66887 0.10800
H 	H 	0.14810 0.94250 0.68840 -0.03800
C 	C 	0.21130 0.99780 0.69420 0.20400
C 	C 	0.18610 0.00563 0.72750 -0.24800
H 	H 	0.16340 0.98830 0.73310 0.11500
N 	N 	0.16981 0.91293 0.63970 -0.29400
N 	N 	0.20284 0.96396 0.66810 -0.16100
C 	C 	0.20410 0.42050 0.11840 -0.00100
H 	H 	0.21180 0.40690 0.09390 -0.00100
C 	C 	0.22600 0.45030 0.13670 0.00500
H 	H 	0.25250 0.45970 0.12910 0.01700
C 	C 	0.16950 0.43999 0.16887 0.10800
H 	H 	0.14810 0.44250 0.18840 -0.03800
C 	C 	0.21130 0.49780 0.19420 0.20500
C 	C 	0.18610 0.50563 0.22750 -0.24900
H 	H 	0.16340 0.48830 0.23310 0.11500
N 	N 	0.16981 0.41293 0.13970 -0.29400
N 	N 	0.20284 0.46396 0.16810 -0.16100
C 	C 	0.70410 0.92050 0.11840 -0.00100
H 	H 	0.71180 0.90690 0.09390 -0.00100
C 	C 	0.72600 0.95030 0.13670 0.00500
H 	H 	0.75250 0.95970 0.12910 0.01700
C 	C 	0.66950 0.93999 0.16887 0.10800
H 	H 	0.64810 0.94250 0.18840 -0.03800
C 	C 	0.71130 0.99780 0.19420 0.20400
C 	C 	0.68610 0.00563 0.22750 -0.24800
H 	H 	0.66340 0.98830 0.23310 0.11500
N 	N 	0.66981 0.91293 0.13970 -0.29400
N 	N 	0.70284 0.96396 0.16810 -0.16100
C 	C 	0.70410 0.42050 0.61840 -0.00100
H 	H 	0.71180 0.40690 0.59390 -0.00100
C 	C 	0.72600 0.45030 0.63670 0.00500
H 	H 	0.75250 0.45970 0.62910 0.01700
C 	C 	0.66950 0.43999 0.66887 0.10800
H 	H 	0.64810 0.44250 0.68840 -0.03800
C 	C 	0.71130 0.49780 0.69420 0.20500
C 	C 	0.68610 0.50563 0.72750 -0.24900
H 	H 	0.66340 0.48830 0.73310 0.11500
N 	N 	0.66981 0.41293 0.63970 -0.29400
N 	N 	0.70284 0.46396 0.66810 -0.16100
C 	C 	0.13160 0.70410 0.32950 -0.00100
H 	H 	0.15610 0.71180 0.34310 -0.00100
C 	C 	0.11330 0.72600 0.29970 0.00500
H 	H 	0.12090 0.75250 0.29030 0.01700
C 	C 	0.08113 0.66950 0.31001 0.10800
H 	H 	0.06160 0.64810 0.30750 -0.03800
C 	C 	0.05580 0.71130 0.25220 0.20500
C 	C 	0.02250 0.68610 0.24437 -0.24900
H 	H 	0.01690 0.66340 0.26170 0.11500
N 	N 	0.11030 0.66981 0.33707 -0.29400
N 	N 	0.08190 0.70284 0.28604 -0.16100
C 	C 	0.13160 0.20410 0.82950 -0.00100
H 	H 	0.15610 0.21180 0.84310 -0.00100
C 	C 	0.11330 0.22600 0.79970 0.00500
H 	H 	0.12090 0.25250 0.79030 0.01700
C 	C 	0.08113 0.16950 0.81001 0.10800
H 	H 	0.06160 0.14810 0.80750 -0.03800
C 	C 	0.05580 0.21130 0.75220 0.20500
C 	C 	0.02250 0.18610 0.74437 -0.24900
H 	H 	0.01690 0.16340 0.76170 0.11500
N 	N 	0.11030 0.16981 0.83707 -0.29400
N 	N 	0.08190 0.20284 0.78604 -0.16100
C 	C 	0.63160 0.70410 0.82950 -0.00100
H 	H 	0.65610 0.71180 0.84310 -0.00100
C 	C 	0.61330 0.72600 0.79970 0.00500
H 	H 	0.62090 0.75250 0.79030 0.01700
C 	C 	0.58113 0.66950 0.81001 0.10800
H 	H 	0.56160 0.64810 0.80750 -0.03800
C 	C 	0.55580 0.71130 0.75220 0.20500
C 	C 	0.52250 0.68610 0.74437 -0.24900
H 	H 	0.51690 0.66340 0.76170 0.11500
N 	N 	0.61030 0.66981 0.83707 -0.29400
N 	N 	0.58190 0.70284 0.78604 -0.16100
C 	C 	0.63160 0.20410 0.32950 -0.00100
H 	H 	0.65610 0.21180 0.34310 -0.00100
C 	C 	0.61330 0.22600 0.29970 0.00500
H 	H 	0.62090 0.25250 0.29030 0.01700
C 	C 	0.58113 0.16950 0.31001 0.10800
H 	H 	0.56160 0.14810 0.30750 -0.03800
C 	C 	0.55580 0.21130 0.25220 0.20500
C 	C 	0.52250 0.18610 0.24437 -0.24900
H 	H 	0.51690 0.16340 0.26170 0.11500
N 	N 	0.61030 0.16981 0.33707 -0.29400
N 	N 	0.58190 0.20284 0.28604 -0.16100
C 	C 	0.63160 0.54590 0.42050 -0.00100
H 	H 	0.65610 0.53820 0.40690 -0.00100
C 	C 	0.61330 0.52400 0.45030 0.00500
H 	H 	0.62090 0.49750 0.45970 0.01700
C 	C 	0.58113 0.58050 0.43999 0.10800
H 	H 	0.56160 0.60190 0.44250 -0.03800
C 	C 	0.55580 0.53870 0.49780 0.20500
C 	C 	0.52250 0.56390 0.50563 -0.24900
H 	H 	0.51690 0.58660 0.48830 0.11500
N 	N 	0.61030 0.58019 0.41293 -0.29400
N 	N 	0.58190 0.54716 0.46396 -0.16100
C 	C 	0.63160 0.04590 0.92050 -0.00000
H 	H 	0.65610 0.03820 0.90690 -0.00100
C 	C 	0.61330 0.02400 0.95030 0.00400
H 	H 	0.62090 0.99750 0.95970 0.01800
C 	C 	0.58113 0.08050 0.93999 0.10800
H 	H 	0.56160 0.10190 0.94250 -0.03800
C 	C 	0.55580 0.03870 0.99780 0.20300
C 	C 	0.52250 0.06390 0.00563 -0.24700
H 	H 	0.51690 0.08660 0.98830 0.11400
N 	N 	0.61030 0.08019 0.91293 -0.29400
N 	N 	0.58190 0.04716 0.96396 -0.16100
C 	C 	0.13160 0.54590 0.92050 -0.00100
H 	H 	0.15610 0.53820 0.90690 -0.00100
C 	C 	0.11330 0.52400 0.95030 0.00500
H 	H 	0.12090 0.49750 0.95970 0.01700
C 	C 	0.08113 0.58050 0.93999 0.10800
H 	H 	0.06160 0.60190 0.94250 -0.03800
C 	C 	0.05580 0.53870 0.99780 0.20300
C 	C 	0.02250 0.56390 0.00563 -0.24700
H 	H 	0.01690 0.58660 0.98830 0.11400
N 	N 	0.11030 0.58019 0.91293 -0.29400
N 	N 	0.08190 0.54716 0.96396 -0.16100
C 	C 	0.13160 0.04590 0.42050 -0.00100
H 	H 	0.15610 0.03820 0.40690 -0.00100
C 	C 	0.11330 0.02400 0.45030 0.00600
H 	H 	0.12090 0.99750 0.45970 0.01700
C 	C 	0.08113 0.08050 0.43999 0.10800
H 	H 	0.06160 0.10190 0.44250 -0.03800
C 	C 	0.05580 0.03870 0.49780 0.20400
C 	C 	0.02250 0.06390 0.50563 -0.24700
H 	H 	0.01690 0.08660 0.48830 0.11400
N 	N 	0.11030 0.08019 0.41293 -0.29400
N 	N 	0.08190 0.04716 0.46396 -0.16100
C 	C 	0.11840 0.04590 0.82950 -0.00100
H 	H 	0.09390 0.03820 0.84310 -0.00100
C 	C 	0.13670 0.02400 0.79970 0.00500
H 	H 	0.12910 0.99750 0.79030 0.01700
C 	C 	0.16887 0.08050 0.81001 0.10800
H 	H 	0.18840 0.10190 0.80750 -0.03800
C 	C 	0.19420 0.03870 0.75220 0.20500
C 	C 	0.22750 0.06390 0.74437 -0.24900
H 	H 	0.23310 0.08660 0.76170 0.11500
N 	N 	0.13970 0.08019 0.83707 -0.29400
N 	N 	0.16810 0.04716 0.78604 -0.16100
C 	C 	0.11840 0.54590 0.32950 -0.00100
H 	H 	0.09390 0.53820 0.34310 -0.00100
C 	C 	0.13670 0.52400 0.29970 0.00500
H 	H 	0.12910 0.49750 0.29030 0.01700
C 	C 	0.16887 0.58050 0.31001 0.10800
H 	H 	0.18840 0.60190 0.30750 -0.03800
C 	C 	0.19420 0.53870 0.25220 0.20500
C 	C 	0.22750 0.56390 0.24437 -0.24900
H 	H 	0.23310 0.58660 0.26170 0.11500
N 	N 	0.13970 0.58019 0.33707 -0.29400
N 	N 	0.16810 0.54716 0.28604 -0.16100
C 	C 	0.61840 0.04590 0.32950 -0.00100
H 	H 	0.59390 0.03820 0.34310 -0.00100
C 	C 	0.63670 0.02400 0.29970 0.00500
H 	H 	0.62910 0.99750 0.29030 0.01700
C 	C 	0.66887 0.08050 0.31001 0.10800
H 	H 	0.68840 0.10190 0.30750 -0.03800
C 	C 	0.69420 0.03870 0.25220 0.20500
C 	C 	0.72750 0.06390 0.24437 -0.24900
H 	H 	0.73310 0.08660 0.26170 0.11500
N 	N 	0.63970 0.08019 0.33707 -0.29400
N 	N 	0.66810 0.04716 0.28604 -0.16100
C 	C 	0.61840 0.54590 0.82950 -0.00100
H 	H 	0.59390 0.53820 0.84310 -0.00100
C 	C 	0.63670 0.52400 0.79970 0.00500
H 	H 	0.62910 0.49750 0.79030 0.01700
C 	C 	0.66887 0.58050 0.81001 0.10800
H 	H 	0.68840 0.60190 0.80750 -0.03800
C 	C 	0.69420 0.53870 0.75220 0.20500
C 	C 	0.72750 0.56390 0.74437 -0.24900
H 	H 	0.73310 0.58660 0.76170 0.11500
N 	N 	0.63970 0.58019 0.83707 -0.29400
N 	N 	0.66810 0.54716 0.78604 -0.16100
C 	C 	0.61840 0.20410 0.92050 -0.00100
H 	H 	0.59390 0.21180 0.90690 -0.00100
C 	C 	0.63670 0.22600 0.95030 0.00500
H 	H 	0.62910 0.25250 0.95970 0.01700
C 	C 	0.66887 0.16950 0.93999 0.10800
H 	H 	0.68840 0.14810 0.94250 -0.03800
C 	C 	0.69420 0.21130 0.99780 0.20400
C 	C 	0.72750 0.18610 0.00563 -0.24800
H 	H 	0.73310 0.16340 0.98830 0.11500
N 	N 	0.63970 0.16981 0.91293 -0.29400
N 	N 	0.66810 0.20284 0.96396 -0.16100
C 	C 	0.61840 0.70410 0.42050 -0.00100
H 	H 	0.59390 0.71180 0.40690 -0.00100
C 	C 	0.63670 0.72600 0.45030 0.00500
H 	H 	0.62910 0.75250 0.45970 0.01700
C 	C 	0.66887 0.66950 0.43999 0.10800
H 	H 	0.68840 0.64810 0.44250 -0.03800
C 	C 	0.69420 0.71130 0.49780 0.20500
C 	C 	0.72750 0.68610 0.50563 -0.24900
H 	H 	0.73310 0.66340 0.48830 0.11500
N 	N 	0.63970 0.66981 0.41293 -0.29400
N 	N 	0.66810 0.70284 0.46396 -0.16100
C 	C 	0.11840 0.20410 0.42050 -0.00100
H 	H 	0.09390 0.21180 0.40690 -0.00100
C 	C 	0.13670 0.22600 0.45030 0.00500
H 	H 	0.12910 0.25250 0.45970 0.01700
C 	C 	0.16887 0.16950 0.43999 0.10800
H 	H 	0.18840 0.14810 0.44250 -0.03800
C 	C 	0.19420 0.21130 0.49780 0.20500
C 	C 	0.22750 0.18610 0.50563 -0.24900
H 	H 	0.23310 0.16340 0.48830 0.11500
N 	N 	0.13970 0.16981 0.41293 -0.29400
N 	N 	0.16810 0.20284 0.46396 -0.16100
C 	C 	0.11840 0.70410 0.92050 -0.00100
H 	H 	0.09390 0.71180 0.90690 -0.00100
C 	C 	0.13670 0.72600 0.95030 0.00500
H 	H 	0.12910 0.75250 0.95970 0.01700
C 	C 	0.16887 0.66950 0.93999 0.10800
H 	H 	0.18840 0.64810 0.94250 -0.03800
C 	C 	0.19420 0.71130 0.99780 0.20400
C 	C 	0.22750 0.68610 0.00563 -0.24800
H 	H 	0.23310 0.66340 0.98830 0.11500
N 	N 	0.13970 0.66981 0.91293 -0.29400
N 	N 	0.16810 0.70284 0.96396 -0.16100
C 	C 	0.32950 0.13160 0.70410 -0.00100
H 	H 	0.34310 0.15610 0.71180 -0.00100
C 	C 	0.29970 0.11330 0.72600 0.00500
H 	H 	0.29030 0.12090 0.75250 0.01700
C 	C 	0.31001 0.08113 0.66950 0.10800
H 	H 	0.30750 0.06160 0.64810 -0.03800
C 	C 	0.25220 0.05580 0.71130 0.20500
C 	C 	0.24437 0.02250 0.68610 -0.24900
H 	H 	0.26170 0.01690 0.66340 0.11500
N 	N 	0.33707 0.11030 0.66981 -0.29400
N 	N 	0.28604 0.08190 0.70284 -0.16100
C 	C 	0.32950 0.63160 0.20410 -0.00100
H 	H 	0.34310 0.65610 0.21180 -0.00100
C 	C 	0.29970 0.61330 0.22600 0.00500
H 	H 	0.29030 0.62090 0.25250 0.01700
C 	C 	0.31001 0.58113 0.16950 0.10800
H 	H 	0.30750 0.56160 0.14810 -0.03800
C 	C 	0.25220 0.55580 0.21130 0.20500
C 	C 	0.24437 0.52250 0.18610 -0.24900
H 	H 	0.26170 0.51690 0.16340 0.11500
N 	N 	0.33707 0.61030 0.16981 -0.29400
N 	N 	0.28604 0.58190 0.20284 -0.16100
C 	C 	0.82950 0.13160 0.20410 -0.00100
H 	H 	0.84310 0.15610 0.21180 -0.00100
C 	C 	0.79970 0.11330 0.22600 0.00500
H 	H 	0.79030 0.12090 0.25250 0.01700
C 	C 	0.81001 0.08113 0.16950 0.10800
H 	H 	0.80750 0.06160 0.14810 -0.03800
C 	C 	0.75220 0.05580 0.21130 0.20500
C 	C 	0.74437 0.02250 0.18610 -0.24900
H 	H 	0.76170 0.01690 0.16340 0.11500
N 	N 	0.83707 0.11030 0.16981 -0.29400
N 	N 	0.78604 0.08190 0.20284 -0.16100
C 	C 	0.82950 0.63160 0.70410 -0.00100
H 	H 	0.84310 0.65610 0.71180 -0.00100
C 	C 	0.79970 0.61330 0.72600 0.00500
H 	H 	0.79030 0.62090 0.75250 0.01700
C 	C 	0.81001 0.58113 0.66950 0.10800
H 	H 	0.80750 0.56160 0.64810 -0.03800
C 	C 	0.75220 0.55580 0.71130 0.20500
C 	C 	0.74437 0.52250 0.68610 -0.24900
H 	H 	0.76170 0.51690 0.66340 0.11500
N 	N 	0.83707 0.61030 0.66981 -0.29400
N 	N 	0.78604 0.58190 0.70284 -0.16100
C 	C 	0.42050 0.63160 0.54590 -0.00100
H 	H 	0.40690 0.65610 0.53820 -0.00100
C 	C 	0.45030 0.61330 0.52400 0.00500
H 	H 	0.45970 0.62090 0.49750 0.01700
C 	C 	0.43999 0.58113 0.58050 0.10800
H 	H 	0.44250 0.56160 0.60190 -0.03800
C 	C 	0.49780 0.55580 0.53870 0.20500
C 	C 	0.50563 0.52250 0.56390 -0.24900
H 	H 	0.48830 0.51690 0.58660 0.11500
N 	N 	0.41293 0.61030 0.58019 -0.29400
N 	N 	0.46396 0.58190 0.54716 -0.16100
C 	C 	0.42050 0.13160 0.04590 -0.00100
H 	H 	0.40690 0.15610 0.03820 -0.00100
C 	C 	0.45030 0.11330 0.02400 0.00600
H 	H 	0.45970 0.12090 0.99750 0.01700
C 	C 	0.43999 0.08113 0.08050 0.10800
H 	H 	0.44250 0.06160 0.10190 -0.03800
C 	C 	0.49780 0.05580 0.03870 0.20400
C 	C 	0.50563 0.02250 0.06390 -0.24700
H 	H 	0.48830 0.01690 0.08660 0.11400
N 	N 	0.41293 0.11030 0.08019 -0.29400
N 	N 	0.46396 0.08190 0.04716 -0.16100
C 	C 	0.92050 0.63160 0.04590 -0.00000
H 	H 	0.90690 0.65610 0.03820 -0.00100
C 	C 	0.95030 0.61330 0.02400 0.00400
H 	H 	0.95970 0.62090 0.99750 0.01800
C 	C 	0.93999 0.58113 0.08050 0.10800
H 	H 	0.94250 0.56160 0.10190 -0.03800
C 	C 	0.99780 0.55580 0.03870 0.20300
C 	C 	0.00563 0.52250 0.06390 -0.24700
H 	H 	0.98830 0.51690 0.08660 0.11400
N 	N 	0.91293 0.61030 0.08019 -0.29400
N 	N 	0.96396 0.58190 0.04716 -0.16100
C 	C 	0.92050 0.13160 0.54590 -0.00100
H 	H 	0.90690 0.15610 0.53820 -0.00100
C 	C 	0.95030 0.11330 0.52400 0.00500
H 	H 	0.95970 0.12090 0.49750 0.01700
C 	C 	0.93999 0.08113 0.58050 0.10800
H 	H 	0.94250 0.06160 0.60190 -0.03800
C 	C 	0.99780 0.05580 0.53870 0.20300
C 	C 	0.00563 0.02250 0.56390 -0.24700
H 	H 	0.98830 0.01690 0.58660 0.11400
N 	N 	0.91293 0.11030 0.58019 -0.29400
N 	N 	0.96396 0.08190 0.54716 -0.16100
C 	C 	0.82950 0.11840 0.04590 -0.00100
H 	H 	0.84310 0.09390 0.03820 -0.00100
C 	C 	0.79970 0.13670 0.02400 0.00500
H 	H 	0.79030 0.12910 0.99750 0.01700
C 	C 	0.81001 0.16887 0.08050 0.10800
H 	H 	0.80750 0.18840 0.10190 -0.03800
C 	C 	0.75220 0.19420 0.03870 0.20500
C 	C 	0.74437 0.22750 0.06390 -0.24900
H 	H 	0.76170 0.23310 0.08660 0.11500
N 	N 	0.83707 0.13970 0.08019 -0.29400
N 	N 	0.78604 0.16810 0.04716 -0.16100
C 	C 	0.82950 0.61840 0.54590 -0.00100
H 	H 	0.84310 0.59390 0.53820 -0.00100
C 	C 	0.79970 0.63670 0.52400 0.00500
H 	H 	0.79030 0.62910 0.49750 0.01700
C 	C 	0.81001 0.66887 0.58050 0.10800
H 	H 	0.80750 0.68840 0.60190 -0.03800
C 	C 	0.75220 0.69420 0.53870 0.20500
C 	C 	0.74437 0.72750 0.56390 -0.24900
H 	H 	0.76170 0.73310 0.58660 0.11500
N 	N 	0.83707 0.63970 0.58019 -0.29400
N 	N 	0.78604 0.66810 0.54716 -0.16100
C 	C 	0.32950 0.11840 0.54590 -0.00100
H 	H 	0.34310 0.09390 0.53820 -0.00100
C 	C 	0.29970 0.13670 0.52400 0.00500
H 	H 	0.29030 0.12910 0.49750 0.01700
C 	C 	0.31001 0.16887 0.58050 0.10800
H 	H 	0.30750 0.18840 0.60190 -0.03800
C 	C 	0.25220 0.19420 0.53870 0.20500
C 	C 	0.24437 0.22750 0.56390 -0.24900
H 	H 	0.26170 0.23310 0.58660 0.11500
N 	N 	0.33707 0.13970 0.58019 -0.29400
N 	N 	0.28604 0.16810 0.54716 -0.16100
C 	C 	0.32950 0.61840 0.04590 -0.00100
H 	H 	0.34310 0.59390 0.03820 -0.00100
C 	C 	0.29970 0.63670 0.02400 0.00500
H 	H 	0.29030 0.62910 0.99750 0.01700
C 	C 	0.31001 0.66887 0.08050 0.10800
H 	H 	0.30750 0.68840 0.10190 -0.03800
C 	C 	0.25220 0.69420 0.03870 0.20500
C 	C 	0.24437 0.72750 0.06390 -0.24900
H 	H 	0.26170 0.73310 0.08660 0.11500
N 	N 	0.33707 0.63970 0.08019 -0.29400
N 	N 	0.28604 0.66810 0.04716 -0.16100
C 	C 	0.92050 0.61840 0.20410 -0.00100
H 	H 	0.90690 0.59390 0.21180 -0.00100
C 	C 	0.95030 0.63670 0.22600 0.00500
H 	H 	0.95970 0.62910 0.25250 0.01700
C 	C 	0.93999 0.66887 0.16950 0.10800
H 	H 	0.94250 0.68840 0.14810 -0.03800
C 	C 	0.99780 0.69420 0.21130 0.20400
C 	C 	0.00563 0.72750 0.18610 -0.24800
H 	H 	0.98830 0.73310 0.16340 0.11500
N 	N 	0.91293 0.63970 0.16981 -0.29400
N 	N 	0.96396 0.66810 0.20284 -0.16100
C 	C 	0.92050 0.11840 0.70410 -0.00100
H 	H 	0.90690 0.09390 0.71180 -0.00100
C 	C 	0.95030 0.13670 0.72600 0.00500
H 	H 	0.95970 0.12910 0.75250 0.01700
C 	C 	0.93999 0.16887 0.66950 0.10800
H 	H 	0.94250 0.18840 0.64810 -0.03800
C 	C 	0.99780 0.19420 0.71130 0.20400
C 	C 	0.00563 0.22750 0.68610 -0.24800
H 	H 	0.98830 0.23310 0.66340 0.11500
N 	N 	0.91293 0.13970 0.66981 -0.29400
N 	N 	0.96396 0.16810 0.70284 -0.16100
C 	C 	0.42050 0.61840 0.70410 -0.00100
H 	H 	0.40690 0.59390 0.71180 -0.00100
C 	C 	0.45030 0.63670 0.72600 0.00500
H 	H 	0.45970 0.62910 0.75250 0.01700
C 	C 	0.43999 0.66887 0.66950 0.10800
H 	H 	0.44250 0.68840 0.64810 -0.03800
C 	C 	0.49780 0.69420 0.71130 0.20500
C 	C 	0.50563 0.72750 0.68610 -0.24900
H 	H 	0.48830 0.73310 0.66340 0.11500
N 	N 	0.41293 0.63970 0.66981 -0.29400
N 	N 	0.46396 0.66810 0.70284 -0.16100
C 	C 	0.42050 0.11840 0.20410 -0.00100
H 	H 	0.40690 0.09390 0.21180 -0.00100
C 	C 	0.45030 0.13670 0.22600 0.00500
H 	H 	0.45970 0.12910 0.25250 0.01700
C 	C 	0.43999 0.16887 0.16950 0.10800
H 	H 	0.44250 0.18840 0.14810 -0.03800
C 	C 	0.49780 0.19420 0.21130 0.20500
C 	C 	0.50563 0.22750 0.18610 -0.24900
H 	H 	0.48830 0.23310 0.16340 0.11500
N 	N 	0.41293 0.13970 0.16981 -0.29400
N 	N 	0.46396 0.16810 0.20284 -0.16100
C 	C 	0.92050 0.04590 0.13160 -0.00100
H 	H 	0.90690 0.03820 0.15610 -0.00100
C 	C 	0.95030 0.02400 0.11330 0.00500
H 	H 	0.95970 0.99750 0.12090 0.01700
C 	C 	0.93999 0.08050 0.08113 0.10800
H 	H 	0.94250 0.10190 0.06160 -0.03800
C 	C 	0.99780 0.03870 0.05580 0.20100
C 	C 	0.00563 0.06390 0.02250 -0.24300
H 	H 	0.98830 0.08660 0.01690 0.11300
N 	N 	0.91293 0.08019 0.11030 -0.29400
N 	N 	0.96396 0.04716 0.08190 -0.16100
C 	C 	0.92050 0.54590 0.63160 -0.00100
H 	H 	0.90690 0.53820 0.65610 -0.00100
C 	C 	0.95030 0.52400 0.61330 0.00500
H 	H 	0.95970 0.49750 0.62090 0.01700
C 	C 	0.93999 0.58050 0.58113 0.10800
H 	H 	0.94250 0.60190 0.56160 -0.03800
C 	C 	0.99780 0.53870 0.55580 0.20500
C 	C 	0.00563 0.56390 0.52250 -0.24900
H 	H 	0.98830 0.58660 0.51690 0.11500
N 	N 	0.91293 0.58019 0.61030 -0.29400
N 	N 	0.96396 0.54716 0.58190 -0.16100
C 	C 	0.42050 0.04590 0.63160 -0.00100
H 	H 	0.40690 0.03820 0.65610 -0.00100
C 	C 	0.45030 0.02400 0.61330 0.00500
H 	H 	0.45970 0.99750 0.62090 0.01700
C 	C 	0.43999 0.08050 0.58113 0.10800
H 	H 	0.44250 0.10190 0.56160 -0.03800
C 	C 	0.49780 0.03870 0.55580 0.20500
C 	C 	0.50563 0.06390 0.52250 -0.24900
H 	H 	0.48830 0.08660 0.51690 0.11500
N 	N 	0.41293 0.08019 0.61030 -0.29400
N 	N 	0.46396 0.04716 0.58190 -0.16100
C 	C 	0.42050 0.54590 0.13160 -0.00100
H 	H 	0.40690 0.53820 0.15610 -0.00100
C 	C 	0.45030 0.52400 0.11330 0.00500
H 	H 	0.45970 0.49750 0.12090 0.01700
C 	C 	0.43999 0.58050 0.08113 0.10800
H 	H 	0.44250 0.60190 0.06160 -0.03800
C 	C 	0.49780 0.53870 0.05580 0.20500
C 	C 	0.50563 0.56390 0.02250 -0.24900
H 	H 	0.48830 0.58660 0.01690 0.11500
N 	N 	0.41293 0.58019 0.11030 -0.29400
N 	N 	0.46396 0.54716 0.08190 -0.16100
C 	C 	0.82950 0.20410 0.63160 -0.00100
H 	H 	0.84310 0.21180 0.65610 -0.00100
C 	C 	0.79970 0.22600 0.61330 0.00500
H 	H 	0.79030 0.25250 0.62090 0.01700
C 	C 	0.81001 0.16950 0.58113 0.10800
H 	H 	0.80750 0.14810 0.56160 -0.03800
C 	C 	0.75220 0.21130 0.55580 0.20500
C 	C 	0.74437 0.18610 0.52250 -0.24900
H 	H 	0.76170 0.16340 0.51690 0.11500
N 	N 	0.83707 0.16981 0.61030 -0.29400
N 	N 	0.78604 0.20284 0.58190 -0.16100
C 	C 	0.82950 0.70410 0.13160 -0.00100
H 	H 	0.84310 0.71180 0.15610 -0.00100
C 	C 	0.79970 0.72600 0.11330 0.00500
H 	H 	0.79030 0.75250 0.12090 0.01700
C 	C 	0.81001 0.66950 0.08113 0.10800
H 	H 	0.80750 0.64810 0.06160 -0.03800
C 	C 	0.75220 0.71130 0.05580 0.20500
C 	C 	0.74437 0.68610 0.02250 -0.24900
H 	H 	0.76170 0.66340 0.01690 0.11500
N 	N 	0.83707 0.66981 0.11030 -0.29400
N 	N 	0.78604 0.70284 0.08190 -0.16100
C 	C 	0.32950 0.20410 0.13160 -0.00100
H 	H 	0.34310 0.21180 0.15610 -0.00100
C 	C 	0.29970 0.22600 0.11330 0.00500
H 	H 	0.29030 0.25250 0.12090 0.01700
C 	C 	0.31001 0.16950 0.08113 0.10800
H 	H 	0.30750 0.14810 0.06160 -0.03800
C 	C 	0.25220 0.21130 0.05580 0.20400
C 	C 	0.24437 0.18610 0.02250 -0.24800
H 	H 	0.26170 0.16340 0.01690 0.11400
N 	N 	0.33707 0.16981 0.11030 -0.29400
N 	N 	0.28604 0.20284 0.08190 -0.16100
C 	C 	0.32950 0.70410 0.63160 -0.00100
H 	H 	0.34310 0.71180 0.65610 -0.00100
C 	C 	0.29970 0.72600 0.61330 0.00500
H 	H 	0.29030 0.75250 0.62090 0.01700
C 	C 	0.31001 0.66950 0.58113 0.10800
H 	H 	0.30750 0.64810 0.56160 -0.03800
C 	C 	0.25220 0.71130 0.55580 0.20500
C 	C 	0.24437 0.68610 0.52250 -0.24900
H 	H 	0.26170 0.66340 0.51690 0.11500
N 	N 	0.33707 0.66981 0.61030 -0.29400
N 	N 	0.28604 0.70284 0.58190 -0.16100
C 	C 	0.42050 0.70410 0.11840 -0.00100
H 	H 	0.40690 0.71180 0.09390 -0.00100
C 	C 	0.45030 0.72600 0.13670 0.00500
H 	H 	0.45970 0.75250 0.12910 0.01700
C 	C 	0.43999 0.66950 0.16887 0.10800
H 	H 	0.44250 0.64810 0.18840 -0.03800
C 	C 	0.49780 0.71130 0.19420 0.20500
C 	C 	0.50563 0.68610 0.22750 -0.24900
H 	H 	0.48830 0.66340 0.23310 0.11500
N 	N 	0.41293 0.66981 0.13970 -0.29400
N 	N 	0.46396 0.70284 0.16810 -0.16100
C 	C 	0.42050 0.20410 0.61840 -0.00100
H 	H 	0.40690 0.21180 0.59390 -0.00100
C 	C 	0.45030 0.22600 0.63670 0.00500
H 	H 	0.45970 0.25250 0.62910 0.01700
C 	C 	0.43999 0.16950 0.66887 0.10800
H 	H 	0.44250 0.14810 0.68840 -0.03800
C 	C 	0.49780 0.21130 0.69420 0.20500
C 	C 	0.50563 0.18610 0.72750 -0.24900
H 	H 	0.48830 0.16340 0.73310 0.11500
N 	N 	0.41293 0.16981 0.63970 -0.29400
N 	N 	0.46396 0.20284 0.66810 -0.16100
C 	C 	0.92050 0.70410 0.61840 -0.00100
H 	H 	0.90690 0.71180 0.59390 -0.00100
C 	C 	0.95030 0.72600 0.63670 0.00500
H 	H 	0.95970 0.75250 0.62910 0.01700
C 	C 	0.93999 0.66950 0.66887 0.10800
H 	H 	0.94250 0.64810 0.68840 -0.03800
C 	C 	0.99780 0.71130 0.69420 0.20600
C 	C 	0.00563 0.68610 0.72750 -0.25000
H 	H 	0.98830 0.66340 0.73310 0.11500
N 	N 	0.91293 0.66981 0.63970 -0.29400
N 	N 	0.96396 0.70284 0.66810 -0.16100
C 	C 	0.92050 0.20410 0.11840 -0.00100
H 	H 	0.90690 0.21180 0.09390 -0.00100
C 	C 	0.95030 0.22600 0.13670 0.00500
H 	H 	0.95970 0.25250 0.12910 0.01700
C 	C 	0.93999 0.16950 0.16887 0.10800
H 	H 	0.94250 0.14810 0.18840 -0.03800
C 	C 	0.99780 0.21130 0.19420 0.20300
C 	C 	0.00563 0.18610 0.22750 -0.24700
H 	H 	0.98830 0.16340 0.23310 0.11400
N 	N 	0.91293 0.16981 0.13970 -0.29400
N 	N 	0.96396 0.20284 0.16810 -0.16100
C 	C 	0.32950 0.54590 0.61840 -0.00100
H 	H 	0.34310 0.53820 0.59390 -0.00100
C 	C 	0.29970 0.52400 0.63670 0.00500
H 	H 	0.29030 0.49750 0.62910 0.01700
C 	C 	0.31001 0.58050 0.66887 0.10800
H 	H 	0.30750 0.60190 0.68840 -0.03800
C 	C 	0.25220 0.53870 0.69420 0.20500
C 	C 	0.24437 0.56390 0.72750 -0.24900
H 	H 	0.26170 0.58660 0.73310 0.11500
N 	N 	0.33707 0.58019 0.63970 -0.29400
N 	N 	0.28604 0.54716 0.66810 -0.16100
C 	C 	0.32950 0.04590 0.11840 -0.00100
H 	H 	0.34310 0.03820 0.09390 -0.00100
C 	C 	0.29970 0.02400 0.13670 0.00600
H 	H 	0.29030 0.99750 0.12910 0.01700
C 	C 	0.31001 0.08050 0.16887 0.10800
H 	H 	0.30750 0.10190 0.18840 -0.03800
C 	C 	0.25220 0.03870 0.19420 0.20400
C 	C 	0.24437 0.06390 0.22750 -0.24800
H 	H 	0.26170 0.08660 0.23310 0.11400
N 	N 	0.33707 0.08019 0.13970 -0.29400
N 	N 	0.28604 0.04716 0.16810 -0.16100
C 	C 	0.82950 0.54590 0.11840 -0.00100
H 	H 	0.84310 0.53820 0.09390 -0.00100
C 	C 	0.79970 0.52400 0.13670 0.00500
H 	H 	0.79030 0.49750 0.12910 0.01700
C 	C 	0.81001 0.58050 0.16887 0.10800
H 	H 	0.80750 0.60190 0.18840 -0.03800
C 	C 	0.75220 0.53870 0.19420 0.20500
C 	C 	0.74437 0.56390 0.22750 -0.24900
H 	H 	0.76170 0.58660 0.23310 0.11500
N 	N 	0.83707 0.58019 0.13970 -0.29400
N 	N 	0.78604 0.54716 0.16810 -0.16100
C 	C 	0.82950 0.04590 0.61840 -0.00100
H 	H 	0.84310 0.03820 0.59390 -0.00100
C 	C 	0.79970 0.02400 0.63670 0.00500
H 	H 	0.79030 0.99750 0.62910 0.01800
C 	C 	0.81001 0.08050 0.66887 0.10800
H 	H 	0.80750 0.10190 0.68840 -0.03800
C 	C 	0.75220 0.03870 0.69420 0.20500
C 	C 	0.74437 0.06390 0.72750 -0.24900
H 	H 	0.76170 0.08660 0.73310 0.11500
N 	N 	0.83707 0.08019 0.63970 -0.29400
N 	N 	0.78604 0.04716 0.66810 -0.16100
C 	C 	0.54590 0.61840 0.32950 -0.00100
H 	H 	0.53820 0.59390 0.34310 -0.00100
C 	C 	0.52400 0.63670 0.29970 0.00500
H 	H 	0.49750 0.62910 0.29030 0.01700
C 	C 	0.58050 0.66887 0.31001 0.10800
H 	H 	0.60190 0.68840 0.30750 -0.03800
C 	C 	0.53870 0.69420 0.25220 0.20500
C 	C 	0.56390 0.72750 0.24437 -0.24900
H 	H 	0.58660 0.73310 0.26170 0.11500
N 	N 	0.58019 0.63970 0.33707 -0.29400
N 	N 	0.54716 0.66810 0.28604 -0.16100
C 	C 	0.54590 0.11840 0.82950 -0.00100
H 	H 	0.53820 0.09390 0.84310 -0.00100
C 	C 	0.52400 0.13670 0.79970 0.00500
H 	H 	0.49750 0.12910 0.79030 0.01700
C 	C 	0.58050 0.16887 0.81001 0.10800
H 	H 	0.60190 0.18840 0.80750 -0.03800
C 	C 	0.53870 0.19420 0.75220 0.20500
C 	C 	0.56390 0.22750 0.74437 -0.24900
H 	H 	0.58660 0.23310 0.76170 0.11500
N 	N 	0.58019 0.13970 0.83707 -0.29400
N 	N 	0.54716 0.16810 0.78604 -0.16100
C 	C 	0.04590 0.61840 0.82950 -0.00100
H 	H 	0.03820 0.59390 0.84310 -0.00100
C 	C 	0.02400 0.63670 0.79970 0.00500
H 	H 	0.99750 0.62910 0.79030 0.01800
C 	C 	0.08050 0.66887 0.81001 0.10800
H 	H 	0.10190 0.68840 0.80750 -0.03800
C 	C 	0.03870 0.69420 0.75220 0.20500
C 	C 	0.06390 0.72750 0.74437 -0.24900
H 	H 	0.08660 0.73310 0.76170 0.11500
N 	N 	0.08019 0.63970 0.83707 -0.29400
N 	N 	0.04716 0.66810 0.78604 -0.16100
C 	C 	0.04590 0.11840 0.32950 -0.00100
H 	H 	0.03820 0.09390 0.34310 -0.00100
C 	C 	0.02400 0.13670 0.29970 0.00600
H 	H 	0.99750 0.12910 0.29030 0.01700
C 	C 	0.08050 0.16887 0.31001 0.10800
H 	H 	0.10190 0.18840 0.30750 -0.03800
C 	C 	0.03870 0.19420 0.25220 0.20400
C 	C 	0.06390 0.22750 0.24437 -0.24800
H 	H 	0.08660 0.23310 0.26170 0.11400
N 	N 	0.08019 0.13970 0.33707 -0.29400
N 	N 	0.04716 0.16810 0.28604 -0.16100
C 	C 	0.70410 0.11840 0.42050 -0.00100
H 	H 	0.71180 0.09390 0.40690 -0.00100
C 	C 	0.72600 0.13670 0.45030 0.00500
H 	H 	0.75250 0.12910 0.45970 0.01700
C 	C 	0.66950 0.16887 0.43999 0.10800
H 	H 	0.64810 0.18840 0.44250 -0.03800
C 	C 	0.71130 0.19420 0.49780 0.20500
C 	C 	0.68610 0.22750 0.50563 -0.24900
H 	H 	0.66340 0.23310 0.48830 0.11500
N 	N 	0.66981 0.13970 0.41293 -0.29400
N 	N 	0.70284 0.16810 0.46396 -0.16100
C 	C 	0.70410 0.61840 0.92050 -0.00100
H 	H 	0.71180 0.59390 0.90690 -0.00100
C 	C 	0.72600 0.63670 0.95030 0.00500
H 	H 	0.75250 0.62910 0.95970 0.01700
C 	C 	0.66950 0.66887 0.93999 0.10800
H 	H 	0.64810 0.68840 0.94250 -0.03800
C 	C 	0.71130 0.69420 0.99780 0.20600
C 	C 	0.68610 0.72750 0.00563 -0.25000
H 	H 	0.66340 0.73310 0.98830 0.11500
N 	N 	0.66981 0.63970 0.91293 -0.29400
N 	N 	0.70284 0.66810 0.96396 -0.16100
C 	C 	0.20410 0.11840 0.92050 -0.00100
H 	H 	0.21180 0.09390 0.90690 -0.00100
C 	C 	0.22600 0.13670 0.95030 0.00500
H 	H 	0.25250 0.12910 0.95970 0.01700
C 	C 	0.16950 0.16887 0.93999 0.10800
H 	H 	0.14810 0.18840 0.94250 -0.03800
C 	C 	0.21130 0.19420 0.99780 0.20300
C 	C 	0.18610 0.22750 0.00563 -0.24700
H 	H 	0.16340 0.23310 0.98830 0.11400
N 	N 	0.16981 0.13970 0.91293 -0.29400
N 	N 	0.20284 0.16810 0.96396 -0.16100
C 	C 	0.20410 0.61840 0.42050 -0.00100
H 	H 	0.21180 0.59390 0.40690 -0.00100
C 	C 	0.22600 0.63670 0.45030 0.00500
H 	H 	0.25250 0.62910 0.45970 0.01700
C 	C 	0.16950 0.66887 0.43999 0.10800
H 	H 	0.14810 0.68840 0.44250 -0.03800
C 	C 	0.21130 0.69420 0.49780 0.20500
C 	C 	0.18610 0.72750 0.50563 -0.24900
H 	H 	0.16340 0.73310 0.48830 0.11500
N 	N 	0.16981 0.63970 0.41293 -0.29400
N 	N 	0.20284 0.66810 0.46396 -0.16100
C 	C 	0.20410 0.63160 0.82950 -0.00100
H 	H 	0.21180 0.65610 0.84310 -0.00100
C 	C 	0.22600 0.61330 0.79970 0.00500
H 	H 	0.25250 0.62090 0.79030 0.01700
C 	C 	0.16950 0.58113 0.81001 0.10800
H 	H 	0.14810 0.56160 0.80750 -0.03800
C 	C 	0.21130 0.55580 0.75220 0.20500
C 	C 	0.18610 0.52250 0.74437 -0.24900
H 	H 	0.16340 0.51690 0.76170 0.11500
N 	N 	0.16981 0.61030 0.83707 -0.29400
N 	N 	0.20284 0.58190 0.78604 -0.16100
C 	C 	0.20410 0.13160 0.32950 -0.00100
H 	H 	0.21180 0.15610 0.34310 -0.00100
C 	C 	0.22600 0.11330 0.29970 0.00500
H 	H 	0.25250 0.12090 0.29030 0.01700
C 	C 	0.16950 0.08113 0.31001 0.10800
H 	H 	0.14810 0.06160 0.30750 -0.03800
C 	C 	0.21130 0.05580 0.25220 0.20400
C 	C 	0.18610 0.02250 0.24437 -0.24800
H 	H 	0.16340 0.01690 0.26170 0.11400
N 	N 	0.16981 0.11030 0.33707 -0.29400
N 	N 	0.20284 0.08190 0.28604 -0.16100
C 	C 	0.70410 0.63160 0.32950 -0.00100
H 	H 	0.71180 0.65610 0.34310 -0.00100
C 	C 	0.72600 0.61330 0.29970 0.00500
H 	H 	0.75250 0.62090 0.29030 0.01700
C 	C 	0.66950 0.58113 0.31001 0.10800
H 	H 	0.64810 0.56160 0.30750 -0.03800
C 	C 	0.71130 0.55580 0.25220 0.20500
C 	C 	0.68610 0.52250 0.24437 -0.24900
H 	H 	0.66340 0.51690 0.26170 0.11500
N 	N 	0.66981 0.61030 0.33707 -0.29400
N 	N 	0.70284 0.58190 0.28604 -0.16100
C 	C 	0.70410 0.13160 0.82950 -0.00100
H 	H 	0.71180 0.15610 0.84310 -0.00100
C 	C 	0.72600 0.11330 0.79970 0.00500
H 	H 	0.75250 0.12090 0.79030 0.01700
C 	C 	0.66950 0.08113 0.81001 0.10800
H 	H 	0.64810 0.06160 0.80750 -0.03800
C 	C 	0.71130 0.05580 0.75220 0.20500
C 	C 	0.68610 0.02250 0.74437 -0.24900
H 	H 	0.66340 0.01690 0.76170 0.11500
N 	N 	0.66981 0.11030 0.83707 -0.29400
N 	N 	0.70284 0.08190 0.78604 -0.16100
C 	C 	0.04590 0.13160 0.92050 -0.00100
H 	H 	0.03820 0.15610 0.90690 -0.00100
C 	C 	0.02400 0.11330 0.95030 0.00500
H 	H 	0.99750 0.12090 0.95970 0.01700
C 	C 	0.08050 0.08113 0.93999 0.10800
H 	H 	0.10190 0.06160 0.94250 -0.03800
C 	C 	0.03870 0.05580 0.99780 0.20100
C 	C 	0.06390 0.02250 0.00563 -0.24300
H 	H 	0.08660 0.01690 0.98830 0.11300
N 	N 	0.08019 0.11030 0.91293 -0.29400
N 	N 	0.04716 0.08190 0.96396 -0.16100
C 	C 	0.04590 0.63160 0.42050 -0.00100
H 	H 	0.03820 0.65610 0.40690 -0.00100
C 	C 	0.02400 0.61330 0.45030 0.00500
H 	H 	0.99750 0.62090 0.45970 0.01700
C 	C 	0.08050 0.58113 0.43999 0.10800
H 	H 	0.10190 0.56160 0.44250 -0.03800
C 	C 	0.03870 0.55580 0.49780 0.20500
C 	C 	0.06390 0.52250 0.50563 -0.24900
H 	H 	0.08660 0.51690 0.48830 0.11500
N 	N 	0.08019 0.61030 0.41293 -0.29400
N 	N 	0.04716 0.58190 0.46396 -0.16100
C 	C 	0.54590 0.13160 0.42050 -0.00100
H 	H 	0.53820 0.15610 0.40690 -0.00100
C 	C 	0.52400 0.11330 0.45030 0.00500
H 	H 	0.49750 0.12090 0.45970 0.01700
C 	C 	0.58050 0.08113 0.43999 0.10800
H 	H 	0.60190 0.06160 0.44250 -0.03800
C 	C 	0.53870 0.05580 0.49780 0.20500
C 	C 	0.56390 0.02250 0.50563 -0.24900
H 	H 	0.58660 0.01690 0.48830 0.11500
N 	N 	0.58019 0.11030 0.41293 -0.29400
N 	N 	0.54716 0.08190 0.46396 -0.16100
C 	C 	0.54590 0.63160 0.92050 -0.00100
H 	H 	0.53820 0.65610 0.90690 -0.00100
C 	C 	0.52400 0.61330 0.95030 0.00500
H 	H 	0.49750 0.62090 0.95970 0.01700
C 	C 	0.58050 0.58113 0.93999 0.10800
H 	H 	0.60190 0.56160 0.94250 -0.03800
C 	C 	0.53870 0.55580 0.99780 0.20500
C 	C 	0.56390 0.52250 0.00563 -0.24900
H 	H 	0.58660 0.51690 0.98830 0.11500
N 	N 	0.58019 0.61030 0.91293 -0.29400
N 	N 	0.54716 0.58190 0.96396 -0.16100
C 	C 	0.11840 0.42050 0.70410 -0.00100
H 	H 	0.09390 0.40690 0.71180 -0.00100
C 	C 	0.13670 0.45030 0.72600 0.00500
H 	H 	0.12910 0.45970 0.75250 0.01700
C 	C 	0.16887 0.43999 0.66950 0.10800
H 	H 	0.18840 0.44250 0.64810 -0.03800
C 	C 	0.19420 0.49780 0.71130 0.20500
C 	C 	0.22750 0.50563 0.68610 -0.24900
H 	H 	0.23310 0.48830 0.66340 0.11500
N 	N 	0.13970 0.41293 0.66981 -0.29400
N 	N 	0.16810 0.46396 0.70284 -0.16100
C 	C 	0.11840 0.92050 0.20410 -0.00100
H 	H 	0.09390 0.90690 0.21180 -0.00100
C 	C 	0.13670 0.95030 0.22600 0.00500
H 	H 	0.12910 0.95970 0.25250 0.01700
C 	C 	0.16887 0.93999 0.16950 0.10800
H 	H 	0.18840 0.94250 0.14810 -0.03800
C 	C 	0.19420 0.99780 0.21130 0.20300
C 	C 	0.22750 0.00563 0.18610 -0.24700
H 	H 	0.23310 0.98830 0.16340 0.11400
N 	N 	0.13970 0.91293 0.16981 -0.29400
N 	N 	0.16810 0.96396 0.20284 -0.16100
C 	C 	0.61840 0.42050 0.20410 -0.00100
H 	H 	0.59390 0.40690 0.21180 -0.00100
C 	C 	0.63670 0.45030 0.22600 0.00500
H 	H 	0.62910 0.45970 0.25250 0.01700
C 	C 	0.66887 0.43999 0.16950 0.10800
H 	H 	0.68840 0.44250 0.14810 -0.03800
C 	C 	0.69420 0.49780 0.21130 0.20500
C 	C 	0.72750 0.50563 0.18610 -0.24900
H 	H 	0.73310 0.48830 0.16340 0.11500
N 	N 	0.63970 0.41293 0.16981 -0.29400
N 	N 	0.66810 0.46396 0.20284 -0.16100
C 	C 	0.61840 0.92050 0.70410 -0.00100
H 	H 	0.59390 0.90690 0.71180 -0.00100
C 	C 	0.63670 0.95030 0.72600 0.00500
H 	H 	0.62910 0.95970 0.75250 0.01700
C 	C 	0.66887 0.93999 0.66950 0.10800
H 	H 	0.68840 0.94250 0.64810 -0.03800
C 	C 	0.69420 0.99780 0.71130 0.20600
C 	C 	0.72750 0.00563 0.68610 -0.25000
H 	H 	0.73310 0.98830 0.66340 0.11500
N 	N 	0.63970 0.91293 0.66981 -0.29400
N 	N 	0.66810 0.96396 0.70284 -0.16100
C 	C 	0.61840 0.32950 0.54590 -0.00100
H 	H 	0.59390 0.34310 0.53820 -0.00100
C 	C 	0.63670 0.29970 0.52400 0.00500
H 	H 	0.62910 0.29030 0.49750 0.01700
C 	C 	0.66887 0.31001 0.58050 0.10800
H 	H 	0.68840 0.30750 0.60190 -0.03800
C 	C 	0.69420 0.25220 0.53870 0.20500
C 	C 	0.72750 0.24437 0.56390 -0.24900
H 	H 	0.73310 0.26170 0.58660 0.11500
N 	N 	0.63970 0.33707 0.58019 -0.29400
N 	N 	0.66810 0.28604 0.54716 -0.16100
C 	C 	0.61840 0.82950 0.04590 -0.00100
H 	H 	0.59390 0.84310 0.03820 -0.00100
C 	C 	0.63670 0.79970 0.02400 0.00500
H 	H 	0.62910 0.79030 0.99750 0.01800
C 	C 	0.66887 0.81001 0.08050 0.10800
H 	H 	0.68840 0.80750 0.10190 -0.03800
C 	C 	0.69420 0.75220 0.03870 0.20500
C 	C 	0.72750 0.74437 0.06390 -0.24900
H 	H 	0.73310 0.76170 0.08660 0.11500
N 	N 	0.63970 0.83707 0.08019 -0.29400
N 	N 	0.66810 0.78604 0.04716 -0.16100
C 	C 	0.11840 0.32950 0.04590 -0.00100
H 	H 	0.09390 0.34310 0.03820 -0.00100
C 	C 	0.13670 0.29970 0.02400 0.00600
H 	H 	0.12910 0.29030 0.99750 0.01700
C 	C 	0.16887 0.31001 0.08050 0.10800
H 	H 	0.18840 0.30750 0.10190 -0.03800
C 	C 	0.19420 0.25220 0.03870 0.20400
C 	C 	0.22750 0.24437 0.06390 -0.24800
H 	H 	0.23310 0.26170 0.08660 0.11400
N 	N 	0.13970 0.33707 0.08019 -0.29400
N 	N 	0.16810 0.28604 0.04716 -0.16100
C 	C 	0.11840 0.82950 0.54590 -0.00100
H 	H 	0.09390 0.84310 0.53820 -0.00100
C 	C 	0.13670 0.79970 0.52400 0.00500
H 	H 	0.12910 0.79030 0.49750 0.01700
C 	C 	0.16887 0.81001 0.58050 0.10800
H 	H 	0.18840 0.80750 0.60190 -0.03800
C 	C 	0.19420 0.75220 0.53870 0.20500
C 	C 	0.22750 0.74437 0.56390 -0.24900
H 	H 	0.23310 0.76170 0.58660 0.11500
N 	N 	0.13970 0.83707 0.58019 -0.29400
N 	N 	0.16810 0.78604 0.54716 -0.16100
C 	C 	0.13160 0.92050 0.04590 -0.00100
H 	H 	0.15610 0.90690 0.03820 -0.00100
C 	C 	0.11330 0.95030 0.02400 0.00500
H 	H 	0.12090 0.95970 0.99750 0.01700
C 	C 	0.08113 0.93999 0.08050 0.10800
H 	H 	0.06160 0.94250 0.10190 -0.03800
C 	C 	0.05580 0.99780 0.03870 0.20100
C 	C 	0.02250 0.00563 0.06390 -0.24300
H 	H 	0.01690 0.98830 0.08660 0.11300
N 	N 	0.11030 0.91293 0.08019 -0.29400
N 	N 	0.08190 0.96396 0.04716 -0.16100
C 	C 	0.13160 0.42050 0.54590 -0.00100
H 	H 	0.15610 0.40690 0.53820 -0.00100
C 	C 	0.11330 0.45030 0.52400 0.00500
H 	H 	0.12090 0.45970 0.49750 0.01700
C 	C 	0.08113 0.43999 0.58050 0.10800
H 	H 	0.06160 0.44250 0.60190 -0.03800
C 	C 	0.05580 0.49780 0.53870 0.20500
C 	C 	0.02250 0.50563 0.56390 -0.24900
H 	H 	0.01690 0.48830 0.58660 0.11500
N 	N 	0.11030 0.41293 0.58019 -0.29400
N 	N 	0.08190 0.46396 0.54716 -0.16100
C 	C 	0.63160 0.92050 0.54590 -0.00100
H 	H 	0.65610 0.90690 0.53820 -0.00100
C 	C 	0.61330 0.95030 0.52400 0.00500
H 	H 	0.62090 0.95970 0.49750 0.01700
C 	C 	0.58113 0.93999 0.58050 0.10800
H 	H 	0.56160 0.94250 0.60190 -0.03800
C 	C 	0.55580 0.99780 0.53870 0.20500
C 	C 	0.52250 0.00563 0.56390 -0.24900
H 	H 	0.51690 0.98830 0.58660 0.11500
N 	N 	0.61030 0.91293 0.58019 -0.29400
N 	N 	0.58190 0.96396 0.54716 -0.16100
C 	C 	0.63160 0.42050 0.04590 -0.00100
H 	H 	0.65610 0.40690 0.03820 -0.00100
C 	C 	0.61330 0.45030 0.02400 0.00500
H 	H 	0.62090 0.45970 0.99750 0.01700
C 	C 	0.58113 0.43999 0.08050 0.10800
H 	H 	0.56160 0.44250 0.10190 -0.03800
C 	C 	0.55580 0.49780 0.03870 0.20500
C 	C 	0.52250 0.50563 0.06390 -0.24900
H 	H 	0.51690 0.48830 0.08660 0.11500
N 	N 	0.61030 0.41293 0.08019 -0.29400
N 	N 	0.58190 0.46396 0.04716 -0.16100
C 	C 	0.63160 0.82950 0.20410 -0.00100
H 	H 	0.65610 0.84310 0.21180 -0.00100
C 	C 	0.61330 0.79970 0.22600 0.00500
H 	H 	0.62090 0.79030 0.25250 0.01700
C 	C 	0.58113 0.81001 0.16950 0.10800
H 	H 	0.56160 0.80750 0.14810 -0.03800
C 	C 	0.55580 0.75220 0.21130 0.20500
C 	C 	0.52250 0.74437 0.18610 -0.24900
H 	H 	0.51690 0.76170 0.16340 0.11500
N 	N 	0.61030 0.83707 0.16981 -0.29400
N 	N 	0.58190 0.78604 0.20284 -0.16100
C 	C 	0.63160 0.32950 0.70410 -0.00100
H 	H 	0.65610 0.34310 0.71180 -0.00100
C 	C 	0.61330 0.29970 0.72600 0.00500
H 	H 	0.62090 0.29030 0.75250 0.01700
C 	C 	0.58113 0.31001 0.66950 0.10800
H 	H 	0.56160 0.30750 0.64810 -0.03800
C 	C 	0.55580 0.25220 0.71130 0.20500
C 	C 	0.52250 0.24437 0.68610 -0.24900
H 	H 	0.51690 0.26170 0.66340 0.11500
N 	N 	0.61030 0.33707 0.66981 -0.29400
N 	N 	0.58190 0.28604 0.70284 -0.16100
C 	C 	0.13160 0.82950 0.70410 -0.00100
H 	H 	0.15610 0.84310 0.71180 -0.00100
C 	C 	0.11330 0.79970 0.72600 0.00500
H 	H 	0.12090 0.79030 0.75250 0.01700
C 	C 	0.08113 0.81001 0.66950 0.10800
H 	H 	0.06160 0.80750 0.64810 -0.03800
C 	C 	0.05580 0.75220 0.71130 0.20500
C 	C 	0.02250 0.74437 0.68610 -0.24900
H 	H 	0.01690 0.76170 0.66340 0.11500
N 	N 	0.11030 0.83707 0.66981 -0.29400
N 	N 	0.08190 0.78604 0.70284 -0.16100
C 	C 	0.13160 0.32950 0.20410 -0.00100
H 	H 	0.15610 0.34310 0.21180 -0.00100
C 	C 	0.11330 0.29970 0.22600 0.00500
H 	H 	0.12090 0.29030 0.25250 0.01700
C 	C 	0.08113 0.31001 0.16950 0.10800
H 	H 	0.06160 0.30750 0.14810 -0.03800
C 	C 	0.05580 0.25220 0.21130 0.20400
C 	C 	0.02250 0.24437 0.18610 -0.24800
H 	H 	0.01690 0.26170 0.16340 0.11400
N 	N 	0.11030 0.33707 0.16981 -0.29400
N 	N 	0.08190 0.28604 0.20284 -0.16100
Zn	Zn	0.62500 0.37500 0.12500 1.17400
Zn	Zn	0.62500 0.87500 0.62500 1.17400
Zn	Zn	0.62500 0.37500 0.62500 1.17400
Zn	Zn	0.12500 0.87500 0.12500 1.17400
Zn	Zn	0.12500 0.87500 0.62500 1.17400
Zn	Zn	0.12500 0.37500 0.12500 1.17400
Zn	Zn	0.12500 0.62500 0.37500 1.17400
Zn	Zn	0.62500 0.62500 0.87500 1.17400
Zn	Zn	0.62500 0.62500 0.37500 1.17400
Zn	Zn	0.12500 0.12500 0.87500 1.17400
Zn	Zn	0.62500 0.12500 0.87500 1.17400
Zn	Zn	0.37500 0.12500 0.62500 1.17400
Zn	Zn	0.87500 0.62500 0.62500 1.17400
Zn	Zn	0.37500 0.62500 0.62500 1.17400
Zn	Zn	0.37500 0.12500 0.12500 1.17400
Zn	Zn	0.87500 0.12500 0.12500 1.17400
Zn	Zn	0.87500 0.62500 0.12500 1.17400
Zn	Zn	0.37500 0.62500 0.12500 1.17400
Zn	Zn	0.87500 0.12500 0.62500 1.17400
Zn	Zn	0.62500 0.12500 0.37500 1.17400
Zn	Zn	0.12500 0.62500 0.87500 1.17400
Zn	Zn	0.12500 0.12500 0.37500 1.17400
Zn	Zn	0.12500 0.37500 0.62500 1.17400
Zn	Zn	0.62500 0.87500 0.12500 1.17400
C 	C 	0.07950 0.95410 0.86840 -0.00100
H 	H 	0.09310 0.96180 0.84390 -0.00100
C 	C 	0.04970 0.97600 0.88670 0.00500
H 	H 	0.04030 0.00250 0.87910 0.01700
C 	C 	0.06001 0.91950 0.91887 0.10800
H 	H 	0.05750 0.89810 0.93840 -0.03800
C 	C 	0.00220 0.96130 0.94420 0.20100
C 	C 	0.99437 0.93610 0.97750 -0.24300
H 	H 	0.01170 0.91340 0.98310 0.11300
N 	N 	0.08707 0.91981 0.88970 -0.29400
N 	N 	0.03604 0.95284 0.91810 -0.16100
C 	C 	0.07950 0.45410 0.36840 -0.00100
H 	H 	0.09310 0.46180 0.34390 -0.00100
C 	C 	0.04970 0.47600 0.38670 0.00500
H 	H 	0.04030 0.50250 0.37910 0.01700
C 	C 	0.06001 0.41950 0.41887 0.10800
H 	H 	0.05750 0.39810 0.43840 -0.03800
C 	C 	0.00220 0.46130 0.44420 0.20500
C 	C 	0.99437 0.43610 0.47750 -0.24900
H 	H 	0.01170 0.41340 0.48310 0.11500
N 	N 	0.08707 0.41981 0.38970 -0.29400
N 	N 	0.03604 0.45284 0.41810 -0.16100
C 	C 	0.57950 0.95410 0.36840 -0.00100
H 	H 	0.59310 0.96180 0.34390 -0.00100
C 	C 	0.54970 0.97600 0.38670 0.00500
H 	H 	0.54030 0.00250 0.37910 0.01700
C 	C 	0.56001 0.91950 0.41887 0.10800
H 	H 	0.55750 0.89810 0.43840 -0.03800
C 	C 	0.50220 0.96130 0.44420 0.20500
C 	C 	0.49437 0.93610 0.47750 -0.24900
H 	H 	0.51170 0.91340 0.48310 0.11500
N 	N 	0.58707 0.91981 0.38970 -0.29400
N 	N 	0.53604 0.95284 0.41810 -0.16100
C 	C 	0.57950 0.45410 0.86840 -0.00100
H 	H 	0.59310 0.46180 0.84390 -0.00100
C 	C 	0.54970 0.47600 0.88670 0.00500
H 	H 	0.54030 0.50250 0.87910 0.01700
C 	C 	0.56001 0.41950 0.91887 0.10800
H 	H 	0.55750 0.39810 0.93840 -0.03800
C 	C 	0.50220 0.46130 0.94420 0.20500
C 	C 	0.49437 0.43610 0.97750 -0.24900
H 	H 	0.51170 0.41340 0.98310 0.11500
N 	N 	0.58707 0.41981 0.88970 -0.29400
N 	N 	0.53604 0.45284 0.91810 -0.16100
C 	C 	0.17050 0.79590 0.36840 -0.00100
H 	H 	0.15690 0.78820 0.34390 -0.00100
C 	C 	0.20030 0.77400 0.38670 0.00500
H 	H 	0.20970 0.74750 0.37910 0.01700
C 	C 	0.18999 0.83050 0.41887 0.10800
H 	H 	0.19250 0.85190 0.43840 -0.03800
C 	C 	0.24780 0.78870 0.44420 0.20500
C 	C 	0.25563 0.81390 0.47750 -0.24900
H 	H 	0.23830 0.83660 0.48310 0.11500
N 	N 	0.16293 0.83019 0.38970 -0.29400
N 	N 	0.21396 0.79716 0.41810 -0.16100
C 	C 	0.17050 0.29590 0.86840 -0.00100
H 	H 	0.15690 0.28820 0.84390 -0.00100
C 	C 	0.20030 0.27400 0.88670 0.00500
H 	H 	0.20970 0.24750 0.87910 0.01700
C 	C 	0.18999 0.33050 0.91887 0.10800
H 	H 	0.19250 0.35190 0.93840 -0.03800
C 	C 	0.24780 0.28870 0.94420 0.20500
C 	C 	0.25563 0.31390 0.97750 -0.24900
H 	H 	0.23830 0.33660 0.98310 0.11500
N 	N 	0.16293 0.33019 0.88970 -0.29400
N 	N 	0.21396 0.29716 0.91810 -0.16100
C 	C 	0.67050 0.79590 0.86840 -0.00100
H 	H 	0.65690 0.78820 0.84390 -0.00100
C 	C 	0.70030 0.77400 0.88670 0.00500
H 	H 	0.70970 0.74750 0.87910 0.01700
C 	C 	0.68999 0.83050 0.91887 0.10800
H 	H 	0.69250 0.85190 0.93840 -0.03800
C 	C 	0.74780 0.78870 0.94420 0.20400
C 	C 	0.75563 0.81390 0.97750 -0.24800
H 	H 	0.73830 0.83660 0.98310 0.11400
N 	N 	0.66293 0.83019 0.88970 -0.29400
N 	N 	0.71396 0.79716 0.91810 -0.16100
C 	C 	0.67050 0.29590 0.36840 -0.00100
H 	H 	0.65690 0.28820 0.34390 -0.00100
C 	C 	0.70030 0.27400 0.38670 0.00500
H 	H 	0.70970 0.24750 0.37910 0.01700
C 	C 	0.68999 0.33050 0.41887 0.10800
H 	H 	0.69250 0.35190 0.43840 -0.03800
C 	C 	0.74780 0.28870 0.44420 0.20500
C 	C 	0.75563 0.31390 0.47750 -0.24900
H 	H 	0.73830 0.33660 0.48310 0.11500
N 	N 	0.66293 0.33019 0.38970 -0.29400
N 	N 	0.71396 0.29716 0.41810 -0.16100
C 	C 	0.57950 0.29590 0.88160 -0.00100
H 	H 	0.59310 0.28820 0.90610 -0.00100
C 	C 	0.54970 0.27400 0.86330 0.00500
H 	H 	0.54030 0.24750 0.87090 0.01700
C 	C 	0.56001 0.33050 0.83113 0.10800
H 	H 	0.55750 0.35190 0.81160 -0.03800
C 	C 	0.50220 0.28870 0.80580 0.20500
C 	C 	0.49437 0.31390 0.77250 -0.24900
H 	H 	0.51170 0.33660 0.76690 0.11500
N 	N 	0.58707 0.33019 0.86030 -0.29400
N 	N 	0.53604 0.29716 0.83190 -0.16100
C 	C 	0.57950 0.79590 0.38160 -0.00100
H 	H 	0.59310 0.78820 0.40610 -0.00100
C 	C 	0.54970 0.77400 0.36330 0.00500
H 	H 	0.54030 0.74750 0.37090 0.01700
C 	C 	0.56001 0.83050 0.33113 0.10800
H 	H 	0.55750 0.85190 0.31160 -0.03800
C 	C 	0.50220 0.78870 0.30580 0.20500
C 	C 	0.49437 0.81390 0.27250 -0.24900
H 	H 	0.51170 0.83660 0.26690 0.11500
N 	N 	0.58707 0.83019 0.36030 -0.29400
N 	N 	0.53604 0.79716 0.33190 -0.16100
C 	C 	0.07950 0.29590 0.38160 -0.00100
H 	H 	0.09310 0.28820 0.40610 -0.00100
C 	C 	0.04970 0.27400 0.36330 0.00500
H 	H 	0.04030 0.24750 0.37090 0.01700
C 	C 	0.06001 0.33050 0.33113 0.10800
H 	H 	0.05750 0.35190 0.31160 -0.03800
C 	C 	0.00220 0.28870 0.30580 0.20600
C 	C 	0.99437 0.31390 0.27250 -0.25000
H 	H 	0.01170 0.33660 0.26690 0.11500
N 	N 	0.08707 0.33019 0.36030 -0.29400
N 	N 	0.03604 0.29716 0.33190 -0.16100
C 	C 	0.07950 0.79590 0.88160 -0.00100
H 	H 	0.09310 0.78820 0.90610 -0.00100
C 	C 	0.04970 0.77400 0.86330 0.00500
H 	H 	0.04030 0.74750 0.87090 0.01700
C 	C 	0.06001 0.83050 0.83113 0.10800
H 	H 	0.05750 0.85190 0.81160 -0.03800
C 	C 	0.00220 0.78870 0.80580 0.20300
C 	C 	0.99437 0.81390 0.77250 -0.24700
H 	H 	0.01170 0.83660 0.76690 0.11400
N 	N 	0.08707 0.83019 0.86030 -0.29400
N 	N 	0.03604 0.79716 0.83190 -0.16100
C 	C 	0.67050 0.45410 0.38160 -0.00100
H 	H 	0.65690 0.46180 0.40610 -0.00100
C 	C 	0.70030 0.47600 0.36330 0.00500
H 	H 	0.70970 0.50250 0.37090 0.01700
C 	C 	0.68999 0.41950 0.33113 0.10800
H 	H 	0.69250 0.39810 0.31160 -0.03800
C 	C 	0.74780 0.46130 0.30580 0.20500
C 	C 	0.75563 0.43610 0.27250 -0.24900
H 	H 	0.73830 0.41340 0.26690 0.11500
N 	N 	0.66293 0.41981 0.36030 -0.29400
N 	N 	0.71396 0.45284 0.33190 -0.16100
C 	C 	0.67050 0.95410 0.88160 -0.00100
H 	H 	0.65690 0.96180 0.90610 -0.00100
C 	C 	0.70030 0.97600 0.86330 0.00600
H 	H 	0.70970 0.00250 0.87090 0.01700
C 	C 	0.68999 0.91950 0.83113 0.10800
H 	H 	0.69250 0.89810 0.81160 -0.03800
C 	C 	0.74780 0.96130 0.80580 0.20400
C 	C 	0.75563 0.93610 0.77250 -0.24800
H 	H 	0.73830 0.91340 0.76690 0.11400
N 	N 	0.66293 0.91981 0.86030 -0.29400
N 	N 	0.71396 0.95284 0.83190 -0.16100
C 	C 	0.17050 0.45410 0.88160 -0.00100
H 	H 	0.15690 0.46180 0.90610 -0.00100
C 	C 	0.20030 0.47600 0.86330 0.00500
H 	H 	0.20970 0.50250 0.87090 0.01700
C 	C 	0.18999 0.41950 0.83113 0.10800
H 	H 	0.19250 0.39810 0.81160 -0.03800
C 	C 	0.24780 0.46130 0.80580 0.20500
C 	C 	0.25563 0.43610 0.77250 -0.24900
H 	H 	0.23830 0.41340 0.76690 0.11500
N 	N 	0.16293 0.41981 0.86030 -0.29400
N 	N 	0.21396 0.45284 0.83190 -0.16100
C 	C 	0.17050 0.95410 0.38160 -0.00100
H 	H 	0.15690 0.96180 0.40610 -0.00100
C 	C 	0.20030 0.97600 0.36330 0.00500
H 	H 	0.20970 0.00250 0.37090 0.01800
C 	C 	0.18999 0.91950 0.33113 0.10800
H 	H 	0.19250 0.89810 0.31160 -0.03800
C 	C 	0.24780 0.96130 0.30580 0.20500
C 	C 	0.25563 0.93610 0.27250 -0.24900
H 	H 	0.23830 0.91340 0.26690 0.11500
N 	N 	0.16293 0.91981 0.36030 -0.29400
N 	N 	0.21396 0.95284 0.33190 -0.16100
C 	C 	0.45410 0.38160 0.67050 -0.00100
H 	H 	0.46180 0.40610 0.65690 -0.00100
C 	C 	0.47600 0.36330 0.70030 0.00500
H 	H 	0.50250 0.37090 0.70970 0.01700
C 	C 	0.41950 0.33113 0.68999 0.10800
H 	H 	0.39810 0.31160 0.69250 -0.03800
C 	C 	0.46130 0.30580 0.74780 0.20500
C 	C 	0.43610 0.27250 0.75563 -0.24900
H 	H 	0.41340 0.26690 0.73830 0.11500
N 	N 	0.41981 0.36030 0.66293 -0.29400
N 	N 	0.45284 0.33190 0.71396 -0.16100
C 	C 	0.45410 0.88160 0.17050 -0.00100
H 	H 	0.46180 0.90610 0.15690 -0.00100
C 	C 	0.47600 0.86330 0.20030 0.00500
H 	H 	0.50250 0.87090 0.20970 0.01700
C 	C 	0.41950 0.83113 0.18999 0.10800
H 	H 	0.39810 0.81160 0.19250 -0.03800
C 	C 	0.46130 0.80580 0.24780 0.20500
C 	C 	0.43610 0.77250 0.25563 -0.24900
H 	H 	0.41340 0.76690 0.23830 0.11500
N 	N 	0.41981 0.86030 0.16293 -0.29400
N 	N 	0.45284 0.83190 0.21396 -0.16100
C 	C 	0.95410 0.38160 0.17050 -0.00100
H 	H 	0.96180 0.40610 0.15690 -0.00100
C 	C 	0.97600 0.36330 0.20030 0.00500
H 	H 	0.00250 0.37090 0.20970 0.01800
C 	C 	0.91950 0.33113 0.18999 0.10800
H 	H 	0.89810 0.31160 0.19250 -0.03800
C 	C 	0.96130 0.30580 0.24780 0.20500
C 	C 	0.93610 0.27250 0.25563 -0.24900
H 	H 	0.91340 0.26690 0.23830 0.11500
N 	N 	0.91981 0.36030 0.16293 -0.29400
N 	N 	0.95284 0.33190 0.21396 -0.16100
C 	C 	0.95410 0.88160 0.67050 -0.00100
H 	H 	0.96180 0.90610 0.65690 -0.00100
C 	C 	0.97600 0.86330 0.70030 0.00600
H 	H 	0.00250 0.87090 0.70970 0.01700
C 	C 	0.91950 0.83113 0.68999 0.10800
H 	H 	0.89810 0.81160 0.69250 -0.03800
C 	C 	0.96130 0.80580 0.74780 0.20400
C 	C 	0.93610 0.77250 0.75563 -0.24800
H 	H 	0.91340 0.76690 0.73830 0.11400
N 	N 	0.91981 0.86030 0.66293 -0.29400
N 	N 	0.95284 0.83190 0.71396 -0.16100
C 	C 	0.29590 0.88160 0.57950 -0.00100
H 	H 	0.28820 0.90610 0.59310 -0.00100
C 	C 	0.27400 0.86330 0.54970 0.00500
H 	H 	0.24750 0.87090 0.54030 0.01700
C 	C 	0.33050 0.83113 0.56001 0.10800
H 	H 	0.35190 0.81160 0.55750 -0.03800
C 	C 	0.28870 0.80580 0.50220 0.20500
C 	C 	0.31390 0.77250 0.49437 -0.24900
H 	H 	0.33660 0.76690 0.51170 0.11500
N 	N 	0.33019 0.86030 0.58707 -0.29400
N 	N 	0.29716 0.83190 0.53604 -0.16100
C 	C 	0.29590 0.38160 0.07950 -0.00100
H 	H 	0.28820 0.40610 0.09310 -0.00100
C 	C 	0.27400 0.36330 0.04970 0.00500
H 	H 	0.24750 0.37090 0.04030 0.01700
C 	C 	0.33050 0.33113 0.06001 0.10800
H 	H 	0.35190 0.31160 0.05750 -0.03800
C 	C 	0.28870 0.30580 0.00220 0.20600
C 	C 	0.31390 0.27250 0.99437 -0.25000
H 	H 	0.33660 0.26690 0.01170 0.11500
N 	N 	0.33019 0.36030 0.08707 -0.29400
N 	N 	0.29716 0.33190 0.03604 -0.16100
C 	C 	0.79590 0.88160 0.07950 -0.00100
H 	H 	0.78820 0.90610 0.09310 -0.00100
C 	C 	0.77400 0.86330 0.04970 0.00500
H 	H 	0.74750 0.87090 0.04030 0.01700
C 	C 	0.83050 0.83113 0.06001 0.10800
H 	H 	0.85190 0.81160 0.05750 -0.03800
C 	C 	0.78870 0.80580 0.00220 0.20300
C 	C 	0.81390 0.77250 0.99437 -0.24700
H 	H 	0.83660 0.76690 0.01170 0.11400
N 	N 	0.83019 0.86030 0.08707 -0.29400
N 	N 	0.79716 0.83190 0.03604 -0.16100
C 	C 	0.79590 0.38160 0.57950 -0.00100
H 	H 	0.78820 0.40610 0.59310 -0.00100
C 	C 	0.77400 0.36330 0.54970 0.00500
H 	H 	0.74750 0.37090 0.54030 0.01700
C 	C 	0.83050 0.33113 0.56001 0.10800
H 	H 	0.85190 0.31160 0.55750 -0.03800
C 	C 	0.78870 0.30580 0.50220 0.20500
C 	C 	0.81390 0.27250 0.49437 -0.24900
H 	H 	0.83660 0.26690 0.51170 0.11500
N 	N 	0.83019 0.36030 0.58707 -0.29400
N 	N 	0.79716 0.33190 0.53604 -0.16100
C 	C 	0.79590 0.36840 0.17050 -0.00100
H 	H 	0.78820 0.34390 0.15690 -0.00100
C 	C 	0.77400 0.38670 0.20030 0.00500
H 	H 	0.74750 0.37910 0.20970 0.01700
C 	C 	0.83050 0.41887 0.18999 0.10800
H 	H 	0.85190 0.43840 0.19250 -0.03800
C 	C 	0.78870 0.44420 0.24780 0.20500
C 	C 	0.81390 0.47750 0.25563 -0.24900
H 	H 	0.83660 0.48310 0.23830 0.11500
N 	N 	0.83019 0.38970 0.16293 -0.29400
N 	N 	0.79716 0.41810 0.21396 -0.16100
C 	C 	0.79590 0.86840 0.67050 -0.00100
H 	H 	0.78820 0.84390 0.65690 -0.00100
C 	C 	0.77400 0.88670 0.70030 0.00500
H 	H 	0.74750 0.87910 0.70970 0.01700
C 	C 	0.83050 0.91887 0.68999 0.10800
H 	H 	0.85190 0.93840 0.69250 -0.03800
C 	C 	0.78870 0.94420 0.74780 0.20400
C 	C 	0.81390 0.97750 0.75563 -0.24800
H 	H 	0.83660 0.98310 0.73830 0.11400
N 	N 	0.83019 0.88970 0.66293 -0.29400
N 	N 	0.79716 0.91810 0.71396 -0.16100
C 	C 	0.29590 0.36840 0.67050 -0.00100
H 	H 	0.28820 0.34390 0.65690 -0.00100
C 	C 	0.27400 0.38670 0.70030 0.00500
H 	H 	0.24750 0.37910 0.70970 0.01700
C 	C 	0.33050 0.41887 0.68999 0.10800
H 	H 	0.35190 0.43840 0.69250 -0.03800
C 	C 	0.28870 0.44420 0.74780 0.20500
C 	C 	0.31390 0.47750 0.75563 -0.24900
H 	H 	0.33660 0.48310 0.73830 0.11500
N 	N 	0.33019 0.38970 0.66293 -0.29400
N 	N 	0.29716 0.41810 0.71396 -0.16100
C 	C 	0.29590 0.86840 0.17050 -0.00100
H 	H 	0.28820 0.84390 0.15690 -0.00100
C 	C 	0.27400 0.88670 0.20030 0.00500
H 	H 	0.24750 0.87910 0.20970 0.01700
C 	C 	0.33050 0.91887 0.18999 0.10800
H 	H 	0.35190 0.93840 0.19250 -0.03800
C 	C 	0.28870 0.94420 0.24780 0.20500
C 	C 	0.31390 0.97750 0.25563 -0.24900
H 	H 	0.33660 0.98310 0.23830 0.11500
N 	N 	0.33019 0.88970 0.16293 -0.29400
N 	N 	0.29716 0.91810 0.21396 -0.16100
C 	C 	0.95410 0.86840 0.07950 -0.00100
H 	H 	0.96180 0.84390 0.09310 -0.00100
C 	C 	0.97600 0.88670 0.04970 0.00500
H 	H 	0.00250 0.87910 0.04030 0.01700
C 	C 	0.91950 0.91887 0.06001 0.10800
H 	H 	0.89810 0.93840 0.05750 -0.03800
C 	C 	0.96130 0.94420 0.00220 0.20100
C 	C 	0.93610 0.97750 0.99437 -0.24300
H 	H 	0.91340 0.98310 0.01170 0.11300
N 	N 	0.91981 0.88970 0.08707 -0.29400
N 	N 	0.95284 0.91810 0.03604 -0.16100
C 	C 	0.95410 0.36840 0.57950 -0.00100
H 	H 	0.96180 0.34390 0.59310 -0.00100
C 	C 	0.97600 0.38670 0.54970 0.00500
H 	H 	0.00250 0.37910 0.54030 0.01700
C 	C 	0.91950 0.41887 0.56001 0.10800
H 	H 	0.89810 0.43840 0.55750 -0.03800
C 	C 	0.96130 0.44420 0.50220 0.20500
C 	C 	0.93610 0.47750 0.49437 -0.24900
H 	H 	0.91340 0.48310 0.51170 0.11500
N 	N 	0.91981 0.38970 0.58707 -0.29400
N 	N 	0.95284 0.41810 0.53604 -0.16100
C 	C 	0.45410 0.86840 0.57950 -0.00100
H 	H 	0.46180 0.84390 0.59310 -0.00100
C 	C 	0.47600 0.88670 0.54970 0.00500
H 	H 	0.50250 0.87910 0.54030 0.01700
C 	C 	0.41950 0.91887 0.56001 0.10800
H 	H 	0.39810 0.93840 0.55750 -0.03800
C 	C 	0.46130 0.94420 0.50220 0.20500
C 	C 	0.43610 0.97750 0.49437 -0.24900
H 	H 	0.41340 0.98310 0.51170 0.11500
N 	N 	0.41981 0.88970 0.58707 -0.29400
N 	N 	0.45284 0.91810 0.53604 -0.16100
C 	C 	0.45410 0.36840 0.07950 -0.00100
H 	H 	0.46180 0.34390 0.09310 -0.00100
C 	C 	0.47600 0.38670 0.04970 0.00500
H 	H 	0.50250 0.37910 0.04030 0.01700
C 	C 	0.41950 0.41887 0.06001 0.10800
H 	H 	0.39810 0.43840 0.05750 -0.03800
C 	C 	0.46130 0.44420 0.00220 0.20500
C 	C 	0.43610 0.47750 0.99437 -0.24900
H 	H 	0.41340 0.48310 0.01170 0.11500
N 	N 	0.41981 0.38970 0.08707 -0.29400
N 	N 	0.45284 0.41810 0.03604 -0.16100
C 	C 	0.88160 0.57950 0.29590 -0.00100
H 	H 	0.90610 0.59310 0.28820 -0.00100
C 	C 	0.86330 0.54970 0.27400 0.00500
H 	H 	0.87090 0.54030 0.24750 0.01700
C 	C 	0.83113 0.56001 0.33050 0.10800
H 	H 	0.81160 0.55750 0.35190 -0.03800
C 	C 	0.80580 0.50220 0.28870 0.20500
C 	C 	0.77250 0.49437 0.31390 -0.24900
H 	H 	0.76690 0.51170 0.33660 0.11500
N 	N 	0.86030 0.58707 0.33019 -0.29400
N 	N 	0.83190 0.53604 0.29716 -0.16100
C 	C 	0.88160 0.07950 0.79590 -0.00100
H 	H 	0.90610 0.09310 0.78820 -0.00100
C 	C 	0.86330 0.04970 0.77400 0.00500
H 	H 	0.87090 0.04030 0.74750 0.01700
C 	C 	0.83113 0.06001 0.83050 0.10800
H 	H 	0.81160 0.05750 0.85190 -0.03800
C 	C 	0.80580 0.00220 0.78870 0.20300
C 	C 	0.77250 0.99437 0.81390 -0.24700
H 	H 	0.76690 0.01170 0.83660 0.11400
N 	N 	0.86030 0.08707 0.83019 -0.29400
N 	N 	0.83190 0.03604 0.79716 -0.16100
C 	C 	0.38160 0.57950 0.79590 -0.00100
H 	H 	0.40610 0.59310 0.78820 -0.00100
C 	C 	0.36330 0.54970 0.77400 0.00500
H 	H 	0.37090 0.54030 0.74750 0.01700
C 	C 	0.33113 0.56001 0.83050 0.10800
H 	H 	0.31160 0.55750 0.85190 -0.03800
C 	C 	0.30580 0.50220 0.78870 0.20500
C 	C 	0.27250 0.49437 0.81390 -0.24900
H 	H 	0.26690 0.51170 0.83660 0.11500
N 	N 	0.36030 0.58707 0.83019 -0.29400
N 	N 	0.33190 0.53604 0.79716 -0.16100
C 	C 	0.38160 0.07950 0.29590 -0.00100
H 	H 	0.40610 0.09310 0.28820 -0.00100
C 	C 	0.36330 0.04970 0.27400 0.00500
H 	H 	0.37090 0.04030 0.24750 0.01700
C 	C 	0.33113 0.06001 0.33050 0.10800
H 	H 	0.31160 0.05750 0.35190 -0.03800
C 	C 	0.30580 0.00220 0.28870 0.20600
C 	C 	0.27250 0.99437 0.31390 -0.25000
H 	H 	0.26690 0.01170 0.33660 0.11500
N 	N 	0.36030 0.08707 0.33019 -0.29400
N 	N 	0.33190 0.03604 0.29716 -0.16100
C 	C 	0.38160 0.67050 0.45410 -0.00100
H 	H 	0.40610 0.65690 0.46180 -0.00100
C 	C 	0.36330 0.70030 0.47600 0.00500
H 	H 	0.37090 0.70970 0.50250 0.01700
C 	C 	0.33113 0.68999 0.41950 0.10800
H 	H 	0.31160 0.69250 0.39810 -0.03800
C 	C 	0.30580 0.74780 0.46130 0.20500
C 	C 	0.27250 0.75563 0.43610 -0.24900
H 	H 	0.26690 0.73830 0.41340 0.11500
N 	N 	0.36030 0.66293 0.41981 -0.29400
N 	N 	0.33190 0.71396 0.45284 -0.16100
C 	C 	0.38160 0.17050 0.95410 -0.00100
H 	H 	0.40610 0.15690 0.96180 -0.00100
C 	C 	0.36330 0.20030 0.97600 0.00500
H 	H 	0.37090 0.20970 0.00250 0.01800
C 	C 	0.33113 0.18999 0.91950 0.10800
H 	H 	0.31160 0.19250 0.89810 -0.03800
C 	C 	0.30580 0.24780 0.96130 0.20500
C 	C 	0.27250 0.25563 0.93610 -0.24900
H 	H 	0.26690 0.23830 0.91340 0.11500
N 	N 	0.36030 0.16293 0.91981 -0.29400
N 	N 	0.33190 0.21396 0.95284 -0.16100
C 	C 	0.88160 0.67050 0.95410 -0.00100
H 	H 	0.90610 0.65690 0.96180 -0.00100
C 	C 	0.86330 0.70030 0.97600 0.00600
H 	H 	0.87090 0.70970 0.00250 0.01700
C 	C 	0.83113 0.68999 0.91950 0.10800
H 	H 	0.81160 0.69250 0.89810 -0.03800
C 	C 	0.80580 0.74780 0.96130 0.20400
C 	C 	0.77250 0.75563 0.93610 -0.24800
H 	H 	0.76690 0.73830 0.91340 0.11400
N 	N 	0.86030 0.66293 0.91981 -0.29400
N 	N 	0.83190 0.71396 0.95284 -0.16100
C 	C 	0.88160 0.17050 0.45410 -0.00100
H 	H 	0.90610 0.15690 0.46180 -0.00100
C 	C 	0.86330 0.20030 0.47600 0.00500
H 	H 	0.87090 0.20970 0.50250 0.01700
C 	C 	0.83113 0.18999 0.41950 0.10800
H 	H 	0.81160 0.19250 0.39810 -0.03800
C 	C 	0.80580 0.24780 0.46130 0.20500
C 	C 	0.77250 0.25563 0.43610 -0.24900
H 	H 	0.76690 0.23830 0.41340 0.11500
N 	N 	0.86030 0.16293 0.41981 -0.29400
N 	N 	0.83190 0.21396 0.45284 -0.16100
C 	C 	0.86840 0.07950 0.95410 -0.00100
H 	H 	0.84390 0.09310 0.96180 -0.00100
C 	C 	0.88670 0.04970 0.97600 0.00500
H 	H 	0.87910 0.04030 0.00250 0.01700
C 	C 	0.91887 0.06001 0.91950 0.10800
H 	H 	0.93840 0.05750 0.89810 -0.03800
C 	C 	0.94420 0.00220 0.96130 0.20100
C 	C 	0.97750 0.99437 0.93610 -0.24300
H 	H 	0.98310 0.01170 0.91340 0.11300
N 	N 	0.88970 0.08707 0.91981 -0.29400
N 	N 	0.91810 0.03604 0.95284 -0.16100
C 	C 	0.86840 0.57950 0.45410 -0.00100
H 	H 	0.84390 0.59310 0.46180 -0.00100
C 	C 	0.88670 0.54970 0.47600 0.00500
H 	H 	0.87910 0.54030 0.50250 0.01700
C 	C 	0.91887 0.56001 0.41950 0.10800
H 	H 	0.93840 0.55750 0.39810 -0.03800
C 	C 	0.94420 0.50220 0.46130 0.20500
C 	C 	0.97750 0.49437 0.43610 -0.24900
H 	H 	0.98310 0.51170 0.41340 0.11500
N 	N 	0.88970 0.58707 0.41981 -0.29400
N 	N 	0.91810 0.53604 0.45284 -0.16100
C 	C 	0.36840 0.07950 0.45410 -0.00100
H 	H 	0.34390 0.09310 0.46180 -0.00100
C 	C 	0.38670 0.04970 0.47600 0.00500
H 	H 	0.37910 0.04030 0.50250 0.01700
C 	C 	0.41887 0.06001 0.41950 0.10800
H 	H 	0.43840 0.05750 0.39810 -0.03800
C 	C 	0.44420 0.00220 0.46130 0.20500
C 	C 	0.47750 0.99437 0.43610 -0.24900
H 	H 	0.48310 0.01170 0.41340 0.11500
N 	N 	0.38970 0.08707 0.41981 -0.29400
N 	N 	0.41810 0.03604 0.45284 -0.16100
C 	C 	0.36840 0.57950 0.95410 -0.00100
H 	H 	0.34390 0.59310 0.96180 -0.00100
C 	C 	0.38670 0.54970 0.97600 0.00500
H 	H 	0.37910 0.54030 0.00250 0.01700
C 	C 	0.41887 0.56001 0.91950 0.10800
H 	H 	0.43840 0.55750 0.89810 -0.03800
C 	C 	0.44420 0.50220 0.96130 0.20500
C 	C 	0.47750 0.49437 0.93610 -0.24900
H 	H 	0.48310 0.51170 0.91340 0.11500
N 	N 	0.38970 0.58707 0.91981 -0.29400
N 	N 	0.41810 0.53604 0.95284 -0.16100
C 	C 	0.36840 0.17050 0.79590 -0.00100
H 	H 	0.34390 0.15690 0.78820 -0.00100
C 	C 	0.38670 0.20030 0.77400 0.00500
H 	H 	0.37910 0.20970 0.74750 0.01700
C 	C 	0.41887 0.18999 0.83050 0.10800
H 	H 	0.43840 0.19250 0.85190 -0.03800
C 	C 	0.44420 0.24780 0.78870 0.20500
C 	C 	0.47750 0.25563 0.81390 -0.24900
H 	H 	0.48310 0.23830 0.83660 0.11500
N 	N 	0.38970 0.16293 0.83019 -0.29400
N 	N 	0.41810 0.21396 0.79716 -0.16100
C 	C 	0.36840 0.67050 0.29590 -0.00100
H 	H 	0.34390 0.65690 0.28820 -0.00100
C 	C 	0.38670 0.70030 0.27400 0.00500
H 	H 	0.37910 0.70970 0.24750 0.01700
C 	C 	0.41887 0.68999 0.33050 0.10800
H 	H 	0.43840 0.69250 0.35190 -0.03800
C 	C 	0.44420 0.74780 0.28870 0.20500
C 	C 	0.47750 0.75563 0.31390 -0.24900
H 	H 	0.48310 0.73830 0.33660 0.11500
N 	N 	0.38970 0.66293 0.33019 -0.29400
N 	N 	0.41810 0.71396 0.29716 -0.16100
C 	C 	0.86840 0.17050 0.29590 -0.00100
H 	H 	0.84390 0.15690 0.28820 -0.00100
C 	C 	0.88670 0.20030 0.27400 0.00500
H 	H 	0.87910 0.20970 0.24750 0.01700
C 	C 	0.91887 0.18999 0.33050 0.10800
H 	H 	0.93840 0.19250 0.35190 -0.03800
C 	C 	0.94420 0.24780 0.28870 0.20500
C 	C 	0.97750 0.25563 0.31390 -0.24900
H 	H 	0.98310 0.23830 0.33660 0.11500
N 	N 	0.88970 0.16293 0.33019 -0.29400
N 	N 	0.91810 0.21396 0.29716 -0.16100
C 	C 	0.86840 0.67050 0.79590 -0.00100
H 	H 	0.84390 0.65690 0.78820 -0.00100
C 	C 	0.88670 0.70030 0.77400 0.00500
H 	H 	0.87910 0.70970 0.74750 0.01700
C 	C 	0.91887 0.68999 0.83050 0.10800
H 	H 	0.93840 0.69250 0.85190 -0.03800
C 	C 	0.94420 0.74780 0.78870 0.20400
C 	C 	0.97750 0.75563 0.81390 -0.24800
H 	H 	0.98310 0.73830 0.83660 0.11400
N 	N 	0.88970 0.66293 0.83019 -0.29400
N 	N 	0.91810 0.71396 0.79716 -0.16100
C 	C 	0.29590 0.67050 0.86840 -0.00100
H 	H 	0.28820 0.65690 0.84390 -0.00100
C 	C 	0.27400 0.70030 0.88670 0.00500
H 	H 	0.24750 0.70970 0.87910 0.01700
C 	C 	0.33050 0.68999 0.91887 0.10800
H 	H 	0.35190 0.69250 0.93840 -0.03800
C 	C 	0.28870 0.74780 0.94420 0.20500
C 	C 	0.31390 0.75563 0.97750 -0.24900
H 	H 	0.33660 0.73830 0.98310 0.11500
N 	N 	0.33019 0.66293 0.88970 -0.29400
N 	N 	0.29716 0.71396 0.91810 -0.16100
C 	C 	0.29590 0.17050 0.36840 -0.00100
H 	H 	0.28820 0.15690 0.34390 -0.00100
C 	C 	0.27400 0.20030 0.38670 0.00500
H 	H 	0.24750 0.20970 0.37910 0.01700
C 	C 	0.33050 0.18999 0.41887 0.10800
H 	H 	0.35190 0.19250 0.43840 -0.03800
C 	C 	0.28870 0.24780 0.44420 0.20500
C 	C 	0.31390 0.25563 0.47750 -0.24900
H 	H 	0.33660 0.23830 0.48310 0.11500
N 	N 	0.33019 0.16293 0.38970 -0.29400
N 	N 	0.29716 0.21396 0.41810 -0.16100
C 	C 	0.79590 0.67050 0.36840 -0.00100
H 	H 	0.78820 0.65690 0.34390 -0.00100
C 	C 	0.77400 0.70030 0.38670 0.00500
H 	H 	0.74750 0.70970 0.37910 0.01700
C 	C 	0.83050 0.68999 0.41887 0.10800
H 	H 	0.85190 0.69250 0.43840 -0.03800
C 	C 	0.78870 0.74780 0.44420 0.20500
C 	C 	0.81390 0.75563 0.47750 -0.24900
H 	H 	0.83660 0.73830 0.48310 0.11500
N 	N 	0.83019 0.66293 0.38970 -0.29400
N 	N 	0.79716 0.71396 0.41810 -0.16100
C 	C 	0.79590 0.17050 0.86840 -0.00100
H 	H 	0.78820 0.15690 0.84390 -0.00100
C 	C 	0.77400 0.20030 0.88670 0.00500
H 	H 	0.74750 0.20970 0.87910 0.01700
C 	C 	0.83050 0.18999 0.91887 0.10800
H 	H 	0.85190 0.19250 0.93840 -0.03800
C 	C 	0.78870 0.24780 0.94420 0.20500
C 	C 	0.81390 0.25563 0.97750 -0.24900
H 	H 	0.83660 0.23830 0.98310 0.11500
N 	N 	0.83019 0.16293 0.88970 -0.29400
N 	N 	0.79716 0.21396 0.91810 -0.16100
C 	C 	0.45410 0.57950 0.36840 -0.00100
H 	H 	0.46180 0.59310 0.34390 -0.00100
C 	C 	0.47600 0.54970 0.38670 0.00500
H 	H 	0.50250 0.54030 0.37910 0.01700
C 	C 	0.41950 0.56001 0.41887 0.10800
H 	H 	0.39810 0.55750 0.43840 -0.03800
C 	C 	0.46130 0.50220 0.44420 0.20500
C 	C 	0.43610 0.49437 0.47750 -0.24900
H 	H 	0.41340 0.51170 0.48310 0.11500
N 	N 	0.41981 0.58707 0.38970 -0.29400
N 	N 	0.45284 0.53604 0.41810 -0.16100
C 	C 	0.45410 0.07950 0.86840 -0.00100
H 	H 	0.46180 0.09310 0.84390 -0.00100
C 	C 	0.47600 0.04970 0.88670 0.00500
H 	H 	0.50250 0.04030 0.87910 0.01700
C 	C 	0.41950 0.06001 0.91887 0.10800
H 	H 	0.39810 0.05750 0.93840 -0.03800
C 	C 	0.46130 0.00220 0.94420 0.20300
C 	C 	0.43610 0.99437 0.97750 -0.24700
H 	H 	0.41340 0.01170 0.98310 0.11400
N 	N 	0.41981 0.08707 0.88970 -0.29400
N 	N 	0.45284 0.03604 0.91810 -0.16100
C 	C 	0.95410 0.57950 0.86840 -0.00100
H 	H 	0.96180 0.59310 0.84390 -0.00100
C 	C 	0.97600 0.54970 0.88670 0.00600
H 	H 	0.00250 0.54030 0.87910 0.01700
C 	C 	0.91950 0.56001 0.91887 0.10800
H 	H 	0.89810 0.55750 0.93840 -0.03800
C 	C 	0.96130 0.50220 0.94420 0.20400
C 	C 	0.93610 0.49437 0.97750 -0.24700
H 	H 	0.91340 0.51170 0.98310 0.11400
N 	N 	0.91981 0.58707 0.88970 -0.29400
N 	N 	0.95284 0.53604 0.91810 -0.16100
C 	C 	0.95410 0.07950 0.36840 -0.00000
H 	H 	0.96180 0.09310 0.34390 -0.00100
C 	C 	0.97600 0.04970 0.38670 0.00400
H 	H 	0.00250 0.04030 0.37910 0.01800
C 	C 	0.91950 0.06001 0.41887 0.10800
H 	H 	0.89810 0.05750 0.43840 -0.03800
C 	C 	0.96130 0.00220 0.44420 0.20300
C 	C 	0.93610 0.99437 0.47750 -0.24700
H 	H 	0.91340 0.01170 0.48310 0.11400
N 	N 	0.91981 0.08707 0.38970 -0.29400
N 	N 	0.95284 0.03604 0.41810 -0.16100
C 	C 	0.95410 0.17050 0.88160 -0.00100
H 	H 	0.96180 0.15690 0.90610 -0.00100
C 	C 	0.97600 0.20030 0.86330 0.00500
H 	H 	0.00250 0.20970 0.87090 0.01700
C 	C 	0.91950 0.18999 0.83113 0.10800
H 	H 	0.89810 0.19250 0.81160 -0.03800
C 	C 	0.96130 0.24780 0.80580 0.20500
C 	C 	0.93610 0.25563 0.77250 -0.24900
H 	H 	0.91340 0.23830 0.76690 0.11500
N 	N 	0.91981 0.16293 0.86030 -0.29400
N 	N 	0.95284 0.21396 0.83190 -0.16100
C 	C 	0.95410 0.67050 0.38160 -0.00100
H 	H 	0.96180 0.65690 0.40610 -0.00100
C 	C 	0.97600 0.70030 0.36330 0.00500
H 	H 	0.00250 0.70970 0.37090 0.01700
C 	C 	0.91950 0.68999 0.33113 0.10800
H 	H 	0.89810 0.69250 0.31160 -0.03800
C 	C 	0.96130 0.74780 0.30580 0.20500
C 	C 	0.93610 0.75563 0.27250 -0.24900
H 	H 	0.91340 0.73830 0.26690 0.11500
N 	N 	0.91981 0.66293 0.36030 -0.29400
N 	N 	0.95284 0.71396 0.33190 -0.16100
C 	C 	0.45410 0.17050 0.38160 -0.00100
H 	H 	0.46180 0.15690 0.40610 -0.00100
C 	C 	0.47600 0.20030 0.36330 0.00500
H 	H 	0.50250 0.20970 0.37090 0.01700
C 	C 	0.41950 0.18999 0.33113 0.10800
H 	H 	0.39810 0.19250 0.31160 -0.03800
C 	C 	0.46130 0.24780 0.30580 0.20500
C 	C 	0.43610 0.25563 0.27250 -0.24900
H 	H 	0.41340 0.23830 0.26690 0.11500
N 	N 	0.41981 0.16293 0.36030 -0.29400
N 	N 	0.45284 0.21396 0.33190 -0.16100
C 	C 	0.45410 0.67050 0.88160 -0.00100
H 	H 	0.46180 0.65690 0.90610 -0.00100
C 	C 	0.47600 0.70030 0.86330 0.00500
H 	H 	0.50250 0.70970 0.87090 0.01700
C 	C 	0.41950 0.68999 0.83113 0.10800
H 	H 	0.39810 0.69250 0.81160 -0.03800
C 	C 	0.46130 0.74780 0.80580 0.20500
C 	C 	0.43610 0.75563 0.77250 -0.24900
H 	H 	0.41340 0.73830 0.76690 0.11500
N 	N 	0.41981 0.66293 0.86030 -0.29400
N 	N 	0.45284 0.71396 0.83190 -0.16100
C 	C 	0.79590 0.07950 0.38160 -0.00100
H 	H 	0.78820 0.09310 0.40610 -0.00100
C 	C 	0.77400 0.04970 0.36330 0.00500
H 	H 	0.74750 0.04030 0.37090 0.01700
C 	C 	0.83050 0.06001 0.33113 0.10800
H 	H 	0.85190 0.05750 0.31160 -0.03800
C 	C 	0.78870 0.00220 0.30580 0.20400
C 	C 	0.81390 0.99437 0.27250 -0.24800
H 	H 	0.83660 0.01170 0.26690 0.11500
N 	N 	0.83019 0.08707 0.36030 -0.29400
N 	N 	0.79716 0.03604 0.33190 -0.16100
C 	C 	0.79590 0.57950 0.88160 -0.00100
H 	H 	0.78820 0.59310 0.90610 -0.00100
C 	C 	0.77400 0.54970 0.86330 0.00500
H 	H 	0.74750 0.54030 0.87090 0.01700
C 	C 	0.83050 0.56001 0.83113 0.10800
H 	H 	0.85190 0.55750 0.81160 -0.03800
C 	C 	0.78870 0.50220 0.80580 0.20500
C 	C 	0.81390 0.49437 0.77250 -0.24900
H 	H 	0.83660 0.51170 0.76690 0.11500
N 	N 	0.83019 0.58707 0.86030 -0.29400
N 	N 	0.79716 0.53604 0.83190 -0.16100
C 	C 	0.29590 0.07950 0.88160 -0.00100
H 	H 	0.28820 0.09310 0.90610 -0.00100
C 	C 	0.27400 0.04970 0.86330 0.00500
H 	H 	0.24750 0.04030 0.87090 0.01700
C 	C 	0.33050 0.06001 0.83113 0.10800
H 	H 	0.35190 0.05750 0.81160 -0.03800
C 	C 	0.28870 0.00220 0.80580 0.20400
C 	C 	0.31390 0.99437 0.77250 -0.24800
H 	H 	0.33660 0.01170 0.76690 0.11500
N 	N 	0.33019 0.08707 0.86030 -0.29400
N 	N 	0.29716 0.03604 0.83190 -0.16100
C 	C 	0.29590 0.57950 0.38160 -0.00100
H 	H 	0.28820 0.59310 0.40610 -0.00100
C 	C 	0.27400 0.54970 0.36330 0.00500
H 	H 	0.24750 0.54030 0.37090 0.01700
C 	C 	0.33050 0.56001 0.33113 0.10800
H 	H 	0.35190 0.55750 0.31160 -0.03800
C 	C 	0.28870 0.50220 0.30580 0.20500
C 	C 	0.31390 0.49437 0.27250 -0.24900
H 	H 	0.33660 0.51170 0.26690 0.11500
N 	N 	0.33019 0.58707 0.36030 -0.29400
N 	N 	0.29716 0.53604 0.33190 -0.16100
C 	C 	0.86840 0.29590 0.67050 -0.00100
H 	H 	0.84390 0.28820 0.65690 -0.00100
C 	C 	0.88670 0.27400 0.70030 0.00500
H 	H 	0.87910 0.24750 0.70970 0.01700
C 	C 	0.91887 0.33050 0.68999 0.10800
H 	H 	0.93840 0.35190 0.69250 -0.03800
C 	C 	0.94420 0.28870 0.74780 0.20500
C 	C 	0.97750 0.31390 0.75563 -0.24900
H 	H 	0.98310 0.33660 0.73830 0.11500
N 	N 	0.88970 0.33019 0.66293 -0.29400
N 	N 	0.91810 0.29716 0.71396 -0.16100
C 	C 	0.86840 0.79590 0.17050 -0.00100
H 	H 	0.84390 0.78820 0.15690 -0.00100
C 	C 	0.88670 0.77400 0.20030 0.00500
H 	H 	0.87910 0.74750 0.20970 0.01700
C 	C 	0.91887 0.83050 0.18999 0.10800
H 	H 	0.93840 0.85190 0.19250 -0.03800
C 	C 	0.94420 0.78870 0.24780 0.20500
C 	C 	0.97750 0.81390 0.25563 -0.24900
H 	H 	0.98310 0.83660 0.23830 0.11500
N 	N 	0.88970 0.83019 0.16293 -0.29400
N 	N 	0.91810 0.79716 0.21396 -0.16100
C 	C 	0.36840 0.29590 0.17050 -0.00100
H 	H 	0.34390 0.28820 0.15690 -0.00100
C 	C 	0.38670 0.27400 0.20030 0.00500
H 	H 	0.37910 0.24750 0.20970 0.01700
C 	C 	0.41887 0.33050 0.18999 0.10800
H 	H 	0.43840 0.35190 0.19250 -0.03800
C 	C 	0.44420 0.28870 0.24780 0.20500
C 	C 	0.47750 0.31390 0.25563 -0.24900
H 	H 	0.48310 0.33660 0.23830 0.11500
N 	N 	0.38970 0.33019 0.16293 -0.29400
N 	N 	0.41810 0.29716 0.21396 -0.16100
C 	C 	0.36840 0.79590 0.67050 -0.00100
H 	H 	0.34390 0.78820 0.65690 -0.00100
C 	C 	0.38670 0.77400 0.70030 0.00500
H 	H 	0.37910 0.74750 0.70970 0.01700
C 	C 	0.41887 0.83050 0.68999 0.10800
H 	H 	0.43840 0.85190 0.69250 -0.03800
C 	C 	0.44420 0.78870 0.74780 0.20500
C 	C 	0.47750 0.81390 0.75563 -0.24900
H 	H 	0.48310 0.83660 0.73830 0.11500
N 	N 	0.38970 0.83019 0.66293 -0.29400
N 	N 	0.41810 0.79716 0.71396 -0.16100
C 	C 	0.36840 0.45410 0.57950 -0.00100
H 	H 	0.34390 0.46180 0.59310 -0.00100
C 	C 	0.38670 0.47600 0.54970 0.00500
H 	H 	0.37910 0.50250 0.54030 0.01700
C 	C 	0.41887 0.41950 0.56001 0.10800
H 	H 	0.43840 0.39810 0.55750 -0.03800
C 	C 	0.44420 0.46130 0.50220 0.20500
C 	C 	0.47750 0.43610 0.49437 -0.24900
H 	H 	0.48310 0.41340 0.51170 0.11500
N 	N 	0.38970 0.41981 0.58707 -0.29400
N 	N 	0.41810 0.45284 0.53604 -0.16100
C 	C 	0.36840 0.95410 0.07950 -0.00000
H 	H 	0.34390 0.96180 0.09310 -0.00100
C 	C 	0.38670 0.97600 0.04970 0.00400
H 	H 	0.37910 0.00250 0.04030 0.01800
C 	C 	0.41887 0.91950 0.06001 0.10800
H 	H 	0.43840 0.89810 0.05750 -0.03800
C 	C 	0.44420 0.96130 0.00220 0.20300
C 	C 	0.47750 0.93610 0.99437 -0.24700
H 	H 	0.48310 0.91340 0.01170 0.11400
N 	N 	0.38970 0.91981 0.08707 -0.29400
N 	N 	0.41810 0.95284 0.03604 -0.16100
C 	C 	0.86840 0.45410 0.07950 -0.00100
H 	H 	0.84390 0.46180 0.09310 -0.00100
C 	C 	0.88670 0.47600 0.04970 0.00500
H 	H 	0.87910 0.50250 0.04030 0.01700
C 	C 	0.91887 0.41950 0.06001 0.10800
H 	H 	0.93840 0.39810 0.05750 -0.03800
C 	C 	0.94420 0.46130 0.00220 0.20300
C 	C 	0.97750 0.43610 0.99437 -0.24700
H 	H 	0.98310 0.41340 0.01170 0.11400
N 	N 	0.88970 0.41981 0.08707 -0.29400
N 	N 	0.91810 0.45284 0.03604 -0.16100
C 	C 	0.86840 0.95410 0.57950 -0.00100
H 	H 	0.84390 0.96180 0.59310 -0.00100
C 	C 	0.88670 0.97600 0.54970 0.00600
H 	H 	0.87910 0.00250 0.54030 0.01700
C 	C 	0.91887 0.91950 0.56001 0.10800
H 	H 	0.93840 0.89810 0.55750 -0.03800
C 	C 	0.94420 0.96130 0.50220 0.20400
C 	C 	0.97750 0.93610 0.49437 -0.24700
H 	H 	0.98310 0.91340 0.51170 0.11400
N 	N 	0.88970 0.91981 0.58707 -0.29400
N 	N 	0.91810 0.95284 0.53604 -0.16100
C 	C 	0.88160 0.95410 0.17050 -0.00100
H 	H 	0.90610 0.96180 0.15690 -0.00100
C 	C 	0.86330 0.97600 0.20030 0.00500
H 	H 	0.87090 0.00250 0.20970 0.01700
C 	C 	0.83113 0.91950 0.18999 0.10800
H 	H 	0.81160 0.89810 0.19250 -0.03800
C 	C 	0.80580 0.96130 0.24780 0.20500
C 	C 	0.77250 0.93610 0.25563 -0.24900
H 	H 	0.76690 0.91340 0.23830 0.11500
N 	N 	0.86030 0.91981 0.16293 -0.29400
N 	N 	0.83190 0.95284 0.21396 -0.16100
C 	C 	0.88160 0.45410 0.67050 -0.00100
H 	H 	0.90610 0.46180 0.65690 -0.00100
C 	C 	0.86330 0.47600 0.70030 0.00500
H 	H 	0.87090 0.50250 0.70970 0.01700
C 	C 	0.83113 0.41950 0.68999 0.10800
H 	H 	0.81160 0.39810 0.69250 -0.03800
C 	C 	0.80580 0.46130 0.74780 0.20500
C 	C 	0.77250 0.43610 0.75563 -0.24900
H 	H 	0.76690 0.41340 0.73830 0.11500
N 	N 	0.86030 0.41981 0.66293 -0.29400
N 	N 	0.83190 0.45284 0.71396 -0.16100
C 	C 	0.38160 0.95410 0.67050 -0.00100
H 	H 	0.40610 0.96180 0.65690 -0.00100
C 	C 	0.36330 0.97600 0.70030 0.00500
H 	H 	0.37090 0.00250 0.70970 0.01700
C 	C 	0.33113 0.91950 0.68999 0.10800
H 	H 	0.31160 0.89810 0.69250 -0.03800
C 	C 	0.30580 0.96130 0.74780 0.20500
C 	C 	0.27250 0.93610 0.75563 -0.24900
H 	H 	0.26690 0.91340 0.73830 0.11500
N 	N 	0.36030 0.91981 0.66293 -0.29400
N 	N 	0.33190 0.95284 0.71396 -0.16100
C 	C 	0.38160 0.45410 0.17050 -0.00100
H 	H 	0.40610 0.46180 0.15690 -0.00100
C 	C 	0.36330 0.47600 0.20030 0.00500
H 	H 	0.37090 0.50250 0.20970 0.01700
C 	C 	0.33113 0.41950 0.18999 0.10800
H 	H 	0.31160 0.39810 0.19250 -0.03800
C 	C 	0.30580 0.46130 0.24780 0.20500
C 	C 	0.27250 0.43610 0.25563 -0.24900
H 	H 	0.26690 0.41340 0.23830 0.11500
N 	N 	0.36030 0.41981 0.16293 -0.29400
N 	N 	0.33190 0.45284 0.21396 -0.16100
C 	C 	0.38160 0.79590 0.07950 -0.00100
H 	H 	0.40610 0.78820 0.09310 -0.00100
C 	C 	0.36330 0.77400 0.04970 0.00500
H 	H 	0.37090 0.74750 0.04030 0.01700
C 	C 	0.33113 0.83050 0.06001 0.10800
H 	H 	0.31160 0.85190 0.05750 -0.03800
C 	C 	0.30580 0.78870 0.00220 0.20400
C 	C 	0.27250 0.81390 0.99437 -0.24800
H 	H 	0.26690 0.83660 0.01170 0.11500
N 	N 	0.36030 0.83019 0.08707 -0.29400
N 	N 	0.33190 0.79716 0.03604 -0.16100
C 	C 	0.38160 0.29590 0.57950 -0.00100
H 	H 	0.40610 0.28820 0.59310 -0.00100
C 	C 	0.36330 0.27400 0.54970 0.00500
H 	H 	0.37090 0.24750 0.54030 0.01700
C 	C 	0.33113 0.33050 0.56001 0.10800
H 	H 	0.31160 0.35190 0.55750 -0.03800
C 	C 	0.30580 0.28870 0.50220 0.20500
C 	C 	0.27250 0.31390 0.49437 -0.24900
H 	H 	0.26690 0.33660 0.51170 0.11500
N 	N 	0.36030 0.33019 0.58707 -0.29400
N 	N 	0.33190 0.29716 0.53604 -0.16100
C 	C 	0.88160 0.79590 0.57950 -0.00100
H 	H 	0.90610 0.78820 0.59310 -0.00100
C 	C 	0.86330 0.77400 0.54970 0.00500
H 	H 	0.87090 0.74750 0.54030 0.01700
C 	C 	0.83113 0.83050 0.56001 0.10800
H 	H 	0.81160 0.85190 0.55750 -0.03800
C 	C 	0.80580 0.78870 0.50220 0.20500
C 	C 	0.77250 0.81390 0.49437 -0.24900
H 	H 	0.76690 0.83660 0.51170 0.11500
N 	N 	0.86030 0.83019 0.58707 -0.29400
N 	N 	0.83190 0.79716 0.53604 -0.16100
C 	C 	0.88160 0.29590 0.07950 -0.00100
H 	H 	0.90610 0.28820 0.09310 -0.00100
C 	C 	0.86330 0.27400 0.04970 0.00500
H 	H 	0.87090 0.24750 0.04030 0.01700
C 	C 	0.83113 0.33050 0.06001 0.10800
H 	H 	0.81160 0.35190 0.05750 -0.03800
C 	C 	0.80580 0.28870 0.00220 0.20400
C 	C 	0.77250 0.31390 0.99437 -0.24800
H 	H 	0.76690 0.33660 0.01170 0.11500
N 	N 	0.86030 0.33019 0.08707 -0.29400
N 	N 	0.83190 0.29716 0.03604 -0.16100
C 	C 	0.67050 0.86840 0.29590 -0.00100
H 	H 	0.65690 0.84390 0.28820 -0.00100
C 	C 	0.70030 0.88670 0.27400 0.00500
H 	H 	0.70970 0.87910 0.24750 0.01700
C 	C 	0.68999 0.91887 0.33050 0.10800
H 	H 	0.69250 0.93840 0.35190 -0.03800
C 	C 	0.74780 0.94420 0.28870 0.20500
C 	C 	0.75563 0.97750 0.31390 -0.24900
H 	H 	0.73830 0.98310 0.33660 0.11500
N 	N 	0.66293 0.88970 0.33019 -0.29400
N 	N 	0.71396 0.91810 0.29716 -0.16100
C 	C 	0.67050 0.36840 0.79590 -0.00100
H 	H 	0.65690 0.34390 0.78820 -0.00100
C 	C 	0.70030 0.38670 0.77400 0.00500
H 	H 	0.70970 0.37910 0.74750 0.01700
C 	C 	0.68999 0.41887 0.83050 0.10800
H 	H 	0.69250 0.43840 0.85190 -0.03800
C 	C 	0.74780 0.44420 0.78870 0.20500
C 	C 	0.75563 0.47750 0.81390 -0.24900
H 	H 	0.73830 0.48310 0.83660 0.11500
N 	N 	0.66293 0.38970 0.83019 -0.29400
N 	N 	0.71396 0.41810 0.79716 -0.16100
C 	C 	0.17050 0.86840 0.79590 -0.00100
H 	H 	0.15690 0.84390 0.78820 -0.00100
C 	C 	0.20030 0.88670 0.77400 0.00500
H 	H 	0.20970 0.87910 0.74750 0.01700
C 	C 	0.18999 0.91887 0.83050 0.10800
H 	H 	0.19250 0.93840 0.85190 -0.03800
C 	C 	0.24780 0.94420 0.78870 0.20500
C 	C 	0.25563 0.97750 0.81390 -0.24900
H 	H 	0.23830 0.98310 0.83660 0.11500
N 	N 	0.16293 0.88970 0.83019 -0.29400
N 	N 	0.21396 0.91810 0.79716 -0.16100
C 	C 	0.17050 0.36840 0.29590 -0.00100
H 	H 	0.15690 0.34390 0.28820 -0.00100
C 	C 	0.20030 0.38670 0.27400 0.00500
H 	H 	0.20970 0.37910 0.24750 0.01700
C 	C 	0.18999 0.41887 0.33050 0.10800
H 	H 	0.19250 0.43840 0.35190 -0.03800
C 	C 	0.24780 0.44420 0.28870 0.20500
C 	C 	0.25563 0.47750 0.31390 -0.24900
H 	H 	0.23830 0.48310 0.33660 0.11500
N 	N 	0.16293 0.38970 0.33019 -0.29400
N 	N 	0.21396 0.41810 0.29716 -0.16100
C 	C 	0.57950 0.36840 0.45410 -0.00100
H 	H 	0.59310 0.34390 0.46180 -0.00100
C 	C 	0.54970 0.38670 0.47600 0.00500
H 	H 	0.54030 0.37910 0.50250 0.01700
C 	C 	0.56001 0.41887 0.41950 0.10800
H 	H 	0.55750 0.43840 0.39810 -0.03800
C 	C 	0.50220 0.44420 0.46130 0.20500
C 	C 	0.49437 0.47750 0.43610 -0.24900
H 	H 	0.51170 0.48310 0.41340 0.11500
N 	N 	0.58707 0.38970 0.41981 -0.29400
N 	N 	0.53604 0.41810 0.45284 -0.16100
C 	C 	0.57950 0.86840 0.95410 -0.00100
H 	H 	0.59310 0.84390 0.96180 -0.00100
C 	C 	0.54970 0.88670 0.97600 0.00600
H 	H 	0.54030 0.87910 0.00250 0.01700
C 	C 	0.56001 0.91887 0.91950 0.10800
H 	H 	0.55750 0.93840 0.89810 -0.03800
C 	C 	0.50220 0.94420 0.96130 0.20400
C 	C 	0.49437 0.97750 0.93610 -0.24700
H 	H 	0.51170 0.98310 0.91340 0.11400
N 	N 	0.58707 0.88970 0.91981 -0.29400
N 	N 	0.53604 0.91810 0.95284 -0.16100
C 	C 	0.07950 0.36840 0.95410 -0.00000
H 	H 	0.09310 0.34390 0.96180 -0.00100
C 	C 	0.04970 0.38670 0.97600 0.00400
H 	H 	0.04030 0.37910 0.00250 0.01800
C 	C 	0.06001 0.41887 0.91950 0.10800
H 	H 	0.05750 0.43840 0.89810 -0.03800
C 	C 	0.00220 0.44420 0.96130 0.20300
C 	C 	0.99437 0.47750 0.93610 -0.24700
H 	H 	0.01170 0.48310 0.91340 0.11400
N 	N 	0.08707 0.38970 0.91981 -0.29400
N 	N 	0.03604 0.41810 0.95284 -0.16100
C 	C 	0.07950 0.86840 0.45410 -0.00100
H 	H 	0.09310 0.84390 0.46180 -0.00100
C 	C 	0.04970 0.88670 0.47600 0.00500
H 	H 	0.04030 0.87910 0.50250 0.01700
C 	C 	0.06001 0.91887 0.41950 0.10800
H 	H 	0.05750 0.93840 0.39810 -0.03800
C 	C 	0.00220 0.94420 0.46130 0.20300
C 	C 	0.99437 0.97750 0.43610 -0.24700
H 	H 	0.01170 0.98310 0.41340 0.11400
N 	N 	0.08707 0.88970 0.41981 -0.29400
N 	N 	0.03604 0.91810 0.45284 -0.16100
C 	C 	0.17050 0.88160 0.95410 -0.00100
H 	H 	0.15690 0.90610 0.96180 -0.00100
C 	C 	0.20030 0.86330 0.97600 0.00500
H 	H 	0.20970 0.87090 0.00250 0.01700
C 	C 	0.18999 0.83113 0.91950 0.10800
H 	H 	0.19250 0.81160 0.89810 -0.03800
C 	C 	0.24780 0.80580 0.96130 0.20500
C 	C 	0.25563 0.77250 0.93610 -0.24900
H 	H 	0.23830 0.76690 0.91340 0.11500
N 	N 	0.16293 0.86030 0.91981 -0.29400
N 	N 	0.21396 0.83190 0.95284 -0.16100
C 	C 	0.17050 0.38160 0.45410 -0.00100
H 	H 	0.15690 0.40610 0.46180 -0.00100
C 	C 	0.20030 0.36330 0.47600 0.00500
H 	H 	0.20970 0.37090 0.50250 0.01700
C 	C 	0.18999 0.33113 0.41950 0.10800
H 	H 	0.19250 0.31160 0.39810 -0.03800
C 	C 	0.24780 0.30580 0.46130 0.20500
C 	C 	0.25563 0.27250 0.43610 -0.24900
H 	H 	0.23830 0.26690 0.41340 0.11500
N 	N 	0.16293 0.36030 0.41981 -0.29400
N 	N 	0.21396 0.33190 0.45284 -0.16100
C 	C 	0.67050 0.88160 0.45410 -0.00100
H 	H 	0.65690 0.90610 0.46180 -0.00100
C 	C 	0.70030 0.86330 0.47600 0.00500
H 	H 	0.70970 0.87090 0.50250 0.01700
C 	C 	0.68999 0.83113 0.41950 0.10800
H 	H 	0.69250 0.81160 0.39810 -0.03800
C 	C 	0.74780 0.80580 0.46130 0.20500
C 	C 	0.75563 0.77250 0.43610 -0.24900
H 	H 	0.73830 0.76690 0.41340 0.11500
N 	N 	0.66293 0.86030 0.41981 -0.29400
N 	N 	0.71396 0.83190 0.45284 -0.16100
C 	C 	0.67050 0.38160 0.95410 -0.00100
H 	H 	0.65690 0.40610 0.96180 -0.00100
C 	C 	0.70030 0.36330 0.97600 0.00500
H 	H 	0.70970 0.37090 0.00250 0.01700
C 	C 	0.68999 0.33113 0.91950 0.10800
H 	H 	0.69250 0.31160 0.89810 -0.03800
C 	C 	0.74780 0.30580 0.96130 0.20500
C 	C 	0.75563 0.27250 0.93610 -0.24900
H 	H 	0.73830 0.26690 0.91340 0.11500
N 	N 	0.66293 0.36030 0.91981 -0.29400
N 	N 	0.71396 0.33190 0.95284 -0.16100
C 	C 	0.07950 0.38160 0.79590 -0.00100
H 	H 	0.09310 0.40610 0.78820 -0.00100
C 	C 	0.04970 0.36330 0.77400 0.00500
H 	H 	0.04030 0.37090 0.74750 0.01700
C 	C 	0.06001 0.33113 0.83050 0.10800
H 	H 	0.05750 0.31160 0.85190 -0.03800
C 	C 	0.00220 0.30580 0.78870 0.20400
C 	C 	0.99437 0.27250 0.81390 -0.24800
H 	H 	0.01170 0.26690 0.83660 0.11500
N 	N 	0.08707 0.36030 0.83019 -0.29400
N 	N 	0.03604 0.33190 0.79716 -0.16100
C 	C 	0.07950 0.88160 0.29590 -0.00100
H 	H 	0.09310 0.90610 0.28820 -0.00100
C 	C 	0.04970 0.86330 0.27400 0.00500
H 	H 	0.04030 0.87090 0.24750 0.01700
C 	C 	0.06001 0.83113 0.33050 0.10800
H 	H 	0.05750 0.81160 0.35190 -0.03800
C 	C 	0.00220 0.80580 0.28870 0.20400
C 	C 	0.99437 0.77250 0.31390 -0.24800
H 	H 	0.01170 0.76690 0.33660 0.11500
N 	N 	0.08707 0.86030 0.33019 -0.29400
N 	N 	0.03604 0.83190 0.29716 -0.16100
C 	C 	0.57950 0.38160 0.29590 -0.00100
H 	H 	0.59310 0.40610 0.28820 -0.00100
C 	C 	0.54970 0.36330 0.27400 0.00500
H 	H 	0.54030 0.37090 0.24750 0.01700
C 	C 	0.56001 0.33113 0.33050 0.10800
H 	H 	0.55750 0.31160 0.35190 -0.03800
C 	C 	0.50220 0.30580 0.28870 0.20500
C 	C 	0.49437 0.27250 0.31390 -0.24900
H 	H 	0.51170 0.26690 0.33660 0.11500
N 	N 	0.58707 0.36030 0.33019 -0.29400
N 	N 	0.53604 0.33190 0.29716 -0.16100
C 	C 	0.57950 0.88160 0.79590 -0.00100
H 	H 	0.59310 0.90610 0.78820 -0.00100
C 	C 	0.54970 0.86330 0.77400 0.00500
H 	H 	0.54030 0.87090 0.74750 0.01700
C 	C 	0.56001 0.83113 0.83050 0.10800
H 	H 	0.55750 0.81160 0.85190 -0.03800
C 	C 	0.50220 0.80580 0.78870 0.20500
C 	C 	0.49437 0.77250 0.81390 -0.24900
H 	H 	0.51170 0.76690 0.83660 0.11500
N 	N 	0.58707 0.86030 0.83019 -0.29400
N 	N 	0.53604 0.83190 0.79716 -0.16100
Zn	Zn	0.12500 0.87500 0.87500 1.17400
Zn	Zn	0.12500 0.37500 0.37500 1.17400
Zn	Zn	0.12500 0.87500 0.37500 1.17400
Zn	Zn	0.62500 0.37500 0.87500 1.17400
Zn	Zn	0.62500 0.37500 0.37500 1.17400
Zn	Zn	0.62500 0.87500 0.87500 1.17400
Zn	Zn	0.37500 0.37500 0.62500 1.17400
Zn	Zn	0.37500 0.87500 0.62500 1.17400
Zn	Zn	0.37500 0.37500 0.12500 1.17400
Zn	Zn	0.87500 0.37500 0.12500 1.17400
Zn	Zn	0.87500 0.87500 0.62500 1.17400
Zn	Zn	0.87500 0.87500 0.12500 1.17400
Zn	Zn	0.87500 0.62500 0.37500 1.17400
Zn	Zn	0.37500 0.62500 0.37500 1.17400
Zn	Zn	0.87500 0.12500 0.87500 1.17400
Zn	Zn	0.37500 0.12500 0.87500 1.17400
Zn	Zn	0.37500 0.62500 0.87500 1.17400
Zn	Zn	0.37500 0.12500 0.37500 1.17400
Zn	Zn	0.87500 0.12500 0.37500 1.17400
Zn	Zn	0.87500 0.62500 0.87500 1.17400
Zn	Zn	0.87500 0.37500 0.62500 1.17400
Zn	Zn	0.37500 0.87500 0.12500 1.17400
Zn	Zn	0.62500 0.87500 0.37500 1.17400
Zn	Zn	0.12500 0.37500 0.87500 1.17400
