data_crystal

_cell_length_a 21.70300
_cell_length_b 20.06200
_cell_length_c 22.12100
_cell_angle_alpha 90.00000
_cell_angle_beta  108.79900
_cell_angle_gamma 90.00000

_symmetry_space_group_name_	'P 1'
_symmetry_space_group_name_H-M	'P 1'

loop_
_symmetry_equiv_pos_as_xyz
  x,y,z

loop_
_atom_site_label
_atom_site_type_symbol
_atom_site_fract_x
_atom_site_fract_y
_atom_site_fract_z
_atom_site_charge
Zn	Zn	0.13937 0.66255 0.94414 1.17400
Zn	Zn	0.60202 0.86219 0.74017 1.17400
C 	C 	0.27805 0.42294 0.02273 0.19900
C 	C 	0.29995 0.40663 0.97331 -0.24800
H 	H 	0.30070 0.43870 0.94200 0.11300
C 	C 	0.32133 0.34090 0.97001 0.19100
C 	C 	0.32219 0.29411 0.01674 -0.24400
H 	H 	0.33820 0.25030 0.01520 0.11400
C 	C 	0.29903 0.31318 0.06545 0.19600
C 	C 	0.27652 0.37732 0.06981 -0.24600
H 	H 	0.26070 0.38960 0.10360 0.11600
C 	C 	0.21487 0.52510 0.97968 0.09000
H 	H 	0.19870 0.51080 0.93650 -0.01400
C 	C 	0.23513 0.58377 0.06562 -0.00300
H 	H 	0.23530 0.61960 0.09380 0.01600
C 	C 	0.26861 0.52636 0.08293 0.00600
H 	H 	0.29550 0.51420 0.12460 0.02400
C 	C 	0.36852 0.36260 0.88340 0.09800
H 	H 	0.37530 0.40910 0.89070 -0.03000
C 	C 	0.36491 0.26281 0.84424 -0.01800
H 	H 	0.36890 0.22690 0.81780 0.00900
C 	C 	0.34263 0.25792 0.89432 0.01000
H 	H 	0.32840 0.21850 0.90970 0.02100
C 	C 	0.34999 0.22636 0.14500 0.09300
H 	H 	0.38930 0.22270 0.13510 -0.02400
C 	C 	0.27518 0.21256 0.18958 -0.00600
H 	H 	0.25320 0.19650 0.21750 0.00700
C 	C 	0.25106 0.25817 0.14274 0.00100
H 	H 	0.21000 0.27980 0.13160 0.02600
C 	C 	0.04556 0.64368 0.14492 0.19300
C 	C 	0.01555 0.58154 0.13485 -0.23900
H 	H 	0.01020 0.55770 0.09640 0.11000
C 	C 	0.99352 0.55491 0.18216 0.19000
C 	C 	0.00012 0.58971 0.23823 -0.24100
H 	H 	0.98380 0.57180 0.26980 0.11300
C 	C 	0.03069 0.65049 0.24695 0.19200
C 	C 	0.05350 0.67941 0.20056 -0.23900
H 	H 	0.07370 0.72200 0.20700 0.11300
C 	C 	0.09105 0.64176 0.05534 0.09000
H 	H 	0.09660 0.59490 0.05400 -0.02100
C 	C 	0.08913 0.74761 0.03464 -0.00800
H 	H 	0.09390 0.78880 0.01540 0.01400
C 	C 	0.06430 0.74056 0.08272 0.00900
H 	H 	0.04860 0.77510 0.10330 0.02400
C 	C 	0.93225 0.46092 0.11602 0.09800
H 	H 	0.92990 0.47880 0.07560 -0.02800
C 	C 	0.92089 0.39675 0.19021 -0.00300
H 	H 	0.90830 0.36000 0.21070 0.01100
C 	C 	0.95481 0.44996 0.22019 0.00600
H 	H 	0.97050 0.45770 0.26490 0.02300
C 	C 	0.08948 0.72379 0.33797 0.08900
H 	H 	0.12940 0.72590 0.32890 -0.01200
C 	C 	0.01552 0.73948 0.38178 0.00400
H 	H 	0.99370 0.75480 0.41010 0.01200
C 	C 	0.98951 0.69781 0.33165 -0.00000
H 	H 	0.94690 0.67940 0.31820 0.02600
C 	C 	0.32786 0.70216 0.83517 0.19100
C 	C 	0.36030 0.75571 0.81905 -0.23900
H 	H 	0.35910 0.79890 0.83620 0.11300
C 	C 	0.39468 0.74337 0.77654 0.18800
C 	C 	0.39561 0.68086 0.74971 -0.23900
H 	H 	0.41820 0.67360 0.71990 0.11100
C 	C 	0.36241 0.62918 0.76787 0.19100
C 	C 	0.32849 0.63855 0.81035 -0.24400
H 	H 	0.30630 0.60270 0.82230 0.11200
C 	C 	0.23997 0.67827 0.88072 0.09200
H 	H 	0.22080 0.64260 0.85280 -0.02700
C 	C 	0.26062 0.75252 0.95557 0.00000
H 	H 	0.25740 0.77820 0.99050 0.00700
C 	C 	0.30630 0.76037 0.92763 0.00300
H 	H 	0.34060 0.79210 0.93850 0.02400
C 	C 	0.49042 0.78810 0.75507 0.08800
H 	H 	0.51350 0.74710 0.76050 -0.02700
C 	C 	0.46376 0.89282 0.73821 -0.01000
H 	H 	0.46600 0.93900 0.72960 0.01000
C 	C 	0.41312 0.86215 0.74898 0.00700
H 	H 	0.37350 0.88220 0.74910 0.02300
C 	C 	0.37442 0.50765 0.77518 0.09500
H 	H 	0.37660 0.50410 0.81870 -0.02900
C 	C 	0.37537 0.48346 0.67992 -0.00900
H 	H 	0.37860 0.45920 0.64420 0.00300
C 	C 	0.36500 0.55009 0.68138 0.00700
H 	H 	0.35900 0.58070 0.64720 0.02200
N 	N 	0.20057 0.58302 0.00101 -0.24100
N 	N 	0.25578 0.48904 0.02799 -0.15500
N 	N 	0.38121 0.32940 0.83737 -0.28800
N 	N 	0.34449 0.32168 0.91888 -0.15700
N 	N 	0.33673 0.19280 0.19065 -0.28100
N 	N 	0.29961 0.26677 0.11415 -0.15500
N 	N 	0.10675 0.68539 0.01742 -0.27400
N 	N 	0.06603 0.67372 0.09628 -0.15500
N 	N 	0.90701 0.40386 0.12464 -0.27400
N 	N 	0.96234 0.49108 0.17315 -0.15500
N 	N 	0.07761 0.75613 0.38561 -0.23600
N 	N 	0.03734 0.68774 0.30426 -0.15200
N 	N 	0.21858 0.70127 0.92616 -0.27100
N 	N 	0.29360 0.71301 0.87951 -0.15300
N 	N 	0.51243 0.84610 0.74173 -0.28500
N 	N 	0.43012 0.79605 0.75974 -0.15400
N 	N 	0.38042 0.45686 0.73863 -0.29100
N 	N 	0.36483 0.56430 0.74172 -0.15700
Zn	Zn	0.86063 0.16255 0.55586 1.17400
Zn	Zn	0.39798 0.36219 0.75982 1.17400
C 	C 	0.72195 0.92294 0.47727 0.19800
C 	C 	0.70005 0.90663 0.52669 -0.24700
H 	H 	0.69930 0.93870 0.55800 0.11200
C 	C 	0.67867 0.84090 0.52999 0.19100
C 	C 	0.67781 0.79411 0.48326 -0.24400
H 	H 	0.66180 0.75030 0.48480 0.11400
C 	C 	0.70097 0.81318 0.43455 0.19600
C 	C 	0.72348 0.87732 0.43019 -0.24600
H 	H 	0.73930 0.88960 0.39640 0.11600
C 	C 	0.78513 0.02510 0.52032 0.09200
H 	H 	0.80130 0.01080 0.56350 -0.01500
C 	C 	0.76487 0.08377 0.43438 -0.00400
H 	H 	0.76470 0.11960 0.40620 0.01500
C 	C 	0.73139 0.02636 0.41707 0.00700
H 	H 	0.70450 0.01420 0.37540 0.02400
C 	C 	0.63148 0.86260 0.61660 0.09800
H 	H 	0.62470 0.90910 0.60930 -0.03000
C 	C 	0.63509 0.76281 0.65576 -0.01800
H 	H 	0.63110 0.72690 0.68220 0.00900
C 	C 	0.65737 0.75792 0.60568 0.01000
H 	H 	0.67160 0.71850 0.59030 0.02100
C 	C 	0.65001 0.72636 0.35500 0.09300
H 	H 	0.61070 0.72270 0.36490 -0.02400
C 	C 	0.72482 0.71256 0.31042 -0.00600
H 	H 	0.74680 0.69650 0.28250 0.00700
C 	C 	0.74894 0.75817 0.35726 0.00100
H 	H 	0.79000 0.77980 0.36840 0.02600
C 	C 	0.95444 0.14368 0.35508 0.19400
C 	C 	0.98445 0.08154 0.36515 -0.24100
H 	H 	0.98980 0.05770 0.40360 0.11100
C 	C 	0.00648 0.05491 0.31784 0.19200
C 	C 	0.99988 0.08971 0.26177 -0.24400
H 	H 	0.01620 0.07180 0.23020 0.11500
C 	C 	0.96931 0.15049 0.25305 0.19300
C 	C 	0.94650 0.17941 0.29944 -0.24000
H 	H 	0.92630 0.22200 0.29300 0.11300
C 	C 	0.90895 0.14176 0.44466 0.09000
H 	H 	0.90340 0.09490 0.44600 -0.02200
C 	C 	0.91087 0.24761 0.46536 -0.00800
H 	H 	0.90610 0.28880 0.48460 0.01300
C 	C 	0.93570 0.24056 0.41728 0.00900
H 	H 	0.95140 0.27510 0.39670 0.02400
C 	C 	0.06775 0.96092 0.38398 0.09800
H 	H 	0.07010 0.97880 0.42440 -0.02700
C 	C 	0.07911 0.89675 0.30979 -0.00300
H 	H 	0.09170 0.86000 0.28930 0.01200
C 	C 	0.04519 0.94996 0.27981 0.00600
H 	H 	0.02950 0.95770 0.23510 0.02400
C 	C 	0.91052 0.22379 0.16203 0.08900
H 	H 	0.87060 0.22590 0.17110 -0.01200
C 	C 	0.98448 0.23948 0.11822 -0.00300
H 	H 	0.00630 0.25480 0.08990 0.01600
C 	C 	0.01049 0.19781 0.16835 0.00600
H 	H 	0.05310 0.17940 0.18180 0.02400
C 	C 	0.67214 0.20216 0.66483 0.19100
C 	C 	0.63970 0.25571 0.68095 -0.23900
H 	H 	0.64090 0.29890 0.66380 0.11300
C 	C 	0.60532 0.24337 0.72346 0.18800
C 	C 	0.60439 0.18086 0.75029 -0.23900
H 	H 	0.58180 0.17360 0.78010 0.11100
C 	C 	0.63759 0.12918 0.73213 0.19100
C 	C 	0.67151 0.13855 0.68965 -0.24400
H 	H 	0.69370 0.10270 0.67770 0.11200
C 	C 	0.76003 0.17827 0.61928 0.09200
H 	H 	0.77920 0.14260 0.64720 -0.02600
C 	C 	0.73938 0.25252 0.54443 0.00000
H 	H 	0.74260 0.27820 0.50950 0.00700
C 	C 	0.69370 0.26037 0.57237 0.00300
H 	H 	0.65940 0.29210 0.56150 0.02400
C 	C 	0.50958 0.28810 0.74493 0.08800
H 	H 	0.48650 0.24710 0.73950 -0.02700
C 	C 	0.53624 0.39282 0.76179 -0.01000
H 	H 	0.53400 0.43900 0.77040 0.01000
C 	C 	0.58688 0.36215 0.75102 0.00700
H 	H 	0.62650 0.38220 0.75090 0.02300
C 	C 	0.62558 0.00765 0.72482 0.09500
H 	H 	0.62340 0.00410 0.68130 -0.02900
C 	C 	0.62463 0.98346 0.82008 -0.01100
H 	H 	0.62140 0.95920 0.85580 0.00300
C 	C 	0.63500 0.05009 0.81862 0.00900
H 	H 	0.64100 0.08070 0.85280 0.02100
N 	N 	0.79943 0.08302 0.49899 -0.24200
N 	N 	0.74422 0.98904 0.47201 -0.15600
N 	N 	0.61879 0.82940 0.66263 -0.28800
N 	N 	0.65551 0.82168 0.58112 -0.15700
N 	N 	0.66327 0.69280 0.30935 -0.28100
N 	N 	0.70039 0.76677 0.38585 -0.15500
N 	N 	0.89325 0.18539 0.48258 -0.27400
N 	N 	0.93397 0.17372 0.40372 -0.15500
N 	N 	0.09299 0.90386 0.37536 -0.27400
N 	N 	0.03766 0.99108 0.32685 -0.15400
N 	N 	0.92239 0.25613 0.11439 -0.23500
N 	N 	0.96266 0.18774 0.19574 -0.15400
N 	N 	0.78142 0.20127 0.57384 -0.27100
N 	N 	0.70640 0.21301 0.62049 -0.15300
N 	N 	0.48757 0.34610 0.75827 -0.28500
N 	N 	0.56988 0.29605 0.74026 -0.15400
N 	N 	0.61958 0.95686 0.76137 -0.29100
N 	N 	0.63517 0.06430 0.75828 -0.15700
Zn	Zn	0.86063 0.33745 0.05586 1.17400
Zn	Zn	0.39798 0.13781 0.25982 1.17400
C 	C 	0.72195 0.57706 0.97727 0.19900
C 	C 	0.70005 0.59337 0.02669 -0.24800
H 	H 	0.69930 0.56130 0.05800 0.11300
C 	C 	0.67867 0.65910 0.02999 0.19100
C 	C 	0.67781 0.70589 0.98326 -0.24400
H 	H 	0.66180 0.74970 0.98480 0.11400
C 	C 	0.70097 0.68682 0.93455 0.19600
C 	C 	0.72348 0.62268 0.93019 -0.24600
H 	H 	0.73930 0.61040 0.89640 0.11600
C 	C 	0.78513 0.47490 0.02032 0.09000
H 	H 	0.80130 0.48920 0.06350 -0.01400
C 	C 	0.76487 0.41623 0.93438 -0.00300
H 	H 	0.76470 0.38040 0.90620 0.01600
C 	C 	0.73139 0.47364 0.91707 0.00600
H 	H 	0.70450 0.48580 0.87540 0.02400
C 	C 	0.63148 0.63740 0.11660 0.09800
H 	H 	0.62470 0.59090 0.10930 -0.03000
C 	C 	0.63509 0.73719 0.15576 -0.01800
H 	H 	0.63110 0.77310 0.18220 0.00900
C 	C 	0.65737 0.74208 0.10568 0.01000
H 	H 	0.67160 0.78150 0.09030 0.02100
C 	C 	0.65001 0.77364 0.85500 0.09300
H 	H 	0.61070 0.77730 0.86490 -0.02400
C 	C 	0.72482 0.78744 0.81042 -0.00600
H 	H 	0.74680 0.80350 0.78250 0.00700
C 	C 	0.74894 0.74183 0.85726 0.00100
H 	H 	0.79000 0.72020 0.86840 0.02600
C 	C 	0.95444 0.35632 0.85508 0.19300
C 	C 	0.98445 0.41846 0.86515 -0.23900
H 	H 	0.98980 0.44230 0.90360 0.11000
C 	C 	0.00648 0.44509 0.81784 0.19000
C 	C 	0.99988 0.41029 0.76177 -0.24100
H 	H 	0.01620 0.42820 0.73020 0.11300
C 	C 	0.96931 0.34951 0.75305 0.19200
C 	C 	0.94650 0.32059 0.79944 -0.23900
H 	H 	0.92630 0.27800 0.79300 0.11300
C 	C 	0.90895 0.35824 0.94466 0.09000
H 	H 	0.90340 0.40510 0.94600 -0.02100
C 	C 	0.91087 0.25239 0.96536 -0.00800
H 	H 	0.90610 0.21120 0.98460 0.01400
C 	C 	0.93570 0.25944 0.91728 0.00900
H 	H 	0.95140 0.22490 0.89670 0.02400
C 	C 	0.06775 0.53908 0.88398 0.09800
H 	H 	0.07010 0.52120 0.92440 -0.02800
C 	C 	0.07911 0.60325 0.80979 -0.00300
H 	H 	0.09170 0.64000 0.78930 0.01100
C 	C 	0.04519 0.55004 0.77981 0.00600
H 	H 	0.02950 0.54230 0.73510 0.02300
C 	C 	0.91052 0.27621 0.66203 0.08900
H 	H 	0.87060 0.27410 0.67110 -0.01200
C 	C 	0.98448 0.26052 0.61822 0.00400
H 	H 	0.00630 0.24520 0.58990 0.01200
C 	C 	0.01049 0.30219 0.66835 -0.00000
H 	H 	0.05310 0.32060 0.68180 0.02600
C 	C 	0.67214 0.29784 0.16483 0.19100
C 	C 	0.63970 0.24429 0.18095 -0.23900
H 	H 	0.64090 0.20110 0.16380 0.11300
C 	C 	0.60532 0.25663 0.22346 0.18800
C 	C 	0.60439 0.31914 0.25029 -0.23900
H 	H 	0.58180 0.32640 0.28010 0.11100
C 	C 	0.63759 0.37082 0.23213 0.19100
C 	C 	0.67151 0.36145 0.18965 -0.24400
H 	H 	0.69370 0.39730 0.17770 0.11200
C 	C 	0.76003 0.32173 0.11928 0.09200
H 	H 	0.77920 0.35740 0.14720 -0.02700
C 	C 	0.73938 0.24748 0.04443 0.00000
H 	H 	0.74260 0.22180 0.00950 0.00700
C 	C 	0.69370 0.23963 0.07237 0.00300
H 	H 	0.65940 0.20790 0.06150 0.02400
C 	C 	0.50958 0.21190 0.24493 0.08800
H 	H 	0.48650 0.25290 0.23950 -0.02700
C 	C 	0.53624 0.10718 0.26179 -0.01000
H 	H 	0.53400 0.06100 0.27040 0.01000
C 	C 	0.58688 0.13785 0.25102 0.00700
H 	H 	0.62650 0.11780 0.25090 0.02300
C 	C 	0.62558 0.49235 0.22482 0.09500
H 	H 	0.62340 0.49590 0.18130 -0.02900
C 	C 	0.62463 0.51654 0.32008 -0.00900
H 	H 	0.62140 0.54080 0.35580 0.00300
C 	C 	0.63500 0.44991 0.31862 0.00700
H 	H 	0.64100 0.41930 0.35280 0.02200
N 	N 	0.79943 0.41698 0.99899 -0.24100
N 	N 	0.74422 0.51096 0.97201 -0.15500
N 	N 	0.61879 0.67060 0.16263 -0.28800
N 	N 	0.65551 0.67832 0.08112 -0.15700
N 	N 	0.66327 0.80720 0.80935 -0.28100
N 	N 	0.70039 0.73323 0.88585 -0.15500
N 	N 	0.89325 0.31461 0.98258 -0.27400
N 	N 	0.93397 0.32628 0.90372 -0.15500
N 	N 	0.09299 0.59614 0.87536 -0.27400
N 	N 	0.03766 0.50892 0.82685 -0.15500
N 	N 	0.92239 0.24387 0.61439 -0.23600
N 	N 	0.96266 0.31226 0.69574 -0.15200
N 	N 	0.78142 0.29873 0.07384 -0.27100
N 	N 	0.70640 0.28699 0.12049 -0.15300
N 	N 	0.48757 0.15390 0.25827 -0.28500
N 	N 	0.56988 0.20395 0.24026 -0.15400
N 	N 	0.61958 0.54314 0.26137 -0.29100
N 	N 	0.63517 0.43570 0.25828 -0.15700
Zn	Zn	0.13937 0.83745 0.44414 1.17400
Zn	Zn	0.60202 0.63781 0.24017 1.17400
C 	C 	0.27805 0.07706 0.52273 0.19800
C 	C 	0.29995 0.09337 0.47331 -0.24700
H 	H 	0.30070 0.06130 0.44200 0.11200
C 	C 	0.32133 0.15910 0.47001 0.19100
C 	C 	0.32219 0.20589 0.51674 -0.24400
H 	H 	0.33820 0.24970 0.51520 0.11400
C 	C 	0.29903 0.18682 0.56545 0.19600
C 	C 	0.27652 0.12268 0.56981 -0.24600
H 	H 	0.26070 0.11040 0.60360 0.11600
C 	C 	0.21487 0.97490 0.47968 0.09200
H 	H 	0.19870 0.98920 0.43650 -0.01500
C 	C 	0.23513 0.91623 0.56562 -0.00400
H 	H 	0.23530 0.88040 0.59380 0.01500
C 	C 	0.26861 0.97364 0.58293 0.00700
H 	H 	0.29550 0.98580 0.62460 0.02400
C 	C 	0.36852 0.13740 0.38340 0.09800
H 	H 	0.37530 0.09090 0.39070 -0.03000
C 	C 	0.36491 0.23719 0.34424 -0.01800
H 	H 	0.36890 0.27310 0.31780 0.00900
C 	C 	0.34263 0.24208 0.39432 0.01000
H 	H 	0.32840 0.28150 0.40970 0.02100
C 	C 	0.34999 0.27364 0.64500 0.09300
H 	H 	0.38930 0.27730 0.63510 -0.02400
C 	C 	0.27518 0.28744 0.68958 -0.00600
H 	H 	0.25320 0.30350 0.71750 0.00700
C 	C 	0.25106 0.24183 0.64274 0.00100
H 	H 	0.21000 0.22020 0.63160 0.02600
C 	C 	0.04556 0.85632 0.64492 0.19400
C 	C 	0.01555 0.91846 0.63485 -0.24100
H 	H 	0.01020 0.94230 0.59640 0.11100
C 	C 	0.99352 0.94509 0.68216 0.19200
C 	C 	0.00012 0.91029 0.73823 -0.24400
H 	H 	0.98380 0.92820 0.76980 0.11500
C 	C 	0.03069 0.84951 0.74695 0.19300
C 	C 	0.05350 0.82059 0.70056 -0.24000
H 	H 	0.07370 0.77800 0.70700 0.11300
C 	C 	0.09105 0.85824 0.55534 0.09000
H 	H 	0.09660 0.90510 0.55400 -0.02200
C 	C 	0.08913 0.75239 0.53464 -0.00800
H 	H 	0.09390 0.71120 0.51540 0.01300
C 	C 	0.06430 0.75944 0.58272 0.00900
H 	H 	0.04860 0.72490 0.60330 0.02400
C 	C 	0.93225 0.03908 0.61602 0.09800
H 	H 	0.92990 0.02120 0.57560 -0.02700
C 	C 	0.92089 0.10325 0.69021 -0.00300
H 	H 	0.90830 0.14000 0.71070 0.01200
C 	C 	0.95481 0.05004 0.72019 0.00600
H 	H 	0.97050 0.04230 0.76490 0.02400
C 	C 	0.08948 0.77621 0.83797 0.08900
H 	H 	0.12940 0.77410 0.82890 -0.01200
C 	C 	0.01552 0.76052 0.88178 -0.00300
H 	H 	0.99370 0.74520 0.91010 0.01600
C 	C 	0.98951 0.80219 0.83165 0.00600
H 	H 	0.94690 0.82060 0.81820 0.02400
C 	C 	0.32786 0.79784 0.33517 0.19100
C 	C 	0.36030 0.74429 0.31905 -0.23900
H 	H 	0.35910 0.70110 0.33620 0.11300
C 	C 	0.39468 0.75663 0.27654 0.18800
C 	C 	0.39561 0.81914 0.24971 -0.23900
H 	H 	0.41820 0.82640 0.21990 0.11100
C 	C 	0.36241 0.87082 0.26787 0.19100
C 	C 	0.32849 0.86145 0.31035 -0.24400
H 	H 	0.30630 0.89730 0.32230 0.11200
C 	C 	0.23997 0.82173 0.38072 0.09200
H 	H 	0.22080 0.85740 0.35280 -0.02600
C 	C 	0.26062 0.74748 0.45557 0.00000
H 	H 	0.25740 0.72180 0.49050 0.00700
C 	C 	0.30630 0.73963 0.42763 0.00300
H 	H 	0.34060 0.70790 0.43850 0.02400
C 	C 	0.49042 0.71190 0.25507 0.08800
H 	H 	0.51350 0.75290 0.26050 -0.02700
C 	C 	0.46376 0.60718 0.23821 -0.01000
H 	H 	0.46600 0.56100 0.22960 0.01000
C 	C 	0.41312 0.63785 0.24898 0.00700
H 	H 	0.37350 0.61780 0.24910 0.02300
C 	C 	0.37442 0.99235 0.27518 0.09500
H 	H 	0.37660 0.99590 0.31870 -0.02900
C 	C 	0.37537 0.01654 0.17992 -0.01100
H 	H 	0.37860 0.04080 0.14420 0.00300
C 	C 	0.36500 0.94991 0.18138 0.00900
H 	H 	0.35900 0.91930 0.14720 0.02100
N 	N 	0.20057 0.91698 0.50101 -0.24200
N 	N 	0.25578 0.01096 0.52799 -0.15600
N 	N 	0.38121 0.17060 0.33737 -0.28800
N 	N 	0.34449 0.17832 0.41888 -0.15700
N 	N 	0.33673 0.30720 0.69065 -0.28100
N 	N 	0.29961 0.23323 0.61415 -0.15500
N 	N 	0.10675 0.81461 0.51742 -0.27400
N 	N 	0.06603 0.82628 0.59628 -0.15500
N 	N 	0.90701 0.09614 0.62464 -0.27400
N 	N 	0.96234 0.00892 0.67315 -0.15400
N 	N 	0.07761 0.74387 0.88561 -0.23500
N 	N 	0.03734 0.81226 0.80426 -0.15400
N 	N 	0.21858 0.79873 0.42616 -0.27100
N 	N 	0.29360 0.78699 0.37951 -0.15300
N 	N 	0.51243 0.65390 0.24173 -0.28500
N 	N 	0.43012 0.70395 0.25974 -0.15400
N 	N 	0.38042 0.04314 0.23863 -0.29100
N 	N 	0.36483 0.93570 0.24172 -0.15700
