data_crystal

_cell_length_a 22.05800
_cell_length_b 16.90680
_cell_length_c 16.24000
_cell_angle_alpha 90.00000
_cell_angle_beta  121.36000
_cell_angle_gamma 90.00000

_symmetry_space_group_name_	'P 1'
_symmetry_space_group_name_H-M	'P 1'

loop_
_symmetry_equiv_pos_as_xyz
  x,y,z

loop_
_atom_site_label
_atom_site_type_symbol
_atom_site_fract_x
_atom_site_fract_y
_atom_site_fract_z
_atom_site_charge
O 	O 	0.96420 0.08270 0.55890 -0.49100
O 	O 	0.08130 0.08440 0.63510 -0.48100
O 	O 	0.35180 0.13450 0.52930 -0.23000
C 	C 	0.00330 0.25470 0.96170 -0.03900
H 	H 	0.00610 0.20980 0.93070 0.04700
C 	C 	0.00520 0.33100 0.93530 0.12200
C 	C 	0.01990 0.35520 0.86660 -0.19200
C 	C 	0.02510 0.43370 0.84320 0.10600
C 	C 	0.03860 0.46210 0.77200 -0.08400
H 	H 	0.04640 0.43050 0.73140 0.06700
C 	C 	0.02050 0.29360 0.80180 0.22800
C 	C 	0.96300 0.26300 0.72850 -0.28900
H 	H 	0.91940 0.28310 0.71460 0.14500
C 	C 	0.96270 0.20350 0.67080 0.22200
H 	H 	0.91990 0.18370 0.62090 -0.02200
C 	C 	0.02530 0.17350 0.68670 -0.28200
C 	C 	0.08230 0.20150 0.75830 0.22100
H 	H 	0.12530 0.17950 0.77230 -0.03000
C 	C 	0.08390 0.26340 0.81710 -0.28300
H 	H 	0.12700 0.28380 0.86570 0.13300
C 	C 	0.02280 0.10750 0.62250 0.45000
C 	C 	0.37960 0.07490 0.52650 0.20200
C 	C 	0.46810 0.14080 0.50580 -0.04000
H 	H 	0.44690 0.18770 0.50780 0.06300
C 	C 	0.44360 0.07140 0.51290 -0.04000
O 	O 	0.03580 0.08270 0.44110 -0.51300
O 	O 	0.91870 0.08440 0.36490 -0.49000
O 	O 	0.64820 0.13450 0.47070 -0.23000
C 	C 	0.99670 0.25470 0.03830 -0.15900
H 	H 	0.99390 0.20980 0.06930 0.08000
C 	C 	0.99480 0.33100 0.06470 0.14800
C 	C 	0.98010 0.35520 0.13340 -0.22100
C 	C 	0.97490 0.43370 0.15680 0.11300
C 	C 	0.96140 0.46210 0.22800 -0.08800
H 	H 	0.95360 0.43050 0.26860 0.07000
C 	C 	0.97950 0.29360 0.19820 0.27300
C 	C 	0.03700 0.26300 0.27150 -0.33900
H 	H 	0.08060 0.28310 0.28540 0.15500
C 	C 	0.03730 0.20350 0.32920 0.21900
H 	H 	0.08010 0.18370 0.37910 -0.02600
C 	C 	0.97470 0.17350 0.31330 -0.28000
C 	C 	0.91770 0.20150 0.24170 0.23300
H 	H 	0.87470 0.17950 0.22770 -0.04200
C 	C 	0.91610 0.26340 0.18290 -0.30800
H 	H 	0.87300 0.28380 0.13430 0.13100
C 	C 	0.97720 0.10750 0.37750 0.47600
C 	C 	0.62040 0.07490 0.47350 0.20300
C 	C 	0.53190 0.14080 0.49420 -0.04000
H 	H 	0.55310 0.18770 0.49220 0.06400
C 	C 	0.55640 0.07140 0.48710 -0.03900
O 	O 	0.03580 0.91730 0.44110 -0.47100
O 	O 	0.91870 0.91560 0.36490 -0.44600
O 	O 	0.64820 0.86550 0.47070 -0.22400
C 	C 	0.99670 0.74530 0.03830 -0.14900
H 	H 	0.99390 0.79020 0.06930 0.09100
C 	C 	0.99480 0.66900 0.06470 0.14700
C 	C 	0.98010 0.64480 0.13340 -0.21300
C 	C 	0.97490 0.56630 0.15680 0.11000
C 	C 	0.96140 0.53790 0.22800 -0.08400
H 	H 	0.95360 0.56950 0.26860 0.06900
C 	C 	0.97950 0.70640 0.19820 0.26000
C 	C 	0.03700 0.73700 0.27150 -0.31700
H 	H 	0.08060 0.71690 0.28540 0.15200
C 	C 	0.03730 0.79650 0.32920 0.20100
H 	H 	0.08010 0.81630 0.37910 -0.00900
C 	C 	0.97470 0.82650 0.31330 -0.24900
C 	C 	0.91770 0.79850 0.24170 0.21400
H 	H 	0.87470 0.82050 0.22770 -0.02300
C 	C 	0.91610 0.73660 0.18290 -0.28600
H 	H 	0.87300 0.71620 0.13430 0.12800
C 	C 	0.97720 0.89250 0.37750 0.46600
C 	C 	0.62040 0.92510 0.47350 0.25200
C 	C 	0.53190 0.85920 0.49420 -0.04400
H 	H 	0.55310 0.81230 0.49220 0.06900
C 	C 	0.55640 0.92860 0.48710 0.01600
O 	O 	0.96420 0.91730 0.55890 -0.44800
O 	O 	0.08130 0.91560 0.63510 -0.43900
O 	O 	0.35180 0.86550 0.52930 -0.22500
C 	C 	0.00330 0.74530 0.96170 -0.04100
H 	H 	0.00610 0.79020 0.93070 0.06100
C 	C 	0.00520 0.66900 0.93530 0.12400
C 	C 	0.01990 0.64480 0.86660 -0.18600
C 	C 	0.02510 0.56630 0.84320 0.10300
C 	C 	0.03860 0.53790 0.77200 -0.08200
H 	H 	0.04640 0.56950 0.73140 0.06600
C 	C 	0.02050 0.70640 0.80180 0.21600
C 	C 	0.96300 0.73700 0.72850 -0.26800
H 	H 	0.91940 0.71690 0.71460 0.14300
C 	C 	0.96270 0.79650 0.67080 0.20600
H 	H 	0.91990 0.81630 0.62090 -0.00600
C 	C 	0.02530 0.82650 0.68670 -0.25400
C 	C 	0.08230 0.79850 0.75830 0.20300
H 	H 	0.12530 0.82050 0.77230 -0.01300
C 	C 	0.08390 0.73660 0.81710 -0.26300
H 	H 	0.12700 0.71620 0.86570 0.13100
C 	C 	0.02280 0.89250 0.62250 0.43900
C 	C 	0.37960 0.92510 0.52650 0.25100
C 	C 	0.46810 0.85920 0.50580 -0.04400
H 	H 	0.44690 0.81230 0.50780 0.06800
C 	C 	0.44360 0.92860 0.51290 0.01500
Zn	Zn	0.07820 0.00000 0.54794 1.21100
N 	N 	0.17220 0.00000 0.55240 -0.27300
N 	N 	0.35630 0.00000 0.53620 -0.22800
C 	C 	0.23320 -0.00000 0.62780 0.14500
H 	H 	0.23590 0.00000 0.68690 -0.04600
C 	C 	0.30080 0.00000 0.62900 -0.25200
H 	H 	0.34450 -0.00000 0.68650 0.10500
C 	C 	0.29610 0.00000 0.54680 0.22800
C 	C 	0.23020 0.00000 0.46270 -0.20100
H 	H 	0.22770 0.00000 0.40380 0.09900
C 	C 	0.16410 -0.00000 0.46380 0.09200
H 	H 	0.11960 0.00000 0.40750 -0.01500
C 	C 	0.46770 0.00000 0.50380 -0.03800
Zn	Zn	0.92180 0.00000 0.45206 1.21100
N 	N 	0.82780 -0.00000 0.44760 -0.27400
N 	N 	0.64370 -0.00000 0.46380 -0.22800
C 	C 	0.76680 0.00000 0.37220 0.14500
H 	H 	0.76410 -0.00000 0.31310 -0.05200
C 	C 	0.69920 0.00000 0.37100 -0.25400
H 	H 	0.65550 0.00000 0.31350 0.10200
C 	C 	0.70390 -0.00000 0.45320 0.23000
C 	C 	0.76980 0.00000 0.53730 -0.20100
H 	H 	0.77230 -0.00000 0.59620 0.10400
C 	C 	0.83590 0.00000 0.53620 0.09200
H 	H 	0.88040 0.00000 0.59250 -0.01000
C 	C 	0.53230 -0.00000 0.49620 -0.03800
Mn	Mn	0.00000 0.50000 -0.00000 1.23100
N 	N 	0.01790 0.50000 0.89140 -0.29400
N 	N 	0.98210 0.50000 0.10860 -0.30400
N 	N 	0.00000 0.38070 -0.00000 -0.33200
N 	N 	0.00000 0.61930 -0.00000 -0.33000
O 	O 	0.46420 0.58270 0.55890 -0.49200
O 	O 	0.58130 0.58440 0.63510 -0.47100
O 	O 	0.85180 0.63450 0.52930 -0.23100
C 	C 	0.50330 0.75470 0.96170 -0.01700
H 	H 	0.50610 0.70980 0.93070 0.04900
C 	C 	0.50520 0.83100 0.93530 0.12400
C 	C 	0.51990 0.85520 0.86660 -0.17800
C 	C 	0.52510 0.93370 0.84320 0.10800
C 	C 	0.53860 0.96210 0.77200 0.08400
H 	H 	0.54640 0.93050 0.73140 0.02400
C 	C 	0.52050 0.79360 0.80180 0.24000
C 	C 	0.46300 0.76300 0.72850 -0.30200
H 	H 	0.41940 0.78310 0.71460 0.15300
C 	C 	0.46270 0.70350 0.67080 0.21500
H 	H 	0.41990 0.68370 0.62090 -0.01900
C 	C 	0.52530 0.67350 0.68670 -0.26900
C 	C 	0.58230 0.70150 0.75830 0.22200
H 	H 	0.62530 0.67950 0.77230 -0.02400
C 	C 	0.58390 0.76340 0.81710 -0.28100
H 	H 	0.62700 0.78380 0.86570 0.14000
C 	C 	0.52280 0.60750 0.62250 0.46300
C 	C 	0.87960 0.57490 0.52650 0.22200
C 	C 	0.96810 0.64080 0.50580 0.00100
H 	H 	0.94690 0.68770 0.50780 0.05400
C 	C 	0.94360 0.57140 0.51290 -0.07400
O 	O 	0.53580 0.58270 0.44110 -0.49300
O 	O 	0.41870 0.58440 0.36490 -0.47500
O 	O 	0.14820 0.63450 0.47070 -0.22700
C 	C 	0.49670 0.75470 0.03830 -0.17400
H 	H 	0.49390 0.70980 0.06930 0.08900
C 	C 	0.49480 0.83100 0.06470 0.14800
C 	C 	0.48010 0.85520 0.13340 -0.20100
C 	C 	0.47490 0.93370 0.15680 0.10800
C 	C 	0.46140 0.96210 0.22800 0.08600
H 	H 	0.45360 0.93050 0.26860 0.02100
C 	C 	0.47950 0.79360 0.19820 0.24900
C 	C 	0.53700 0.76300 0.27150 -0.31200
H 	H 	0.58060 0.78310 0.28540 0.15500
C 	C 	0.53730 0.70350 0.32920 0.22100
H 	H 	0.58010 0.68370 0.37910 -0.02200
C 	C 	0.47470 0.67350 0.31330 -0.27700
C 	C 	0.41770 0.70150 0.24170 0.22600
H 	H 	0.37470 0.67950 0.22770 -0.03300
C 	C 	0.41610 0.76340 0.18290 -0.29200
H 	H 	0.37300 0.78380 0.13430 0.13200
C 	C 	0.47720 0.60750 0.37750 0.46400
C 	C 	0.12040 0.57490 0.47350 0.20600
C 	C 	0.03190 0.64080 0.49420 -0.06500
H 	H 	0.05310 0.68770 0.49220 0.07300
C 	C 	0.05640 0.57140 0.48710 -0.03200
O 	O 	0.53580 0.41730 0.44110 -0.49400
O 	O 	0.41870 0.41560 0.36490 -0.47700
O 	O 	0.14820 0.36550 0.47070 -0.23100
C 	C 	0.49670 0.24530 0.03830 -0.18500
H 	H 	0.49390 0.29020 0.06930 0.09100
C 	C 	0.49480 0.16900 0.06470 0.15200
C 	C 	0.48010 0.14480 0.13340 -0.24400
C 	C 	0.47490 0.06630 0.15680 0.15600
C 	C 	0.46140 0.03790 0.22800 -0.26600
H 	H 	0.45360 0.06950 0.26860 0.12000
C 	C 	0.47950 0.20640 0.19820 0.26900
C 	C 	0.53700 0.23700 0.27150 -0.33000
H 	H 	0.58060 0.21690 0.28540 0.15500
C 	C 	0.53730 0.29650 0.32920 0.23300
H 	H 	0.58010 0.31630 0.37910 -0.02800
C 	C 	0.47470 0.32650 0.31330 -0.28800
C 	C 	0.41770 0.29850 0.24170 0.23700
H 	H 	0.37470 0.32050 0.22770 -0.04000
C 	C 	0.41610 0.23660 0.18290 -0.31000
H 	H 	0.37300 0.21620 0.13430 0.12900
C 	C 	0.47720 0.39250 0.37750 0.46800
C 	C 	0.12040 0.42510 0.47350 0.20700
C 	C 	0.03190 0.35920 0.49420 -0.06400
H 	H 	0.05310 0.31230 0.49220 0.07200
C 	C 	0.05640 0.42860 0.48710 -0.03300
O 	O 	0.46420 0.41730 0.55890 -0.49400
O 	O 	0.58130 0.41560 0.63510 -0.47300
O 	O 	0.85180 0.36550 0.52930 -0.23400
C 	C 	0.50330 0.24530 0.96170 -0.01700
H 	H 	0.50610 0.29020 0.93070 0.04800
C 	C 	0.50520 0.16900 0.93530 0.12800
C 	C 	0.51990 0.14480 0.86660 -0.21900
C 	C 	0.52510 0.06630 0.84320 0.15500
C 	C 	0.53860 0.03790 0.77200 -0.25600
H 	H 	0.54640 0.06950 0.73140 0.12000
C 	C 	0.52050 0.20640 0.80180 0.25900
C 	C 	0.46300 0.23700 0.72850 -0.31900
H 	H 	0.41940 0.21690 0.71460 0.15300
C 	C 	0.46270 0.29650 0.67080 0.22700
H 	H 	0.41990 0.31630 0.62090 -0.02500
C 	C 	0.52530 0.32650 0.68670 -0.28000
C 	C 	0.58230 0.29850 0.75830 0.23200
H 	H 	0.62530 0.32050 0.77230 -0.03100
C 	C 	0.58390 0.23660 0.81710 -0.29800
H 	H 	0.62700 0.21620 0.86570 0.13700
C 	C 	0.52280 0.39250 0.62250 0.46700
C 	C 	0.87960 0.42510 0.52650 0.22200
C 	C 	0.96810 0.35920 0.50580 0.00100
H 	H 	0.94690 0.31230 0.50780 0.05300
C 	C 	0.94360 0.42860 0.51290 -0.07400
Zn	Zn	0.57820 0.50000 0.54794 1.22700
N 	N 	0.67220 0.50000 0.55240 -0.26500
N 	N 	0.85630 0.50000 0.53620 -0.20400
C 	C 	0.73320 0.50000 0.62780 0.15500
H 	H 	0.73590 0.50000 0.68690 -0.03500
C 	C 	0.80080 0.50000 0.62900 -0.25000
H 	H 	0.84450 0.50000 0.68650 0.12000
C 	C 	0.79610 0.50000 0.54680 0.24400
C 	C 	0.73020 0.50000 0.46270 -0.19800
H 	H 	0.72770 0.50000 0.40380 0.11300
C 	C 	0.66410 0.50000 0.46380 0.10300
H 	H 	0.61960 0.50000 0.40750 -0.00100
C 	C 	0.96770 0.50000 0.50380 0.05700
Zn	Zn	0.42180 0.50000 0.45206 1.22600
N 	N 	0.32780 0.50000 0.44760 -0.26600
N 	N 	0.14370 0.50000 0.46380 -0.20000
C 	C 	0.26680 0.50000 0.37220 0.15300
H 	H 	0.26410 0.50000 0.31310 -0.04200
C 	C 	0.19920 0.50000 0.37100 -0.25100
H 	H 	0.15550 0.50000 0.31350 0.11200
C 	C 	0.20390 0.50000 0.45320 0.24200
C 	C 	0.26980 0.50000 0.53730 -0.19700
H 	H 	0.27230 0.50000 0.59620 0.11600
C 	C 	0.33590 0.50000 0.53620 0.10300
H 	H 	0.38040 0.50000 0.59250 0.00100
C 	C 	0.03230 0.50000 0.49620 -0.00500
Mn	Mn	0.50000 0.00000 -0.00000 1.21800
N 	N 	0.51790 0.00000 0.89140 -0.32800
N 	N 	0.48210 0.00000 0.10860 -0.34300
N 	N 	0.50000 0.88070 -0.00000 -0.30500
N 	N 	0.50000 0.11930 -0.00000 -0.33200
