data_crystal

_cell_length_a 14.95600
_cell_length_b 23.67100
_cell_length_c 9.02600
_cell_angle_alpha 90.00000
_cell_angle_beta  90.00000
_cell_angle_gamma 90.00000

_symmetry_space_group_name_	'P 1'
_symmetry_space_group_name_H-M	'P 1'

loop_
_symmetry_equiv_pos_as_xyz
  x,y,z

loop_
_atom_site_label
_atom_site_type_symbol
_atom_site_fract_x
_atom_site_fract_y
_atom_site_fract_z
_atom_site_charge
Fe	Fe	0.07315 0.05452 -0.00000 1.20500
O 	O 	0.13200 0.07276 0.19930 -0.29100
O 	O 	0.16090 0.12528 0.94060 -0.11900
O 	O 	0.26500 0.17951 0.04840 -0.29500
O 	O 	0.23160 0.13075 0.30610 -0.28000
C 	C 	0.18860 0.11250 0.19780 0.26900
C 	C 	0.20590 0.14130 0.04840 0.09000
Cl	Cl	0.18186 0.99597 0.90160 -0.31000
Fe	Fe	0.07315 0.55452 0.50000 1.25700
O 	O 	0.13200 0.57276 0.69930 -0.25700
O 	O 	0.16090 0.62528 0.44060 -0.27300
O 	O 	0.26500 0.67951 0.54840 -0.31000
O 	O 	0.23160 0.63075 0.80610 -0.25400
C 	C 	0.18860 0.61250 0.69780 0.23200
C 	C 	0.20590 0.64130 0.54840 0.24100
Cl	Cl	0.18186 0.49597 0.40160 -0.37100
Fe	Fe	0.57315 0.05452 0.50000 1.25700
O 	O 	0.63200 0.07276 0.69930 -0.25700
O 	O 	0.66090 0.12528 0.44060 -0.27500
O 	O 	0.76500 0.17951 0.54840 -0.31200
O 	O 	0.73160 0.13075 0.80610 -0.25500
C 	C 	0.68860 0.11250 0.69780 0.23100
C 	C 	0.70590 0.14130 0.54840 0.24100
Cl	Cl	0.68186 0.99597 0.40160 -0.40300
Fe	Fe	0.57315 0.55452 -0.00000 1.19200
O 	O 	0.63200 0.57276 0.19930 -0.30300
O 	O 	0.66090 0.62528 0.94060 -0.12600
O 	O 	0.76500 0.67951 0.04840 -0.29900
O 	O 	0.73160 0.63075 0.30610 -0.28400
C 	C 	0.68860 0.61250 0.19780 0.26800
C 	C 	0.70590 0.64130 0.04840 0.08700
Cl	Cl	0.68186 0.49597 0.90160 -0.28800
Fe	Fe	0.92685 0.94548 -0.00000 1.17000
O 	O 	0.86800 0.92724 0.19930 -0.32000
O 	O 	0.83910 0.87472 0.94060 -0.13400
O 	O 	0.73500 0.82049 0.04840 -0.29800
O 	O 	0.76840 0.86925 0.30610 -0.28800
C 	C 	0.81140 0.88750 0.19780 0.26900
C 	C 	0.79410 0.85870 0.04840 0.08500
Cl	Cl	0.81814 0.00403 0.90160 -0.26900
Fe	Fe	0.92685 0.44548 0.50000 1.24000
O 	O 	0.86800 0.42724 0.69930 -0.27100
O 	O 	0.83910 0.37472 0.44060 -0.28200
O 	O 	0.73500 0.32049 0.54840 -0.31100
O 	O 	0.76840 0.36925 0.80610 -0.25900
C 	C 	0.81140 0.38750 0.69780 0.23100
C 	C 	0.79410 0.35870 0.54840 0.23900
Cl	Cl	0.81814 0.50403 0.40160 -0.37900
Fe	Fe	0.42685 0.94548 0.50000 1.24000
O 	O 	0.36800 0.92724 0.69930 -0.27000
O 	O 	0.33910 0.87472 0.44060 -0.28000
O 	O 	0.23500 0.82049 0.54840 -0.30900
O 	O 	0.26840 0.86925 0.80610 -0.25800
C 	C 	0.31140 0.88750 0.69780 0.23200
C 	C 	0.29410 0.85870 0.54840 0.23900
Cl	Cl	0.31814 0.00403 0.40160 -0.35000
Fe	Fe	0.42685 0.44548 -0.00000 1.19200
O 	O 	0.36800 0.42724 0.19930 -0.30300
O 	O 	0.33910 0.37472 0.94060 -0.12500
O 	O 	0.23500 0.32049 0.04840 -0.29500
O 	O 	0.26840 0.36925 0.30610 -0.28400
C 	C 	0.31140 0.38750 0.19780 0.26900
C 	C 	0.29410 0.35870 0.04840 0.08700
Cl	Cl	0.31814 0.50403 0.90160 -0.28400
Fe	Fe	0.32315 0.19548 0.25000 1.25100
O 	O 	0.38200 0.17724 0.44930 -0.26900
O 	O 	0.41090 0.12472 0.19060 -0.28500
O 	O 	0.51500 0.07049 0.29840 -0.31200
O 	O 	0.48160 0.11925 0.55610 -0.26300
C 	C 	0.43860 0.13750 0.44780 0.23100
C 	C 	0.45590 0.10870 0.29840 0.23800
Cl	Cl	0.43186 0.25403 0.15160 -0.40600
Fe	Fe	0.32315 0.69548 0.75000 1.25400
O 	O 	0.38200 0.67724 0.94930 -0.27600
O 	O 	0.41090 0.62472 0.69060 -0.25600
O 	O 	0.51500 0.57049 0.79840 -0.26200
O 	O 	0.48160 0.61925 0.05610 -0.39500
C 	C 	0.43860 0.63750 0.94780 0.38300
C 	C 	0.45590 0.60870 0.79840 0.20200
Cl	Cl	0.43186 0.75403 0.65160 -0.34800
Fe	Fe	0.82315 0.19548 0.75000 1.25300
O 	O 	0.88200 0.17724 0.94930 -0.28300
O 	O 	0.91090 0.12472 0.69060 -0.25000
O 	O 	0.01500 0.07049 0.79840 -0.22400
O 	O 	0.98160 0.11925 0.05610 -0.41300
C 	C 	0.93860 0.13750 0.94780 0.39100
C 	C 	0.95590 0.10870 0.79840 0.16400
Cl	Cl	0.93186 0.25403 0.65160 -0.36400
Fe	Fe	0.82315 0.69548 0.25000 1.25000
O 	O 	0.88200 0.67724 0.44930 -0.27800
O 	O 	0.91090 0.62472 0.19060 -0.28500
O 	O 	0.01500 0.57049 0.29840 -0.28700
O 	O 	0.98160 0.61925 0.55610 -0.28600
C 	C 	0.93860 0.63750 0.44780 0.23900
C 	C 	0.95590 0.60870 0.29840 0.20100
Cl	Cl	0.93186 0.75403 0.15160 -0.42300
Fe	Fe	0.17685 0.30452 0.25000 1.25100
O 	O 	0.11800 0.32276 0.44930 -0.26400
O 	O 	0.08910 0.37528 0.19060 -0.29300
O 	O 	0.98500 0.42951 0.29840 -0.35400
O 	O 	0.01840 0.38075 0.55610 -0.24600
C 	C 	0.06140 0.36250 0.44780 0.22100
C 	C 	0.04410 0.39130 0.29840 0.27700
Cl	Cl	0.06814 0.24597 0.15160 -0.38900
Fe	Fe	0.17685 0.80452 0.75000 1.25400
O 	O 	0.11800 0.82276 0.94930 -0.27000
O 	O 	0.08910 0.87528 0.69060 -0.26400
O 	O 	0.98500 0.92951 0.79840 -0.30500
O 	O 	0.01840 0.88075 0.05610 -0.37800
C 	C 	0.06140 0.86250 0.94780 0.37100
C 	C 	0.04410 0.89130 0.79840 0.24200
Cl	Cl	0.06814 0.74597 0.65160 -0.33200
Fe	Fe	0.67685 0.30452 0.75000 1.25300
O 	O 	0.61800 0.32276 0.94930 -0.27700
O 	O 	0.58910 0.37528 0.69060 -0.25600
O 	O 	0.48500 0.42951 0.79840 -0.26100
O 	O 	0.51840 0.38075 0.05610 -0.39500
C 	C 	0.56140 0.36250 0.94780 0.38300
C 	C 	0.54410 0.39130 0.79840 0.20300
Cl	Cl	0.56814 0.24597 0.65160 -0.34700
Fe	Fe	0.67685 0.80452 0.25000 1.25000
O 	O 	0.61800 0.82276 0.44930 -0.27200
O 	O 	0.58910 0.87528 0.19060 -0.29200
O 	O 	0.48500 0.92951 0.29840 -0.32900
O 	O 	0.51840 0.88075 0.55610 -0.26800
C 	C 	0.56140 0.86250 0.44780 0.22900
C 	C 	0.54410 0.89130 0.29840 0.24100
Cl	Cl	0.56814 0.74597 0.15160 -0.40700
O 	O 	0.00000 0.00000 0.07590 -0.48300
O 	O 	-0.00000 0.50000 0.57590 -0.45700
O 	O 	0.50000 0.00000 0.57590 -0.45700
O 	O 	0.50000 0.50000 0.07590 -0.51800
O 	O 	0.25000 0.25000 0.32590 -0.47800
O 	O 	0.25000 0.75000 0.82590 -0.46200
O 	O 	0.75000 0.25000 0.82590 -0.46400
O 	O 	0.75000 0.75000 0.32590 -0.48100
