data_crystal

_cell_length_a 18.45300
_cell_length_b 18.45300
_cell_length_c 27.78260
_cell_angle_alpha 70.60390
_cell_angle_beta  70.60390
_cell_angle_gamma 60.00000

_symmetry_space_group_name_	'P 1'
_symmetry_space_group_name_H-M	'P 1'

loop_
_symmetry_equiv_pos_as_xyz
  x,y,z

loop_
_atom_site_label
_atom_site_type_symbol
_atom_site_fract_x
_atom_site_fract_y
_atom_site_fract_z
_atom_site_charge
Cu	Cu	0.22113 0.78383 0.79225 0.90900
Cu	Cu	0.78383 0.20279 0.79225 0.90900
Cu	Cu	0.20279 0.22113 0.79225 0.90900
Cu	Cu	0.27887 0.29721 0.70775 0.90900
Cu	Cu	0.71617 0.27887 0.70775 0.90900
Cu	Cu	0.29721 0.71617 0.70775 0.90900
Cu	Cu	0.77887 0.21617 0.20775 0.90900
Cu	Cu	0.21617 0.79721 0.20775 0.90900
Cu	Cu	0.79721 0.77887 0.20775 0.90900
Cu	Cu	0.72113 0.70279 0.29225 0.90900
Cu	Cu	0.28383 0.72113 0.29225 0.90800
Cu	Cu	0.70279 0.28383 0.29225 0.90800
H 	H 	0.08890 0.41230 0.88210 0.05900
H 	H 	0.10040 0.62270 0.88540 0.06000
H 	H 	0.20990 0.52360 0.75490 0.05400
H 	H 	0.93510 0.56110 0.88510 0.05800
H 	H 	0.20230 0.47600 0.94060 0.05900
H 	H 	0.79570 0.58540 0.90670 0.04100
H 	H 	0.27300 0.43580 0.00540 0.04300
H 	H 	0.41230 0.61670 0.88210 0.05900
H 	H 	0.62270 0.39150 0.88540 0.06000
H 	H 	0.52360 0.51160 0.75490 0.05400
H 	H 	0.56110 0.61870 0.88510 0.05800
H 	H 	0.47600 0.38110 0.94060 0.05900
H 	H 	0.58540 0.71220 0.90670 0.04100
H 	H 	0.43580 0.28580 0.00540 0.04300
H 	H 	0.61670 0.08890 0.88210 0.05900
H 	H 	0.39150 0.10040 0.88540 0.06000
H 	H 	0.51160 0.20990 0.75490 0.05400
H 	H 	0.61870 0.93510 0.88510 0.05800
H 	H 	0.38110 0.20230 0.94060 0.05900
H 	H 	0.71220 0.79570 0.90670 0.04100
H 	H 	0.28580 0.27300 0.00540 0.04300
H 	H 	0.41110 0.88330 0.61790 0.05900
H 	H 	0.39960 0.10850 0.61460 0.06000
H 	H 	0.29010 0.98840 0.74510 0.05400
H 	H 	0.56490 0.88130 0.61490 0.05800
H 	H 	0.29770 0.11890 0.55940 0.05900
H 	H 	0.70430 0.78780 0.59330 0.04100
H 	H 	0.22700 0.21420 0.49460 0.04300
H 	H 	0.08770 0.41110 0.61790 0.05900
H 	H 	0.87730 0.39960 0.61460 0.06000
H 	H 	0.97640 0.29010 0.74510 0.05400
H 	H 	0.93890 0.56490 0.61490 0.05800
H 	H 	0.02400 0.29770 0.55940 0.05900
H 	H 	0.91460 0.70430 0.59330 0.04100
H 	H 	0.06420 0.22700 0.49460 0.04300
H 	H 	0.88330 0.08770 0.61790 0.05900
H 	H 	0.10850 0.87730 0.61460 0.06000
H 	H 	0.98840 0.97640 0.74510 0.05400
H 	H 	0.88130 0.93890 0.61490 0.05800
H 	H 	0.11890 0.02400 0.55940 0.05900
H 	H 	0.78780 0.91460 0.59330 0.04100
H 	H 	0.21420 0.06420 0.49460 0.04300
H 	H 	0.91110 0.58770 0.11790 0.05900
H 	H 	0.89960 0.37730 0.11460 0.06000
H 	H 	0.79010 0.47640 0.24510 0.05400
H 	H 	0.06490 0.43890 0.11490 0.05800
H 	H 	0.79770 0.52400 0.05940 0.05900
H 	H 	0.20430 0.41460 0.09330 0.04100
H 	H 	0.72700 0.56420 0.99460 0.04300
H 	H 	0.58770 0.38330 0.11790 0.05900
H 	H 	0.37730 0.60850 0.11460 0.06000
H 	H 	0.47640 0.48840 0.24510 0.05400
H 	H 	0.43890 0.38130 0.11490 0.05800
H 	H 	0.52400 0.61890 0.05940 0.05900
H 	H 	0.41460 0.28780 0.09330 0.04100
H 	H 	0.56420 0.71420 0.99460 0.04300
H 	H 	0.38330 0.91110 0.11790 0.05900
H 	H 	0.60850 0.89960 0.11460 0.06000
H 	H 	0.48840 0.79010 0.24510 0.05400
H 	H 	0.38130 0.06490 0.11490 0.05800
H 	H 	0.61890 0.79770 0.05940 0.05900
H 	H 	0.28780 0.20430 0.09330 0.04100
H 	H 	0.71420 0.72700 0.99460 0.04300
H 	H 	0.58890 0.11670 0.38210 0.05900
H 	H 	0.60040 0.89150 0.38540 0.06000
H 	H 	0.70990 0.01160 0.25490 0.05400
H 	H 	0.43510 0.11870 0.38510 0.05800
H 	H 	0.70230 0.88110 0.44060 0.05900
H 	H 	0.29570 0.21220 0.40670 0.04100
H 	H 	0.77300 0.78580 0.50540 0.04300
H 	H 	0.91230 0.58890 0.38210 0.05900
H 	H 	0.12270 0.60040 0.38540 0.06000
H 	H 	0.02360 0.70990 0.25490 0.05400
H 	H 	0.06110 0.43510 0.38510 0.05800
H 	H 	0.97600 0.70230 0.44060 0.05900
H 	H 	0.08540 0.29570 0.40670 0.04100
H 	H 	0.93580 0.77300 0.50540 0.04300
H 	H 	0.11670 0.91230 0.38210 0.05900
H 	H 	0.89150 0.12270 0.38540 0.06000
H 	H 	0.01160 0.02360 0.25490 0.05400
H 	H 	0.11870 0.06110 0.38510 0.05800
H 	H 	0.88110 0.97600 0.44060 0.05900
H 	H 	0.21220 0.08540 0.40670 0.04100
H 	H 	0.78580 0.93580 0.50540 0.04300
C 	C 	0.18159 0.38725 0.78868 0.35800
C 	C 	0.08703 0.51728 0.89215 0.01600
C 	C 	0.19414 0.64820 0.79120 0.36300
C 	C 	0.10689 0.45631 0.86539 -0.02900
C 	C 	0.08656 0.48538 0.98719 0.01700
C 	C 	0.95677 0.52492 0.96007 0.01500
C 	C 	0.11357 0.58063 0.86737 -0.03100
C 	C 	0.15956 0.58369 0.81616 -0.08100
C 	C 	0.04124 0.51065 0.94771 -0.03000
C 	C 	0.17868 0.52194 0.79000 0.02500
C 	C 	0.90825 0.55265 0.92095 -0.06200
C 	C 	0.15238 0.45836 0.81484 -0.08300
C 	C 	0.17315 0.46937 0.97591 -0.06300
C 	C 	0.82605 0.56705 0.93355 -0.02800
C 	C 	0.21517 0.44497 0.01389 -0.03100
C 	C 	0.38725 0.64248 0.78868 0.35800
C 	C 	0.51728 0.50354 0.89215 0.01700
C 	C 	0.64820 0.36646 0.79120 0.36300
C 	C 	0.45631 0.57141 0.86539 -0.02900
C 	C 	0.48538 0.44087 0.98719 0.01600
C 	C 	0.52492 0.55824 0.96007 0.01600
C 	C 	0.58063 0.43843 0.86737 -0.03100
C 	C 	0.58369 0.44059 0.81616 -0.08100
C 	C 	0.51065 0.50040 0.94771 -0.03000
C 	C 	0.52194 0.50938 0.79000 0.02500
C 	C 	0.55265 0.61815 0.92095 -0.06200
C 	C 	0.45836 0.57442 0.81484 -0.08300
C 	C 	0.46937 0.38157 0.97591 -0.06300
C 	C 	0.56705 0.67335 0.93355 -0.02800
C 	C 	0.44497 0.32597 0.01389 -0.03100
C 	C 	0.64248 0.18159 0.78868 0.35800
C 	C 	0.50354 0.08703 0.89215 0.01600
C 	C 	0.36646 0.19414 0.79120 0.36300
C 	C 	0.57141 0.10689 0.86539 -0.02900
C 	C 	0.44087 0.08656 0.98719 0.01700
C 	C 	0.55824 0.95677 0.96007 0.01500
C 	C 	0.43843 0.11357 0.86737 -0.03100
C 	C 	0.44059 0.15956 0.81616 -0.08100
C 	C 	0.50040 0.04124 0.94771 -0.03000
C 	C 	0.50938 0.17868 0.79000 0.02500
C 	C 	0.61815 0.90825 0.92095 -0.06200
C 	C 	0.57442 0.15238 0.81484 -0.08300
C 	C 	0.38157 0.17315 0.97591 -0.06300
C 	C 	0.67335 0.82605 0.93355 -0.02800
C 	C 	0.32597 0.21517 0.01389 -0.03100
C 	C 	0.31841 0.85752 0.71132 0.35800
C 	C 	0.41297 0.99646 0.60785 0.01700
C 	C 	0.30586 0.13354 0.70880 0.36400
C 	C 	0.39311 0.92859 0.63461 -0.02900
C 	C 	0.41344 0.05913 0.51281 0.01600
C 	C 	0.54323 0.94176 0.53993 0.01600
C 	C 	0.38643 0.06157 0.63263 -0.03100
C 	C 	0.34044 0.05941 0.68384 -0.08100
C 	C 	0.45876 0.99960 0.55229 -0.03000
C 	C 	0.32132 0.99062 0.71000 0.02500
C 	C 	0.59175 0.88185 0.57905 -0.06200
C 	C 	0.34762 0.92558 0.68516 -0.08300
C 	C 	0.32685 0.11843 0.52409 -0.06300
C 	C 	0.67395 0.82665 0.56645 -0.02800
C 	C 	0.28483 0.17403 0.48611 -0.03100
C 	C 	0.11275 0.31841 0.71132 0.35800
C 	C 	0.98272 0.41297 0.60785 0.01700
C 	C 	0.85180 0.30586 0.70880 0.36300
C 	C 	0.04369 0.39311 0.63461 -0.02900
C 	C 	0.01462 0.41344 0.51281 0.01600
C 	C 	0.97508 0.54323 0.53993 0.01600
C 	C 	0.91937 0.38643 0.63263 -0.03100
C 	C 	0.91631 0.34044 0.68384 -0.08100
C 	C 	0.98935 0.45876 0.55229 -0.03000
C 	C 	0.97806 0.32132 0.71000 0.02500
C 	C 	0.94735 0.59175 0.57905 -0.06200
C 	C 	0.04164 0.34762 0.68516 -0.08300
C 	C 	0.03063 0.32685 0.52409 -0.06300
C 	C 	0.93295 0.67395 0.56645 -0.02800
C 	C 	0.05503 0.28483 0.48611 -0.03100
C 	C 	0.85752 0.11275 0.71132 0.35800
C 	C 	0.99646 0.98272 0.60785 0.01500
C 	C 	0.13354 0.85180 0.70880 0.36300
C 	C 	0.92859 0.04369 0.63461 -0.02800
C 	C 	0.05913 0.01462 0.51281 0.01600
C 	C 	0.94176 0.97508 0.53993 0.01500
C 	C 	0.06157 0.91937 0.63263 -0.03000
C 	C 	0.05941 0.91631 0.68384 -0.08000
C 	C 	0.99960 0.98935 0.55229 -0.03000
C 	C 	0.99062 0.97806 0.71000 0.02300
C 	C 	0.88185 0.94735 0.57905 -0.06200
C 	C 	0.92558 0.04164 0.68516 -0.08200
C 	C 	0.11843 0.03063 0.52409 -0.06300
C 	C 	0.82665 0.93295 0.56645 -0.02800
C 	C 	0.17403 0.05503 0.48611 -0.03100
C 	C 	0.81841 0.61275 0.21132 0.35800
C 	C 	0.91297 0.48272 0.10785 0.01600
C 	C 	0.80586 0.35180 0.20880 0.36300
C 	C 	0.89311 0.54369 0.13461 -0.02900
C 	C 	0.91344 0.51462 0.01281 0.01700
C 	C 	0.04323 0.47508 0.03993 0.01500
C 	C 	0.88643 0.41937 0.13263 -0.03100
C 	C 	0.84044 0.41631 0.18384 -0.08100
C 	C 	0.95876 0.48935 0.05229 -0.03000
C 	C 	0.82132 0.47806 0.21000 0.02500
C 	C 	0.09175 0.44735 0.07905 -0.06200
C 	C 	0.84762 0.54164 0.18516 -0.08300
C 	C 	0.82685 0.53063 0.02409 -0.06300
C 	C 	0.17395 0.43295 0.06645 -0.02800
C 	C 	0.78483 0.55503 0.98611 -0.03100
C 	C 	0.61275 0.35752 0.21132 0.35800
C 	C 	0.48272 0.49646 0.10785 0.01700
C 	C 	0.35180 0.63354 0.20880 0.36300
C 	C 	0.54369 0.42859 0.13461 -0.02900
C 	C 	0.51462 0.55913 0.01281 0.01600
C 	C 	0.47508 0.44176 0.03993 0.01600
C 	C 	0.41937 0.56157 0.13263 -0.03100
C 	C 	0.41631 0.55941 0.18384 -0.08100
C 	C 	0.48935 0.49960 0.05229 -0.03000
C 	C 	0.47806 0.49062 0.21000 0.02500
C 	C 	0.44735 0.38185 0.07905 -0.06200
C 	C 	0.54164 0.42558 0.18516 -0.08300
C 	C 	0.53063 0.61843 0.02409 -0.06300
C 	C 	0.43295 0.32665 0.06645 -0.02800
C 	C 	0.55503 0.67403 0.98611 -0.03100
C 	C 	0.35752 0.81841 0.21132 0.35800
C 	C 	0.49646 0.91297 0.10785 0.01600
C 	C 	0.63354 0.80586 0.20880 0.36300
C 	C 	0.42859 0.89311 0.13461 -0.02900
C 	C 	0.55913 0.91344 0.01281 0.01700
C 	C 	0.44176 0.04323 0.03993 0.01500
C 	C 	0.56157 0.88643 0.13263 -0.03100
C 	C 	0.55941 0.84044 0.18384 -0.08100
C 	C 	0.49960 0.95876 0.05229 -0.03000
C 	C 	0.49062 0.82132 0.21000 0.02500
C 	C 	0.38185 0.09175 0.07905 -0.06200
C 	C 	0.42558 0.84762 0.18516 -0.08300
C 	C 	0.61843 0.82685 0.02409 -0.06300
C 	C 	0.32665 0.17395 0.06645 -0.02800
C 	C 	0.67403 0.78483 0.98611 -0.03100
C 	C 	0.68159 0.14248 0.28868 0.35800
C 	C 	0.58703 0.00354 0.39215 0.01700
C 	C 	0.69414 0.86646 0.29120 0.36400
C 	C 	0.60689 0.07141 0.36539 -0.02900
C 	C 	0.58656 0.94087 0.48719 0.01600
C 	C 	0.45677 0.05824 0.46007 0.01600
C 	C 	0.61357 0.93843 0.36737 -0.03100
C 	C 	0.65956 0.94059 0.31616 -0.08100
C 	C 	0.54124 0.00040 0.44771 -0.03000
C 	C 	0.67868 0.00938 0.29000 0.02500
C 	C 	0.40825 0.11815 0.42095 -0.06200
C 	C 	0.65238 0.07442 0.31484 -0.08300
C 	C 	0.67315 0.88157 0.47591 -0.06300
C 	C 	0.32605 0.17335 0.43355 -0.02800
C 	C 	0.71517 0.82597 0.51389 -0.03100
C 	C 	0.88725 0.68159 0.28868 0.35800
C 	C 	0.01728 0.58703 0.39215 0.01700
C 	C 	0.14820 0.69414 0.29120 0.36300
C 	C 	0.95631 0.60689 0.36539 -0.02900
C 	C 	0.98538 0.58656 0.48719 0.01600
C 	C 	0.02492 0.45677 0.46007 0.01600
C 	C 	0.08063 0.61357 0.36737 -0.03100
C 	C 	0.08369 0.65956 0.31616 -0.08100
C 	C 	0.01065 0.54124 0.44771 -0.03000
C 	C 	0.02194 0.67868 0.29000 0.02500
C 	C 	0.05265 0.40825 0.42095 -0.06200
C 	C 	0.95836 0.65238 0.31484 -0.08300
C 	C 	0.96937 0.67315 0.47591 -0.06300
C 	C 	0.06705 0.32605 0.43355 -0.02800
C 	C 	0.94497 0.71517 0.51389 -0.03100
C 	C 	0.14248 0.88725 0.28868 0.35800
C 	C 	0.00354 0.01728 0.39215 0.01500
C 	C 	0.86646 0.14820 0.29120 0.36300
C 	C 	0.07141 0.95631 0.36539 -0.02800
C 	C 	0.94087 0.98538 0.48719 0.01600
C 	C 	0.05824 0.02492 0.46007 0.01500
C 	C 	0.93843 0.08063 0.36737 -0.03000
C 	C 	0.94059 0.08369 0.31616 -0.08000
C 	C 	0.00040 0.01065 0.44771 -0.03000
C 	C 	0.00938 0.02194 0.29000 0.02300
C 	C 	0.11815 0.05265 0.42095 -0.06200
C 	C 	0.07442 0.95836 0.31484 -0.08200
C 	C 	0.88157 0.96937 0.47591 -0.06300
C 	C 	0.17335 0.06705 0.43355 -0.02800
C 	C 	0.82597 0.94497 0.51389 -0.03100
O 	O 	0.17767 0.69856 0.81841 -0.41300
O 	O 	0.22816 0.38978 0.74419 -0.41100
O 	O 	0.23774 0.64417 0.74590 -0.40900
O 	O 	0.15861 0.32876 0.81418 -0.40700
O 	O 	0.69856 0.30536 0.81841 -0.41300
O 	O 	0.38978 0.63787 0.74419 -0.41100
O 	O 	0.64417 0.37219 0.74590 -0.40900
O 	O 	0.32876 0.69845 0.81418 -0.40700
O 	O 	0.30536 0.17767 0.81841 -0.41300
O 	O 	0.63787 0.22816 0.74419 -0.41000
O 	O 	0.37219 0.23774 0.74590 -0.40900
O 	O 	0.69845 0.15861 0.81418 -0.40700
O 	O 	0.32233 0.19464 0.68159 -0.41300
O 	O 	0.27184 0.86213 0.75581 -0.41000
O 	O 	0.26226 0.12781 0.75410 -0.40900
O 	O 	0.34139 0.80155 0.68582 -0.40700
O 	O 	0.80144 0.32233 0.68159 -0.41300
O 	O 	0.11022 0.27184 0.75581 -0.41100
O 	O 	0.85583 0.26226 0.75410 -0.40900
O 	O 	0.17124 0.34139 0.68582 -0.40700
O 	O 	0.19464 0.80144 0.68159 -0.41300
O 	O 	0.86213 0.11022 0.75581 -0.41000
O 	O 	0.12781 0.85583 0.75410 -0.40900
O 	O 	0.80155 0.17124 0.68582 -0.40700
O 	O 	0.82233 0.30144 0.18159 -0.41300
O 	O 	0.77184 0.61022 0.25581 -0.41100
O 	O 	0.76226 0.35583 0.25410 -0.40900
O 	O 	0.84139 0.67124 0.18582 -0.40700
O 	O 	0.30144 0.69464 0.18159 -0.41300
O 	O 	0.61022 0.36213 0.25581 -0.41100
O 	O 	0.35583 0.62781 0.25410 -0.40900
O 	O 	0.67124 0.30155 0.18582 -0.40700
O 	O 	0.69464 0.82233 0.18159 -0.41300
O 	O 	0.36213 0.77184 0.25581 -0.41000
O 	O 	0.62781 0.76226 0.25410 -0.40900
O 	O 	0.30155 0.84139 0.18582 -0.40700
O 	O 	0.67767 0.80536 0.31841 -0.41300
O 	O 	0.72816 0.13787 0.24419 -0.41000
O 	O 	0.73774 0.87219 0.24590 -0.40900
O 	O 	0.65861 0.19845 0.31418 -0.40700
O 	O 	0.19856 0.67767 0.31841 -0.41300
O 	O 	0.88978 0.72816 0.24419 -0.41100
O 	O 	0.14417 0.73774 0.24590 -0.40900
O 	O 	0.82876 0.65861 0.31418 -0.40700
O 	O 	0.80536 0.19856 0.31841 -0.41300
O 	O 	0.13787 0.88978 0.24419 -0.41000
O 	O 	0.87219 0.14417 0.24590 -0.40900
O 	O 	0.19845 0.82876 0.31418 -0.40700
