data_crystal

_cell_length_a 11.08100
_cell_length_b 11.08100
_cell_length_c 19.28010
_cell_angle_alpha 90.00000
_cell_angle_beta  90.00000
_cell_angle_gamma 120.00000

_symmetry_space_group_name_	'P 1'
_symmetry_space_group_name_H-M	'P 1'

loop_
_symmetry_equiv_pos_as_xyz
  x,y,z

loop_
_atom_site_label
_atom_site_type_symbol
_atom_site_fract_x
_atom_site_fract_y
_atom_site_fract_z
_atom_site_charge
O 	O 	0.65260 0.55260 0.82550 -0.39800
C 	C 	0.39420 0.37920 0.96610 0.07200
N 	N 	0.26100 0.28300 0.92760 -0.05900
O 	O 	0.44740 0.10000 0.82550 -0.39700
C 	C 	0.62080 0.01500 0.96610 0.07200
N 	N 	0.71700 0.97800 0.92760 -0.05900
O 	O 	0.90000 0.34740 0.82550 -0.39700
C 	C 	0.98500 0.60580 0.96610 0.07300
N 	N 	0.02200 0.73900 0.92760 -0.05800
O 	O 	0.34740 0.44740 0.32550 -0.39700
C 	C 	0.60580 0.62080 0.46610 0.07300
N 	N 	0.73900 0.71700 0.42760 -0.05900
O 	O 	0.55260 0.90000 0.32550 -0.39700
C 	C 	0.37920 0.98500 0.46610 0.07300
N 	N 	0.28300 0.02200 0.42760 -0.05900
O 	O 	0.10000 0.65260 0.32550 -0.39700
C 	C 	0.01500 0.39420 0.46610 0.07300
N 	N 	0.97800 0.26100 0.42760 -0.05900
O 	O 	0.55260 0.65260 0.17450 -0.39700
C 	C 	0.37920 0.39420 0.03390 0.07300
N 	N 	0.28300 0.26100 0.07240 -0.05900
O 	O 	0.10000 0.44740 0.17450 -0.39700
C 	C 	0.01500 0.62080 0.03390 0.07200
N 	N 	0.97800 0.71700 0.07240 -0.05900
O 	O 	0.34740 0.90000 0.17450 -0.39700
C 	C 	0.60580 0.98500 0.03390 0.07300
N 	N 	0.73900 0.02200 0.07240 -0.05800
O 	O 	0.44740 0.34740 0.67450 -0.39700
C 	C 	0.62080 0.60580 0.53390 0.07300
N 	N 	0.71700 0.73900 0.57240 -0.05900
O 	O 	0.90000 0.55260 0.67450 -0.39700
C 	C 	0.98500 0.37920 0.53390 0.07300
N 	N 	0.02200 0.28300 0.57240 -0.05900
O 	O 	0.65260 0.10000 0.67450 -0.39700
C 	C 	0.39420 0.01500 0.53390 0.07300
N 	N 	0.26100 0.97800 0.57240 -0.05900
O 	O 	0.34740 0.44740 0.17450 -0.39700
C 	C 	0.60580 0.62080 0.03390 0.07300
N 	N 	0.73900 0.71700 0.07240 -0.05900
O 	O 	0.55260 0.90000 0.17450 -0.39700
C 	C 	0.37920 0.98500 0.03390 0.07200
N 	N 	0.28300 0.02200 0.07240 -0.05900
O 	O 	0.10000 0.65260 0.17450 -0.39700
C 	C 	0.01500 0.39420 0.03390 0.07300
N 	N 	0.97800 0.26100 0.07240 -0.05800
O 	O 	0.65260 0.55260 0.67450 -0.39700
C 	C 	0.39420 0.37920 0.53390 0.07300
N 	N 	0.26100 0.28300 0.57240 -0.05900
O 	O 	0.44740 0.10000 0.67450 -0.39700
C 	C 	0.62080 0.01500 0.53390 0.07300
N 	N 	0.71700 0.97800 0.57240 -0.05900
O 	O 	0.90000 0.34740 0.67450 -0.39700
C 	C 	0.98500 0.60580 0.53390 0.07300
N 	N 	0.02200 0.73900 0.57240 -0.05900
O 	O 	0.44740 0.34740 0.82550 -0.39700
C 	C 	0.62080 0.60580 0.96610 0.07300
N 	N 	0.71700 0.73900 0.92760 -0.05900
O 	O 	0.90000 0.55260 0.82550 -0.39700
C 	C 	0.98500 0.37920 0.96610 0.07200
N 	N 	0.02200 0.28300 0.92760 -0.05900
O 	O 	0.65260 0.10000 0.82550 -0.39700
C 	C 	0.39420 0.01500 0.96610 0.07300
N 	N 	0.26100 0.97800 0.92760 -0.05800
O 	O 	0.55260 0.65260 0.32550 -0.39700
C 	C 	0.37920 0.39420 0.46610 0.07300
N 	N 	0.28300 0.26100 0.42760 -0.05900
O 	O 	0.10000 0.44740 0.32550 -0.39700
C 	C 	0.01500 0.62080 0.46610 0.07300
N 	N 	0.97800 0.71700 0.42760 -0.05900
O 	O 	0.34740 0.90000 0.32550 -0.39700
C 	C 	0.60580 0.98500 0.46610 0.07300
N 	N 	0.73900 0.02200 0.42760 -0.05900
Fe	Fe	0.76720 0.53440 0.75000 1.22700
Fe	Fe	0.46560 0.23280 0.75000 1.22700
Fe	Fe	0.76720 0.23280 0.75000 1.22700
Fe	Fe	0.23280 0.46560 0.25000 1.22700
Fe	Fe	0.53440 0.76720 0.25000 1.22700
Fe	Fe	0.23280 0.76720 0.25000 1.22700
O 	O 	0.66667 0.33333 0.75000 -0.65000
O 	O 	0.33333 0.66667 0.25000 -0.65000
C 	C 	0.53990 0.46010 0.85550 0.36000
C 	C 	0.51220 0.48780 0.92780 -0.09900
C 	C 	0.53990 0.07980 0.85550 0.36000
C 	C 	0.51220 0.02440 0.92780 -0.09900
C 	C 	0.92020 0.46010 0.85550 0.36000
C 	C 	0.97560 0.48780 0.92780 -0.09900
C 	C 	0.46010 0.53990 0.35550 0.36000
C 	C 	0.48780 0.51220 0.42780 -0.09900
C 	C 	0.46010 0.92020 0.35550 0.36000
C 	C 	0.48780 0.97560 0.42780 -0.09900
C 	C 	0.07980 0.53990 0.35550 0.36000
C 	C 	0.02440 0.51220 0.42780 -0.09900
C 	C 	0.46010 0.53990 0.14450 0.36000
C 	C 	0.48780 0.51220 0.07220 -0.09900
C 	C 	0.07980 0.53990 0.14450 0.36000
C 	C 	0.02440 0.51220 0.07220 -0.09900
C 	C 	0.46010 0.92020 0.14450 0.36000
C 	C 	0.48780 0.97560 0.07220 -0.09900
C 	C 	0.53990 0.46010 0.64450 0.36000
C 	C 	0.51220 0.48780 0.57220 -0.09900
C 	C 	0.92020 0.46010 0.64450 0.36000
C 	C 	0.97560 0.48780 0.57220 -0.09900
C 	C 	0.53990 0.07980 0.64450 0.36000
C 	C 	0.51220 0.02440 0.57220 -0.09900
