data_crystal

_cell_length_a 10.51360
_cell_length_b 11.46500
_cell_length_c 13.41750
_cell_angle_alpha 69.08400
_cell_angle_beta  78.60700
_cell_angle_gamma 63.54200

_symmetry_space_group_name_	'P 1'
_symmetry_space_group_name_H-M	'P 1'

loop_
_symmetry_equiv_pos_as_xyz
  x,y,z

loop_
_atom_site_label
_atom_site_type_symbol
_atom_site_fract_x
_atom_site_fract_y
_atom_site_fract_z
_atom_site_charge
U 	U 	0.62304 0.71343 0.83640 0.00700
Er	Er	0.59886 0.23045 0.75015 1.30900
O 	O 	0.84950 0.53740 0.91370 -0.19000
O 	O 	0.76080 0.49640 0.80170 -0.18800
O 	O 	0.81310 0.23570 0.77090 -0.42500
O 	O 	0.88610 0.36360 0.62690 -0.22200
O 	O 	0.41850 0.92000 0.81930 -0.20800
O 	O 	0.50390 0.07840 0.75360 -0.40600
O 	O 	0.48410 0.17690 0.91680 -0.39300
O 	O 	0.32700 0.19710 0.05140 -0.20600
O 	O 	0.50080 0.69390 0.71810 -0.18800
O 	O 	0.40970 0.70160 0.58080 -0.26200
O 	O 	0.73290 0.63400 0.53400 -0.19900
O 	O 	0.86540 0.74960 0.47880 -0.19700
C 	C 	0.99790 0.34350 0.85280 -0.00900
C 	C 	0.11110 0.31290 0.90950 -0.03200
H 	H 	0.09680 0.35860 0.95840 0.08100
C 	C 	0.24600 0.21510 0.89480 -0.05500
C 	C 	0.26570 0.14130 0.82470 -0.08100
C 	C 	0.14680 0.16610 0.77450 0.02400
H 	H 	0.15800 0.11260 0.73250 0.04500
C 	C 	0.01330 0.26730 0.78540 -0.07100
C 	C 	0.62630 0.99940 0.45010 -0.01200
H 	H 	0.71260 0.99850 0.41580 0.05900
C 	C 	0.61640 0.87590 0.50540 -0.03400
C 	C 	0.48700 0.87620 0.55610 -0.03400
C 	C 	0.86090 0.46180 0.85920 0.26400
C 	C 	0.36220 0.19440 0.95570 0.33000
C 	C 	0.40680 0.04160 0.79580 0.35600
C 	C 	0.89370 0.29120 0.72550 0.37100
C 	C 	0.46800 0.74750 0.62130 0.28900
C 	C 	0.74450 0.74540 0.50790 0.27300
U 	U 	0.37696 0.28657 0.16360 0.00800
Er	Er	0.40114 0.76955 0.24985 1.31000
O 	O 	0.15050 0.46260 0.08630 -0.19100
O 	O 	0.23920 0.50360 0.19830 -0.18800
O 	O 	0.18690 0.76430 0.22910 -0.42500
O 	O 	0.11390 0.63640 0.37310 -0.22200
O 	O 	0.58150 0.08000 0.18070 -0.20800
O 	O 	0.49610 0.92160 0.24640 -0.40600
O 	O 	0.51590 0.82310 0.08320 -0.39300
O 	O 	0.67300 0.80290 0.94860 -0.20600
O 	O 	0.49920 0.30610 0.28190 -0.18800
O 	O 	0.59030 0.29840 0.41920 -0.26200
O 	O 	0.26710 0.36600 0.46600 -0.19900
O 	O 	0.13460 0.25040 0.52120 -0.19700
C 	C 	0.00210 0.65650 0.14720 -0.01000
C 	C 	0.88890 0.68710 0.09050 -0.03100
H 	H 	0.90320 0.64140 0.04160 0.08100
C 	C 	0.75400 0.78490 0.10520 -0.05500
C 	C 	0.73430 0.85870 0.17530 -0.08100
C 	C 	0.85320 0.83390 0.22550 0.02400
H 	H 	0.84200 0.88740 0.26750 0.04500
C 	C 	0.98670 0.73270 0.21460 -0.07000
C 	C 	0.37370 0.00060 0.54990 -0.01200
H 	H 	0.28740 0.00150 0.58420 0.05900
C 	C 	0.38360 0.12410 0.49460 -0.03400
C 	C 	0.51300 0.12380 0.44390 -0.03400
C 	C 	0.13910 0.53820 0.14080 0.26400
C 	C 	0.63780 0.80560 0.04430 0.33100
C 	C 	0.59320 0.95840 0.20420 0.35600
C 	C 	0.10630 0.70880 0.27450 0.37100
C 	C 	0.53200 0.25250 0.37870 0.28900
C 	C 	0.25550 0.25460 0.49210 0.27300
U 	U 	-0.00000 0.50000 0.50000 0.00500
