data_crystal

_cell_length_a 10.56260
_cell_length_b 11.45590
_cell_length_c 13.48390
_cell_angle_alpha 69.11200
_cell_angle_beta  78.88900
_cell_angle_gamma 63.61400

_symmetry_space_group_name_	'P 1'
_symmetry_space_group_name_H-M	'P 1'

loop_
_symmetry_equiv_pos_as_xyz
  x,y,z

loop_
_atom_site_label
_atom_site_type_symbol
_atom_site_fract_x
_atom_site_fract_y
_atom_site_fract_z
_atom_site_charge
U 	U 	0.62316 0.71341 0.83667 0.00700
Ho	Ho	0.59942 0.23148 0.75050 1.34500
C 	C 	0.99770 0.34570 0.85000 -0.01300
C 	C 	0.11300 0.31650 0.90720 -0.02600
H 	H 	0.09870 0.36320 0.95530 0.07800
C 	C 	0.24830 0.21870 0.89270 -0.06200
C 	C 	0.26690 0.14400 0.82260 -0.08100
C 	C 	0.14700 0.16620 0.77460 0.02200
H 	H 	0.15710 0.11150 0.73410 0.04600
C 	C 	0.01460 0.26740 0.78620 -0.06600
C 	C 	0.62810 0.99960 0.45010 -0.01300
H 	H 	0.71380 0.99980 0.41690 0.05900
C 	C 	0.61800 0.87430 0.50570 -0.03900
C 	C 	0.49100 0.87370 0.55610 -0.03000
C 	C 	0.86180 0.46560 0.85410 0.27000
C 	C 	0.36340 0.19570 0.95540 0.34300
C 	C 	0.40740 0.04240 0.79780 0.36100
C 	C 	0.89430 0.29210 0.72490 0.37400
C 	C 	0.47170 0.74420 0.62200 0.29200
C 	C 	0.74430 0.74730 0.50790 0.27300
O 	O 	0.85090 0.53870 0.91190 -0.19100
O 	O 	0.76220 0.49580 0.80100 -0.19600
O 	O 	0.81450 0.23540 0.77090 -0.42800
O 	O 	0.88720 0.36170 0.62800 -0.22900
O 	O 	0.41680 0.92210 0.81750 -0.21100
O 	O 	0.50230 0.08010 0.75400 -0.41200
O 	O 	0.48160 0.18060 0.91510 -0.40800
O 	O 	0.32700 0.19520 0.05190 -0.21100
O 	O 	0.50270 0.69400 0.71840 -0.19100
O 	O 	0.41700 0.69730 0.58010 -0.26800
O 	O 	0.73700 0.63460 0.53680 -0.19900
O 	O 	0.86590 0.75100 0.47760 -0.19500
U 	U 	0.37684 0.28659 0.16333 0.00600
Ho	Ho	0.40058 0.76852 0.24950 1.34400
C 	C 	0.00230 0.65430 0.15000 -0.01500
C 	C 	0.88700 0.68350 0.09280 -0.02600
H 	H 	0.90130 0.63680 0.04470 0.07800
C 	C 	0.75170 0.78130 0.10730 -0.06200
C 	C 	0.73310 0.85600 0.17740 -0.08100
C 	C 	0.85300 0.83380 0.22540 0.02100
H 	H 	0.84290 0.88850 0.26590 0.04600
C 	C 	0.98540 0.73260 0.21380 -0.06500
C 	C 	0.37190 0.00040 0.54990 -0.01300
H 	H 	0.28620 0.00020 0.58310 0.05900
C 	C 	0.38200 0.12570 0.49430 -0.03900
C 	C 	0.50900 0.12630 0.44390 -0.03000
C 	C 	0.13820 0.53440 0.14590 0.27000
C 	C 	0.63660 0.80430 0.04460 0.34300
C 	C 	0.59260 0.95760 0.20220 0.36100
C 	C 	0.10570 0.70790 0.27510 0.37300
C 	C 	0.52830 0.25580 0.37800 0.29200
C 	C 	0.25570 0.25270 0.49210 0.27300
O 	O 	0.14910 0.46130 0.08810 -0.19100
O 	O 	0.23780 0.50420 0.19900 -0.19600
O 	O 	0.18550 0.76460 0.22910 -0.42800
O 	O 	0.11280 0.63830 0.37200 -0.22900
O 	O 	0.58320 0.07790 0.18250 -0.21100
O 	O 	0.49770 0.91990 0.24600 -0.41200
O 	O 	0.51840 0.81940 0.08490 -0.40800
O 	O 	0.67300 0.80480 0.94810 -0.21100
O 	O 	0.49730 0.30600 0.28160 -0.19100
O 	O 	0.58300 0.30270 0.41990 -0.26800
O 	O 	0.26300 0.36540 0.46320 -0.20000
O 	O 	0.13410 0.24900 0.52240 -0.19500
U 	U 	-0.00000 0.50000 0.50000 0.00400
