data_crystal

_cell_length_a 32.89390
_cell_length_b 32.89390
_cell_length_c 32.89390
_cell_angle_alpha 109.47100
_cell_angle_beta  109.47100
_cell_angle_gamma 109.47100

_symmetry_space_group_name_	'P 1'
_symmetry_space_group_name_H-M	'P 1'

loop_
_symmetry_equiv_pos_as_xyz
  x,y,z

loop_
_atom_site_label
_atom_site_type_symbol
_atom_site_fract_x
_atom_site_fract_y
_atom_site_fract_z
_atom_site_charge
Eu	Eu	0.15480 0.65516 0.98738 2.01200
Eu	Eu	0.18600 0.68962 0.87562 2.07600
Eu	Eu	0.50036 0.66778 0.65516 2.01100
Eu	Eu	0.49964 0.33222 0.34484 2.01100
Eu	Eu	0.33222 0.34484 0.49964 2.01100
Eu	Eu	0.81400 0.68962 0.50362 2.07600
Eu	Eu	0.68962 0.87562 0.18600 2.07600
Eu	Eu	0.49638 0.18600 0.31038 2.07600
Eu	Eu	0.15480 0.16742 0.49964 2.01100
Eu	Eu	0.87562 0.18600 0.68962 2.07600
Eu	Eu	0.66778 0.65516 0.50036 2.01100
Eu	Eu	0.18600 0.31038 0.49638 2.07600
Eu	Eu	0.16742 0.01262 0.66778 2.01100
Eu	Eu	0.33222 0.83258 0.98738 2.01100
Eu	Eu	0.83258 0.50036 0.84520 2.01100
Eu	Eu	0.81400 0.31038 0.12438 2.07600
Eu	Eu	0.98738 0.15480 0.65516 2.01200
Eu	Eu	0.01262 0.84520 0.34484 2.01200
Eu	Eu	0.84520 0.34484 0.01262 2.01200
Eu	Eu	0.50036 0.84520 0.83258 2.01100
Eu	Eu	0.49964 0.15480 0.16742 2.01100
Eu	Eu	0.65516 0.50036 0.66778 2.01100
Eu	Eu	0.83258 0.98738 0.33222 2.01100
Eu	Eu	0.34484 0.01262 0.84520 2.01200
Eu	Eu	0.68962 0.50362 0.81400 2.07600
Eu	Eu	0.01262 0.66778 0.16742 2.01100
Eu	Eu	0.34484 0.49964 0.33222 2.01100
Eu	Eu	0.31038 0.12438 0.81400 2.07600
Eu	Eu	0.98738 0.33222 0.83258 2.01100
Eu	Eu	0.65516 0.98738 0.15480 2.01200
Eu	Eu	0.31038 0.49638 0.18600 2.07600
Eu	Eu	0.50362 0.81400 0.68962 2.07600
Eu	Eu	0.12438 0.81400 0.31038 2.07600
Eu	Eu	0.16742 0.49964 0.15480 2.01100
Eu	Eu	0.66778 0.16742 0.01262 2.01100
Eu	Eu	0.84520 0.83258 0.50036 2.01100
H 	H 	0.59380 0.62820 0.96560 0.00300
H 	H 	0.89230 0.48890 0.29660 0.09600
H 	H 	0.53870 0.38100 0.91970 0.00100
H 	H 	0.24070 0.10420 0.42690 0.05300
H 	H 	0.10420 0.42690 0.24070 0.05300
H 	H 	0.32270 0.89580 0.13650 0.05300
H 	H 	0.99930 0.59390 0.70280 0.09300
H 	H 	0.23960 0.97800 0.73840 -0.14500
H 	H 	0.72430 0.11000 0.10570 0.01200
H 	H 	0.38100 0.84230 0.46130 0.00100
H 	H 	0.24510 0.20610 0.84540 0.01700
H 	H 	0.24510 0.39970 0.03900 0.01700
H 	H 	0.10280 0.22010 0.59850 0.00600
H 	H 	0.51110 0.70340 0.10770 0.09600
H 	H 	0.67730 0.10420 0.86350 0.05300
H 	H 	0.39080 0.48970 0.09890 -0.04200
H 	H 	0.15770 0.53870 0.61900 0.00100
H 	H 	0.61860 0.61430 0.72430 0.01200
H 	H 	0.40610 0.40540 0.10890 0.09300
H 	H 	0.40140 0.85920 0.65040 0.01800
H 	H 	0.72430 0.61860 0.61430 0.01200
H 	H 	0.48890 0.29660 0.89230 0.09600
H 	H 	0.31540 0.66770 0.06570 0.04700
H 	H 	0.29720 0.89110 0.29650 0.09300
H 	H 	0.03900 0.63930 0.79390 0.01700
H 	H 	0.46130 0.38100 0.84230 0.00100
H 	H 	0.60030 0.96100 0.75490 0.01700
H 	H 	0.37180 0.96560 0.33740 0.00300
H 	H 	0.42690 0.32270 0.18620 0.05300
H 	H 	0.15460 0.75490 0.79390 0.01700
H 	H 	0.59850 0.10280 0.22010 0.00700
H 	H 	0.38140 0.38570 0.27570 0.01300
H 	H 	0.42690 0.24070 0.10420 0.05400
H 	H 	0.84540 0.63930 0.60030 0.01800
H 	H 	0.79120 0.24900 0.65040 0.01900
H 	H 	0.62160 0.22010 0.11730 0.00700
H 	H 	0.48970 0.09890 0.39080 -0.04100
H 	H 	0.80770 0.40430 0.29660 0.09700
H 	H 	0.35230 0.68460 0.75030 0.04800
H 	H 	0.66260 0.62820 0.03440 0.00400
H 	H 	0.89720 0.49570 0.11730 0.00700
H 	H 	0.37840 0.77990 0.88270 0.00700
H 	H 	0.60920 0.51030 0.90110 -0.04100
H 	H 	0.33230 0.64770 0.39800 0.04800
H 	H 	0.81380 0.13650 0.24070 0.05400
H 	H 	0.59860 0.14080 0.34960 0.01900
H 	H 	0.03900 0.24510 0.39970 0.01800
H 	H 	0.70350 0.70280 0.10890 0.09400
H 	H 	0.61430 0.72430 0.61860 0.01300
H 	H 	0.84540 0.24510 0.20610 0.01800
H 	H 	0.59390 0.70280 0.99930 0.09400
H 	H 	0.54220 0.40140 0.75100 0.01900
H 	H 	0.61900 0.15770 0.53870 0.00200
H 	H 	0.11730 0.89720 0.49570 0.00700
H 	H 	0.40340 0.80770 0.51110 0.09700
H 	H 	0.96560 0.33740 0.37180 0.00400
H 	H 	0.89430 0.27570 0.89000 0.01300
H 	H 	0.24970 0.64770 0.31540 0.04800
H 	H 	0.10420 0.86350 0.67730 0.05400
H 	H 	0.79120 0.14080 0.54220 0.01900
H 	H 	0.59460 0.00070 0.70350 0.09400
H 	H 	0.67730 0.81380 0.57310 0.05400
H 	H 	0.68460 0.75030 0.35230 0.04800
H 	H 	0.40620 0.37180 0.03440 0.00400
H 	H 	0.62820 0.96560 0.59380 0.00400
H 	H 	0.93430 0.68460 0.33230 0.04800
H 	H 	0.24970 0.93430 0.60200 0.04800
H 	H 	0.27570 0.38140 0.38570 0.01300
H 	H 	0.19230 0.59570 0.70340 0.09700
H 	H 	0.40610 0.29720 0.00070 0.09400
H 	H 	0.75030 0.35230 0.68460 0.04800
H 	H 	0.49570 0.11730 0.89720 0.00700
H 	H 	0.50120 0.26160 0.23960 -0.14400
H 	H 	0.50430 0.88270 0.10280 0.00700
H 	H 	0.40340 0.89230 0.59570 0.09700
H 	H 	0.99570 0.89000 0.61430 0.01300
H 	H 	0.10570 0.72430 0.11000 0.01300
H 	H 	0.24070 0.81380 0.13650 0.05400
H 	H 	0.26160 0.23960 0.50120 -0.14400
H 	H 	0.24900 0.65040 0.79120 0.01900
H 	H 	0.59570 0.40340 0.89230 0.09700
H 	H 	0.20880 0.75100 0.34960 0.01900
H 	H 	0.36070 0.20610 0.96100 0.01800
H 	H 	0.85920 0.45780 0.20880 0.01900
H 	H 	0.45780 0.20880 0.85920 0.01900
H 	H 	0.70340 0.10770 0.51110 0.09700
H 	H 	0.99930 0.29650 0.40540 0.09400
H 	H 	0.10570 0.99570 0.38140 0.01400
H 	H 	0.11000 0.38570 0.00430 0.01300
H 	H 	0.60920 0.70810 0.09890 -0.04100
H 	H 	0.33740 0.37180 0.96560 0.00400
H 	H 	0.29720 0.00070 0.40610 0.09400
H 	H 	0.91970 0.53870 0.38100 0.00200
H 	H 	0.57310 0.67730 0.81380 0.05400
H 	H 	0.73840 0.76040 0.49880 -0.14400
H 	H 	0.62820 0.03440 0.66260 0.00400
H 	H 	0.89110 0.59390 0.59460 0.09400
H 	H 	0.50430 0.40150 0.62160 0.00700
H 	H 	0.59390 0.59460 0.89110 0.09400
H 	H 	0.40150 0.89720 0.77990 0.00700
H 	H 	0.40430 0.29660 0.80770 0.09700
H 	H 	0.64770 0.39800 0.33230 0.04800
H 	H 	0.81380 0.57310 0.67730 0.05400
H 	H 	0.96560 0.59380 0.62820 0.00400
H 	H 	0.40540 0.99930 0.29650 0.09400
H 	H 	0.49570 0.59850 0.37840 0.00700
H 	H 	0.00070 0.70350 0.59460 0.09400
H 	H 	0.60030 0.84540 0.63930 0.01800
H 	H 	0.48890 0.59660 0.19230 0.09700
H 	H 	0.75490 0.79390 0.15460 0.01800
H 	H 	0.39800 0.75030 0.06570 0.04800
H 	H 	0.10770 0.40430 0.59660 0.09700
H 	H 	0.75030 0.06570 0.39800 0.04800
H 	H 	0.60200 0.66770 0.35230 0.04800
H 	H 	0.10890 0.70350 0.70280 0.09400
H 	H 	0.86350 0.67730 0.10420 0.05400
H 	H 	0.88270 0.10280 0.50430 0.00700
H 	H 	0.53870 0.61900 0.15770 0.00200
H 	H 	0.45780 0.59860 0.24900 0.01900
H 	H 	0.96100 0.75490 0.60030 0.01800
H 	H 	0.31540 0.24970 0.64770 0.04800
H 	H 	0.80770 0.51110 0.40340 0.09700
H 	H 	0.66770 0.06570 0.31540 0.04800
H 	H 	0.70350 0.59460 0.00070 0.09400
H 	H 	0.40540 0.10890 0.40610 0.09400
H 	H 	0.65040 0.40140 0.85920 0.01900
H 	H 	0.70280 0.99930 0.59390 0.09400
H 	H 	0.64770 0.31540 0.24970 0.04800
H 	H 	0.70280 0.10890 0.70350 0.09400
H 	H 	0.75930 0.18620 0.86350 0.05400
H 	H 	0.60200 0.24970 0.93430 0.04800
H 	H 	0.96100 0.36070 0.20610 0.01800
H 	H 	0.73840 0.23960 0.97800 -0.14400
H 	H 	0.51110 0.40340 0.80770 0.09700
H 	H 	0.29190 0.90110 0.39080 -0.04100
H 	H 	0.61860 0.89430 0.00430 0.01400
H 	H 	0.34960 0.20880 0.75100 0.01900
H 	H 	0.68460 0.33230 0.93430 0.04800
H 	H 	0.19230 0.48890 0.59660 0.09700
H 	H 	0.89580 0.57310 0.75930 0.05400
H 	H 	0.66770 0.35230 0.60200 0.04800
H 	H 	0.59660 0.10770 0.40430 0.09700
H 	H 	0.06570 0.39800 0.75030 0.04800
H 	H 	0.29650 0.29720 0.89110 0.09400
H 	H 	0.51030 0.90110 0.60920 -0.04100
H 	H 	0.90110 0.60920 0.51030 -0.04100
H 	H 	0.33230 0.93430 0.68460 0.04800
H 	H 	0.85920 0.65040 0.40140 0.01900
H 	H 	0.38570 0.27570 0.38140 0.01300
H 	H 	0.77990 0.88270 0.37840 0.00700
H 	H 	0.89000 0.61430 0.99570 0.01300
H 	H 	0.59460 0.89110 0.59390 0.09400
H 	H 	0.54220 0.79120 0.14080 0.01900
H 	H 	0.15460 0.36070 0.39970 0.01800
H 	H 	0.63930 0.60030 0.84540 0.01800
H 	H 	0.36070 0.39970 0.15460 0.01800
H 	H 	0.65040 0.79120 0.24900 0.01900
H 	H 	0.18620 0.86350 0.75930 0.05400
H 	H 	0.13650 0.32270 0.89580 0.05400
H 	H 	0.10770 0.51110 0.70340 0.09700
H 	H 	0.37840 0.49570 0.59850 0.00700
H 	H 	0.75100 0.34960 0.20880 0.01900
H 	H 	0.99570 0.38140 0.10570 0.01400
H 	H 	0.89000 0.89430 0.27570 0.01300
H 	H 	0.09890 0.39080 0.48970 -0.04100
H 	H 	0.22010 0.59850 0.10280 0.00700
H 	H 	0.20610 0.96100 0.36070 0.01800
H 	H 	0.89110 0.29650 0.29720 0.09400
H 	H 	0.02200 0.26160 0.76040 -0.14400
H 	H 	0.09890 0.60920 0.70810 -0.04100
H 	H 	0.23960 0.50120 0.26160 -0.14400
H 	H 	0.40430 0.59660 0.10770 0.09700
H 	H 	0.77990 0.40150 0.89720 0.00700
H 	H 	0.75490 0.60030 0.96100 0.01800
H 	H 	0.24900 0.45780 0.59860 0.01900
H 	H 	0.32270 0.18620 0.42690 0.05400
H 	H 	0.59660 0.19230 0.48890 0.09700
H 	H 	0.76040 0.02200 0.26160 -0.14400
H 	H 	0.37180 0.03440 0.40620 0.00400
H 	H 	0.61900 0.08030 0.46130 0.00200
H 	H 	0.57310 0.75930 0.89580 0.05400
H 	H 	0.70340 0.19230 0.59570 0.09700
H 	H 	0.59860 0.24900 0.45780 0.01900
H 	H 	0.27570 0.89000 0.89430 0.01300
H 	H 	0.39970 0.15460 0.36070 0.01800
H 	H 	0.79390 0.03900 0.63930 0.01800
H 	H 	0.00430 0.61860 0.89430 0.01400
H 	H 	0.20610 0.84540 0.24510 0.01800
H 	H 	0.79390 0.15460 0.75490 0.01800
H 	H 	0.97800 0.73840 0.23960 -0.14400
H 	H 	0.86350 0.75930 0.18620 0.05400
H 	H 	0.75930 0.89580 0.57310 0.05400
H 	H 	0.49880 0.73840 0.76040 -0.14400
H 	H 	0.14080 0.34960 0.59860 0.01900
H 	H 	0.40140 0.75100 0.54220 0.01900
H 	H 	0.84230 0.46130 0.38100 0.00200
H 	H 	0.11000 0.10570 0.72430 0.01300
H 	H 	0.03440 0.40620 0.37180 0.00400
H 	H 	0.26160 0.76040 0.02200 -0.14400
H 	H 	0.38140 0.10570 0.99570 0.01400
H 	H 	0.63930 0.79390 0.03900 0.01800
H 	H 	0.06570 0.31540 0.66770 0.04800
H 	H 	0.10890 0.40610 0.40540 0.09400
H 	H 	0.03440 0.66260 0.62820 0.00400
H 	H 	0.46130 0.61900 0.08030 0.00200
H 	H 	0.89430 0.00430 0.61860 0.01400
H 	H 	0.62160 0.50430 0.40150 0.00700
H 	H 	0.35230 0.60200 0.66770 0.04800
H 	H 	0.38570 0.00430 0.11000 0.01300
H 	H 	0.90110 0.39080 0.29190 -0.04100
H 	H 	0.14080 0.54220 0.79120 0.01900
H 	H 	0.39800 0.33230 0.64770 0.04800
H 	H 	0.29660 0.80770 0.40430 0.09700
H 	H 	0.88270 0.37840 0.77990 0.00700
H 	H 	0.00070 0.40610 0.29720 0.09400
H 	H 	0.22010 0.11730 0.62160 0.00700
H 	H 	0.29650 0.40540 0.99930 0.09400
H 	H 	0.89580 0.13650 0.32270 0.05400
H 	H 	0.40150 0.62160 0.50430 0.00700
H 	H 	0.75100 0.54220 0.40140 0.01900
H 	H 	0.13650 0.24070 0.81380 0.05400
H 	H 	0.39970 0.03900 0.24510 0.01800
H 	H 	0.70810 0.09890 0.60920 -0.04100
H 	H 	0.38100 0.91970 0.53870 0.00200
H 	H 	0.59570 0.70340 0.19230 0.09700
H 	H 	0.61430 0.99570 0.89000 0.01300
H 	H 	0.20880 0.85920 0.45780 0.01900
H 	H 	0.08030 0.46130 0.61900 0.00200
H 	H 	0.39080 0.29190 0.90110 -0.04100
H 	H 	0.34960 0.59860 0.14080 0.01900
H 	H 	0.89720 0.77990 0.40150 0.00700
H 	H 	0.18620 0.42690 0.32270 0.05400
H 	H 	0.10280 0.50430 0.88270 0.00700
H 	H 	0.29660 0.89230 0.48890 0.09700
H 	H 	0.76040 0.49880 0.73840 -0.14400
H 	H 	0.11730 0.62160 0.22010 0.00700
H 	H 	0.59850 0.37840 0.49570 0.00700
H 	H 	0.89230 0.59570 0.40340 0.09700
H 	H 	0.00430 0.11000 0.38570 0.01300
H 	H 	0.93430 0.60200 0.24970 0.04800
C 	C 	0.10290 0.49510 0.85280 0.10300
C 	C 	0.09580 0.43440 0.16260 0.32500
C 	C 	0.08050 0.44510 0.81820 -0.13000
C 	C 	0.33990 0.63540 0.10330 -0.06600
C 	C 	0.58210 0.22690 0.17860 0.38000
C 	C 	0.43500 0.23670 0.35270 0.51500
C 	C 	0.61120 0.34840 0.89600 0.12800
C 	C 	0.76340 0.29550 0.66010 -0.06600
C 	C 	0.35770 0.74990 0.85280 0.10300
C 	C 	0.22690 0.17860 0.58210 0.38000
C 	C 	0.35270 0.11600 0.91770 0.51500
C 	C 	0.33990 0.23660 0.70450 -0.06600
C 	C 	0.28010 0.67230 0.79800 0.06400
C 	C 	0.10400 0.38880 0.65160 0.12800
C 	C 	0.61250 0.82500 0.62770 0.04800
C 	C 	0.09440 0.40280 0.37400 -0.16500
C 	C 	0.00560 0.38480 0.13720 0.07500
C 	C 	0.08230 0.19830 0.43500 0.51600
C 	C 	0.59300 0.82900 0.94420 -0.10800
C 	C 	0.91770 0.35270 0.11600 0.51500
C 	C 	0.45220 0.35830 0.81050 0.08900
C 	C 	0.73770 0.81820 0.37310 -0.13000
C 	C 	0.17500 0.37230 0.38750 0.04800
C 	C 	0.35960 0.96500 0.19620 -0.05200
C 	C 	0.36460 0.91950 0.73770 -0.13000
C 	C 	0.77350 0.34210 0.69280 0.03200
C 	C 	0.78200 0.92950 0.58810 0.01300
C 	C 	0.02880 0.40280 0.30840 -0.16500
C 	C 	0.81980 0.84970 0.21710 -0.18200
C 	C 	0.43140 0.77350 0.08070 0.03200
C 	C 	0.61520 0.62080 0.75240 0.07500
C 	C 	0.17860 0.58210 0.22690 0.38000
C 	C 	0.40280 0.37400 0.09440 -0.16500
C 	C 	0.01520 0.21250 0.38750 0.04800
C 	C 	0.19730 0.82500 0.21250 0.04800
C 	C 	0.83740 0.90420 0.56560 0.32500
C 	C 	0.56560 0.83740 0.90420 0.32500
C 	C 	0.15730 0.87450 0.46840 -0.19900
C 	C 	0.58810 0.65860 0.80610 0.01300
C 	C 	0.84270 0.12550 0.53160 -0.19900
C 	C 	0.35070 0.65790 0.43140 0.03200
C 	C 	0.80610 0.14750 0.21800 0.01300
C 	C 	0.83740 0.27180 0.93320 0.32500
C 	C 	0.10400 0.45240 0.71520 0.12800
C 	C 	0.88290 0.37450 0.25740 0.19800
C 	C 	0.66010 0.76340 0.29550 -0.06600
C 	C 	0.98480 0.78750 0.61250 0.04800
C 	C 	0.73720 0.45240 0.34840 0.12800
C 	C 	0.09390 0.45220 0.64170 0.08900
C 	C 	0.11520 0.35120 0.94420 -0.10800
C 	C 	0.41310 0.62380 0.10290 -0.17100
C 	C 	0.26280 0.54760 0.65160 0.12800
C 	C 	0.93320 0.83740 0.27180 0.32500
C 	C 	0.53210 0.63540 0.29550 -0.06600
C 	C 	0.88400 0.08230 0.64730 0.51500
C 	C 	0.41790 0.77310 0.82140 0.38000
C 	C 	0.27240 0.57110 0.15630 0.54900
C 	C 	0.96500 0.60540 0.76880 -0.05200
C 	C 	0.72820 0.06680 0.16260 0.32500
C 	C 	0.28280 0.59390 0.12550 -0.19900
C 	C 	0.15630 0.58520 0.88390 0.54900
C 	C 	0.60780 0.12570 0.32770 0.06400
C 	C 	0.28280 0.15730 0.68890 -0.19900
C 	C 	0.62770 0.80270 0.01520 0.04800
C 	C 	0.80380 0.76880 0.16340 -0.05200
C 	C 	0.94940 0.59580 0.64640 0.08200
C 	C 	0.75240 0.61520 0.62080 0.07500
C 	C 	0.78200 0.19390 0.85250 0.01300
C 	C 	0.81050 0.45220 0.35830 0.08900
C 	C 	0.62600 0.02880 0.72040 -0.16500
C 	C 	0.28010 0.48210 0.60780 0.06400
C 	C 	0.37310 0.55490 0.63540 -0.13000
C 	C 	0.05580 0.40700 0.17100 -0.10800
C 	C 	0.58690 0.68980 0.21070 -0.17100
C 	C 	0.69160 0.09440 0.72040 -0.16500
C 	C 	0.38480 0.13720 0.00560 0.07500
C 	C 	0.04830 0.22690 0.64480 0.38000
C 	C 	0.19620 0.23120 0.83660 -0.05200
C 	C 	0.33860 0.27180 0.43440 0.32500
C 	C 	0.57110 0.29870 0.41480 0.54900
C 	C 	0.59580 0.64640 0.94940 0.08200
C 	C 	0.82140 0.04830 0.40350 0.38000
C 	C 	0.79800 0.12570 0.51790 0.06400
C 	C 	0.49510 0.39220 0.64230 0.10300
C 	C 	0.70130 0.58520 0.42890 0.54900
C 	C 	0.71990 0.51790 0.39220 0.06400
C 	C 	0.21250 0.19730 0.82500 0.04800
C 	C 	0.78750 0.80270 0.17500 0.04800
C 	C 	0.39730 0.02990 0.18020 -0.18300
C 	C 	0.00560 0.86840 0.62080 0.07600
C 	C 	0.05060 0.40420 0.35360 0.08200
C 	C 	0.36460 0.70450 0.46790 -0.06600
C 	C 	0.34140 0.92950 0.14750 0.01300
C 	C 	0.88400 0.23670 0.80170 0.51500
C 	C 	0.71520 0.10400 0.45240 0.12800
C 	C 	0.62550 0.50840 0.88290 0.19800
C 	C 	0.59390 0.31110 0.46840 -0.19900
C 	C 	0.71720 0.84270 0.31110 -0.19900
C 	C 	0.84970 0.21710 0.81980 -0.18200
C 	C 	0.17500 0.78750 0.80270 0.04800
C 	C 	0.74400 0.98740 0.24340 0.53800
C 	C 	0.51790 0.79800 0.12570 0.06400
C 	C 	0.15630 0.27240 0.57110 0.54900
C 	C 	0.19390 0.41190 0.34140 0.01300
C 	C 	0.59720 0.69160 0.97120 -0.16500
C 	C 	0.60780 0.10290 0.25010 0.10300
C 	C 	0.08070 0.43140 0.77350 0.03200
C 	C 	0.37230 0.38750 0.17500 0.04800
C 	C 	0.74990 0.39220 0.89710 0.10300
C 	C 	0.10330 0.33990 0.63540 -0.06600
C 	C 	0.95170 0.77310 0.35520 0.38000
C 	C 	0.63540 0.10330 0.33990 -0.06600
C 	C 	0.70450 0.33990 0.23660 -0.06600
C 	C 	0.64170 0.18950 0.54780 0.08900
C 	C 	0.34140 0.19390 0.41190 0.01300
C 	C 	0.13160 0.37920 0.99440 0.07600
C 	C 	0.08070 0.30720 0.64930 0.03200
C 	C 	0.62770 0.61250 0.82500 0.04800
C 	C 	0.81820 0.08050 0.44510 -0.13000
C 	C 	0.50490 0.14720 0.89710 0.10300
C 	C 	0.79800 0.28010 0.67230 0.06400
C 	C 	0.25600 0.49940 0.24340 0.53800
C 	C 	0.62380 0.21070 0.52090 -0.17100
C 	C 	0.64640 0.05060 0.69700 0.08200
C 	C 	0.60390 0.71800 0.94630 0.11800
C 	C 	0.72760 0.88390 0.29870 0.54900
C 	C 	0.19620 0.35960 0.96500 -0.05200
C 	C 	0.89710 0.58690 0.37620 -0.17100
C 	C 	0.11600 0.76330 0.19830 0.51500
C 	C 	0.10290 0.25010 0.60780 0.10300
C 	C 	0.24760 0.38480 0.37920 0.07500
C 	C 	0.45220 0.64170 0.09390 0.08900
C 	C 	0.59650 0.64480 0.41790 0.38000
C 	C 	0.94940 0.30300 0.35360 0.08200
C 	C 	0.83660 0.19620 0.23120 -0.05200
C 	C 	0.40700 0.17100 0.05580 -0.10800
C 	C 	0.03500 0.80380 0.64040 -0.05200
C 	C 	0.54780 0.35830 0.90610 0.08900
C 	C 	0.35360 0.05060 0.40420 0.08200
C 	C 	0.36460 0.89670 0.66010 -0.06600
C 	C 	0.80170 0.56500 0.91770 0.51600
C 	C 	0.58690 0.37620 0.89710 -0.17100
C 	C 	0.37400 0.09440 0.40280 -0.16500
C 	C 	0.53210 0.23660 0.89670 -0.06600
C 	C 	0.49940 0.24340 0.25600 0.53800
C 	C 	0.62080 0.00560 0.86840 0.07600
C 	C 	0.97010 0.36740 0.15030 -0.18200
C 	C 	0.51790 0.39220 0.71990 0.06400
C 	C 	0.45240 0.71520 0.10400 0.12800
C 	C 	0.92950 0.58810 0.78200 0.01300
C 	C 	0.89710 0.74990 0.39220 0.10300
C 	C 	0.49160 0.11710 0.37450 0.19800
C 	C 	0.70450 0.46790 0.36460 -0.06600
C 	C 	0.30840 0.02880 0.40280 -0.16500
C 	C 	0.28480 0.73720 0.38880 0.12800
C 	C 	0.69280 0.35070 0.91930 0.03200
C 	C 	0.59650 0.17860 0.95170 0.38000
C 	C 	0.52090 0.62380 0.21070 -0.17100
C 	C 	0.19830 0.43500 0.08230 0.51600
C 	C 	0.60270 0.97010 0.81980 -0.18300
C 	C 	0.62080 0.75240 0.61520 0.07500
C 	C 	0.35520 0.58210 0.40350 0.38000
C 	C 	0.94420 0.11520 0.35120 -0.10800
C 	C 	0.40610 0.87450 0.71720 -0.19900
C 	C 	0.86840 0.86280 0.24760 0.07500
C 	C 	0.76880 0.16340 0.80380 -0.05200
C 	C 	0.24340 0.74400 0.98740 0.53800
C 	C 	0.28480 0.89600 0.54760 0.12800
C 	C 	0.84370 0.41480 0.11610 0.54900
C 	C 	0.18020 0.15030 0.78290 -0.18200
C 	C 	0.65790 0.43140 0.35070 0.03200
C 	C 	0.48210 0.60780 0.28010 0.06400
C 	C 	0.76340 0.10330 0.46790 -0.06600
C 	C 	0.32770 0.20200 0.71990 0.06400
C 	C 	0.38880 0.65160 0.10400 0.12800
C 	C 	0.75660 0.25600 0.01260 0.53800
C 	C 	0.85250 0.65860 0.07050 0.01300
C 	C 	0.13160 0.13720 0.75240 0.07500
C 	C 	0.21710 0.36740 0.39730 -0.18200
C 	C 	0.37450 0.25740 0.88290 0.19800
C 	C 	0.64930 0.34210 0.56860 0.03200
C 	C 	0.57110 0.15630 0.27240 0.54900
C 	C 	0.25740 0.88290 0.37450 0.19800
C 	C 	0.14720 0.89710 0.50490 0.10300
C 	C 	0.27960 0.30840 0.90560 -0.16500
C 	C 	0.11520 0.17100 0.76400 -0.10800
C 	C 	0.35360 0.94940 0.30300 0.08200
C 	C 	0.15030 0.78290 0.18020 -0.18200
C 	C 	0.69280 0.77350 0.34210 0.03200
C 	C 	0.37400 0.97120 0.27960 -0.16500
C 	C 	0.30720 0.64930 0.08070 0.03200
C 	C 	0.37230 0.19730 0.98480 0.04800
C 	C 	0.29870 0.41480 0.57110 0.54900
C 	C 	0.23660 0.89670 0.53210 -0.06600
C 	C 	0.74260 0.11710 0.62550 0.19800
C 	C 	0.28200 0.88590 0.22830 0.11800
C 	C 	0.38750 0.17500 0.37230 0.04800
C 	C 	0.40700 0.35120 0.23600 -0.10800
C 	C 	0.69700 0.64640 0.05060 0.08200
C 	C 	0.76400 0.59300 0.64880 -0.10800
C 	C 	0.14720 0.64230 0.25010 0.10300
C 	C 	0.39610 0.28200 0.05370 0.11800
C 	C 	0.86840 0.62080 0.00560 0.07600
C 	C 	0.75660 0.74400 0.50060 0.53800
C 	C 	0.15730 0.68890 0.28280 -0.19900
C 	C 	0.78290 0.18020 0.15030 -0.18200
C 	C 	0.01520 0.62770 0.80270 0.04800
C 	C 	0.29550 0.66010 0.76340 -0.06600
C 	C 	0.31110 0.71720 0.84270 -0.19900
C 	C 	0.32770 0.60780 0.12570 0.06400
C 	C 	0.94630 0.22830 0.34240 0.11800
C 	C 	0.91930 0.56860 0.22650 0.03200
C 	C 	0.64040 0.03500 0.80380 -0.05200
C 	C 	0.53160 0.84270 0.12550 -0.19900
C 	C 	0.76880 0.96500 0.60540 -0.05200
C 	C 	0.87430 0.48210 0.20200 0.06400
C 	C 	0.45240 0.34840 0.73720 0.12800
C 	C 	0.22830 0.28200 0.88590 0.11800
C 	C 	0.63260 0.84970 0.02990 -0.18200
C 	C 	0.88390 0.29870 0.72760 0.54900
C 	C 	0.27180 0.43440 0.33860 0.32500
C 	C 	0.18180 0.62690 0.26230 -0.13000
C 	C 	0.39730 0.21710 0.36740 -0.18200
C 	C 	0.81820 0.37310 0.73770 -0.13000
C 	C 	0.35520 0.95170 0.77310 0.38000
C 	C 	0.08050 0.26230 0.63540 -0.13000
C 	C 	0.21250 0.38750 0.01520 0.04800
C 	C 	0.35960 0.16340 0.39460 -0.05200
C 	C 	0.78930 0.41310 0.31020 -0.17100
C 	C 	0.82500 0.21250 0.19730 0.04800
C 	C 	0.71800 0.11410 0.77170 0.11800
C 	C 	0.37310 0.73770 0.81820 -0.13000
C 	C 	0.02990 0.18020 0.39730 -0.18300
C 	C 	0.16260 0.09580 0.43440 0.32500
C 	C 	0.85250 0.78200 0.19390 0.01300
C 	C 	0.98740 0.24340 0.74400 0.53800
C 	C 	0.38880 0.28480 0.73720 0.12800
C 	C 	0.44510 0.36460 0.62690 -0.13000
C 	C 	0.38480 0.37920 0.24760 0.07500
C 	C 	0.23660 0.70450 0.33990 -0.06600
C 	C 	0.69160 0.97120 0.59720 -0.16500
C 	C 	0.77170 0.65760 0.05370 0.11800
C 	C 	0.17860 0.95170 0.59650 0.38000
C 	C 	0.80270 0.17500 0.78750 0.04800
C 	C 	0.26230 0.63540 0.08050 -0.13000
C 	C 	0.90420 0.06680 0.33860 0.32500
C 	C 	0.21710 0.81980 0.84970 -0.18200
C 	C 	0.23670 0.80170 0.88400 0.51500
C 	C 	0.61520 0.86280 0.99440 0.07500
C 	C 	0.17100 0.05580 0.40700 -0.10800
C 	C 	0.18180 0.91950 0.55490 -0.13000
C 	C 	0.98480 0.37230 0.19730 0.04800
C 	C 	0.56500 0.76330 0.64730 0.51500
C 	C 	0.80270 0.01520 0.62770 0.04800
C 	C 	0.55490 0.63540 0.37310 -0.13000
C 	C 	0.11600 0.91770 0.35270 0.51500
C 	C 	0.65790 0.30720 0.22650 0.03200
C 	C 	0.27180 0.93320 0.83740 0.32500
C 	C 	0.68890 0.53160 0.40610 -0.19900
C 	C 	0.66140 0.09580 0.93320 0.32500
C 	C 	0.60780 0.28010 0.48210 0.06400
C 	C 	0.35120 0.94420 0.11520 -0.10800
C 	C 	0.71990 0.32770 0.20200 0.06400
C 	C 	0.12550 0.53160 0.84270 -0.19900
C 	C 	0.71720 0.40610 0.87450 -0.19900
C 	C 	0.35070 0.91930 0.69280 0.03200
C 	C 	0.62690 0.44510 0.36460 -0.13000
C 	C 	0.55490 0.18180 0.91950 -0.13000
C 	C 	0.38750 0.01520 0.21250 0.04800
C 	C 	0.88390 0.15630 0.58520 0.54900
C 	C 	0.65760 0.88590 0.60390 0.11800
C 	C 	0.03500 0.39460 0.23120 -0.05200
C 	C 	0.58520 0.88390 0.15630 0.54900
C 	C 	0.24340 0.25600 0.49940 0.53800
C 	C 	0.50060 0.75660 0.74400 0.53800
C 	C 	0.90420 0.56560 0.83740 0.32500
C 	C 	0.16340 0.80380 0.76880 -0.05200
C 	C 	0.65160 0.26280 0.54760 0.12800
C 	C 	0.25600 0.01260 0.75660 0.53800
C 	C 	0.40420 0.35360 0.05060 0.08200
C 	C 	0.74990 0.85280 0.35770 0.10300
C 	C 	0.70130 0.27240 0.11610 0.54900
C 	C 	0.41790 0.59650 0.64480 0.38000
C 	C 	0.05060 0.69700 0.64640 0.08200
C 	C 	0.34210 0.69280 0.77350 0.03200
C 	C 	0.64170 0.09390 0.45220 0.08900
C 	C 	0.72820 0.56560 0.66140 0.32500
C 	C 	0.84370 0.72760 0.42890 0.54900
C 	C 	0.91950 0.73770 0.36460 -0.13000
C 	C 	0.99440 0.61520 0.86280 0.07500
C 	C 	0.18020 0.39730 0.02990 -0.18300
C 	C 	0.23600 0.88480 0.82900 -0.10800
C 	C 	0.56860 0.22650 0.91930 0.03200
C 	C 	0.23120 0.83660 0.19620 -0.05200
C 	C 	0.31110 0.46840 0.59390 -0.19900
C 	C 	0.89670 0.53210 0.23660 -0.06600
C 	C 	0.63540 0.08050 0.26230 -0.13000
C 	C 	0.73720 0.38880 0.28480 0.12800
C 	C 	0.64880 0.76400 0.59300 -0.10800
C 	C 	0.97010 0.81980 0.60270 -0.18300
C 	C 	0.84270 0.31110 0.71720 -0.19900
C 	C 	0.63260 0.60270 0.78290 -0.18200
C 	C 	0.04830 0.40350 0.82140 0.38000
C 	C 	0.06680 0.33860 0.90420 0.32500
C 	C 	0.50840 0.88290 0.62550 0.19800
C 	C 	0.89710 0.52090 0.31020 -0.17100
C 	C 	0.16260 0.72820 0.06680 0.32500
C 	C 	0.91950 0.55490 0.18180 -0.13000
C 	C 	0.37620 0.89710 0.58690 -0.17100
C 	C 	0.89670 0.66010 0.36460 -0.06600
C 	C 	0.62380 0.10290 0.41310 -0.17100
C 	C 	0.67230 0.79800 0.28010 0.06400
C 	C 	0.23670 0.35270 0.43500 0.51500
C 	C 	0.39220 0.89710 0.74990 0.10300
C 	C 	0.40610 0.68890 0.53160 -0.19900
C 	C 	0.34240 0.11410 0.39610 0.11800
C 	C 	0.11710 0.37450 0.49160 0.19800
C 	C 	0.14750 0.21800 0.80610 0.01300
C 	C 	0.17100 0.76400 0.11520 -0.10800
C 	C 	0.86280 0.99440 0.61520 0.07500
C 	C 	0.71800 0.94630 0.60390 0.11800
C 	C 	0.37450 0.49160 0.11710 0.19800
C 	C 	0.90610 0.54780 0.35830 0.08900
C 	C 	0.12570 0.51790 0.79800 0.06400
C 	C 	0.88590 0.60390 0.65760 0.11800
C 	C 	0.49510 0.85280 0.10290 0.10300
C 	C 	0.36740 0.15030 0.97010 -0.18200
C 	C 	0.39610 0.34240 0.11410 0.11800
C 	C 	0.76330 0.64730 0.56500 0.51500
C 	C 	0.48210 0.20200 0.87430 0.06400
C 	C 	0.35120 0.23600 0.40700 -0.10800
C 	C 	0.78750 0.61250 0.98480 0.04800
C 	C 	0.47910 0.68980 0.10290 -0.17100
C 	C 	0.16340 0.39460 0.35960 -0.05200
C 	C 	0.11410 0.39610 0.34240 0.11800
C 	C 	0.34840 0.73720 0.45240 0.12800
C 	C 	0.22650 0.65790 0.30720 0.03200
C 	C 	0.64730 0.88400 0.08230 0.51500
C 	C 	0.31020 0.89710 0.52090 -0.17100
C 	C 	0.40280 0.30840 0.02880 -0.16500
C 	C 	0.82500 0.62770 0.61250 0.04800
C 	C 	0.78930 0.47910 0.37620 -0.17100
C 	C 	0.85280 0.10290 0.49510 0.10300
C 	C 	0.15030 0.97010 0.36740 -0.18200
C 	C 	0.18950 0.54780 0.64170 0.08900
C 	C 	0.76330 0.19830 0.11600 0.51500
C 	C 	0.71520 0.26280 0.61120 0.12800
C 	C 	0.91930 0.69280 0.35070 0.03200
C 	C 	0.72040 0.69160 0.09440 -0.16500
C 	C 	0.89600 0.61120 0.34840 0.12800
C 	C 	0.35830 0.90610 0.54780 0.08900
C 	C 	0.61120 0.71520 0.26280 0.12800
C 	C 	0.19830 0.11600 0.76330 0.51500
C 	C 	0.34840 0.89600 0.61120 0.12800
C 	C 	0.11610 0.70130 0.27240 0.54900
C 	C 	0.91770 0.80170 0.56500 0.51600
C 	C 	0.21070 0.52090 0.62380 -0.17100
C 	C 	0.82900 0.23600 0.88480 -0.10800
C 	C 	0.30300 0.35360 0.94940 0.08200
C 	C 	0.30840 0.90560 0.27960 -0.16500
C 	C 	0.39220 0.64230 0.49510 0.10300
C 	C 	0.35270 0.43500 0.23670 0.51500
C 	C 	0.27960 0.37400 0.97120 -0.16500
C 	C 	0.05370 0.77170 0.65760 0.11800
C 	C 	0.58210 0.40350 0.35520 0.38000
C 	C 	0.88480 0.82900 0.23600 -0.10800
C 	C 	0.44510 0.81820 0.08050 -0.13000
C 	C 	0.19390 0.85250 0.78200 0.01300
C 	C 	0.12570 0.32770 0.60780 0.06400
C 	C 	0.97120 0.59720 0.69160 -0.16500
C 	C 	0.28200 0.05370 0.39610 0.11800
C 	C 	0.87450 0.71720 0.40610 -0.19900
C 	C 	0.50490 0.60780 0.35770 0.10300
C 	C 	0.09440 0.72040 0.69160 -0.16500
C 	C 	0.39460 0.23120 0.03500 -0.05200
C 	C 	0.61250 0.98480 0.78750 0.04800
C 	C 	0.88480 0.64880 0.05580 -0.10800
C 	C 	0.29550 0.53210 0.63540 -0.06600
C 	C 	0.65860 0.80610 0.58810 0.01300
C 	C 	0.10330 0.46790 0.76340 -0.06600
C 	C 	0.23600 0.40700 0.35120 -0.10800
C 	C 	0.77170 0.71800 0.11410 0.11800
C 	C 	0.65160 0.10400 0.38880 0.12800
C 	C 	0.22650 0.91930 0.56860 0.03200
C 	C 	0.82900 0.94420 0.59300 -0.10800
C 	C 	0.64880 0.05580 0.88480 -0.10800
C 	C 	0.62690 0.26230 0.18180 -0.13000
C 	C 	0.01260 0.75660 0.25600 0.53800
C 	C 	0.75240 0.13160 0.13720 0.07500
C 	C 	0.37920 0.24760 0.38480 0.07500
C 	C 	0.64230 0.25010 0.14720 0.10300
C 	C 	0.62550 0.74260 0.11710 0.19800
C 	C 	0.43440 0.33860 0.27180 0.32500
C 	C 	0.09580 0.93320 0.66140 0.32500
C 	C 	0.59300 0.64880 0.76400 -0.10800
C 	C 	0.11710 0.62550 0.74260 0.19800
C 	C 	0.36460 0.62690 0.44510 -0.13000
C 	C 	0.72040 0.62600 0.02880 -0.16500
C 	C 	0.63540 0.37310 0.55490 -0.13000
C 	C 	0.39220 0.87430 0.67230 0.06400
C 	C 	0.77350 0.08070 0.43140 0.03200
C 	C 	0.46790 0.76340 0.10330 -0.06600
C 	C 	0.68980 0.10290 0.47910 -0.17100
C 	C 	0.07050 0.85250 0.65860 0.01300
C 	C 	0.02880 0.72040 0.62600 -0.16500
C 	C 	0.40350 0.35520 0.58210 0.38000
C 	C 	0.94420 0.59300 0.82900 -0.10800
C 	C 	0.41310 0.31020 0.78930 -0.17100
C 	C 	0.21070 0.58690 0.68980 -0.17100
C 	C 	0.11410 0.77170 0.71800 0.11800
C 	C 	0.95170 0.59650 0.17860 0.38000
C 	C 	0.13720 0.00560 0.38480 0.07500
C 	C 	0.60540 0.64040 0.83660 -0.05200
C 	C 	0.88590 0.22830 0.28200 0.11800
C 	C 	0.64730 0.56500 0.76330 0.51500
C 	C 	0.46840 0.59390 0.31110 -0.19900
C 	C 	0.25010 0.14720 0.64230 0.10300
C 	C 	0.26280 0.61120 0.71520 0.12800
C 	C 	0.86280 0.24760 0.86840 0.07500
C 	C 	0.39460 0.35960 0.16340 -0.05200
C 	C 	0.97120 0.27960 0.37400 -0.16500
C 	C 	0.94630 0.60390 0.71800 0.11800
C 	C 	0.82140 0.41790 0.77310 0.38000
C 	C 	0.02990 0.63260 0.84970 -0.18200
C 	C 	0.53160 0.40610 0.68890 -0.19900
C 	C 	0.87450 0.46840 0.15730 -0.19900
C 	C 	0.93320 0.66140 0.09580 0.32500
C 	C 	0.87430 0.67230 0.39220 0.06400
C 	C 	0.58520 0.42890 0.70130 0.54900
C 	C 	0.08230 0.64730 0.88400 0.51500
C 	C 	0.46840 0.15730 0.87450 -0.19900
C 	C 	0.05580 0.88480 0.64880 -0.10800
C 	C 	0.35830 0.81050 0.45220 0.08900
C 	C 	0.25010 0.60780 0.10290 0.10300
C 	C 	0.64480 0.04830 0.22690 0.38000
C 	C 	0.56860 0.64930 0.34210 0.03200
C 	C 	0.40350 0.82140 0.04830 0.38000
C 	C 	0.62600 0.90560 0.59720 -0.16500
C 	C 	0.20200 0.87430 0.48210 0.06400
C 	C 	0.68890 0.28280 0.15730 -0.19900
C 	C 	0.80610 0.58810 0.65860 0.01300
C 	C 	0.27240 0.11610 0.70130 0.54900
C 	C 	0.43440 0.16260 0.09580 0.32500
C 	C 	0.64930 0.08070 0.30720 0.03200
C 	C 	0.83660 0.60540 0.64040 -0.05200
C 	C 	0.56500 0.91770 0.80170 0.51600
C 	C 	0.52090 0.31020 0.89710 -0.17100
C 	C 	0.37920 0.99440 0.13160 0.07600
C 	C 	0.89600 0.54760 0.28480 0.12800
C 	C 	0.36740 0.39730 0.21710 -0.18200
C 	C 	0.06680 0.16260 0.72820 0.32500
C 	C 	0.41480 0.11610 0.84370 0.54900
C 	C 	0.90560 0.59720 0.62600 -0.16500
C 	C 	0.21800 0.80610 0.14750 0.01300
C 	C 	0.33860 0.90420 0.06680 0.32500
C 	C 	0.64040 0.83660 0.60540 -0.05200
C 	C 	0.54760 0.28480 0.89600 0.12800
C 	C 	0.77310 0.35520 0.95170 0.38000
C 	C 	0.41190 0.34140 0.19390 0.01300
C 	C 	0.20200 0.71990 0.32770 0.06400
C 	C 	0.56560 0.66140 0.72820 0.32500
C 	C 	0.65860 0.07050 0.85250 0.01300
C 	C 	0.34210 0.56860 0.64930 0.03200
C 	C 	0.84970 0.02990 0.63260 -0.18200
C 	C 	0.63540 0.29550 0.53210 -0.06600
C 	C 	0.66140 0.72820 0.56560 0.32500
C 	C 	0.13720 0.75240 0.13160 0.07500
C 	C 	0.10290 0.47910 0.68980 -0.17100
C 	C 	0.64230 0.49510 0.39220 0.10300
C 	C 	0.46790 0.36460 0.70450 -0.06600
C 	C 	0.10290 0.41310 0.62380 -0.17100
C 	C 	0.14750 0.34140 0.92950 0.01300
C 	C 	0.30720 0.22650 0.65790 0.03200
C 	C 	0.89710 0.50490 0.14720 0.10300
C 	C 	0.60390 0.65760 0.88590 0.11800
C 	C 	0.80380 0.64040 0.03500 -0.05200
C 	C 	0.24760 0.86840 0.86280 0.07500
C 	C 	0.77310 0.82140 0.41790 0.38000
C 	C 	0.34240 0.94630 0.22830 0.11800
C 	C 	0.78290 0.63260 0.60270 -0.18200
C 	C 	0.19730 0.98480 0.37230 0.04800
C 	C 	0.66010 0.36460 0.89670 -0.06600
C 	C 	0.22690 0.64480 0.04830 0.38000
C 	C 	0.07050 0.41190 0.21800 0.01300
C 	C 	0.26230 0.18180 0.62690 -0.13000
C 	C 	0.22830 0.34240 0.94630 0.11800
C 	C 	0.43140 0.35070 0.65790 0.03200
C 	C 	0.54760 0.65160 0.26280 0.12800
C 	C 	0.37620 0.78930 0.47910 -0.17100
C 	C 	0.59720 0.62600 0.90560 -0.16500
C 	C 	0.60270 0.78290 0.63260 -0.18200
C 	C 	0.42890 0.84370 0.72760 0.54900
C 	C 	0.80170 0.88400 0.23670 0.51500
C 	C 	0.41480 0.57110 0.29870 0.54900
C 	C 	0.31020 0.78930 0.41310 -0.17100
C 	C 	0.23120 0.03500 0.39460 -0.05200
C 	C 	0.41190 0.21800 0.07050 0.01300
C 	C 	0.92950 0.14750 0.34140 0.01300
C 	C 	0.11610 0.84370 0.41480 0.54900
C 	C 	0.47910 0.37620 0.78930 -0.17100
C 	C 	0.58810 0.78200 0.92950 0.01300
C 	C 	0.74400 0.50060 0.75660 0.53800
C 	C 	0.12550 0.28280 0.59390 -0.19900
C 	C 	0.60780 0.35770 0.50490 0.10300
C 	C 	0.43500 0.08230 0.19830 0.51600
C 	C 	0.76400 0.11520 0.17100 -0.10800
C 	C 	0.42890 0.70130 0.58520 0.54900
C 	C 	0.88290 0.62550 0.50840 0.19800
C 	C 	0.60540 0.76880 0.96500 -0.05200
C 	C 	0.21800 0.07050 0.41190 0.01300
C 	C 	0.99440 0.13160 0.37920 0.07600
C 	C 	0.29870 0.72760 0.88390 0.54900
C 	C 	0.68980 0.21070 0.58690 -0.17100
C 	C 	0.39220 0.71990 0.51790 0.06400
C 	C 	0.85280 0.35770 0.74990 0.10300
C 	C 	0.05370 0.39610 0.28200 0.11800
C 	C 	0.67230 0.39220 0.87430 0.06400
C 	C 	0.59390 0.12550 0.28280 -0.19900
C 	C 	0.81980 0.60270 0.97010 -0.18300
C 	C 	0.54780 0.64170 0.18950 0.08900
C 	C 	0.73770 0.36460 0.91950 -0.13000
C 	C 	0.96500 0.19620 0.35960 -0.05200
C 	C 	0.65760 0.05370 0.77170 0.11800
C 	C 	0.72760 0.42890 0.84370 0.54900
C 	C 	0.90560 0.27960 0.30840 -0.16500
C 	C 	0.64640 0.94940 0.59580 0.08200
C 	C 	0.64480 0.41790 0.59650 0.38000
C 	C 	0.35770 0.50490 0.60780 0.10300
N 	N 	0.71530 0.40910 0.30620 -0.14300
N 	N 	0.70130 0.09630 0.79760 -0.14400
N 	N 	0.69380 0.10290 0.40910 -0.14300
N 	N 	0.10290 0.40910 0.69380 -0.14300
N 	N 	0.29870 0.90370 0.20240 -0.14400
N 	N 	0.40910 0.69380 0.10290 -0.14300
N 	N 	0.90370 0.20240 0.29870 -0.14400
N 	N 	0.69380 0.28470 0.59090 -0.14300
N 	N 	0.90370 0.60500 0.70130 -0.14400
N 	N 	0.30620 0.71530 0.40910 -0.14300
N 	N 	0.28470 0.59090 0.69380 -0.14300
N 	N 	0.60500 0.70130 0.90370 -0.14400
N 	N 	0.30620 0.89710 0.59090 -0.14300
N 	N 	0.40910 0.30620 0.71530 -0.14300
N 	N 	0.70130 0.90370 0.60500 -0.14400
N 	N 	0.59090 0.30620 0.89710 -0.14300
N 	N 	0.89710 0.59090 0.30620 -0.14300
N 	N 	0.09630 0.39500 0.29870 -0.14400
N 	N 	0.29870 0.09630 0.39500 -0.14400
N 	N 	0.20240 0.29870 0.90370 -0.14400
N 	N 	0.39500 0.29870 0.09630 -0.14400
N 	N 	0.09630 0.79760 0.70130 -0.14400
N 	N 	0.79760 0.70130 0.09630 -0.14400
N 	N 	0.59090 0.69380 0.28470 -0.14300
O 	O 	0.14360 0.56030 0.18410 -0.47200
O 	O 	0.32640 0.76910 0.91990 -0.54900
O 	O 	0.73660 0.54230 0.68290 -0.44100
O 	O 	0.63980 0.20560 0.96540 -0.42600
O 	O 	0.56580 0.36020 0.32560 -0.42600
O 	O 	0.84920 0.76910 0.44270 -0.54900
O 	O 	0.84180 0.37290 0.21470 -0.30300
O 	O 	0.07210 0.90510 0.33920 -0.55300
O 	O 	0.03460 0.36020 0.79440 -0.42600
O 	O 	0.63980 0.67440 0.43420 -0.42600
O 	O 	0.62710 0.78530 0.15820 -0.30300
O 	O 	0.43340 0.81490 0.69670 -0.50500
O 	O 	0.33720 0.45970 0.12250 -0.32100
O 	O 	0.55640 0.87410 0.91690 -0.44900
O 	O 	0.58330 0.62380 0.43970 -0.47200
O 	O 	0.64400 0.53630 0.77990 -0.56900
O 	O 	0.87410 0.91690 0.55640 -0.44900
O 	O 	0.96540 0.75980 0.32560 -0.42600
O 	O 	0.58330 0.14360 0.95950 -0.47200
O 	O 	0.50200 0.74220 0.70280 -0.62000
O 	O 	0.46370 0.22010 0.35600 -0.56900
O 	O 	0.10770 0.64400 0.86410 -0.56900
O 	O 	0.36050 0.91690 0.04280 -0.44900
O 	O 	0.23090 0.08010 0.67360 -0.54900
O 	O 	0.73290 0.16700 0.07210 -0.55300
O 	O 	0.55730 0.32640 0.40650 -0.54900
O 	O 	0.44360 0.12590 0.08310 -0.44900
O 	O 	0.04280 0.36050 0.91690 -0.44900
O 	O 	0.07210 0.73290 0.16700 -0.55300
O 	O 	0.33920 0.07210 0.90510 -0.55300
O 	O 	0.88180 0.18510 0.61850 -0.50500
O 	O 	0.19430 0.73660 0.05370 -0.44100
O 	O 	0.23090 0.55730 0.15080 -0.54900
O 	O 	0.49800 0.25780 0.29720 -0.62000
O 	O 	0.03940 0.79920 0.29720 -0.62000
O 	O 	0.18510 0.30330 0.56660 -0.50500
O 	O 	0.08010 0.67360 0.23090 -0.54900
O 	O 	0.67440 0.43420 0.63980 -0.42600
O 	O 	0.20080 0.70280 0.96060 -0.62000
O 	O 	0.20080 0.24020 0.49800 -0.62000
O 	O 	0.68290 0.14060 0.94630 -0.44100
O 	O 	0.73660 0.05370 0.19430 -0.44100
O 	O 	0.56660 0.26330 0.38150 -0.50500
O 	O 	0.04050 0.41670 0.85640 -0.47200
O 	O 	0.24020 0.03940 0.74220 -0.62000
O 	O 	0.66280 0.78530 0.12250 -0.32100
O 	O 	0.24020 0.67440 0.03460 -0.42600
O 	O 	0.40650 0.55730 0.32640 -0.54900
O 	O 	0.35600 0.46370 0.22010 -0.56900
O 	O 	0.18410 0.14360 0.56030 -0.47200
O 	O 	0.83300 0.56590 0.90510 -0.55300
O 	O 	0.32640 0.40650 0.55730 -0.54900
O 	O 	0.86410 0.22010 0.75640 -0.56900
O 	O 	0.79440 0.43420 0.75980 -0.42600
O 	O 	0.04050 0.18410 0.62380 -0.47200
O 	O 	0.92790 0.09490 0.66080 -0.55300
O 	O 	0.77990 0.24360 0.13590 -0.56900
O 	O 	0.63950 0.08310 0.95720 -0.44900
O 	O 	0.73670 0.61850 0.43340 -0.50500
O 	O 	0.61850 0.43340 0.73670 -0.50500
O 	O 	0.87410 0.31770 0.95720 -0.44900
O 	O 	0.74220 0.24020 0.03940 -0.62000
O 	O 	0.54030 0.87750 0.66280 -0.32100
O 	O 	0.53630 0.89230 0.75640 -0.56900
O 	O 	0.10770 0.24360 0.46370 -0.56900
O 	O 	0.96060 0.20080 0.70280 -0.62000
O 	O 	0.67360 0.23090 0.08010 -0.54900
O 	O 	0.62710 0.46890 0.84180 -0.30300
O 	O 	0.12250 0.66280 0.78530 -0.32100
O 	O 	0.79920 0.29720 0.03940 -0.62000
O 	O 	0.25780 0.29720 0.49800 -0.62000
O 	O 	0.26710 0.83300 0.92790 -0.55300
O 	O 	0.94630 0.68290 0.14060 -0.44100
O 	O 	0.63950 0.68230 0.55640 -0.44900
O 	O 	0.14360 0.95950 0.58330 -0.47200
O 	O 	0.15080 0.23090 0.55730 -0.54900
O 	O 	0.31770 0.44360 0.36050 -0.44900
O 	O 	0.16700 0.07210 0.73290 -0.55300
O 	O 	0.88180 0.26330 0.69670 -0.50500
O 	O 	0.87750 0.66280 0.54030 -0.32100
O 	O 	0.32560 0.96540 0.75980 -0.42600
O 	O 	0.24360 0.13590 0.77990 -0.56900
O 	O 	0.37290 0.21470 0.84180 -0.30300
O 	O 	0.45770 0.19430 0.14060 -0.44100
O 	O 	0.03460 0.24020 0.67440 -0.42600
O 	O 	0.12590 0.68230 0.04280 -0.44900
O 	O 	0.95720 0.63950 0.08310 -0.44900
O 	O 	0.95720 0.87410 0.31770 -0.44900
O 	O 	0.11820 0.81490 0.38150 -0.50500
O 	O 	0.05370 0.31710 0.85940 -0.44100
O 	O 	0.75980 0.96060 0.25780 -0.62000
O 	O 	0.73670 0.30330 0.11820 -0.50500
O 	O 	0.95950 0.58330 0.14360 -0.47200
O 	O 	0.56660 0.18510 0.30330 -0.50500
O 	O 	0.64400 0.86410 0.10770 -0.56900
O 	O 	0.85640 0.04050 0.41670 -0.47200
O 	O 	0.89230 0.75640 0.53630 -0.56900
O 	O 	0.68230 0.04280 0.12590 -0.44900
O 	O 	0.84180 0.62710 0.46890 -0.30300
O 	O 	0.24020 0.20560 0.56580 -0.42600
O 	O 	0.38150 0.56660 0.26330 -0.50500
O 	O 	0.19430 0.14060 0.45770 -0.44100
O 	O 	0.33720 0.21470 0.87750 -0.32100
O 	O 	0.15080 0.59350 0.91990 -0.54900
O 	O 	0.80570 0.85940 0.54230 -0.44100
O 	O 	0.43420 0.75980 0.79440 -0.42600
O 	O 	0.45970 0.12250 0.33720 -0.32100
O 	O 	0.69670 0.88180 0.26330 -0.50500
O 	O 	0.12250 0.33720 0.45970 -0.32100
O 	O 	0.68230 0.55640 0.63950 -0.44900
O 	O 	0.81590 0.85640 0.43970 -0.47200
O 	O 	0.69670 0.43340 0.81490 -0.50500
O 	O 	0.70280 0.50200 0.74220 -0.62000
O 	O 	0.91990 0.15080 0.59350 -0.54900
O 	O 	0.74220 0.70280 0.50200 -0.62000
O 	O 	0.75640 0.86410 0.22010 -0.56900
O 	O 	0.79440 0.03460 0.36020 -0.42600
O 	O 	0.45770 0.31710 0.26340 -0.44100
O 	O 	0.76910 0.44270 0.84920 -0.54900
O 	O 	0.05370 0.19430 0.73660 -0.44100
O 	O 	0.43410 0.09490 0.16700 -0.55300
O 	O 	0.56590 0.90510 0.83300 -0.55300
O 	O 	0.41670 0.85640 0.04050 -0.47200
O 	O 	0.91990 0.32640 0.76910 -0.54900
O 	O 	0.77990 0.64400 0.53630 -0.56900
O 	O 	0.20560 0.96540 0.63980 -0.42600
O 	O 	0.70280 0.96060 0.20080 -0.62000
O 	O 	0.61850 0.88180 0.18510 -0.50500
O 	O 	0.94630 0.80570 0.26340 -0.44100
O 	O 	0.75980 0.50200 0.79920 -0.62000
O 	O 	0.85640 0.43970 0.81590 -0.47200
O 	O 	0.49800 0.20080 0.24020 -0.62000
O 	O 	0.73290 0.66080 0.56590 -0.55300
O 	O 	0.09490 0.16700 0.43410 -0.55300
O 	O 	0.29720 0.49800 0.25780 -0.62000
O 	O 	0.35600 0.13590 0.89230 -0.56900
O 	O 	0.50200 0.79920 0.75980 -0.62000
O 	O 	0.80570 0.26340 0.94630 -0.44100
O 	O 	0.91690 0.04280 0.36050 -0.44900
O 	O 	0.18410 0.62380 0.04050 -0.47200
O 	O 	0.09490 0.66080 0.92790 -0.55300
O 	O 	0.68290 0.73660 0.54230 -0.44100
O 	O 	0.54230 0.80570 0.85940 -0.44100
O 	O 	0.18510 0.61850 0.88180 -0.50500
O 	O 	0.56030 0.41670 0.37620 -0.47200
O 	O 	0.21470 0.87750 0.33720 -0.32100
O 	O 	0.87750 0.33720 0.21470 -0.32100
O 	O 	0.24360 0.46370 0.10770 -0.56900
O 	O 	0.31770 0.95720 0.87410 -0.44900
O 	O 	0.30330 0.56660 0.18510 -0.50500
O 	O 	0.44270 0.84920 0.76910 -0.54900
O 	O 	0.81590 0.37620 0.95950 -0.47200
O 	O 	0.55640 0.63950 0.68230 -0.44900
O 	O 	0.43970 0.81590 0.85640 -0.47200
O 	O 	0.11820 0.73670 0.30330 -0.50500
O 	O 	0.31710 0.26340 0.45770 -0.44100
O 	O 	0.08310 0.44360 0.12590 -0.44900
O 	O 	0.25780 0.75980 0.96060 -0.62000
O 	O 	0.53110 0.15820 0.37290 -0.30300
O 	O 	0.85940 0.05370 0.31710 -0.44100
O 	O 	0.24020 0.49800 0.20080 -0.62000
O 	O 	0.62380 0.04050 0.18410 -0.47200
O 	O 	0.44270 0.67360 0.59350 -0.54900
O 	O 	0.54230 0.68290 0.73660 -0.44100
O 	O 	0.86410 0.10770 0.64400 -0.56900
O 	O 	0.33920 0.43410 0.26710 -0.55300
O 	O 	0.08010 0.84920 0.40650 -0.54900
O 	O 	0.37620 0.56030 0.41670 -0.47200
O 	O 	0.66280 0.54030 0.87750 -0.32100
O 	O 	0.36050 0.31770 0.44360 -0.44900
O 	O 	0.59350 0.91990 0.15080 -0.54900
O 	O 	0.84920 0.40650 0.08010 -0.54900
O 	O 	0.90510 0.33920 0.07210 -0.55300
O 	O 	0.66080 0.56590 0.73290 -0.55300
O 	O 	0.38150 0.11820 0.81490 -0.50500
O 	O 	0.29720 0.03940 0.79920 -0.62000
O 	O 	0.43340 0.73670 0.61850 -0.50500
O 	O 	0.04280 0.12590 0.68230 -0.44900
O 	O 	0.53630 0.77990 0.64400 -0.56900
O 	O 	0.92790 0.26710 0.83300 -0.55300
O 	O 	0.15820 0.37290 0.53110 -0.30300
O 	O 	0.85940 0.54230 0.80570 -0.44100
O 	O 	0.43970 0.58330 0.62380 -0.47200
O 	O 	0.44360 0.36050 0.31770 -0.44900
O 	O 	0.32560 0.56580 0.36020 -0.42600
O 	O 	0.37290 0.53110 0.15820 -0.30300
O 	O 	0.56590 0.73290 0.66080 -0.55300
O 	O 	0.43420 0.63980 0.67440 -0.42600
O 	O 	0.66080 0.92790 0.09490 -0.55300
O 	O 	0.75980 0.79440 0.43420 -0.42600
O 	O 	0.75980 0.32560 0.96540 -0.42600
O 	O 	0.59350 0.44270 0.67360 -0.54900
O 	O 	0.26340 0.94630 0.80570 -0.44100
O 	O 	0.90510 0.83300 0.56590 -0.55300
O 	O 	0.03940 0.74220 0.24020 -0.62000
O 	O 	0.26330 0.69670 0.88180 -0.50500
O 	O 	0.67360 0.59350 0.44270 -0.54900
O 	O 	0.31710 0.85940 0.05370 -0.44100
O 	O 	0.08310 0.95720 0.63950 -0.44900
O 	O 	0.26330 0.38150 0.56660 -0.50500
O 	O 	0.13590 0.89230 0.35600 -0.56900
O 	O 	0.56580 0.24020 0.20560 -0.42600
O 	O 	0.67440 0.03460 0.24020 -0.42600
O 	O 	0.76910 0.91990 0.32640 -0.54900
O 	O 	0.21470 0.84180 0.37290 -0.30300
O 	O 	0.41670 0.37620 0.56030 -0.47200
O 	O 	0.20560 0.56580 0.24020 -0.42600
O 	O 	0.81490 0.69670 0.43340 -0.50500
O 	O 	0.62380 0.43970 0.58330 -0.47200
O 	O 	0.15820 0.62710 0.78530 -0.30300
O 	O 	0.55730 0.15080 0.23090 -0.54900
O 	O 	0.75640 0.53630 0.89230 -0.56900
O 	O 	0.46890 0.84180 0.62710 -0.30300
O 	O 	0.96060 0.25780 0.75980 -0.62000
O 	O 	0.96540 0.63980 0.20560 -0.42600
O 	O 	0.26340 0.45770 0.31710 -0.44100
O 	O 	0.26710 0.33920 0.43410 -0.55300
O 	O 	0.78530 0.15820 0.62710 -0.30300
O 	O 	0.78530 0.12250 0.66280 -0.32100
O 	O 	0.22010 0.75640 0.86410 -0.56900
O 	O 	0.13590 0.77990 0.24360 -0.56900
O 	O 	0.56030 0.18410 0.14360 -0.47200
O 	O 	0.95950 0.81590 0.37620 -0.47200
O 	O 	0.30330 0.11820 0.73670 -0.50500
O 	O 	0.14060 0.45770 0.19430 -0.44100
O 	O 	0.22010 0.35600 0.46370 -0.56900
O 	O 	0.36020 0.32560 0.56580 -0.42600
O 	O 	0.43410 0.26710 0.33920 -0.55300
O 	O 	0.89230 0.35600 0.13590 -0.56900
O 	O 	0.14060 0.94630 0.68290 -0.44100
O 	O 	0.46370 0.10770 0.24360 -0.56900
O 	O 	0.40650 0.08010 0.84920 -0.54900
O 	O 	0.36020 0.79440 0.03460 -0.42600
O 	O 	0.79920 0.75980 0.50200 -0.62000
O 	O 	0.16700 0.43410 0.09490 -0.55300
O 	O 	0.12590 0.08310 0.44360 -0.44900
O 	O 	0.91690 0.55640 0.87410 -0.44900
O 	O 	0.37620 0.95950 0.81590 -0.47200
O 	O 	0.83300 0.92790 0.26710 -0.55300
O 	O 	0.81490 0.38150 0.11820 -0.50500
