data_crystal

_cell_length_a 37.95690
_cell_length_b 37.95690
_cell_length_c 37.95690
_cell_angle_alpha 90.00000
_cell_angle_beta  90.00000
_cell_angle_gamma 90.00000

_symmetry_space_group_name_	'P 1'
_symmetry_space_group_name_H-M	'P 1'

loop_
_symmetry_equiv_pos_as_xyz
  x,y,z

loop_
_atom_site_label
_atom_site_type_symbol
_atom_site_fract_x
_atom_site_fract_y
_atom_site_fract_z
_atom_site_charge
Gd	Gd	0.24384 0.91137 0.25577 1.64100
O 	O 	0.24260 0.88280 0.20110 -0.38900
O 	O 	0.25520 0.93910 0.20170 -0.37400
O 	O 	0.29960 0.88340 0.25920 -0.40700
O 	O 	0.29970 0.94010 0.26640 -0.37100
O 	O 	0.41210 0.81860 0.26130 -0.47800
O 	O 	0.46210 0.84240 0.27700 -0.45600
O 	O 	0.25420 0.81860 0.08690 -0.50000
O 	O 	0.29950 0.83500 0.05770 -0.50100
C 	C 	0.25240 0.91120 0.18310 0.28700
C 	C 	0.26150 0.90940 0.14440 -0.08900
C 	C 	0.28080 0.93910 0.13360 0.00200
H 	H 	0.28360 0.95920 0.14830 0.06000
C 	C 	0.29560 0.93750 0.09980 -0.04700
C 	C 	0.29310 0.90600 0.08090 0.04900
H 	H 	0.30540 0.90460 0.05910 0.02400
C 	C 	0.27410 0.87620 0.09160 -0.19000
C 	C 	0.25910 0.87830 0.12510 0.06600
H 	H 	0.24710 0.85850 0.13470 0.02400
C 	C 	0.31480 0.96940 0.08580 0.11100
C 	C 	0.34560 0.96840 0.06580 -0.13200
H 	H 	0.35840 0.94720 0.06260 0.08100
C 	C 	0.31530 0.91170 0.26720 0.33400
C 	C 	0.35400 0.90790 0.27270 -0.09800
C 	C 	0.37330 0.87710 0.26810 0.06800
H 	H 	0.36230 0.85710 0.25780 0.02700
C 	C 	0.40850 0.87510 0.27820 -0.15200
C 	C 	0.42350 0.90490 0.29350 0.03200
H 	H 	0.44750 0.90400 0.30080 0.03500
C 	C 	0.40490 0.93610 0.29870 -0.04100
C 	C 	0.36890 0.93760 0.29200 0.00900
H 	H 	0.35530 0.96030 0.29640 0.05700
C 	C 	0.42100 0.97080 0.31170 0.11300
C 	C 	0.45490 0.96990 0.32550 -0.12900
H 	H 	0.46980 0.95010 0.32260 0.08000
C 	C 	0.43060 0.84250 0.27180 0.50700
C 	C 	0.27570 0.84050 0.07790 0.52100
O 	O 	0.23110 0.97190 0.26790 -0.55300
Gd	Gd	0.74384 0.41137 0.75577 1.64100
O 	O 	0.74260 0.38280 0.70110 -0.38900
O 	O 	0.75520 0.43910 0.70170 -0.37600
O 	O 	0.79960 0.38340 0.75920 -0.40700
O 	O 	0.79970 0.44010 0.76640 -0.37300
O 	O 	0.91210 0.31860 0.76130 -0.47700
O 	O 	0.96210 0.34240 0.77700 -0.45200
O 	O 	0.75420 0.31860 0.58690 -0.50000
O 	O 	0.79950 0.33500 0.55770 -0.50200
C 	C 	0.75240 0.41120 0.68310 0.28700
C 	C 	0.76150 0.40940 0.64440 -0.09000
C 	C 	0.78080 0.43910 0.63360 0.00200
H 	H 	0.78360 0.45920 0.64830 0.05800
C 	C 	0.79560 0.43750 0.59980 -0.04700
C 	C 	0.79310 0.40600 0.58090 0.05100
H 	H 	0.80540 0.40460 0.55910 0.02500
C 	C 	0.77410 0.37620 0.59160 -0.18900
C 	C 	0.75910 0.37830 0.62510 0.06700
H 	H 	0.74710 0.35850 0.63470 0.02400
C 	C 	0.81480 0.46940 0.58580 0.11000
C 	C 	0.84560 0.46840 0.56580 -0.14200
H 	H 	0.85840 0.44720 0.56260 0.08600
C 	C 	0.81530 0.41170 0.76720 0.33500
C 	C 	0.85400 0.40790 0.77270 -0.09700
C 	C 	0.87330 0.37710 0.76810 0.06900
H 	H 	0.86230 0.35710 0.75780 0.02800
C 	C 	0.90850 0.37510 0.77820 -0.15000
C 	C 	0.92350 0.40490 0.79350 0.03200
H 	H 	0.94750 0.40400 0.80080 0.03800
C 	C 	0.90490 0.43610 0.79870 -0.04000
C 	C 	0.86890 0.43760 0.79200 0.00900
H 	H 	0.85530 0.46030 0.79640 0.05700
C 	C 	0.92100 0.47080 0.81170 0.11100
C 	C 	0.95490 0.46990 0.82550 -0.13700
H 	H 	0.96980 0.45010 0.82260 0.08500
C 	C 	0.93060 0.34250 0.77180 0.50700
C 	C 	0.77570 0.34050 0.57790 0.52300
O 	O 	0.73110 0.47190 0.76790 -0.56100
Gd	Gd	0.75616 0.08863 0.25577 1.64100
O 	O 	0.75740 0.11720 0.20110 -0.38800
O 	O 	0.74480 0.06090 0.20170 -0.37500
O 	O 	0.70040 0.11660 0.25920 -0.40700
O 	O 	0.70030 0.05990 0.26640 -0.37300
O 	O 	0.58790 0.18140 0.26130 -0.47700
O 	O 	0.53790 0.15760 0.27700 -0.45600
O 	O 	0.74580 0.18140 0.08690 -0.49900
O 	O 	0.70050 0.16500 0.05770 -0.50000
C 	C 	0.74760 0.08880 0.18310 0.28800
C 	C 	0.73850 0.09060 0.14440 -0.08900
C 	C 	0.71920 0.06090 0.13360 0.00300
H 	H 	0.71640 0.04080 0.14830 0.05800
C 	C 	0.70440 0.06250 0.09980 -0.04700
C 	C 	0.70690 0.09400 0.08090 0.05000
H 	H 	0.69460 0.09540 0.05910 0.02500
C 	C 	0.72590 0.12380 0.09160 -0.19000
C 	C 	0.74090 0.12170 0.12510 0.06700
H 	H 	0.75290 0.14150 0.13470 0.02400
C 	C 	0.68520 0.03060 0.08580 0.10600
C 	C 	0.65440 0.03160 0.06580 -0.13800
H 	H 	0.64160 0.05280 0.06260 0.08200
C 	C 	0.68470 0.08830 0.26720 0.33500
C 	C 	0.64600 0.09210 0.27270 -0.09800
C 	C 	0.62670 0.12290 0.26810 0.07000
H 	H 	0.63770 0.14290 0.25780 0.02700
C 	C 	0.59150 0.12490 0.27820 -0.15200
C 	C 	0.57650 0.09510 0.29350 0.03200
H 	H 	0.55250 0.09600 0.30080 0.03600
C 	C 	0.59510 0.06390 0.29870 -0.04100
C 	C 	0.63110 0.06240 0.29200 0.00900
H 	H 	0.64470 0.03970 0.29640 0.05500
C 	C 	0.57900 0.02920 0.31170 0.10800
C 	C 	0.54510 0.03010 0.32550 -0.13600
H 	H 	0.53020 0.04990 0.32260 0.08200
C 	C 	0.56940 0.15750 0.27180 0.50800
C 	C 	0.72430 0.15950 0.07790 0.52200
O 	O 	0.76890 0.02810 0.26790 -0.55800
Gd	Gd	0.25616 0.58863 0.75577 1.64200
O 	O 	0.25740 0.61720 0.70110 -0.38800
O 	O 	0.24480 0.56090 0.70170 -0.37500
O 	O 	0.20040 0.61660 0.75920 -0.40700
O 	O 	0.20030 0.55990 0.76640 -0.37200
O 	O 	0.08790 0.68140 0.76130 -0.47700
O 	O 	0.03790 0.65760 0.77700 -0.45600
O 	O 	0.24580 0.68140 0.58690 -0.49900
O 	O 	0.20050 0.66500 0.55770 -0.50200
C 	C 	0.24760 0.58880 0.68310 0.28800
C 	C 	0.23850 0.59060 0.64440 -0.08900
C 	C 	0.21920 0.56090 0.63360 0.00300
H 	H 	0.21640 0.54080 0.64830 0.05900
C 	C 	0.20440 0.56250 0.59980 -0.04700
C 	C 	0.20690 0.59400 0.58090 0.05100
H 	H 	0.19460 0.59540 0.55910 0.02500
C 	C 	0.22590 0.62380 0.59160 -0.18900
C 	C 	0.24090 0.62170 0.62510 0.06700
H 	H 	0.25290 0.64150 0.63470 0.02400
C 	C 	0.18520 0.53060 0.58580 0.11000
C 	C 	0.15440 0.53160 0.56580 -0.14300
H 	H 	0.14160 0.55280 0.56260 0.08500
C 	C 	0.18470 0.58830 0.76720 0.33500
C 	C 	0.14600 0.59210 0.77270 -0.09800
C 	C 	0.12670 0.62290 0.76810 0.07000
H 	H 	0.13770 0.64290 0.75780 0.02700
C 	C 	0.09150 0.62490 0.77820 -0.15200
C 	C 	0.07650 0.59510 0.79350 0.03300
H 	H 	0.05250 0.59600 0.80080 0.03500
C 	C 	0.09510 0.56390 0.79870 -0.04200
C 	C 	0.13110 0.56240 0.79200 0.01000
H 	H 	0.14470 0.53970 0.79640 0.05600
C 	C 	0.07900 0.52920 0.81170 0.11200
C 	C 	0.04510 0.53010 0.82550 -0.14300
H 	H 	0.03020 0.54990 0.82260 0.08300
C 	C 	0.06940 0.65750 0.77180 0.50800
C 	C 	0.22430 0.65950 0.57790 0.52300
O 	O 	0.26890 0.52810 0.76790 -0.56100
Gd	Gd	0.75616 0.91137 0.74423 1.64200
O 	O 	0.75740 0.88280 0.79890 -0.38800
O 	O 	0.74480 0.93910 0.79830 -0.37300
O 	O 	0.70040 0.88340 0.74080 -0.40600
O 	O 	0.70030 0.94010 0.73360 -0.37000
O 	O 	0.58790 0.81860 0.73870 -0.47700
O 	O 	0.53790 0.84240 0.72300 -0.45500
O 	O 	0.74580 0.81860 0.91310 -0.49700
O 	O 	0.70050 0.83500 0.94230 -0.49700
C 	C 	0.74760 0.91120 0.81690 0.28800
C 	C 	0.73850 0.90940 0.85560 -0.08600
C 	C 	0.71920 0.93910 0.86640 0.00300
H 	H 	0.71640 0.95920 0.85170 0.06100
C 	C 	0.70440 0.93750 0.90020 -0.04400
C 	C 	0.70690 0.90600 0.91910 0.05000
H 	H 	0.69460 0.90460 0.94090 0.02800
C 	C 	0.72590 0.87620 0.90840 -0.18600
C 	C 	0.74090 0.87830 0.87490 0.06600
H 	H 	0.75290 0.85850 0.86530 0.02500
C 	C 	0.68520 0.96940 0.91420 0.11200
C 	C 	0.65440 0.96840 0.93420 -0.12900
H 	H 	0.64160 0.94720 0.93740 0.08300
C 	C 	0.68470 0.91170 0.73280 0.33500
C 	C 	0.64600 0.90790 0.72730 -0.09700
C 	C 	0.62670 0.87710 0.73190 0.06900
H 	H 	0.63770 0.85710 0.74220 0.02800
C 	C 	0.59150 0.87510 0.72180 -0.15100
C 	C 	0.57650 0.90490 0.70650 0.03300
H 	H 	0.55250 0.90400 0.69920 0.03600
C 	C 	0.59510 0.93610 0.70130 -0.04000
C 	C 	0.63110 0.93760 0.70800 0.01000
H 	H 	0.64470 0.96030 0.70360 0.05800
C 	C 	0.57900 0.97080 0.68830 0.11400
C 	C 	0.54510 0.96990 0.67450 -0.12800
H 	H 	0.53020 0.95010 0.67740 0.08100
C 	C 	0.56940 0.84250 0.72820 0.50800
C 	C 	0.72430 0.84050 0.92210 0.52100
O 	O 	0.76890 0.97190 0.73210 -0.55200
Gd	Gd	0.25616 0.41137 0.24423 1.64200
O 	O 	0.25740 0.38280 0.29890 -0.38800
O 	O 	0.24480 0.43910 0.29830 -0.37500
O 	O 	0.20040 0.38340 0.24080 -0.40700
O 	O 	0.20030 0.44010 0.23360 -0.37200
O 	O 	0.08790 0.31860 0.23870 -0.47700
O 	O 	0.03790 0.34240 0.22300 -0.45600
O 	O 	0.24580 0.31860 0.41310 -0.49900
O 	O 	0.20050 0.33500 0.44230 -0.50200
C 	C 	0.24760 0.41120 0.31690 0.28800
C 	C 	0.23850 0.40940 0.35560 -0.08900
C 	C 	0.21920 0.43910 0.36640 0.00300
H 	H 	0.21640 0.45920 0.35170 0.05900
C 	C 	0.20440 0.43750 0.40020 -0.04700
C 	C 	0.20690 0.40600 0.41910 0.05100
H 	H 	0.19460 0.40460 0.44090 0.02500
C 	C 	0.22590 0.37620 0.40840 -0.18900
C 	C 	0.24090 0.37830 0.37490 0.06700
H 	H 	0.25290 0.35850 0.36530 0.02500
C 	C 	0.18520 0.46940 0.41420 0.11000
C 	C 	0.15440 0.46840 0.43420 -0.14300
H 	H 	0.14160 0.44720 0.43740 0.08500
C 	C 	0.18470 0.41170 0.23280 0.33500
C 	C 	0.14600 0.40790 0.22730 -0.09800
C 	C 	0.12670 0.37710 0.23190 0.07000
H 	H 	0.13770 0.35710 0.24220 0.02700
C 	C 	0.09150 0.37510 0.22180 -0.15200
C 	C 	0.07650 0.40490 0.20650 0.03300
H 	H 	0.05250 0.40400 0.19920 0.03500
C 	C 	0.09510 0.43610 0.20130 -0.04200
C 	C 	0.13110 0.43760 0.20800 0.01000
H 	H 	0.14470 0.46030 0.20360 0.05600
C 	C 	0.07900 0.47080 0.18830 0.11200
C 	C 	0.04510 0.46990 0.17450 -0.14400
H 	H 	0.03020 0.45010 0.17740 0.08300
C 	C 	0.06940 0.34250 0.22820 0.50800
C 	C 	0.22430 0.34050 0.42210 0.52300
O 	O 	0.26890 0.47190 0.23210 -0.56100
Gd	Gd	0.24384 0.08863 0.74423 1.64100
O 	O 	0.24260 0.11720 0.79890 -0.38800
O 	O 	0.25520 0.06090 0.79830 -0.37500
O 	O 	0.29960 0.11660 0.74080 -0.40700
O 	O 	0.29970 0.05990 0.73360 -0.37300
O 	O 	0.41210 0.18140 0.73870 -0.47700
O 	O 	0.46210 0.15760 0.72300 -0.45600
O 	O 	0.25420 0.18140 0.91310 -0.49800
O 	O 	0.29950 0.16500 0.94230 -0.49800
C 	C 	0.25240 0.08880 0.81690 0.28800
C 	C 	0.26150 0.09060 0.85560 -0.08800
C 	C 	0.28080 0.06090 0.86640 0.00300
H 	H 	0.28360 0.04080 0.85170 0.05800
C 	C 	0.29560 0.06250 0.90020 -0.04500
C 	C 	0.29310 0.09400 0.91910 0.04900
H 	H 	0.30540 0.09540 0.94090 0.02700
C 	C 	0.27410 0.12380 0.90840 -0.18800
C 	C 	0.25910 0.12170 0.87490 0.06600
H 	H 	0.24710 0.14150 0.86530 0.02500
C 	C 	0.31480 0.03060 0.91420 0.10700
C 	C 	0.34560 0.03160 0.93420 -0.13600
H 	H 	0.35840 0.05280 0.93740 0.08400
C 	C 	0.31530 0.08830 0.73280 0.33500
C 	C 	0.35400 0.09210 0.72730 -0.09800
C 	C 	0.37330 0.12290 0.73190 0.07000
H 	H 	0.36230 0.14290 0.74220 0.02700
C 	C 	0.40850 0.12490 0.72180 -0.15200
C 	C 	0.42350 0.09510 0.70650 0.03200
H 	H 	0.44750 0.09600 0.69920 0.03600
C 	C 	0.40490 0.06390 0.70130 -0.04100
C 	C 	0.36890 0.06240 0.70800 0.00900
H 	H 	0.35530 0.03970 0.70360 0.05500
C 	C 	0.42100 0.02920 0.68830 0.10800
C 	C 	0.45490 0.03010 0.67450 -0.13600
H 	H 	0.46980 0.04990 0.67740 0.08200
C 	C 	0.43060 0.15750 0.72820 0.50800
C 	C 	0.27570 0.15950 0.92210 0.52200
O 	O 	0.23110 0.02810 0.73210 -0.55800
Gd	Gd	0.74384 0.58863 0.24423 1.64200
O 	O 	0.74260 0.61720 0.29890 -0.38800
O 	O 	0.75520 0.56090 0.29830 -0.37500
O 	O 	0.79960 0.61660 0.24080 -0.40700
O 	O 	0.79970 0.55990 0.23360 -0.37200
O 	O 	0.91210 0.68140 0.23870 -0.47600
O 	O 	0.96210 0.65760 0.22300 -0.45100
O 	O 	0.75420 0.68140 0.41310 -0.49900
O 	O 	0.79950 0.66500 0.44230 -0.50100
C 	C 	0.75240 0.58880 0.31690 0.28800
C 	C 	0.76150 0.59060 0.35560 -0.08900
C 	C 	0.78080 0.56090 0.36640 0.00300
H 	H 	0.78360 0.54080 0.35170 0.05900
C 	C 	0.79560 0.56250 0.40020 -0.04700
C 	C 	0.79310 0.59400 0.41910 0.05100
H 	H 	0.80540 0.59540 0.44090 0.02500
C 	C 	0.77410 0.62380 0.40840 -0.18900
C 	C 	0.75910 0.62170 0.37490 0.06700
H 	H 	0.74710 0.64150 0.36530 0.02400
C 	C 	0.81480 0.53060 0.41420 0.11000
C 	C 	0.84560 0.53160 0.43420 -0.14200
H 	H 	0.85840 0.55280 0.43740 0.08600
C 	C 	0.81530 0.58830 0.23280 0.33500
C 	C 	0.85400 0.59210 0.22730 -0.09700
C 	C 	0.87330 0.62290 0.23190 0.06900
H 	H 	0.86230 0.64290 0.24220 0.02800
C 	C 	0.90850 0.62490 0.22180 -0.15000
C 	C 	0.92350 0.59510 0.20650 0.03200
H 	H 	0.94750 0.59600 0.19920 0.03800
C 	C 	0.90490 0.56390 0.20130 -0.04000
C 	C 	0.86890 0.56240 0.20800 0.00900
H 	H 	0.85530 0.53970 0.20360 0.05700
C 	C 	0.92100 0.52920 0.18830 0.11000
C 	C 	0.95490 0.53010 0.17450 -0.13700
H 	H 	0.96980 0.54990 0.17740 0.08500
C 	C 	0.93060 0.65750 0.22820 0.50700
C 	C 	0.77570 0.65950 0.42210 0.52300
O 	O 	0.73110 0.52810 0.23210 -0.56100
Gd	Gd	0.25577 0.24384 0.91137 1.64200
O 	O 	0.20110 0.24260 0.88280 -0.38800
O 	O 	0.20170 0.25520 0.93910 -0.37300
O 	O 	0.25920 0.29960 0.88340 -0.40600
O 	O 	0.26640 0.29970 0.94010 -0.37000
O 	O 	0.26130 0.41210 0.81860 -0.47700
O 	O 	0.27700 0.46210 0.84240 -0.45500
O 	O 	0.08690 0.25420 0.81860 -0.49900
O 	O 	0.05770 0.29950 0.83500 -0.50000
C 	C 	0.18310 0.25240 0.91120 0.28800
C 	C 	0.14440 0.26150 0.90940 -0.08800
C 	C 	0.13360 0.28080 0.93910 0.00300
H 	H 	0.14830 0.28360 0.95920 0.06100
C 	C 	0.09980 0.29560 0.93750 -0.04600
C 	C 	0.08090 0.29310 0.90600 0.05000
H 	H 	0.05910 0.30540 0.90460 0.02500
C 	C 	0.09160 0.27410 0.87620 -0.18900
C 	C 	0.12510 0.25910 0.87830 0.06700
H 	H 	0.13470 0.24710 0.85850 0.02500
C 	C 	0.08580 0.31480 0.96940 0.11200
C 	C 	0.06580 0.34560 0.96840 -0.13100
H 	H 	0.06260 0.35840 0.94720 0.08200
C 	C 	0.26720 0.31530 0.91170 0.33500
C 	C 	0.27270 0.35400 0.90790 -0.09700
C 	C 	0.26810 0.37330 0.87710 0.06900
H 	H 	0.25780 0.36230 0.85710 0.02800
C 	C 	0.27820 0.40850 0.87510 -0.15100
C 	C 	0.29350 0.42350 0.90490 0.03300
H 	H 	0.30080 0.44750 0.90400 0.03600
C 	C 	0.29870 0.40490 0.93610 -0.04000
C 	C 	0.29200 0.36890 0.93760 0.01000
H 	H 	0.29640 0.35530 0.96030 0.05800
C 	C 	0.31170 0.42100 0.97080 0.11400
C 	C 	0.32550 0.45490 0.96990 -0.12800
H 	H 	0.32260 0.46980 0.95010 0.08100
C 	C 	0.27180 0.43060 0.84250 0.50800
C 	C 	0.07790 0.27570 0.84050 0.52200
O 	O 	0.26790 0.23110 0.97190 -0.55200
Gd	Gd	0.75577 0.74384 0.41137 1.64200
O 	O 	0.70110 0.74260 0.38280 -0.38800
O 	O 	0.70170 0.75520 0.43910 -0.37500
O 	O 	0.75920 0.79960 0.38340 -0.40600
O 	O 	0.76640 0.79970 0.44010 -0.37200
O 	O 	0.76130 0.91210 0.31860 -0.47600
O 	O 	0.77700 0.96210 0.34240 -0.45100
O 	O 	0.58690 0.75420 0.31860 -0.49900
O 	O 	0.55770 0.79950 0.33500 -0.50100
C 	C 	0.68310 0.75240 0.41120 0.28800
C 	C 	0.64440 0.76150 0.40940 -0.08900
C 	C 	0.63360 0.78080 0.43910 0.00300
H 	H 	0.64830 0.78360 0.45920 0.05900
C 	C 	0.59980 0.79560 0.43750 -0.04700
C 	C 	0.58090 0.79310 0.40600 0.05100
H 	H 	0.55910 0.80540 0.40460 0.02500
C 	C 	0.59160 0.77410 0.37620 -0.18900
C 	C 	0.62510 0.75910 0.37830 0.06700
H 	H 	0.63470 0.74710 0.35850 0.02400
C 	C 	0.58580 0.81480 0.46940 0.11000
C 	C 	0.56580 0.84560 0.46840 -0.14200
H 	H 	0.56260 0.85840 0.44720 0.08600
C 	C 	0.76720 0.81530 0.41170 0.33500
C 	C 	0.77270 0.85400 0.40790 -0.09700
C 	C 	0.76810 0.87330 0.37710 0.06900
H 	H 	0.75780 0.86230 0.35710 0.02800
C 	C 	0.77820 0.90850 0.37510 -0.15000
C 	C 	0.79350 0.92350 0.40490 0.03200
H 	H 	0.80080 0.94750 0.40400 0.03800
C 	C 	0.79870 0.90490 0.43610 -0.04000
C 	C 	0.79200 0.86890 0.43760 0.00900
H 	H 	0.79640 0.85530 0.46030 0.05700
C 	C 	0.81170 0.92100 0.47080 0.11100
C 	C 	0.82550 0.95490 0.46990 -0.13700
H 	H 	0.82260 0.96980 0.45010 0.08500
C 	C 	0.77180 0.93060 0.34250 0.50700
C 	C 	0.57790 0.77570 0.34050 0.52300
O 	O 	0.76790 0.73110 0.47190 -0.56100
Gd	Gd	0.25577 0.75616 0.08863 1.64100
O 	O 	0.20110 0.75740 0.11720 -0.38800
O 	O 	0.20170 0.74480 0.06090 -0.37500
O 	O 	0.25920 0.70040 0.11660 -0.40700
O 	O 	0.26640 0.70030 0.05990 -0.37300
O 	O 	0.26130 0.58790 0.18140 -0.47700
O 	O 	0.27700 0.53790 0.15760 -0.45600
O 	O 	0.08690 0.74580 0.18140 -0.49900
O 	O 	0.05770 0.70050 0.16500 -0.50000
C 	C 	0.18310 0.74760 0.08880 0.28800
C 	C 	0.14440 0.73850 0.09060 -0.08900
C 	C 	0.13360 0.71920 0.06090 0.00300
H 	H 	0.14830 0.71640 0.04080 0.05800
C 	C 	0.09980 0.70440 0.06250 -0.04700
C 	C 	0.08090 0.70690 0.09400 0.05000
H 	H 	0.05910 0.69460 0.09540 0.02500
C 	C 	0.09160 0.72590 0.12380 -0.19000
C 	C 	0.12510 0.74090 0.12170 0.06700
H 	H 	0.13470 0.75290 0.14150 0.02400
C 	C 	0.08580 0.68520 0.03060 0.10600
C 	C 	0.06580 0.65440 0.03160 -0.13800
H 	H 	0.06260 0.64160 0.05280 0.08200
C 	C 	0.26720 0.68470 0.08830 0.33500
C 	C 	0.27270 0.64600 0.09210 -0.09800
C 	C 	0.26810 0.62670 0.12290 0.07000
H 	H 	0.25780 0.63770 0.14290 0.02700
C 	C 	0.27820 0.59150 0.12490 -0.15200
C 	C 	0.29350 0.57650 0.09510 0.03200
H 	H 	0.30080 0.55250 0.09600 0.03600
C 	C 	0.29870 0.59510 0.06390 -0.04100
C 	C 	0.29200 0.63110 0.06240 0.00900
H 	H 	0.29640 0.64470 0.03970 0.05500
C 	C 	0.31170 0.57900 0.02920 0.10800
C 	C 	0.32550 0.54510 0.03010 -0.13600
H 	H 	0.32260 0.53020 0.04990 0.08200
C 	C 	0.27180 0.56940 0.15750 0.50800
C 	C 	0.07790 0.72430 0.15950 0.52200
O 	O 	0.26790 0.76890 0.02810 -0.55800
Gd	Gd	0.75577 0.25616 0.58863 1.64200
O 	O 	0.70110 0.25740 0.61720 -0.38800
O 	O 	0.70170 0.24480 0.56090 -0.37500
O 	O 	0.75920 0.20040 0.61660 -0.40700
O 	O 	0.76640 0.20030 0.55990 -0.37200
O 	O 	0.76130 0.08790 0.68140 -0.47700
O 	O 	0.77700 0.03790 0.65760 -0.45600
O 	O 	0.58690 0.24580 0.68140 -0.49900
O 	O 	0.55770 0.20050 0.66500 -0.50200
C 	C 	0.68310 0.24760 0.58880 0.28800
C 	C 	0.64440 0.23850 0.59060 -0.08900
C 	C 	0.63360 0.21920 0.56090 0.00300
H 	H 	0.64830 0.21640 0.54080 0.05900
C 	C 	0.59980 0.20440 0.56250 -0.04700
C 	C 	0.58090 0.20690 0.59400 0.05100
H 	H 	0.55910 0.19460 0.59540 0.02500
C 	C 	0.59160 0.22590 0.62380 -0.18900
C 	C 	0.62510 0.24090 0.62170 0.06700
H 	H 	0.63470 0.25290 0.64150 0.02400
C 	C 	0.58580 0.18520 0.53060 0.11000
C 	C 	0.56580 0.15440 0.53160 -0.14300
H 	H 	0.56260 0.14160 0.55280 0.08500
C 	C 	0.76720 0.18470 0.58830 0.33500
C 	C 	0.77270 0.14600 0.59210 -0.09800
C 	C 	0.76810 0.12670 0.62290 0.07000
H 	H 	0.75780 0.13770 0.64290 0.02700
C 	C 	0.77820 0.09150 0.62490 -0.15200
C 	C 	0.79350 0.07650 0.59510 0.03300
H 	H 	0.80080 0.05250 0.59600 0.03500
C 	C 	0.79870 0.09510 0.56390 -0.04200
C 	C 	0.79200 0.13110 0.56240 0.01000
H 	H 	0.79640 0.14470 0.53970 0.05600
C 	C 	0.81170 0.07900 0.52920 0.11200
C 	C 	0.82550 0.04510 0.53010 -0.14300
H 	H 	0.82260 0.03020 0.54990 0.08300
C 	C 	0.77180 0.06940 0.65750 0.50800
C 	C 	0.57790 0.22430 0.65950 0.52300
O 	O 	0.76790 0.26890 0.52810 -0.56100
Gd	Gd	0.74423 0.75616 0.91137 1.64200
O 	O 	0.79890 0.75740 0.88280 -0.38800
O 	O 	0.79830 0.74480 0.93910 -0.37300
O 	O 	0.74080 0.70040 0.88340 -0.40600
O 	O 	0.73360 0.70030 0.94010 -0.37000
O 	O 	0.73870 0.58790 0.81860 -0.47700
O 	O 	0.72300 0.53790 0.84240 -0.45500
O 	O 	0.91310 0.74580 0.81860 -0.49700
O 	O 	0.94230 0.70050 0.83500 -0.49700
C 	C 	0.81690 0.74760 0.91120 0.28800
C 	C 	0.85560 0.73850 0.90940 -0.08600
C 	C 	0.86640 0.71920 0.93910 0.00300
H 	H 	0.85170 0.71640 0.95920 0.06100
C 	C 	0.90020 0.70440 0.93750 -0.04400
C 	C 	0.91910 0.70690 0.90600 0.05000
H 	H 	0.94090 0.69460 0.90460 0.02800
C 	C 	0.90840 0.72590 0.87620 -0.18600
C 	C 	0.87490 0.74090 0.87830 0.06600
H 	H 	0.86530 0.75290 0.85850 0.02500
C 	C 	0.91420 0.68520 0.96940 0.11200
C 	C 	0.93420 0.65440 0.96840 -0.12900
H 	H 	0.93740 0.64160 0.94720 0.08300
C 	C 	0.73280 0.68470 0.91170 0.33500
C 	C 	0.72730 0.64600 0.90790 -0.09700
C 	C 	0.73190 0.62670 0.87710 0.06900
H 	H 	0.74220 0.63770 0.85710 0.02800
C 	C 	0.72180 0.59150 0.87510 -0.15100
C 	C 	0.70650 0.57650 0.90490 0.03300
H 	H 	0.69920 0.55250 0.90400 0.03600
C 	C 	0.70130 0.59510 0.93610 -0.04000
C 	C 	0.70800 0.63110 0.93760 0.01000
H 	H 	0.70360 0.64470 0.96030 0.05800
C 	C 	0.68830 0.57900 0.97080 0.11400
C 	C 	0.67450 0.54510 0.96990 -0.12800
H 	H 	0.67740 0.53020 0.95010 0.08100
C 	C 	0.72820 0.56940 0.84250 0.50800
C 	C 	0.92210 0.72430 0.84050 0.52100
O 	O 	0.73210 0.76890 0.97190 -0.55200
Gd	Gd	0.24423 0.25616 0.41137 1.64200
O 	O 	0.29890 0.25740 0.38280 -0.38800
O 	O 	0.29830 0.24480 0.43910 -0.37500
O 	O 	0.24080 0.20040 0.38340 -0.40700
O 	O 	0.23360 0.20030 0.44010 -0.37200
O 	O 	0.23870 0.08790 0.31860 -0.47700
O 	O 	0.22300 0.03790 0.34240 -0.45600
O 	O 	0.41310 0.24580 0.31860 -0.49900
O 	O 	0.44230 0.20050 0.33500 -0.50200
C 	C 	0.31690 0.24760 0.41120 0.28800
C 	C 	0.35560 0.23850 0.40940 -0.08900
C 	C 	0.36640 0.21920 0.43910 0.00300
H 	H 	0.35170 0.21640 0.45920 0.05900
C 	C 	0.40020 0.20440 0.43750 -0.04700
C 	C 	0.41910 0.20690 0.40600 0.05100
H 	H 	0.44090 0.19460 0.40460 0.02500
C 	C 	0.40840 0.22590 0.37620 -0.18900
C 	C 	0.37490 0.24090 0.37830 0.06700
H 	H 	0.36530 0.25290 0.35850 0.02500
C 	C 	0.41420 0.18520 0.46940 0.11000
C 	C 	0.43420 0.15440 0.46840 -0.14300
H 	H 	0.43740 0.14160 0.44720 0.08500
C 	C 	0.23280 0.18470 0.41170 0.33500
C 	C 	0.22730 0.14600 0.40790 -0.09800
C 	C 	0.23190 0.12670 0.37710 0.07000
H 	H 	0.24220 0.13770 0.35710 0.02700
C 	C 	0.22180 0.09150 0.37510 -0.15200
C 	C 	0.20650 0.07650 0.40490 0.03300
H 	H 	0.19920 0.05250 0.40400 0.03500
C 	C 	0.20130 0.09510 0.43610 -0.04200
C 	C 	0.20800 0.13110 0.43760 0.01000
H 	H 	0.20360 0.14470 0.46030 0.05600
C 	C 	0.18830 0.07900 0.47080 0.11200
C 	C 	0.17450 0.04510 0.46990 -0.14400
H 	H 	0.17740 0.03020 0.45010 0.08300
C 	C 	0.22820 0.06940 0.34250 0.50800
C 	C 	0.42210 0.22430 0.34050 0.52300
O 	O 	0.23210 0.26890 0.47190 -0.56100
Gd	Gd	0.74423 0.24384 0.08863 1.64100
O 	O 	0.79890 0.24260 0.11720 -0.38800
O 	O 	0.79830 0.25520 0.06090 -0.37500
O 	O 	0.74080 0.29960 0.11660 -0.40700
O 	O 	0.73360 0.29970 0.05990 -0.37300
O 	O 	0.73870 0.41210 0.18140 -0.47700
O 	O 	0.72300 0.46210 0.15760 -0.45600
O 	O 	0.91310 0.25420 0.18140 -0.49800
O 	O 	0.94230 0.29950 0.16500 -0.49800
C 	C 	0.81690 0.25240 0.08880 0.28800
C 	C 	0.85560 0.26150 0.09060 -0.08800
C 	C 	0.86640 0.28080 0.06090 0.00300
H 	H 	0.85170 0.28360 0.04080 0.05800
C 	C 	0.90020 0.29560 0.06250 -0.04500
C 	C 	0.91910 0.29310 0.09400 0.04900
H 	H 	0.94090 0.30540 0.09540 0.02700
C 	C 	0.90840 0.27410 0.12380 -0.18800
C 	C 	0.87490 0.25910 0.12170 0.06600
H 	H 	0.86530 0.24710 0.14150 0.02500
C 	C 	0.91420 0.31480 0.03060 0.10700
C 	C 	0.93420 0.34560 0.03160 -0.13600
H 	H 	0.93740 0.35840 0.05280 0.08400
C 	C 	0.73280 0.31530 0.08830 0.33500
C 	C 	0.72730 0.35400 0.09210 -0.09800
C 	C 	0.73190 0.37330 0.12290 0.07000
H 	H 	0.74220 0.36230 0.14290 0.02700
C 	C 	0.72180 0.40850 0.12490 -0.15200
C 	C 	0.70650 0.42350 0.09510 0.03200
H 	H 	0.69920 0.44750 0.09600 0.03600
C 	C 	0.70130 0.40490 0.06390 -0.04100
C 	C 	0.70800 0.36890 0.06240 0.00900
H 	H 	0.70360 0.35530 0.03970 0.05500
C 	C 	0.68830 0.42100 0.02920 0.10800
C 	C 	0.67450 0.45490 0.03010 -0.13600
H 	H 	0.67740 0.46980 0.04990 0.08200
C 	C 	0.72820 0.43060 0.15750 0.50800
C 	C 	0.92210 0.27570 0.15950 0.52200
O 	O 	0.73210 0.23110 0.02810 -0.55800
Gd	Gd	0.24423 0.74384 0.58863 1.64200
O 	O 	0.29890 0.74260 0.61720 -0.38800
O 	O 	0.29830 0.75520 0.56090 -0.37500
O 	O 	0.24080 0.79960 0.61660 -0.40700
O 	O 	0.23360 0.79970 0.55990 -0.37200
O 	O 	0.23870 0.91210 0.68140 -0.47600
O 	O 	0.22300 0.96210 0.65760 -0.45100
O 	O 	0.41310 0.75420 0.68140 -0.49900
O 	O 	0.44230 0.79950 0.66500 -0.50100
C 	C 	0.31690 0.75240 0.58880 0.28800
C 	C 	0.35560 0.76150 0.59060 -0.08900
C 	C 	0.36640 0.78080 0.56090 0.00300
H 	H 	0.35170 0.78360 0.54080 0.05900
C 	C 	0.40020 0.79560 0.56250 -0.04700
C 	C 	0.41910 0.79310 0.59400 0.05100
H 	H 	0.44090 0.80540 0.59540 0.02500
C 	C 	0.40840 0.77410 0.62380 -0.18900
C 	C 	0.37490 0.75910 0.62170 0.06700
H 	H 	0.36530 0.74710 0.64150 0.02400
C 	C 	0.41420 0.81480 0.53060 0.11000
C 	C 	0.43420 0.84560 0.53160 -0.14200
H 	H 	0.43740 0.85840 0.55280 0.08600
C 	C 	0.23280 0.81530 0.58830 0.33500
C 	C 	0.22730 0.85400 0.59210 -0.09700
C 	C 	0.23190 0.87330 0.62290 0.06900
H 	H 	0.24220 0.86230 0.64290 0.02800
C 	C 	0.22180 0.90850 0.62490 -0.15000
C 	C 	0.20650 0.92350 0.59510 0.03200
H 	H 	0.19920 0.94750 0.59600 0.03800
C 	C 	0.20130 0.90490 0.56390 -0.04000
C 	C 	0.20800 0.86890 0.56240 0.00900
H 	H 	0.20360 0.85530 0.53970 0.05700
C 	C 	0.18830 0.92100 0.52920 0.11000
C 	C 	0.17450 0.95490 0.53010 -0.13700
H 	H 	0.17740 0.96980 0.54990 0.08500
C 	C 	0.22820 0.93060 0.65750 0.50700
C 	C 	0.42210 0.77570 0.65950 0.52300
O 	O 	0.23210 0.73110 0.52810 -0.56100
Gd	Gd	0.91137 0.25577 0.24384 1.64200
O 	O 	0.88280 0.20110 0.24260 -0.38800
O 	O 	0.93910 0.20170 0.25520 -0.37300
O 	O 	0.88340 0.25920 0.29960 -0.40600
O 	O 	0.94010 0.26640 0.29970 -0.37000
O 	O 	0.81860 0.26130 0.41210 -0.47700
O 	O 	0.84240 0.27700 0.46210 -0.45500
O 	O 	0.81860 0.08690 0.25420 -0.49900
O 	O 	0.83500 0.05770 0.29950 -0.50000
C 	C 	0.91120 0.18310 0.25240 0.28800
C 	C 	0.90940 0.14440 0.26150 -0.08800
C 	C 	0.93910 0.13360 0.28080 0.00300
H 	H 	0.95920 0.14830 0.28360 0.06100
C 	C 	0.93750 0.09980 0.29560 -0.04600
C 	C 	0.90600 0.08090 0.29310 0.05000
H 	H 	0.90460 0.05910 0.30540 0.02500
C 	C 	0.87620 0.09160 0.27410 -0.18900
C 	C 	0.87830 0.12510 0.25910 0.06700
H 	H 	0.85850 0.13470 0.24710 0.02500
C 	C 	0.96940 0.08580 0.31480 0.11200
C 	C 	0.96840 0.06580 0.34560 -0.13100
H 	H 	0.94720 0.06260 0.35840 0.08200
C 	C 	0.91170 0.26720 0.31530 0.33500
C 	C 	0.90790 0.27270 0.35400 -0.09700
C 	C 	0.87710 0.26810 0.37330 0.06900
H 	H 	0.85710 0.25780 0.36230 0.02800
C 	C 	0.87510 0.27820 0.40850 -0.15100
C 	C 	0.90490 0.29350 0.42350 0.03300
H 	H 	0.90400 0.30080 0.44750 0.03600
C 	C 	0.93610 0.29870 0.40490 -0.04000
C 	C 	0.93760 0.29200 0.36890 0.01000
H 	H 	0.96030 0.29640 0.35530 0.05800
C 	C 	0.97080 0.31170 0.42100 0.11400
C 	C 	0.96990 0.32550 0.45490 -0.12800
H 	H 	0.95010 0.32260 0.46980 0.08100
C 	C 	0.84250 0.27180 0.43060 0.50800
C 	C 	0.84050 0.07790 0.27570 0.52200
O 	O 	0.97190 0.26790 0.23110 -0.55200
Gd	Gd	0.41137 0.75577 0.74384 1.64200
O 	O 	0.38280 0.70110 0.74260 -0.38800
O 	O 	0.43910 0.70170 0.75520 -0.37500
O 	O 	0.38340 0.75920 0.79960 -0.40600
O 	O 	0.44010 0.76640 0.79970 -0.37200
O 	O 	0.31860 0.76130 0.91210 -0.47600
O 	O 	0.34240 0.77700 0.96210 -0.45100
O 	O 	0.31860 0.58690 0.75420 -0.49900
O 	O 	0.33500 0.55770 0.79950 -0.50100
C 	C 	0.41120 0.68310 0.75240 0.28800
C 	C 	0.40940 0.64440 0.76150 -0.08900
C 	C 	0.43910 0.63360 0.78080 0.00300
H 	H 	0.45920 0.64830 0.78360 0.05900
C 	C 	0.43750 0.59980 0.79560 -0.04700
C 	C 	0.40600 0.58090 0.79310 0.05100
H 	H 	0.40460 0.55910 0.80540 0.02500
C 	C 	0.37620 0.59160 0.77410 -0.18900
C 	C 	0.37830 0.62510 0.75910 0.06700
H 	H 	0.35850 0.63470 0.74710 0.02400
C 	C 	0.46940 0.58580 0.81480 0.11000
C 	C 	0.46840 0.56580 0.84560 -0.14200
H 	H 	0.44720 0.56260 0.85840 0.08600
C 	C 	0.41170 0.76720 0.81530 0.33500
C 	C 	0.40790 0.77270 0.85400 -0.09700
C 	C 	0.37710 0.76810 0.87330 0.06900
H 	H 	0.35710 0.75780 0.86230 0.02800
C 	C 	0.37510 0.77820 0.90850 -0.15000
C 	C 	0.40490 0.79350 0.92350 0.03200
H 	H 	0.40400 0.80080 0.94750 0.03800
C 	C 	0.43610 0.79870 0.90490 -0.04000
C 	C 	0.43760 0.79200 0.86890 0.00900
H 	H 	0.46030 0.79640 0.85530 0.05700
C 	C 	0.47080 0.81170 0.92100 0.11100
C 	C 	0.46990 0.82550 0.95490 -0.13700
H 	H 	0.45010 0.82260 0.96980 0.08500
C 	C 	0.34250 0.77180 0.93060 0.50700
C 	C 	0.34050 0.57790 0.77570 0.52300
O 	O 	0.47190 0.76790 0.73110 -0.56100
Gd	Gd	0.08863 0.25577 0.75616 1.64100
O 	O 	0.11720 0.20110 0.75740 -0.38800
O 	O 	0.06090 0.20170 0.74480 -0.37500
O 	O 	0.11660 0.25920 0.70040 -0.40700
O 	O 	0.05990 0.26640 0.70030 -0.37300
O 	O 	0.18140 0.26130 0.58790 -0.47700
O 	O 	0.15760 0.27700 0.53790 -0.45600
O 	O 	0.18140 0.08690 0.74580 -0.49900
O 	O 	0.16500 0.05770 0.70050 -0.50000
C 	C 	0.08880 0.18310 0.74760 0.28800
C 	C 	0.09060 0.14440 0.73850 -0.08900
C 	C 	0.06090 0.13360 0.71920 0.00300
H 	H 	0.04080 0.14830 0.71640 0.05800
C 	C 	0.06250 0.09980 0.70440 -0.04700
C 	C 	0.09400 0.08090 0.70690 0.05000
H 	H 	0.09540 0.05910 0.69460 0.02500
C 	C 	0.12380 0.09160 0.72590 -0.19000
C 	C 	0.12170 0.12510 0.74090 0.06700
H 	H 	0.14150 0.13470 0.75290 0.02400
C 	C 	0.03060 0.08580 0.68520 0.10600
C 	C 	0.03160 0.06580 0.65440 -0.13800
H 	H 	0.05280 0.06260 0.64160 0.08200
C 	C 	0.08830 0.26720 0.68470 0.33500
C 	C 	0.09210 0.27270 0.64600 -0.09800
C 	C 	0.12290 0.26810 0.62670 0.07000
H 	H 	0.14290 0.25780 0.63770 0.02700
C 	C 	0.12490 0.27820 0.59150 -0.15200
C 	C 	0.09510 0.29350 0.57650 0.03200
H 	H 	0.09600 0.30080 0.55250 0.03600
C 	C 	0.06390 0.29870 0.59510 -0.04100
C 	C 	0.06240 0.29200 0.63110 0.00900
H 	H 	0.03970 0.29640 0.64470 0.05500
C 	C 	0.02920 0.31170 0.57900 0.10800
C 	C 	0.03010 0.32550 0.54510 -0.13600
H 	H 	0.04990 0.32260 0.53020 0.08200
C 	C 	0.15750 0.27180 0.56940 0.50800
C 	C 	0.15950 0.07790 0.72430 0.52200
O 	O 	0.02810 0.26790 0.76890 -0.55800
Gd	Gd	0.58863 0.75577 0.25616 1.64200
O 	O 	0.61720 0.70110 0.25740 -0.38800
O 	O 	0.56090 0.70170 0.24480 -0.37500
O 	O 	0.61660 0.75920 0.20040 -0.40700
O 	O 	0.55990 0.76640 0.20030 -0.37200
O 	O 	0.68140 0.76130 0.08790 -0.47700
O 	O 	0.65760 0.77700 0.03790 -0.45600
O 	O 	0.68140 0.58690 0.24580 -0.49900
O 	O 	0.66500 0.55770 0.20050 -0.50200
C 	C 	0.58880 0.68310 0.24760 0.28800
C 	C 	0.59060 0.64440 0.23850 -0.08900
C 	C 	0.56090 0.63360 0.21920 0.00300
H 	H 	0.54080 0.64830 0.21640 0.05900
C 	C 	0.56250 0.59980 0.20440 -0.04700
C 	C 	0.59400 0.58090 0.20690 0.05100
H 	H 	0.59540 0.55910 0.19460 0.02500
C 	C 	0.62380 0.59160 0.22590 -0.18900
C 	C 	0.62170 0.62510 0.24090 0.06700
H 	H 	0.64150 0.63470 0.25290 0.02400
C 	C 	0.53060 0.58580 0.18520 0.11000
C 	C 	0.53160 0.56580 0.15440 -0.14300
H 	H 	0.55280 0.56260 0.14160 0.08500
C 	C 	0.58830 0.76720 0.18470 0.33500
C 	C 	0.59210 0.77270 0.14600 -0.09800
C 	C 	0.62290 0.76810 0.12670 0.07000
H 	H 	0.64290 0.75780 0.13770 0.02700
C 	C 	0.62490 0.77820 0.09150 -0.15200
C 	C 	0.59510 0.79350 0.07650 0.03300
H 	H 	0.59600 0.80080 0.05250 0.03500
C 	C 	0.56390 0.79870 0.09510 -0.04200
C 	C 	0.56240 0.79200 0.13110 0.01000
H 	H 	0.53970 0.79640 0.14470 0.05600
C 	C 	0.52920 0.81170 0.07900 0.11200
C 	C 	0.53010 0.82550 0.04510 -0.14300
H 	H 	0.54990 0.82260 0.03020 0.08300
C 	C 	0.65750 0.77180 0.06940 0.50800
C 	C 	0.65950 0.57790 0.22430 0.52300
O 	O 	0.52810 0.76790 0.26890 -0.56100
Gd	Gd	0.91137 0.74423 0.75616 1.64200
O 	O 	0.88280 0.79890 0.75740 -0.38800
O 	O 	0.93910 0.79830 0.74480 -0.37300
O 	O 	0.88340 0.74080 0.70040 -0.40600
O 	O 	0.94010 0.73360 0.70030 -0.37000
O 	O 	0.81860 0.73870 0.58790 -0.47700
O 	O 	0.84240 0.72300 0.53790 -0.45500
O 	O 	0.81860 0.91310 0.74580 -0.49700
O 	O 	0.83500 0.94230 0.70050 -0.49700
C 	C 	0.91120 0.81690 0.74760 0.28800
C 	C 	0.90940 0.85560 0.73850 -0.08600
C 	C 	0.93910 0.86640 0.71920 0.00300
H 	H 	0.95920 0.85170 0.71640 0.06100
C 	C 	0.93750 0.90020 0.70440 -0.04400
C 	C 	0.90600 0.91910 0.70690 0.05000
H 	H 	0.90460 0.94090 0.69460 0.02800
C 	C 	0.87620 0.90840 0.72590 -0.18600
C 	C 	0.87830 0.87490 0.74090 0.06600
H 	H 	0.85850 0.86530 0.75290 0.02500
C 	C 	0.96940 0.91420 0.68520 0.11200
C 	C 	0.96840 0.93420 0.65440 -0.12900
H 	H 	0.94720 0.93740 0.64160 0.08300
C 	C 	0.91170 0.73280 0.68470 0.33500
C 	C 	0.90790 0.72730 0.64600 -0.09700
C 	C 	0.87710 0.73190 0.62670 0.06900
H 	H 	0.85710 0.74220 0.63770 0.02800
C 	C 	0.87510 0.72180 0.59150 -0.15100
C 	C 	0.90490 0.70650 0.57650 0.03300
H 	H 	0.90400 0.69920 0.55250 0.03600
C 	C 	0.93610 0.70130 0.59510 -0.04000
C 	C 	0.93760 0.70800 0.63110 0.01000
H 	H 	0.96030 0.70360 0.64470 0.05800
C 	C 	0.97080 0.68830 0.57900 0.11400
C 	C 	0.96990 0.67450 0.54510 -0.12800
H 	H 	0.95010 0.67740 0.53020 0.08100
C 	C 	0.84250 0.72820 0.56940 0.50800
C 	C 	0.84050 0.92210 0.72430 0.52100
O 	O 	0.97190 0.73210 0.76890 -0.55200
Gd	Gd	0.41137 0.24423 0.25616 1.64200
O 	O 	0.38280 0.29890 0.25740 -0.38800
O 	O 	0.43910 0.29830 0.24480 -0.37500
O 	O 	0.38340 0.24080 0.20040 -0.40700
O 	O 	0.44010 0.23360 0.20030 -0.37200
O 	O 	0.31860 0.23870 0.08790 -0.47700
O 	O 	0.34240 0.22300 0.03790 -0.45600
O 	O 	0.31860 0.41310 0.24580 -0.49900
O 	O 	0.33500 0.44230 0.20050 -0.50200
C 	C 	0.41120 0.31690 0.24760 0.28800
C 	C 	0.40940 0.35560 0.23850 -0.08900
C 	C 	0.43910 0.36640 0.21920 0.00300
H 	H 	0.45920 0.35170 0.21640 0.05900
C 	C 	0.43750 0.40020 0.20440 -0.04700
C 	C 	0.40600 0.41910 0.20690 0.05100
H 	H 	0.40460 0.44090 0.19460 0.02500
C 	C 	0.37620 0.40840 0.22590 -0.18900
C 	C 	0.37830 0.37490 0.24090 0.06700
H 	H 	0.35850 0.36530 0.25290 0.02500
C 	C 	0.46940 0.41420 0.18520 0.11000
C 	C 	0.46840 0.43420 0.15440 -0.14300
H 	H 	0.44720 0.43740 0.14160 0.08500
C 	C 	0.41170 0.23280 0.18470 0.33500
C 	C 	0.40790 0.22730 0.14600 -0.09800
C 	C 	0.37710 0.23190 0.12670 0.07000
H 	H 	0.35710 0.24220 0.13770 0.02700
C 	C 	0.37510 0.22180 0.09150 -0.15200
C 	C 	0.40490 0.20650 0.07650 0.03300
H 	H 	0.40400 0.19920 0.05250 0.03500
C 	C 	0.43610 0.20130 0.09510 -0.04200
C 	C 	0.43760 0.20800 0.13110 0.01000
H 	H 	0.46030 0.20360 0.14470 0.05600
C 	C 	0.47080 0.18830 0.07900 0.11200
C 	C 	0.46990 0.17450 0.04510 -0.14400
H 	H 	0.45010 0.17740 0.03020 0.08300
C 	C 	0.34250 0.22820 0.06940 0.50800
C 	C 	0.34050 0.42210 0.22430 0.52300
O 	O 	0.47190 0.23210 0.26890 -0.56100
Gd	Gd	0.08863 0.74423 0.24384 1.64100
O 	O 	0.11720 0.79890 0.24260 -0.38800
O 	O 	0.06090 0.79830 0.25520 -0.37500
O 	O 	0.11660 0.74080 0.29960 -0.40700
O 	O 	0.05990 0.73360 0.29970 -0.37300
O 	O 	0.18140 0.73870 0.41210 -0.47700
O 	O 	0.15760 0.72300 0.46210 -0.45600
O 	O 	0.18140 0.91310 0.25420 -0.49800
O 	O 	0.16500 0.94230 0.29950 -0.49800
C 	C 	0.08880 0.81690 0.25240 0.28800
C 	C 	0.09060 0.85560 0.26150 -0.08800
C 	C 	0.06090 0.86640 0.28080 0.00300
H 	H 	0.04080 0.85170 0.28360 0.05800
C 	C 	0.06250 0.90020 0.29560 -0.04500
C 	C 	0.09400 0.91910 0.29310 0.04900
H 	H 	0.09540 0.94090 0.30540 0.02700
C 	C 	0.12380 0.90840 0.27410 -0.18800
C 	C 	0.12170 0.87490 0.25910 0.06600
H 	H 	0.14150 0.86530 0.24710 0.02500
C 	C 	0.03060 0.91420 0.31480 0.10700
C 	C 	0.03160 0.93420 0.34560 -0.13600
H 	H 	0.05280 0.93740 0.35840 0.08400
C 	C 	0.08830 0.73280 0.31530 0.33500
C 	C 	0.09210 0.72730 0.35400 -0.09800
C 	C 	0.12290 0.73190 0.37330 0.07000
H 	H 	0.14290 0.74220 0.36230 0.02700
C 	C 	0.12490 0.72180 0.40850 -0.15200
C 	C 	0.09510 0.70650 0.42350 0.03200
H 	H 	0.09600 0.69920 0.44750 0.03600
C 	C 	0.06390 0.70130 0.40490 -0.04100
C 	C 	0.06240 0.70800 0.36890 0.00900
H 	H 	0.03970 0.70360 0.35530 0.05500
C 	C 	0.02920 0.68830 0.42100 0.10800
C 	C 	0.03010 0.67450 0.45490 -0.13600
H 	H 	0.04990 0.67740 0.46980 0.08200
C 	C 	0.15750 0.72820 0.43060 0.50800
C 	C 	0.15950 0.92210 0.27570 0.52200
O 	O 	0.02810 0.73210 0.23110 -0.55800
Gd	Gd	0.58863 0.24423 0.74384 1.64200
O 	O 	0.61720 0.29890 0.74260 -0.38800
O 	O 	0.56090 0.29830 0.75520 -0.37500
O 	O 	0.61660 0.24080 0.79960 -0.40700
O 	O 	0.55990 0.23360 0.79970 -0.37200
O 	O 	0.68140 0.23870 0.91210 -0.47600
O 	O 	0.65760 0.22300 0.96210 -0.45100
O 	O 	0.68140 0.41310 0.75420 -0.49900
O 	O 	0.66500 0.44230 0.79950 -0.50100
C 	C 	0.58880 0.31690 0.75240 0.28800
C 	C 	0.59060 0.35560 0.76150 -0.08900
C 	C 	0.56090 0.36640 0.78080 0.00300
H 	H 	0.54080 0.35170 0.78360 0.05900
C 	C 	0.56250 0.40020 0.79560 -0.04700
C 	C 	0.59400 0.41910 0.79310 0.05100
H 	H 	0.59540 0.44090 0.80540 0.02500
C 	C 	0.62380 0.40840 0.77410 -0.18900
C 	C 	0.62170 0.37490 0.75910 0.06700
H 	H 	0.64150 0.36530 0.74710 0.02400
C 	C 	0.53060 0.41420 0.81480 0.11000
C 	C 	0.53160 0.43420 0.84560 -0.14200
H 	H 	0.55280 0.43740 0.85840 0.08600
C 	C 	0.58830 0.23280 0.81530 0.33500
C 	C 	0.59210 0.22730 0.85400 -0.09700
C 	C 	0.62290 0.23190 0.87330 0.06900
H 	H 	0.64290 0.24220 0.86230 0.02800
C 	C 	0.62490 0.22180 0.90850 -0.15000
C 	C 	0.59510 0.20650 0.92350 0.03200
H 	H 	0.59600 0.19920 0.94750 0.03800
C 	C 	0.56390 0.20130 0.90490 -0.04000
C 	C 	0.56240 0.20800 0.86890 0.00900
H 	H 	0.53970 0.20360 0.85530 0.05700
C 	C 	0.52920 0.18830 0.92100 0.11000
C 	C 	0.53010 0.17450 0.95490 -0.13700
H 	H 	0.54990 0.17740 0.96980 0.08500
C 	C 	0.65750 0.22820 0.93060 0.50700
C 	C 	0.65950 0.42210 0.77570 0.52300
O 	O 	0.52810 0.23210 0.73110 -0.56100
Gd	Gd	0.75616 0.08863 0.74423 1.64100
O 	O 	0.75740 0.11720 0.79890 -0.38800
O 	O 	0.74480 0.06090 0.79830 -0.37500
O 	O 	0.70040 0.11660 0.74080 -0.40700
O 	O 	0.70030 0.05990 0.73360 -0.37300
O 	O 	0.58790 0.18140 0.73870 -0.47700
O 	O 	0.53790 0.15760 0.72300 -0.45600
O 	O 	0.74580 0.18140 0.91310 -0.49800
O 	O 	0.70050 0.16500 0.94230 -0.49800
C 	C 	0.74760 0.08880 0.81690 0.28800
C 	C 	0.73850 0.09060 0.85560 -0.08800
C 	C 	0.71920 0.06090 0.86640 0.00300
H 	H 	0.71640 0.04080 0.85170 0.05800
C 	C 	0.70440 0.06250 0.90020 -0.04500
C 	C 	0.70690 0.09400 0.91910 0.04900
H 	H 	0.69460 0.09540 0.94090 0.02700
C 	C 	0.72590 0.12380 0.90840 -0.18700
C 	C 	0.74090 0.12170 0.87490 0.06600
H 	H 	0.75290 0.14150 0.86530 0.02500
C 	C 	0.68520 0.03060 0.91420 0.10700
C 	C 	0.65440 0.03160 0.93420 -0.13600
H 	H 	0.64160 0.05280 0.93740 0.08400
C 	C 	0.68470 0.08830 0.73280 0.33500
C 	C 	0.64600 0.09210 0.72730 -0.09800
C 	C 	0.62670 0.12290 0.73190 0.07000
H 	H 	0.63770 0.14290 0.74220 0.02700
C 	C 	0.59150 0.12490 0.72180 -0.15200
C 	C 	0.57650 0.09510 0.70650 0.03200
H 	H 	0.55250 0.09600 0.69920 0.03600
C 	C 	0.59510 0.06390 0.70130 -0.04100
C 	C 	0.63110 0.06240 0.70800 0.00900
H 	H 	0.64470 0.03970 0.70360 0.05500
C 	C 	0.57900 0.02920 0.68830 0.10800
C 	C 	0.54510 0.03010 0.67450 -0.13600
H 	H 	0.53020 0.04990 0.67740 0.08200
C 	C 	0.56940 0.15750 0.72820 0.50800
C 	C 	0.72430 0.15950 0.92210 0.52200
O 	O 	0.76890 0.02810 0.73210 -0.55800
Gd	Gd	0.25616 0.58863 0.24423 1.64200
O 	O 	0.25740 0.61720 0.29890 -0.38800
O 	O 	0.24480 0.56090 0.29830 -0.37500
O 	O 	0.20040 0.61660 0.24080 -0.40700
O 	O 	0.20030 0.55990 0.23360 -0.37200
O 	O 	0.08790 0.68140 0.23870 -0.47700
O 	O 	0.03790 0.65760 0.22300 -0.45600
O 	O 	0.24580 0.68140 0.41310 -0.49900
O 	O 	0.20050 0.66500 0.44230 -0.50200
C 	C 	0.24760 0.58880 0.31690 0.28800
C 	C 	0.23850 0.59060 0.35560 -0.08900
C 	C 	0.21920 0.56090 0.36640 0.00300
H 	H 	0.21640 0.54080 0.35170 0.05900
C 	C 	0.20440 0.56250 0.40020 -0.04700
C 	C 	0.20690 0.59400 0.41910 0.05100
H 	H 	0.19460 0.59540 0.44090 0.02500
C 	C 	0.22590 0.62380 0.40840 -0.18900
C 	C 	0.24090 0.62170 0.37490 0.06700
H 	H 	0.25290 0.64150 0.36530 0.02400
C 	C 	0.18520 0.53060 0.41420 0.11000
C 	C 	0.15440 0.53160 0.43420 -0.14300
H 	H 	0.14160 0.55280 0.43740 0.08500
C 	C 	0.18470 0.58830 0.23280 0.33500
C 	C 	0.14600 0.59210 0.22730 -0.09800
C 	C 	0.12670 0.62290 0.23190 0.07000
H 	H 	0.13770 0.64290 0.24220 0.02700
C 	C 	0.09150 0.62490 0.22180 -0.15200
C 	C 	0.07650 0.59510 0.20650 0.03300
H 	H 	0.05250 0.59600 0.19920 0.03500
C 	C 	0.09510 0.56390 0.20130 -0.04200
C 	C 	0.13110 0.56240 0.20800 0.01000
H 	H 	0.14470 0.53970 0.20360 0.05600
C 	C 	0.07900 0.52920 0.18830 0.11200
C 	C 	0.04510 0.53010 0.17450 -0.14400
H 	H 	0.03020 0.54990 0.17740 0.08300
C 	C 	0.06940 0.65750 0.22820 0.50800
C 	C 	0.22430 0.65950 0.42210 0.52300
O 	O 	0.26890 0.52810 0.23210 -0.56100
Gd	Gd	0.24384 0.91137 0.74423 1.64200
O 	O 	0.24260 0.88280 0.79890 -0.38800
O 	O 	0.25520 0.93910 0.79830 -0.37300
O 	O 	0.29960 0.88340 0.74080 -0.40600
O 	O 	0.29970 0.94010 0.73360 -0.37000
O 	O 	0.41210 0.81860 0.73870 -0.47700
O 	O 	0.46210 0.84240 0.72300 -0.45500
O 	O 	0.25420 0.81860 0.91310 -0.49800
O 	O 	0.29950 0.83500 0.94230 -0.49700
C 	C 	0.25240 0.91120 0.81690 0.28800
C 	C 	0.26150 0.90940 0.85560 -0.08700
C 	C 	0.28080 0.93910 0.86640 0.00300
H 	H 	0.28360 0.95920 0.85170 0.06100
C 	C 	0.29560 0.93750 0.90020 -0.04400
C 	C 	0.29310 0.90600 0.91910 0.05000
H 	H 	0.30540 0.90460 0.94090 0.02800
C 	C 	0.27410 0.87620 0.90840 -0.18700
C 	C 	0.25910 0.87830 0.87490 0.06600
H 	H 	0.24710 0.85850 0.86530 0.02500
C 	C 	0.31480 0.96940 0.91420 0.11200
C 	C 	0.34560 0.96840 0.93420 -0.12900
H 	H 	0.35840 0.94720 0.93740 0.08300
C 	C 	0.31530 0.91170 0.73280 0.33500
C 	C 	0.35400 0.90790 0.72730 -0.09700
C 	C 	0.37330 0.87710 0.73190 0.06900
H 	H 	0.36230 0.85710 0.74220 0.02800
C 	C 	0.40850 0.87510 0.72180 -0.15100
C 	C 	0.42350 0.90490 0.70650 0.03300
H 	H 	0.44750 0.90400 0.69920 0.03600
C 	C 	0.40490 0.93610 0.70130 -0.04000
C 	C 	0.36890 0.93760 0.70800 0.01000
H 	H 	0.35530 0.96030 0.70360 0.05800
C 	C 	0.42100 0.97080 0.68830 0.11400
C 	C 	0.45490 0.96990 0.67450 -0.12800
H 	H 	0.46980 0.95010 0.67740 0.08100
C 	C 	0.43060 0.84250 0.72820 0.50800
C 	C 	0.27570 0.84050 0.92210 0.52100
O 	O 	0.23110 0.97190 0.73210 -0.55200
Gd	Gd	0.74384 0.41137 0.24423 1.64200
O 	O 	0.74260 0.38280 0.29890 -0.38800
O 	O 	0.75520 0.43910 0.29830 -0.37500
O 	O 	0.79960 0.38340 0.24080 -0.40600
O 	O 	0.79970 0.44010 0.23360 -0.37200
O 	O 	0.91210 0.31860 0.23870 -0.47600
O 	O 	0.96210 0.34240 0.22300 -0.45100
O 	O 	0.75420 0.31860 0.41310 -0.49900
O 	O 	0.79950 0.33500 0.44230 -0.50100
C 	C 	0.75240 0.41120 0.31690 0.28800
C 	C 	0.76150 0.40940 0.35560 -0.08900
C 	C 	0.78080 0.43910 0.36640 0.00300
H 	H 	0.78360 0.45920 0.35170 0.05900
C 	C 	0.79560 0.43750 0.40020 -0.04700
C 	C 	0.79310 0.40600 0.41910 0.05100
H 	H 	0.80540 0.40460 0.44090 0.02500
C 	C 	0.77410 0.37620 0.40840 -0.18900
C 	C 	0.75910 0.37830 0.37490 0.06700
H 	H 	0.74710 0.35850 0.36530 0.02400
C 	C 	0.81480 0.46940 0.41420 0.11000
C 	C 	0.84560 0.46840 0.43420 -0.14200
H 	H 	0.85840 0.44720 0.43740 0.08600
C 	C 	0.81530 0.41170 0.23280 0.33500
C 	C 	0.85400 0.40790 0.22730 -0.09700
C 	C 	0.87330 0.37710 0.23190 0.06900
H 	H 	0.86230 0.35710 0.24220 0.02800
C 	C 	0.90850 0.37510 0.22180 -0.15000
C 	C 	0.92350 0.40490 0.20650 0.03200
H 	H 	0.94750 0.40400 0.19920 0.03800
C 	C 	0.90490 0.43610 0.20130 -0.04000
C 	C 	0.86890 0.43760 0.20800 0.00900
H 	H 	0.85530 0.46030 0.20360 0.05700
C 	C 	0.92100 0.47080 0.18830 0.11000
C 	C 	0.95490 0.46990 0.17450 -0.13700
H 	H 	0.96980 0.45010 0.17740 0.08500
C 	C 	0.93060 0.34250 0.22820 0.50700
C 	C 	0.77570 0.34050 0.42210 0.52300
O 	O 	0.73110 0.47190 0.23210 -0.56100
Gd	Gd	0.24384 0.08863 0.25577 1.64100
O 	O 	0.24260 0.11720 0.20110 -0.38800
O 	O 	0.25520 0.06090 0.20170 -0.37600
O 	O 	0.29960 0.11660 0.25920 -0.40700
O 	O 	0.29970 0.05990 0.26640 -0.37300
O 	O 	0.41210 0.18140 0.26130 -0.47700
O 	O 	0.46210 0.15760 0.27700 -0.45600
O 	O 	0.25420 0.18140 0.08690 -0.49900
O 	O 	0.29950 0.16500 0.05770 -0.50000
C 	C 	0.25240 0.08880 0.18310 0.28800
C 	C 	0.26150 0.09060 0.14440 -0.08900
C 	C 	0.28080 0.06090 0.13360 0.00300
H 	H 	0.28360 0.04080 0.14830 0.05800
C 	C 	0.29560 0.06250 0.09980 -0.04700
C 	C 	0.29310 0.09400 0.08090 0.05000
H 	H 	0.30540 0.09540 0.05910 0.02500
C 	C 	0.27410 0.12380 0.09160 -0.19000
C 	C 	0.25910 0.12170 0.12510 0.06700
H 	H 	0.24710 0.14150 0.13470 0.02400
C 	C 	0.31480 0.03060 0.08580 0.10600
C 	C 	0.34560 0.03160 0.06580 -0.13800
H 	H 	0.35840 0.05280 0.06260 0.08200
C 	C 	0.31530 0.08830 0.26720 0.33500
C 	C 	0.35400 0.09210 0.27270 -0.09800
C 	C 	0.37330 0.12290 0.26810 0.07000
H 	H 	0.36230 0.14290 0.25780 0.02700
C 	C 	0.40850 0.12490 0.27820 -0.15200
C 	C 	0.42350 0.09510 0.29350 0.03200
H 	H 	0.44750 0.09600 0.30080 0.03600
C 	C 	0.40490 0.06390 0.29870 -0.04100
C 	C 	0.36890 0.06240 0.29200 0.00900
H 	H 	0.35530 0.03970 0.29640 0.05500
C 	C 	0.42100 0.02920 0.31170 0.10800
C 	C 	0.45490 0.03010 0.32550 -0.13600
H 	H 	0.46980 0.04990 0.32260 0.08200
C 	C 	0.43060 0.15750 0.27180 0.50800
C 	C 	0.27570 0.15950 0.07790 0.52200
O 	O 	0.23110 0.02810 0.26790 -0.55800
Gd	Gd	0.74384 0.58863 0.75577 1.64200
O 	O 	0.74260 0.61720 0.70110 -0.38800
O 	O 	0.75520 0.56090 0.70170 -0.37500
O 	O 	0.79960 0.61660 0.75920 -0.40700
O 	O 	0.79970 0.55990 0.76640 -0.37200
O 	O 	0.91210 0.68140 0.76130 -0.47700
O 	O 	0.96210 0.65760 0.77700 -0.45100
O 	O 	0.75420 0.68140 0.58690 -0.49900
O 	O 	0.79950 0.66500 0.55770 -0.50200
C 	C 	0.75240 0.58880 0.68310 0.28800
C 	C 	0.76150 0.59060 0.64440 -0.08900
C 	C 	0.78080 0.56090 0.63360 0.00300
H 	H 	0.78360 0.54080 0.64830 0.05900
C 	C 	0.79560 0.56250 0.59980 -0.04700
C 	C 	0.79310 0.59400 0.58090 0.05100
H 	H 	0.80540 0.59540 0.55910 0.02500
C 	C 	0.77410 0.62380 0.59160 -0.18900
C 	C 	0.75910 0.62170 0.62510 0.06700
H 	H 	0.74710 0.64150 0.63470 0.02400
C 	C 	0.81480 0.53060 0.58580 0.11000
C 	C 	0.84560 0.53160 0.56580 -0.14200
H 	H 	0.85840 0.55280 0.56260 0.08600
C 	C 	0.81530 0.58830 0.76720 0.33500
C 	C 	0.85400 0.59210 0.77270 -0.09700
C 	C 	0.87330 0.62290 0.76810 0.06900
H 	H 	0.86230 0.64290 0.75780 0.02800
C 	C 	0.90850 0.62490 0.77820 -0.15000
C 	C 	0.92350 0.59510 0.79350 0.03200
H 	H 	0.94750 0.59600 0.80080 0.03800
C 	C 	0.90490 0.56390 0.79870 -0.04000
C 	C 	0.86890 0.56240 0.79200 0.00900
H 	H 	0.85530 0.53970 0.79640 0.05700
C 	C 	0.92100 0.52920 0.81170 0.11100
C 	C 	0.95490 0.53010 0.82550 -0.13700
H 	H 	0.96980 0.54990 0.82260 0.08500
C 	C 	0.93060 0.65750 0.77180 0.50700
C 	C 	0.77570 0.65950 0.57790 0.52300
O 	O 	0.73110 0.52810 0.76790 -0.56100
Gd	Gd	0.75616 0.91137 0.25577 1.64200
O 	O 	0.75740 0.88280 0.20110 -0.38800
O 	O 	0.74480 0.93910 0.20170 -0.37300
O 	O 	0.70040 0.88340 0.25920 -0.40600
O 	O 	0.70030 0.94010 0.26640 -0.37000
O 	O 	0.58790 0.81860 0.26130 -0.47700
O 	O 	0.53790 0.84240 0.27700 -0.45500
O 	O 	0.74580 0.81860 0.08690 -0.49900
O 	O 	0.70050 0.83500 0.05770 -0.50000
C 	C 	0.74760 0.91120 0.18310 0.28800
C 	C 	0.73850 0.90940 0.14440 -0.08800
C 	C 	0.71920 0.93910 0.13360 0.00300
H 	H 	0.71640 0.95920 0.14830 0.06100
C 	C 	0.70440 0.93750 0.09980 -0.04600
C 	C 	0.70690 0.90600 0.08090 0.05000
H 	H 	0.69460 0.90460 0.05910 0.02500
C 	C 	0.72590 0.87620 0.09160 -0.18900
C 	C 	0.74090 0.87830 0.12510 0.06700
H 	H 	0.75290 0.85850 0.13470 0.02500
C 	C 	0.68520 0.96940 0.08580 0.11200
C 	C 	0.65440 0.96840 0.06580 -0.13100
H 	H 	0.64160 0.94720 0.06260 0.08200
C 	C 	0.68470 0.91170 0.26720 0.33500
C 	C 	0.64600 0.90790 0.27270 -0.09700
C 	C 	0.62670 0.87710 0.26810 0.06900
H 	H 	0.63770 0.85710 0.25780 0.02800
C 	C 	0.59150 0.87510 0.27820 -0.15100
C 	C 	0.57650 0.90490 0.29350 0.03300
H 	H 	0.55250 0.90400 0.30080 0.03600
C 	C 	0.59510 0.93610 0.29870 -0.04100
C 	C 	0.63110 0.93760 0.29200 0.01000
H 	H 	0.64470 0.96030 0.29640 0.05800
C 	C 	0.57900 0.97080 0.31170 0.11400
C 	C 	0.54510 0.96990 0.32550 -0.12800
H 	H 	0.53020 0.95010 0.32260 0.08100
C 	C 	0.56940 0.84250 0.27180 0.50800
C 	C 	0.72430 0.84050 0.07790 0.52200
O 	O 	0.76890 0.97190 0.26790 -0.55200
Gd	Gd	0.25616 0.41137 0.75577 1.64200
O 	O 	0.25740 0.38280 0.70110 -0.38800
O 	O 	0.24480 0.43910 0.70170 -0.37500
O 	O 	0.20040 0.38340 0.75920 -0.40700
O 	O 	0.20030 0.44010 0.76640 -0.37200
O 	O 	0.08790 0.31860 0.76130 -0.47700
O 	O 	0.03790 0.34240 0.77700 -0.45600
O 	O 	0.24580 0.31860 0.58690 -0.49900
O 	O 	0.20050 0.33500 0.55770 -0.50200
C 	C 	0.24760 0.41120 0.68310 0.28800
C 	C 	0.23850 0.40940 0.64440 -0.08900
C 	C 	0.21920 0.43910 0.63360 0.00300
H 	H 	0.21640 0.45920 0.64830 0.05900
C 	C 	0.20440 0.43750 0.59980 -0.04700
C 	C 	0.20690 0.40600 0.58090 0.05100
H 	H 	0.19460 0.40460 0.55910 0.02500
C 	C 	0.22590 0.37620 0.59160 -0.18900
C 	C 	0.24090 0.37830 0.62510 0.06700
H 	H 	0.25290 0.35850 0.63470 0.02400
C 	C 	0.18520 0.46940 0.58580 0.11000
C 	C 	0.15440 0.46840 0.56580 -0.14300
H 	H 	0.14160 0.44720 0.56260 0.08500
C 	C 	0.18470 0.41170 0.76720 0.33500
C 	C 	0.14600 0.40790 0.77270 -0.09800
C 	C 	0.12670 0.37710 0.76810 0.07000
H 	H 	0.13770 0.35710 0.75780 0.02700
C 	C 	0.09150 0.37510 0.77820 -0.15200
C 	C 	0.07650 0.40490 0.79350 0.03300
H 	H 	0.05250 0.40400 0.80080 0.03500
C 	C 	0.09510 0.43610 0.79870 -0.04200
C 	C 	0.13110 0.43760 0.79200 0.01000
H 	H 	0.14470 0.46030 0.79640 0.05600
C 	C 	0.07900 0.47080 0.81170 0.11200
C 	C 	0.04510 0.46990 0.82550 -0.14300
H 	H 	0.03020 0.45010 0.82260 0.08300
C 	C 	0.06940 0.34250 0.77180 0.50800
C 	C 	0.22430 0.34050 0.57790 0.52300
O 	O 	0.26890 0.47190 0.76790 -0.56100
Gd	Gd	0.74423 0.75616 0.08863 1.64100
O 	O 	0.79890 0.75740 0.11720 -0.38800
O 	O 	0.79830 0.74480 0.06090 -0.37500
O 	O 	0.74080 0.70040 0.11660 -0.40700
O 	O 	0.73360 0.70030 0.05990 -0.37300
O 	O 	0.73870 0.58790 0.18140 -0.47700
O 	O 	0.72300 0.53790 0.15760 -0.45600
O 	O 	0.91310 0.74580 0.18140 -0.49800
O 	O 	0.94230 0.70050 0.16500 -0.49800
C 	C 	0.81690 0.74760 0.08880 0.28800
C 	C 	0.85560 0.73850 0.09060 -0.08800
C 	C 	0.86640 0.71920 0.06090 0.00300
H 	H 	0.85170 0.71640 0.04080 0.05800
C 	C 	0.90020 0.70440 0.06250 -0.04500
C 	C 	0.91910 0.70690 0.09400 0.04900
H 	H 	0.94090 0.69460 0.09540 0.02700
C 	C 	0.90840 0.72590 0.12380 -0.18700
C 	C 	0.87490 0.74090 0.12170 0.06600
H 	H 	0.86530 0.75290 0.14150 0.02500
C 	C 	0.91420 0.68520 0.03060 0.10700
C 	C 	0.93420 0.65440 0.03160 -0.13600
H 	H 	0.93740 0.64160 0.05280 0.08400
C 	C 	0.73280 0.68470 0.08830 0.33500
C 	C 	0.72730 0.64600 0.09210 -0.09800
C 	C 	0.73190 0.62670 0.12290 0.07000
H 	H 	0.74220 0.63770 0.14290 0.02700
C 	C 	0.72180 0.59150 0.12490 -0.15200
C 	C 	0.70650 0.57650 0.09510 0.03200
H 	H 	0.69920 0.55250 0.09600 0.03600
C 	C 	0.70130 0.59510 0.06390 -0.04100
C 	C 	0.70800 0.63110 0.06240 0.00900
H 	H 	0.70360 0.64470 0.03970 0.05500
C 	C 	0.68830 0.57900 0.02920 0.10800
C 	C 	0.67450 0.54510 0.03010 -0.13600
H 	H 	0.67740 0.53020 0.04990 0.08200
C 	C 	0.72820 0.56940 0.15750 0.50800
C 	C 	0.92210 0.72430 0.15950 0.52200
O 	O 	0.73210 0.76890 0.02810 -0.55800
Gd	Gd	0.24423 0.25616 0.58863 1.64200
O 	O 	0.29890 0.25740 0.61720 -0.38800
O 	O 	0.29830 0.24480 0.56090 -0.37500
O 	O 	0.24080 0.20040 0.61660 -0.40700
O 	O 	0.23360 0.20030 0.55990 -0.37200
O 	O 	0.23870 0.08790 0.68140 -0.47700
O 	O 	0.22300 0.03790 0.65760 -0.45600
O 	O 	0.41310 0.24580 0.68140 -0.49900
O 	O 	0.44230 0.20050 0.66500 -0.50200
C 	C 	0.31690 0.24760 0.58880 0.28800
C 	C 	0.35560 0.23850 0.59060 -0.08900
C 	C 	0.36640 0.21920 0.56090 0.00300
H 	H 	0.35170 0.21640 0.54080 0.05900
C 	C 	0.40020 0.20440 0.56250 -0.04700
C 	C 	0.41910 0.20690 0.59400 0.05100
H 	H 	0.44090 0.19460 0.59540 0.02500
C 	C 	0.40840 0.22590 0.62380 -0.18900
C 	C 	0.37490 0.24090 0.62170 0.06700
H 	H 	0.36530 0.25290 0.64150 0.02400
C 	C 	0.41420 0.18520 0.53060 0.11000
C 	C 	0.43420 0.15440 0.53160 -0.14300
H 	H 	0.43740 0.14160 0.55280 0.08500
C 	C 	0.23280 0.18470 0.58830 0.33500
C 	C 	0.22730 0.14600 0.59210 -0.09800
C 	C 	0.23190 0.12670 0.62290 0.07000
H 	H 	0.24220 0.13770 0.64290 0.02700
C 	C 	0.22180 0.09150 0.62490 -0.15200
C 	C 	0.20650 0.07650 0.59510 0.03300
H 	H 	0.19920 0.05250 0.59600 0.03500
C 	C 	0.20130 0.09510 0.56390 -0.04200
C 	C 	0.20800 0.13110 0.56240 0.01000
H 	H 	0.20360 0.14470 0.53970 0.05600
C 	C 	0.18830 0.07900 0.52920 0.11200
C 	C 	0.17450 0.04510 0.53010 -0.14400
H 	H 	0.17740 0.03020 0.54990 0.08300
C 	C 	0.22820 0.06940 0.65750 0.50800
C 	C 	0.42210 0.22430 0.65950 0.52300
O 	O 	0.23210 0.26890 0.52810 -0.56100
Gd	Gd	0.74423 0.24384 0.91137 1.64200
O 	O 	0.79890 0.24260 0.88280 -0.38800
O 	O 	0.79830 0.25520 0.93910 -0.37300
O 	O 	0.74080 0.29960 0.88340 -0.40600
O 	O 	0.73360 0.29970 0.94010 -0.37000
O 	O 	0.73870 0.41210 0.81860 -0.47700
O 	O 	0.72300 0.46210 0.84240 -0.45500
O 	O 	0.91310 0.25420 0.81860 -0.49800
O 	O 	0.94230 0.29950 0.83500 -0.49700
C 	C 	0.81690 0.25240 0.91120 0.28800
C 	C 	0.85560 0.26150 0.90940 -0.08700
C 	C 	0.86640 0.28080 0.93910 0.00300
H 	H 	0.85170 0.28360 0.95920 0.06100
C 	C 	0.90020 0.29560 0.93750 -0.04400
C 	C 	0.91910 0.29310 0.90600 0.05000
H 	H 	0.94090 0.30540 0.90460 0.02800
C 	C 	0.90840 0.27410 0.87620 -0.18700
C 	C 	0.87490 0.25910 0.87830 0.06600
H 	H 	0.86530 0.24710 0.85850 0.02500
C 	C 	0.91420 0.31480 0.96940 0.11200
C 	C 	0.93420 0.34560 0.96840 -0.12900
H 	H 	0.93740 0.35840 0.94720 0.08300
C 	C 	0.73280 0.31530 0.91170 0.33500
C 	C 	0.72730 0.35400 0.90790 -0.09700
C 	C 	0.73190 0.37330 0.87710 0.06900
H 	H 	0.74220 0.36230 0.85710 0.02800
C 	C 	0.72180 0.40850 0.87510 -0.15100
C 	C 	0.70650 0.42350 0.90490 0.03300
H 	H 	0.69920 0.44750 0.90400 0.03600
C 	C 	0.70130 0.40490 0.93610 -0.04000
C 	C 	0.70800 0.36890 0.93760 0.01000
H 	H 	0.70360 0.35530 0.96030 0.05800
C 	C 	0.68830 0.42100 0.97080 0.11400
C 	C 	0.67450 0.45490 0.96990 -0.12800
H 	H 	0.67740 0.46980 0.95010 0.08100
C 	C 	0.72820 0.43060 0.84250 0.50800
C 	C 	0.92210 0.27570 0.84050 0.52100
O 	O 	0.73210 0.23110 0.97190 -0.55200
Gd	Gd	0.24423 0.74384 0.41137 1.64200
O 	O 	0.29890 0.74260 0.38280 -0.38800
O 	O 	0.29830 0.75520 0.43910 -0.37500
O 	O 	0.24080 0.79960 0.38340 -0.40600
O 	O 	0.23360 0.79970 0.44010 -0.37200
O 	O 	0.23870 0.91210 0.31860 -0.47600
O 	O 	0.22300 0.96210 0.34240 -0.45100
O 	O 	0.41310 0.75420 0.31860 -0.49900
O 	O 	0.44230 0.79950 0.33500 -0.50100
C 	C 	0.31690 0.75240 0.41120 0.28800
C 	C 	0.35560 0.76150 0.40940 -0.08900
C 	C 	0.36640 0.78080 0.43910 0.00300
H 	H 	0.35170 0.78360 0.45920 0.05900
C 	C 	0.40020 0.79560 0.43750 -0.04700
C 	C 	0.41910 0.79310 0.40600 0.05100
H 	H 	0.44090 0.80540 0.40460 0.02500
C 	C 	0.40840 0.77410 0.37620 -0.18900
C 	C 	0.37490 0.75910 0.37830 0.06700
H 	H 	0.36530 0.74710 0.35850 0.02400
C 	C 	0.41420 0.81480 0.46940 0.11000
C 	C 	0.43420 0.84560 0.46840 -0.14200
H 	H 	0.43740 0.85840 0.44720 0.08600
C 	C 	0.23280 0.81530 0.41170 0.33500
C 	C 	0.22730 0.85400 0.40790 -0.09700
C 	C 	0.23190 0.87330 0.37710 0.06900
H 	H 	0.24220 0.86230 0.35710 0.02800
C 	C 	0.22180 0.90850 0.37510 -0.15000
C 	C 	0.20650 0.92350 0.40490 0.03200
H 	H 	0.19920 0.94750 0.40400 0.03800
C 	C 	0.20130 0.90490 0.43610 -0.04000
C 	C 	0.20800 0.86890 0.43760 0.00900
H 	H 	0.20360 0.85530 0.46030 0.05700
C 	C 	0.18830 0.92100 0.47080 0.11000
C 	C 	0.17450 0.95490 0.46990 -0.13700
H 	H 	0.17740 0.96980 0.45010 0.08500
C 	C 	0.22820 0.93060 0.34250 0.50700
C 	C 	0.42210 0.77570 0.34050 0.52300
O 	O 	0.23210 0.73110 0.47190 -0.56100
Gd	Gd	0.25577 0.24384 0.08863 1.64100
O 	O 	0.20110 0.24260 0.11720 -0.38800
O 	O 	0.20170 0.25520 0.06090 -0.37600
O 	O 	0.25920 0.29960 0.11660 -0.40700
O 	O 	0.26640 0.29970 0.05990 -0.37300
O 	O 	0.26130 0.41210 0.18140 -0.47700
O 	O 	0.27700 0.46210 0.15760 -0.45600
O 	O 	0.08690 0.25420 0.18140 -0.49900
O 	O 	0.05770 0.29950 0.16500 -0.50000
C 	C 	0.18310 0.25240 0.08880 0.28800
C 	C 	0.14440 0.26150 0.09060 -0.08900
C 	C 	0.13360 0.28080 0.06090 0.00300
H 	H 	0.14830 0.28360 0.04080 0.05800
C 	C 	0.09980 0.29560 0.06250 -0.04700
C 	C 	0.08090 0.29310 0.09400 0.05000
H 	H 	0.05910 0.30540 0.09540 0.02500
C 	C 	0.09160 0.27410 0.12380 -0.19000
C 	C 	0.12510 0.25910 0.12170 0.06700
H 	H 	0.13470 0.24710 0.14150 0.02400
C 	C 	0.08580 0.31480 0.03060 0.10600
C 	C 	0.06580 0.34560 0.03160 -0.13800
H 	H 	0.06260 0.35840 0.05280 0.08200
C 	C 	0.26720 0.31530 0.08830 0.33500
C 	C 	0.27270 0.35400 0.09210 -0.09800
C 	C 	0.26810 0.37330 0.12290 0.07000
H 	H 	0.25780 0.36230 0.14290 0.02700
C 	C 	0.27820 0.40850 0.12490 -0.15200
C 	C 	0.29350 0.42350 0.09510 0.03200
H 	H 	0.30080 0.44750 0.09600 0.03600
C 	C 	0.29870 0.40490 0.06390 -0.04100
C 	C 	0.29200 0.36890 0.06240 0.00900
H 	H 	0.29640 0.35530 0.03970 0.05500
C 	C 	0.31170 0.42100 0.02920 0.10800
C 	C 	0.32550 0.45490 0.03010 -0.13600
H 	H 	0.32260 0.46980 0.04990 0.08200
C 	C 	0.27180 0.43060 0.15750 0.50800
C 	C 	0.07790 0.27570 0.15950 0.52200
O 	O 	0.26790 0.23110 0.02810 -0.55800
Gd	Gd	0.75577 0.74384 0.58863 1.64200
O 	O 	0.70110 0.74260 0.61720 -0.38800
O 	O 	0.70170 0.75520 0.56090 -0.37500
O 	O 	0.75920 0.79960 0.61660 -0.40700
O 	O 	0.76640 0.79970 0.55990 -0.37200
O 	O 	0.76130 0.91210 0.68140 -0.47700
O 	O 	0.77700 0.96210 0.65760 -0.45100
O 	O 	0.58690 0.75420 0.68140 -0.49900
O 	O 	0.55770 0.79950 0.66500 -0.50200
C 	C 	0.68310 0.75240 0.58880 0.28800
C 	C 	0.64440 0.76150 0.59060 -0.08900
C 	C 	0.63360 0.78080 0.56090 0.00300
H 	H 	0.64830 0.78360 0.54080 0.05900
C 	C 	0.59980 0.79560 0.56250 -0.04700
C 	C 	0.58090 0.79310 0.59400 0.05100
H 	H 	0.55910 0.80540 0.59540 0.02500
C 	C 	0.59160 0.77410 0.62380 -0.18900
C 	C 	0.62510 0.75910 0.62170 0.06700
H 	H 	0.63470 0.74710 0.64150 0.02400
C 	C 	0.58580 0.81480 0.53060 0.11000
C 	C 	0.56580 0.84560 0.53160 -0.14200
H 	H 	0.56260 0.85840 0.55280 0.08600
C 	C 	0.76720 0.81530 0.58830 0.33500
C 	C 	0.77270 0.85400 0.59210 -0.09700
C 	C 	0.76810 0.87330 0.62290 0.06900
H 	H 	0.75780 0.86230 0.64290 0.02800
C 	C 	0.77820 0.90850 0.62490 -0.15000
C 	C 	0.79350 0.92350 0.59510 0.03200
H 	H 	0.80080 0.94750 0.59600 0.03800
C 	C 	0.79870 0.90490 0.56390 -0.04000
C 	C 	0.79200 0.86890 0.56240 0.00900
H 	H 	0.79640 0.85530 0.53970 0.05700
C 	C 	0.81170 0.92100 0.52920 0.11100
C 	C 	0.82550 0.95490 0.53010 -0.13700
H 	H 	0.82260 0.96980 0.54990 0.08500
C 	C 	0.77180 0.93060 0.65750 0.50700
C 	C 	0.57790 0.77570 0.65950 0.52300
O 	O 	0.76790 0.73110 0.52810 -0.56100
Gd	Gd	0.25577 0.75616 0.91137 1.64200
O 	O 	0.20110 0.75740 0.88280 -0.38800
O 	O 	0.20170 0.74480 0.93910 -0.37300
O 	O 	0.25920 0.70040 0.88340 -0.40600
O 	O 	0.26640 0.70030 0.94010 -0.37000
O 	O 	0.26130 0.58790 0.81860 -0.47700
O 	O 	0.27700 0.53790 0.84240 -0.45500
O 	O 	0.08690 0.74580 0.81860 -0.49900
O 	O 	0.05770 0.70050 0.83500 -0.50000
C 	C 	0.18310 0.74760 0.91120 0.28800
C 	C 	0.14440 0.73850 0.90940 -0.08800
C 	C 	0.13360 0.71920 0.93910 0.00300
H 	H 	0.14830 0.71640 0.95920 0.06100
C 	C 	0.09980 0.70440 0.93750 -0.04600
C 	C 	0.08090 0.70690 0.90600 0.05000
H 	H 	0.05910 0.69460 0.90460 0.02500
C 	C 	0.09160 0.72590 0.87620 -0.18900
C 	C 	0.12510 0.74090 0.87830 0.06700
H 	H 	0.13470 0.75290 0.85850 0.02500
C 	C 	0.08580 0.68520 0.96940 0.11200
C 	C 	0.06580 0.65440 0.96840 -0.13100
H 	H 	0.06260 0.64160 0.94720 0.08200
C 	C 	0.26720 0.68470 0.91170 0.33500
C 	C 	0.27270 0.64600 0.90790 -0.09700
C 	C 	0.26810 0.62670 0.87710 0.06900
H 	H 	0.25780 0.63770 0.85710 0.02800
C 	C 	0.27820 0.59150 0.87510 -0.15100
C 	C 	0.29350 0.57650 0.90490 0.03300
H 	H 	0.30080 0.55250 0.90400 0.03600
C 	C 	0.29870 0.59510 0.93610 -0.04100
C 	C 	0.29200 0.63110 0.93760 0.01000
H 	H 	0.29640 0.64470 0.96030 0.05800
C 	C 	0.31170 0.57900 0.97080 0.11400
C 	C 	0.32550 0.54510 0.96990 -0.12800
H 	H 	0.32260 0.53020 0.95010 0.08100
C 	C 	0.27180 0.56940 0.84250 0.50800
C 	C 	0.07790 0.72430 0.84050 0.52200
O 	O 	0.26790 0.76890 0.97190 -0.55200
Gd	Gd	0.75577 0.25616 0.41137 1.64200
O 	O 	0.70110 0.25740 0.38280 -0.38800
O 	O 	0.70170 0.24480 0.43910 -0.37500
O 	O 	0.75920 0.20040 0.38340 -0.40700
O 	O 	0.76640 0.20030 0.44010 -0.37200
O 	O 	0.76130 0.08790 0.31860 -0.47700
O 	O 	0.77700 0.03790 0.34240 -0.45600
O 	O 	0.58690 0.24580 0.31860 -0.49900
O 	O 	0.55770 0.20050 0.33500 -0.50200
C 	C 	0.68310 0.24760 0.41120 0.28800
C 	C 	0.64440 0.23850 0.40940 -0.08900
C 	C 	0.63360 0.21920 0.43910 0.00300
H 	H 	0.64830 0.21640 0.45920 0.05900
C 	C 	0.59980 0.20440 0.43750 -0.04700
C 	C 	0.58090 0.20690 0.40600 0.05100
H 	H 	0.55910 0.19460 0.40460 0.02500
C 	C 	0.59160 0.22590 0.37620 -0.18900
C 	C 	0.62510 0.24090 0.37830 0.06700
H 	H 	0.63470 0.25290 0.35850 0.02400
C 	C 	0.58580 0.18520 0.46940 0.11000
C 	C 	0.56580 0.15440 0.46840 -0.14300
H 	H 	0.56260 0.14160 0.44720 0.08500
C 	C 	0.76720 0.18470 0.41170 0.33500
C 	C 	0.77270 0.14600 0.40790 -0.09800
C 	C 	0.76810 0.12670 0.37710 0.07000
H 	H 	0.75780 0.13770 0.35710 0.02700
C 	C 	0.77820 0.09150 0.37510 -0.15200
C 	C 	0.79350 0.07650 0.40490 0.03300
H 	H 	0.80080 0.05250 0.40400 0.03500
C 	C 	0.79870 0.09510 0.43610 -0.04200
C 	C 	0.79200 0.13110 0.43760 0.01000
H 	H 	0.79640 0.14470 0.46030 0.05600
C 	C 	0.81170 0.07900 0.47080 0.11200
C 	C 	0.82550 0.04510 0.46990 -0.14300
H 	H 	0.82260 0.03020 0.45010 0.08300
C 	C 	0.77180 0.06940 0.34250 0.50800
C 	C 	0.57790 0.22430 0.34050 0.52300
O 	O 	0.76790 0.26890 0.47190 -0.56100
Gd	Gd	0.08863 0.74423 0.75616 1.64100
O 	O 	0.11720 0.79890 0.75740 -0.38800
O 	O 	0.06090 0.79830 0.74480 -0.37500
O 	O 	0.11660 0.74080 0.70040 -0.40700
O 	O 	0.05990 0.73360 0.70030 -0.37300
O 	O 	0.18140 0.73870 0.58790 -0.47700
O 	O 	0.15760 0.72300 0.53790 -0.45600
O 	O 	0.18140 0.91310 0.74580 -0.49800
O 	O 	0.16500 0.94230 0.70050 -0.49800
C 	C 	0.08880 0.81690 0.74760 0.28800
C 	C 	0.09060 0.85560 0.73850 -0.08800
C 	C 	0.06090 0.86640 0.71920 0.00300
H 	H 	0.04080 0.85170 0.71640 0.05800
C 	C 	0.06250 0.90020 0.70440 -0.04500
C 	C 	0.09400 0.91910 0.70690 0.04900
H 	H 	0.09540 0.94090 0.69460 0.02700
C 	C 	0.12380 0.90840 0.72590 -0.18700
C 	C 	0.12170 0.87490 0.74090 0.06600
H 	H 	0.14150 0.86530 0.75290 0.02500
C 	C 	0.03060 0.91420 0.68520 0.10700
C 	C 	0.03160 0.93420 0.65440 -0.13600
H 	H 	0.05280 0.93740 0.64160 0.08400
C 	C 	0.08830 0.73280 0.68470 0.33500
C 	C 	0.09210 0.72730 0.64600 -0.09800
C 	C 	0.12290 0.73190 0.62670 0.07000
H 	H 	0.14290 0.74220 0.63770 0.02700
C 	C 	0.12490 0.72180 0.59150 -0.15200
C 	C 	0.09510 0.70650 0.57650 0.03200
H 	H 	0.09600 0.69920 0.55250 0.03600
C 	C 	0.06390 0.70130 0.59510 -0.04100
C 	C 	0.06240 0.70800 0.63110 0.00900
H 	H 	0.03970 0.70360 0.64470 0.05500
C 	C 	0.02920 0.68830 0.57900 0.10800
C 	C 	0.03010 0.67450 0.54510 -0.13600
H 	H 	0.04990 0.67740 0.53020 0.08200
C 	C 	0.15750 0.72820 0.56940 0.50800
C 	C 	0.15950 0.92210 0.72430 0.52200
O 	O 	0.02810 0.73210 0.76890 -0.55800
Gd	Gd	0.58863 0.24423 0.25616 1.64200
O 	O 	0.61720 0.29890 0.25740 -0.38800
O 	O 	0.56090 0.29830 0.24480 -0.37500
O 	O 	0.61660 0.24080 0.20040 -0.40700
O 	O 	0.55990 0.23360 0.20030 -0.37200
O 	O 	0.68140 0.23870 0.08790 -0.47700
O 	O 	0.65760 0.22300 0.03790 -0.45600
O 	O 	0.68140 0.41310 0.24580 -0.49900
O 	O 	0.66500 0.44230 0.20050 -0.50200
C 	C 	0.58880 0.31690 0.24760 0.28800
C 	C 	0.59060 0.35560 0.23850 -0.08900
C 	C 	0.56090 0.36640 0.21920 0.00300
H 	H 	0.54080 0.35170 0.21640 0.05900
C 	C 	0.56250 0.40020 0.20440 -0.04700
C 	C 	0.59400 0.41910 0.20690 0.05100
H 	H 	0.59540 0.44090 0.19460 0.02500
C 	C 	0.62380 0.40840 0.22590 -0.18900
C 	C 	0.62170 0.37490 0.24090 0.06700
H 	H 	0.64150 0.36530 0.25290 0.02400
C 	C 	0.53060 0.41420 0.18520 0.11000
C 	C 	0.53160 0.43420 0.15440 -0.14300
H 	H 	0.55280 0.43740 0.14160 0.08500
C 	C 	0.58830 0.23280 0.18470 0.33500
C 	C 	0.59210 0.22730 0.14600 -0.09800
C 	C 	0.62290 0.23190 0.12670 0.07000
H 	H 	0.64290 0.24220 0.13770 0.02700
C 	C 	0.62490 0.22180 0.09150 -0.15200
C 	C 	0.59510 0.20650 0.07650 0.03300
H 	H 	0.59600 0.19920 0.05250 0.03500
C 	C 	0.56390 0.20130 0.09510 -0.04200
C 	C 	0.56240 0.20800 0.13110 0.01000
H 	H 	0.53970 0.20360 0.14470 0.05600
C 	C 	0.52920 0.18830 0.07900 0.11200
C 	C 	0.53010 0.17450 0.04510 -0.14400
H 	H 	0.54990 0.17740 0.03020 0.08300
C 	C 	0.65750 0.22820 0.06940 0.50800
C 	C 	0.65950 0.42210 0.22430 0.52300
O 	O 	0.52810 0.23210 0.26890 -0.56100
Gd	Gd	0.91137 0.74423 0.24384 1.64200
O 	O 	0.88280 0.79890 0.24260 -0.38800
O 	O 	0.93910 0.79830 0.25520 -0.37300
O 	O 	0.88340 0.74080 0.29960 -0.40600
O 	O 	0.94010 0.73360 0.29970 -0.37000
O 	O 	0.81860 0.73870 0.41210 -0.47700
O 	O 	0.84240 0.72300 0.46210 -0.45500
O 	O 	0.81860 0.91310 0.25420 -0.49800
O 	O 	0.83500 0.94230 0.29950 -0.49700
C 	C 	0.91120 0.81690 0.25240 0.28800
C 	C 	0.90940 0.85560 0.26150 -0.08700
C 	C 	0.93910 0.86640 0.28080 0.00300
H 	H 	0.95920 0.85170 0.28360 0.06100
C 	C 	0.93750 0.90020 0.29560 -0.04400
C 	C 	0.90600 0.91910 0.29310 0.05000
H 	H 	0.90460 0.94090 0.30540 0.02800
C 	C 	0.87620 0.90840 0.27410 -0.18700
C 	C 	0.87830 0.87490 0.25910 0.06600
H 	H 	0.85850 0.86530 0.24710 0.02500
C 	C 	0.96940 0.91420 0.31480 0.11200
C 	C 	0.96840 0.93420 0.34560 -0.12900
H 	H 	0.94720 0.93740 0.35840 0.08300
C 	C 	0.91170 0.73280 0.31530 0.33500
C 	C 	0.90790 0.72730 0.35400 -0.09700
C 	C 	0.87710 0.73190 0.37330 0.06900
H 	H 	0.85710 0.74220 0.36230 0.02800
C 	C 	0.87510 0.72180 0.40850 -0.15100
C 	C 	0.90490 0.70650 0.42350 0.03300
H 	H 	0.90400 0.69920 0.44750 0.03600
C 	C 	0.93610 0.70130 0.40490 -0.04000
C 	C 	0.93760 0.70800 0.36890 0.01000
H 	H 	0.96030 0.70360 0.35530 0.05800
C 	C 	0.97080 0.68830 0.42100 0.11400
C 	C 	0.96990 0.67450 0.45490 -0.12800
H 	H 	0.95010 0.67740 0.46980 0.08100
C 	C 	0.84250 0.72820 0.43060 0.50800
C 	C 	0.84050 0.92210 0.27570 0.52100
O 	O 	0.97190 0.73210 0.23110 -0.55200
Gd	Gd	0.41137 0.24423 0.74384 1.64200
O 	O 	0.38280 0.29890 0.74260 -0.38800
O 	O 	0.43910 0.29830 0.75520 -0.37500
O 	O 	0.38340 0.24080 0.79960 -0.40600
O 	O 	0.44010 0.23360 0.79970 -0.37200
O 	O 	0.31860 0.23870 0.91210 -0.47600
O 	O 	0.34240 0.22300 0.96210 -0.45100
O 	O 	0.31860 0.41310 0.75420 -0.49900
O 	O 	0.33500 0.44230 0.79950 -0.50100
C 	C 	0.41120 0.31690 0.75240 0.28800
C 	C 	0.40940 0.35560 0.76150 -0.08900
C 	C 	0.43910 0.36640 0.78080 0.00300
H 	H 	0.45920 0.35170 0.78360 0.05900
C 	C 	0.43750 0.40020 0.79560 -0.04700
C 	C 	0.40600 0.41910 0.79310 0.05100
H 	H 	0.40460 0.44090 0.80540 0.02500
C 	C 	0.37620 0.40840 0.77410 -0.18900
C 	C 	0.37830 0.37490 0.75910 0.06700
H 	H 	0.35850 0.36530 0.74710 0.02400
C 	C 	0.46940 0.41420 0.81480 0.11000
C 	C 	0.46840 0.43420 0.84560 -0.14200
H 	H 	0.44720 0.43740 0.85840 0.08600
C 	C 	0.41170 0.23280 0.81530 0.33500
C 	C 	0.40790 0.22730 0.85400 -0.09700
C 	C 	0.37710 0.23190 0.87330 0.06900
H 	H 	0.35710 0.24220 0.86230 0.02800
C 	C 	0.37510 0.22180 0.90850 -0.15000
C 	C 	0.40490 0.20650 0.92350 0.03200
H 	H 	0.40400 0.19920 0.94750 0.03800
C 	C 	0.43610 0.20130 0.90490 -0.04000
C 	C 	0.43760 0.20800 0.86890 0.00900
H 	H 	0.46030 0.20360 0.85530 0.05700
C 	C 	0.47080 0.18830 0.92100 0.11000
C 	C 	0.46990 0.17450 0.95490 -0.13700
H 	H 	0.45010 0.17740 0.96980 0.08500
C 	C 	0.34250 0.22820 0.93060 0.50700
C 	C 	0.34050 0.42210 0.77570 0.52300
O 	O 	0.47190 0.23210 0.73110 -0.56100
Gd	Gd	0.08863 0.25577 0.24384 1.64100
O 	O 	0.11720 0.20110 0.24260 -0.38800
O 	O 	0.06090 0.20170 0.25520 -0.37600
O 	O 	0.11660 0.25920 0.29960 -0.40700
O 	O 	0.05990 0.26640 0.29970 -0.37300
O 	O 	0.18140 0.26130 0.41210 -0.47700
O 	O 	0.15760 0.27700 0.46210 -0.45600
O 	O 	0.18140 0.08690 0.25420 -0.49900
O 	O 	0.16500 0.05770 0.29950 -0.50000
C 	C 	0.08880 0.18310 0.25240 0.28800
C 	C 	0.09060 0.14440 0.26150 -0.08900
C 	C 	0.06090 0.13360 0.28080 0.00300
H 	H 	0.04080 0.14830 0.28360 0.05800
C 	C 	0.06250 0.09980 0.29560 -0.04700
C 	C 	0.09400 0.08090 0.29310 0.05000
H 	H 	0.09540 0.05910 0.30540 0.02500
C 	C 	0.12380 0.09160 0.27410 -0.19000
C 	C 	0.12170 0.12510 0.25910 0.06700
H 	H 	0.14150 0.13470 0.24710 0.02400
C 	C 	0.03060 0.08580 0.31480 0.10600
C 	C 	0.03160 0.06580 0.34560 -0.13800
H 	H 	0.05280 0.06260 0.35840 0.08200
C 	C 	0.08830 0.26720 0.31530 0.33500
C 	C 	0.09210 0.27270 0.35400 -0.09800
C 	C 	0.12290 0.26810 0.37330 0.07000
H 	H 	0.14290 0.25780 0.36230 0.02700
C 	C 	0.12490 0.27820 0.40850 -0.15200
C 	C 	0.09510 0.29350 0.42350 0.03200
H 	H 	0.09600 0.30080 0.44750 0.03600
C 	C 	0.06390 0.29870 0.40490 -0.04100
C 	C 	0.06240 0.29200 0.36890 0.00900
H 	H 	0.03970 0.29640 0.35530 0.05500
C 	C 	0.02920 0.31170 0.42100 0.10800
C 	C 	0.03010 0.32550 0.45490 -0.13600
H 	H 	0.04990 0.32260 0.46980 0.08200
C 	C 	0.15750 0.27180 0.43060 0.50800
C 	C 	0.15950 0.07790 0.27570 0.52200
O 	O 	0.02810 0.26790 0.23110 -0.55800
Gd	Gd	0.58863 0.75577 0.74384 1.64200
O 	O 	0.61720 0.70110 0.74260 -0.38800
O 	O 	0.56090 0.70170 0.75520 -0.37500
O 	O 	0.61660 0.75920 0.79960 -0.40700
O 	O 	0.55990 0.76640 0.79970 -0.37200
O 	O 	0.68140 0.76130 0.91210 -0.47700
O 	O 	0.65760 0.77700 0.96210 -0.45100
O 	O 	0.68140 0.58690 0.75420 -0.49900
O 	O 	0.66500 0.55770 0.79950 -0.50200
C 	C 	0.58880 0.68310 0.75240 0.28800
C 	C 	0.59060 0.64440 0.76150 -0.08900
C 	C 	0.56090 0.63360 0.78080 0.00300
H 	H 	0.54080 0.64830 0.78360 0.05900
C 	C 	0.56250 0.59980 0.79560 -0.04700
C 	C 	0.59400 0.58090 0.79310 0.05100
H 	H 	0.59540 0.55910 0.80540 0.02500
C 	C 	0.62380 0.59160 0.77410 -0.18900
C 	C 	0.62170 0.62510 0.75910 0.06700
H 	H 	0.64150 0.63470 0.74710 0.02400
C 	C 	0.53060 0.58580 0.81480 0.11000
C 	C 	0.53160 0.56580 0.84560 -0.14200
H 	H 	0.55280 0.56260 0.85840 0.08600
C 	C 	0.58830 0.76720 0.81530 0.33500
C 	C 	0.59210 0.77270 0.85400 -0.09700
C 	C 	0.62290 0.76810 0.87330 0.06900
H 	H 	0.64290 0.75780 0.86230 0.02800
C 	C 	0.62490 0.77820 0.90850 -0.15000
C 	C 	0.59510 0.79350 0.92350 0.03200
H 	H 	0.59600 0.80080 0.94750 0.03800
C 	C 	0.56390 0.79870 0.90490 -0.04000
C 	C 	0.56240 0.79200 0.86890 0.00900
H 	H 	0.53970 0.79640 0.85530 0.05700
C 	C 	0.52920 0.81170 0.92100 0.11100
C 	C 	0.53010 0.82550 0.95490 -0.13700
H 	H 	0.54990 0.82260 0.96980 0.08500
C 	C 	0.65750 0.77180 0.93060 0.50700
C 	C 	0.65950 0.57790 0.77570 0.52300
O 	O 	0.52810 0.76790 0.73110 -0.56100
Gd	Gd	0.91137 0.25577 0.75616 1.64200
O 	O 	0.88280 0.20110 0.75740 -0.38800
O 	O 	0.93910 0.20170 0.74480 -0.37300
O 	O 	0.88340 0.25920 0.70040 -0.40600
O 	O 	0.94010 0.26640 0.70030 -0.37000
O 	O 	0.81860 0.26130 0.58790 -0.47700
O 	O 	0.84240 0.27700 0.53790 -0.45500
O 	O 	0.81860 0.08690 0.74580 -0.49900
O 	O 	0.83500 0.05770 0.70050 -0.50000
C 	C 	0.91120 0.18310 0.74760 0.28800
C 	C 	0.90940 0.14440 0.73850 -0.08800
C 	C 	0.93910 0.13360 0.71920 0.00300
H 	H 	0.95920 0.14830 0.71640 0.06100
C 	C 	0.93750 0.09980 0.70440 -0.04600
C 	C 	0.90600 0.08090 0.70690 0.05000
H 	H 	0.90460 0.05910 0.69460 0.02500
C 	C 	0.87620 0.09160 0.72590 -0.18900
C 	C 	0.87830 0.12510 0.74090 0.06700
H 	H 	0.85850 0.13470 0.75290 0.02500
C 	C 	0.96940 0.08580 0.68520 0.11200
C 	C 	0.96840 0.06580 0.65440 -0.13100
H 	H 	0.94720 0.06260 0.64160 0.08200
C 	C 	0.91170 0.26720 0.68470 0.33500
C 	C 	0.90790 0.27270 0.64600 -0.09700
C 	C 	0.87710 0.26810 0.62670 0.06900
H 	H 	0.85710 0.25780 0.63770 0.02800
C 	C 	0.87510 0.27820 0.59150 -0.15100
C 	C 	0.90490 0.29350 0.57650 0.03300
H 	H 	0.90400 0.30080 0.55250 0.03600
C 	C 	0.93610 0.29870 0.59510 -0.04100
C 	C 	0.93760 0.29200 0.63110 0.01000
H 	H 	0.96030 0.29640 0.64470 0.05800
C 	C 	0.97080 0.31170 0.57900 0.11400
C 	C 	0.96990 0.32550 0.54510 -0.12800
H 	H 	0.95010 0.32260 0.53020 0.08100
C 	C 	0.84250 0.27180 0.56940 0.50800
C 	C 	0.84050 0.07790 0.72430 0.52200
O 	O 	0.97190 0.26790 0.76890 -0.55200
Gd	Gd	0.41137 0.75577 0.25616 1.64200
O 	O 	0.38280 0.70110 0.25740 -0.38800
O 	O 	0.43910 0.70170 0.24480 -0.37500
O 	O 	0.38340 0.75920 0.20040 -0.40700
O 	O 	0.44010 0.76640 0.20030 -0.37200
O 	O 	0.31860 0.76130 0.08790 -0.47700
O 	O 	0.34240 0.77700 0.03790 -0.45600
O 	O 	0.31860 0.58690 0.24580 -0.49900
O 	O 	0.33500 0.55770 0.20050 -0.50200
C 	C 	0.41120 0.68310 0.24760 0.28800
C 	C 	0.40940 0.64440 0.23850 -0.08900
C 	C 	0.43910 0.63360 0.21920 0.00300
H 	H 	0.45920 0.64830 0.21640 0.05900
C 	C 	0.43750 0.59980 0.20440 -0.04700
C 	C 	0.40600 0.58090 0.20690 0.05100
H 	H 	0.40460 0.55910 0.19460 0.02500
C 	C 	0.37620 0.59160 0.22590 -0.18900
C 	C 	0.37830 0.62510 0.24090 0.06700
H 	H 	0.35850 0.63470 0.25290 0.02400
C 	C 	0.46940 0.58580 0.18520 0.11000
C 	C 	0.46840 0.56580 0.15440 -0.14300
H 	H 	0.44720 0.56260 0.14160 0.08500
C 	C 	0.41170 0.76720 0.18470 0.33500
C 	C 	0.40790 0.77270 0.14600 -0.09800
C 	C 	0.37710 0.76810 0.12670 0.07000
H 	H 	0.35710 0.75780 0.13770 0.02700
C 	C 	0.37510 0.77820 0.09150 -0.15200
C 	C 	0.40490 0.79350 0.07650 0.03300
H 	H 	0.40400 0.80080 0.05250 0.03500
C 	C 	0.43610 0.79870 0.09510 -0.04200
C 	C 	0.43760 0.79200 0.13110 0.01000
H 	H 	0.46030 0.79640 0.14470 0.05600
C 	C 	0.47080 0.81170 0.07900 0.11200
C 	C 	0.46990 0.82550 0.04510 -0.14300
H 	H 	0.45010 0.82260 0.03020 0.08300
C 	C 	0.34250 0.77180 0.06940 0.50800
C 	C 	0.34050 0.57790 0.22430 0.52300
O 	O 	0.47190 0.76790 0.26890 -0.56100
Gd	Gd	0.18663 -0.00000 0.30957 1.67800
O 	O 	0.12470 0.00000 0.33720 -0.36600
O 	O 	0.15860 -0.00000 0.37090 -0.37900
C 	C 	0.35670 0.00000 0.05060 0.04900
H 	H 	0.37160 0.00000 0.03050 0.01300
C 	C 	0.46920 0.00000 0.34090 0.04900
H 	H 	0.48810 -0.00000 0.35730 0.00900
C 	C 	0.24210 -0.00000 0.25500 0.55900
H 	H 	0.25870 -0.00000 0.23620 -0.13500
N 	N 	0.30010 0.00000 0.09700 -0.14000
N 	N 	0.40120 0.00000 0.31030 -0.14300
C 	C 	0.12690 0.00000 0.37110 0.43500
H 	H 	0.10980 -0.00000 0.38940 -0.11500
Gd	Gd	0.68663 0.50000 0.80957 1.69100
O 	O 	0.62470 0.50000 0.83720 -0.36400
O 	O 	0.65860 0.50000 0.87090 -0.37700
C 	C 	0.85670 0.50000 0.55060 0.06300
H 	H 	0.87160 0.50000 0.53050 0.01200
C 	C 	0.96920 0.50000 0.84090 0.05900
H 	H 	0.98810 0.50000 0.85730 0.01500
C 	C 	0.74210 0.50000 0.75500 0.57300
H 	H 	0.75870 0.50000 0.73620 -0.13700
N 	N 	0.80010 0.50000 0.59700 -0.13600
N 	N 	0.90120 0.50000 0.81030 -0.13900
C 	C 	0.62690 0.50000 0.87110 0.43500
H 	H 	0.60980 0.50000 0.88940 -0.11200
Gd	Gd	0.81337 -0.00000 0.30957 1.67900
O 	O 	0.87530 0.00000 0.33720 -0.36500
O 	O 	0.84140 -0.00000 0.37090 -0.37900
C 	C 	0.64330 0.00000 0.05060 0.04900
H 	H 	0.62840 0.00000 0.03050 0.01300
C 	C 	0.53080 0.00000 0.34090 0.04900
H 	H 	0.51190 -0.00000 0.35730 0.00900
C 	C 	0.75790 -0.00000 0.25500 0.55900
H 	H 	0.74130 -0.00000 0.23620 -0.13500
N 	N 	0.69990 0.00000 0.09700 -0.14000
N 	N 	0.59880 0.00000 0.31030 -0.14300
C 	C 	0.87310 0.00000 0.37110 0.43500
H 	H 	0.89020 -0.00000 0.38940 -0.11400
Gd	Gd	0.31337 0.50000 0.80957 1.69200
O 	O 	0.37530 0.50000 0.83720 -0.36400
O 	O 	0.34140 0.50000 0.87090 -0.37700
C 	C 	0.14330 0.50000 0.55060 0.06300
H 	H 	0.12840 0.50000 0.53050 0.01100
C 	C 	0.03080 0.50000 0.84090 0.06600
H 	H 	0.01190 0.50000 0.85730 -0.00100
C 	C 	0.25790 0.50000 0.75500 0.57300
H 	H 	0.24130 0.50000 0.73620 -0.13700
N 	N 	0.19990 0.50000 0.59700 -0.13600
N 	N 	0.09880 0.50000 0.81030 -0.14000
C 	C 	0.37310 0.50000 0.87110 0.43500
H 	H 	0.39020 0.50000 0.88940 -0.11200
Gd	Gd	0.81337 0.00000 0.69043 1.67900
O 	O 	0.87530 0.00000 0.66280 -0.36500
O 	O 	0.84140 -0.00000 0.62910 -0.37900
C 	C 	0.64330 0.00000 0.94940 0.04900
H 	H 	0.62840 0.00000 0.96950 0.01700
C 	C 	0.53080 0.00000 0.65910 0.04900
H 	H 	0.51190 0.00000 0.64270 0.00900
C 	C 	0.75790 0.00000 0.74500 0.56000
H 	H 	0.74130 0.00000 0.76380 -0.13500
N 	N 	0.69990 0.00000 0.90300 -0.13900
N 	N 	0.59880 0.00000 0.68970 -0.14300
C 	C 	0.87310 0.00000 0.62890 0.43500
H 	H 	0.89020 0.00000 0.61060 -0.11400
Gd	Gd	0.31337 0.50000 0.19043 1.69200
O 	O 	0.37530 0.50000 0.16280 -0.36400
O 	O 	0.34140 0.50000 0.12910 -0.37800
C 	C 	0.14330 0.50000 0.44940 0.06300
H 	H 	0.12840 0.50000 0.46950 0.01100
C 	C 	0.03080 0.50000 0.15910 0.06500
H 	H 	0.01190 0.50000 0.14270 -0.00100
C 	C 	0.25790 0.50000 0.24500 0.57300
H 	H 	0.24130 0.50000 0.26380 -0.13700
N 	N 	0.19990 0.50000 0.40300 -0.13600
N 	N 	0.09880 0.50000 0.18970 -0.14000
C 	C 	0.37310 0.50000 0.12890 0.43500
H 	H 	0.39020 0.50000 0.11060 -0.11300
Gd	Gd	0.18663 0.00000 0.69043 1.67800
O 	O 	0.12470 0.00000 0.66280 -0.36600
O 	O 	0.15860 -0.00000 0.62910 -0.38000
C 	C 	0.35670 0.00000 0.94940 0.04900
H 	H 	0.37160 0.00000 0.96950 0.01700
C 	C 	0.46920 0.00000 0.65910 0.04900
H 	H 	0.48810 0.00000 0.64270 0.00900
C 	C 	0.24210 0.00000 0.74500 0.55900
H 	H 	0.25870 0.00000 0.76380 -0.13500
N 	N 	0.30010 0.00000 0.90300 -0.13900
N 	N 	0.40120 0.00000 0.68970 -0.14300
C 	C 	0.12690 0.00000 0.62890 0.43500
H 	H 	0.10980 0.00000 0.61060 -0.11500
Gd	Gd	0.68663 0.50000 0.19043 1.69100
O 	O 	0.62470 0.50000 0.16280 -0.36400
O 	O 	0.65860 0.50000 0.12910 -0.37800
C 	C 	0.85670 0.50000 0.44940 0.06300
H 	H 	0.87160 0.50000 0.46950 0.01200
C 	C 	0.96920 0.50000 0.15910 0.05800
H 	H 	0.98810 0.50000 0.14270 0.01400
C 	C 	0.74210 0.50000 0.24500 0.57200
H 	H 	0.75870 0.50000 0.26380 -0.13700
N 	N 	0.80010 0.50000 0.40300 -0.13600
N 	N 	0.90120 0.50000 0.18970 -0.13900
C 	C 	0.62690 0.50000 0.12890 0.43500
H 	H 	0.60980 0.50000 0.11060 -0.11300
Gd	Gd	0.30957 0.18663 -0.00000 1.67800
O 	O 	0.33720 0.12470 -0.00000 -0.36600
O 	O 	0.37090 0.15860 -0.00000 -0.37900
C 	C 	0.05060 0.35670 -0.00000 0.04900
H 	H 	0.03050 0.37160 -0.00000 0.01300
C 	C 	0.34090 0.46920 -0.00000 0.04900
H 	H 	0.35730 0.48810 -0.00000 0.00900
C 	C 	0.25500 0.24210 -0.00000 0.55900
H 	H 	0.23620 0.25870 -0.00000 -0.13500
N 	N 	0.09700 0.30010 -0.00000 -0.14000
N 	N 	0.31030 0.40120 -0.00000 -0.14300
C 	C 	0.37110 0.12690 -0.00000 0.43500
H 	H 	0.38940 0.10980 -0.00000 -0.11500
Gd	Gd	0.80957 0.68663 0.50000 1.69100
O 	O 	0.83720 0.62470 0.50000 -0.36400
O 	O 	0.87090 0.65860 0.50000 -0.37700
C 	C 	0.55060 0.85670 0.50000 0.06300
H 	H 	0.53050 0.87160 0.50000 0.01200
C 	C 	0.84090 0.96920 0.50000 0.05900
H 	H 	0.85730 0.98810 0.50000 0.01500
C 	C 	0.75500 0.74210 0.50000 0.57300
H 	H 	0.73620 0.75870 0.50000 -0.13700
N 	N 	0.59700 0.80010 0.50000 -0.13600
N 	N 	0.81030 0.90120 0.50000 -0.13900
C 	C 	0.87110 0.62690 0.50000 0.43500
H 	H 	0.88940 0.60980 0.50000 -0.11200
Gd	Gd	0.30957 0.81337 -0.00000 1.67900
O 	O 	0.33720 0.87530 -0.00000 -0.36500
O 	O 	0.37090 0.84140 -0.00000 -0.37900
C 	C 	0.05060 0.64330 -0.00000 0.04900
H 	H 	0.03050 0.62840 -0.00000 0.01300
C 	C 	0.34090 0.53080 -0.00000 0.04900
H 	H 	0.35730 0.51190 -0.00000 0.00900
C 	C 	0.25500 0.75790 -0.00000 0.55900
H 	H 	0.23620 0.74130 -0.00000 -0.13500
N 	N 	0.09700 0.69990 -0.00000 -0.14000
N 	N 	0.31030 0.59880 -0.00000 -0.14300
C 	C 	0.37110 0.87310 -0.00000 0.43500
H 	H 	0.38940 0.89020 -0.00000 -0.11400
Gd	Gd	0.80957 0.31337 0.50000 1.69200
O 	O 	0.83720 0.37530 0.50000 -0.36400
O 	O 	0.87090 0.34140 0.50000 -0.37700
C 	C 	0.55060 0.14330 0.50000 0.06300
H 	H 	0.53050 0.12840 0.50000 0.01100
C 	C 	0.84090 0.03080 0.50000 0.06600
H 	H 	0.85730 0.01190 0.50000 -0.00100
C 	C 	0.75500 0.25790 0.50000 0.57300
H 	H 	0.73620 0.24130 0.50000 -0.13700
N 	N 	0.59700 0.19990 0.50000 -0.13600
N 	N 	0.81030 0.09880 0.50000 -0.14000
C 	C 	0.87110 0.37310 0.50000 0.43500
H 	H 	0.88940 0.39020 0.50000 -0.11200
Gd	Gd	0.69043 0.81337 -0.00000 1.67900
O 	O 	0.66280 0.87530 -0.00000 -0.36500
O 	O 	0.62910 0.84140 -0.00000 -0.37900
C 	C 	0.94940 0.64330 -0.00000 0.04900
H 	H 	0.96950 0.62840 -0.00000 0.01700
C 	C 	0.65910 0.53080 -0.00000 0.04900
H 	H 	0.64270 0.51190 -0.00000 0.00900
C 	C 	0.74500 0.75790 -0.00000 0.56000
H 	H 	0.76380 0.74130 -0.00000 -0.13500
N 	N 	0.90300 0.69990 -0.00000 -0.13900
N 	N 	0.68970 0.59880 -0.00000 -0.14300
C 	C 	0.62890 0.87310 -0.00000 0.43500
H 	H 	0.61060 0.89020 -0.00000 -0.11400
Gd	Gd	0.19043 0.31337 0.50000 1.69200
O 	O 	0.16280 0.37530 0.50000 -0.36400
O 	O 	0.12910 0.34140 0.50000 -0.37800
C 	C 	0.44940 0.14330 0.50000 0.06300
H 	H 	0.46950 0.12840 0.50000 0.01100
C 	C 	0.15910 0.03080 0.50000 0.06500
H 	H 	0.14270 0.01190 0.50000 -0.00100
C 	C 	0.24500 0.25790 0.50000 0.57300
H 	H 	0.26380 0.24130 0.50000 -0.13700
N 	N 	0.40300 0.19990 0.50000 -0.13600
N 	N 	0.18970 0.09880 0.50000 -0.14000
C 	C 	0.12890 0.37310 0.50000 0.43500
H 	H 	0.11060 0.39020 0.50000 -0.11300
Gd	Gd	0.69043 0.18663 -0.00000 1.67800
O 	O 	0.66280 0.12470 -0.00000 -0.36600
O 	O 	0.62910 0.15860 -0.00000 -0.38000
C 	C 	0.94940 0.35670 -0.00000 0.04900
H 	H 	0.96950 0.37160 -0.00000 0.01700
C 	C 	0.65910 0.46920 -0.00000 0.04900
H 	H 	0.64270 0.48810 -0.00000 0.00900
C 	C 	0.74500 0.24210 -0.00000 0.55900
H 	H 	0.76380 0.25870 -0.00000 -0.13500
N 	N 	0.90300 0.30010 -0.00000 -0.13900
N 	N 	0.68970 0.40120 -0.00000 -0.14300
C 	C 	0.62890 0.12690 -0.00000 0.43500
H 	H 	0.61060 0.10980 -0.00000 -0.11500
Gd	Gd	0.19043 0.68663 0.50000 1.69100
O 	O 	0.16280 0.62470 0.50000 -0.36400
O 	O 	0.12910 0.65860 0.50000 -0.37800
C 	C 	0.44940 0.85670 0.50000 0.06300
H 	H 	0.46950 0.87160 0.50000 0.01200
C 	C 	0.15910 0.96920 0.50000 0.05800
H 	H 	0.14270 0.98810 0.50000 0.01400
C 	C 	0.24500 0.74210 0.50000 0.57200
H 	H 	0.26380 0.75870 0.50000 -0.13700
N 	N 	0.40300 0.80010 0.50000 -0.13600
N 	N 	0.18970 0.90120 0.50000 -0.13900
C 	C 	0.12890 0.62690 0.50000 0.43500
H 	H 	0.11060 0.60980 0.50000 -0.11300
Gd	Gd	-0.00000 0.30957 0.18663 1.67800
O 	O 	-0.00000 0.33720 0.12470 -0.36600
O 	O 	-0.00000 0.37090 0.15860 -0.37900
C 	C 	-0.00000 0.05060 0.35670 0.04900
H 	H 	-0.00000 0.03050 0.37160 0.01300
C 	C 	0.00000 0.34090 0.46920 0.04900
H 	H 	0.00000 0.35730 0.48810 0.00900
C 	C 	-0.00000 0.25500 0.24210 0.55900
H 	H 	-0.00000 0.23620 0.25870 -0.13500
N 	N 	0.00000 0.09700 0.30010 -0.14000
N 	N 	0.00000 0.31030 0.40120 -0.14300
C 	C 	0.00000 0.37110 0.12690 0.43500
H 	H 	-0.00000 0.38940 0.10980 -0.11500
Gd	Gd	0.50000 0.80957 0.68663 1.69100
O 	O 	0.50000 0.83720 0.62470 -0.36400
O 	O 	0.50000 0.87090 0.65860 -0.37700
C 	C 	0.50000 0.55060 0.85670 0.06300
H 	H 	0.50000 0.53050 0.87160 0.01200
C 	C 	0.50000 0.84090 0.96920 0.05900
H 	H 	0.50000 0.85730 0.98810 0.01500
C 	C 	0.50000 0.75500 0.74210 0.57300
H 	H 	0.50000 0.73620 0.75870 -0.13700
N 	N 	0.50000 0.59700 0.80010 -0.13600
N 	N 	0.50000 0.81030 0.90120 -0.13900
C 	C 	0.50000 0.87110 0.62690 0.43500
H 	H 	0.50000 0.88940 0.60980 -0.11200
Gd	Gd	-0.00000 0.30957 0.81337 1.67900
O 	O 	-0.00000 0.33720 0.87530 -0.36500
O 	O 	0.00000 0.37090 0.84140 -0.37900
C 	C 	0.00000 0.05060 0.64330 0.04900
H 	H 	0.00000 0.03050 0.62840 0.01300
C 	C 	0.00000 0.34090 0.53080 0.04900
H 	H 	0.00000 0.35730 0.51190 0.00900
C 	C 	-0.00000 0.25500 0.75790 0.55900
H 	H 	-0.00000 0.23620 0.74130 -0.13500
N 	N 	0.00000 0.09700 0.69990 -0.14000
N 	N 	0.00000 0.31030 0.59880 -0.14300
C 	C 	-0.00000 0.37110 0.87310 0.43500
H 	H 	0.00000 0.38940 0.89020 -0.11400
Gd	Gd	0.50000 0.80957 0.31337 1.69200
O 	O 	0.50000 0.83720 0.37530 -0.36400
O 	O 	0.50000 0.87090 0.34140 -0.37700
C 	C 	0.50000 0.55060 0.14330 0.06300
H 	H 	0.50000 0.53050 0.12840 0.01100
C 	C 	0.50000 0.84090 0.03080 0.06600
H 	H 	0.50000 0.85730 0.01190 -0.00100
C 	C 	0.50000 0.75500 0.25790 0.57300
H 	H 	0.50000 0.73620 0.24130 -0.13700
N 	N 	0.50000 0.59700 0.19990 -0.13600
N 	N 	0.50000 0.81030 0.09880 -0.14000
C 	C 	0.50000 0.87110 0.37310 0.43500
H 	H 	0.50000 0.88940 0.39020 -0.11200
Gd	Gd	-0.00000 0.69043 0.81337 1.67900
O 	O 	-0.00000 0.66280 0.87530 -0.36500
O 	O 	-0.00000 0.62910 0.84140 -0.37900
C 	C 	0.00000 0.94940 0.64330 0.04900
H 	H 	0.00000 0.96950 0.62840 0.01700
C 	C 	0.00000 0.65910 0.53080 0.04900
H 	H 	-0.00000 0.64270 0.51190 0.00900
C 	C 	0.00000 0.74500 0.75790 0.56000
H 	H 	0.00000 0.76380 0.74130 -0.13500
N 	N 	0.00000 0.90300 0.69990 -0.13900
N 	N 	0.00000 0.68970 0.59880 -0.14300
C 	C 	-0.00000 0.62890 0.87310 0.43500
H 	H 	0.00000 0.61060 0.89020 -0.11400
Gd	Gd	0.50000 0.19043 0.31337 1.69200
O 	O 	0.50000 0.16280 0.37530 -0.36400
O 	O 	0.50000 0.12910 0.34140 -0.37800
C 	C 	0.50000 0.44940 0.14330 0.06300
H 	H 	0.50000 0.46950 0.12840 0.01100
C 	C 	0.50000 0.15910 0.03080 0.06500
H 	H 	0.50000 0.14270 0.01190 -0.00100
C 	C 	0.50000 0.24500 0.25790 0.57300
H 	H 	0.50000 0.26380 0.24130 -0.13700
N 	N 	0.50000 0.40300 0.19990 -0.13600
N 	N 	0.50000 0.18970 0.09880 -0.14000
C 	C 	0.50000 0.12890 0.37310 0.43500
H 	H 	0.50000 0.11060 0.39020 -0.11300
Gd	Gd	-0.00000 0.69043 0.18663 1.67800
O 	O 	0.00000 0.66280 0.12470 -0.36600
O 	O 	-0.00000 0.62910 0.15860 -0.38000
C 	C 	0.00000 0.94940 0.35670 0.04900
H 	H 	-0.00000 0.96950 0.37160 0.01700
C 	C 	0.00000 0.65910 0.46920 0.04900
H 	H 	0.00000 0.64270 0.48810 0.00900
C 	C 	0.00000 0.74500 0.24210 0.55900
H 	H 	0.00000 0.76380 0.25870 -0.13500
N 	N 	0.00000 0.90300 0.30010 -0.13900
N 	N 	0.00000 0.68970 0.40120 -0.14300
C 	C 	-0.00000 0.62890 0.12690 0.43500
H 	H 	-0.00000 0.61060 0.10980 -0.11500
Gd	Gd	0.50000 0.19043 0.68663 1.69100
O 	O 	0.50000 0.16280 0.62470 -0.36400
O 	O 	0.50000 0.12910 0.65860 -0.37800
C 	C 	0.50000 0.44940 0.85670 0.06300
H 	H 	0.50000 0.46950 0.87160 0.01200
C 	C 	0.50000 0.15910 0.96920 0.05800
H 	H 	0.50000 0.14270 0.98810 0.01400
C 	C 	0.50000 0.24500 0.74210 0.57200
H 	H 	0.50000 0.26380 0.75870 -0.13700
N 	N 	0.50000 0.40300 0.80010 -0.13600
N 	N 	0.50000 0.18970 0.90120 -0.13900
C 	C 	0.50000 0.12890 0.62690 0.43500
H 	H 	0.50000 0.11060 0.60980 -0.11300
