data_crystal

_cell_length_a 7.08070
_cell_length_b 18.18740
_cell_length_c 24.82370
_cell_angle_alpha 90.00000
_cell_angle_beta  90.00000
_cell_angle_gamma 99.02200

_symmetry_space_group_name_	'P 1'
_symmetry_space_group_name_H-M	'P 1'

loop_
_symmetry_equiv_pos_as_xyz
  x,y,z

loop_
_atom_site_label
_atom_site_type_symbol
_atom_site_fract_x
_atom_site_fract_y
_atom_site_fract_z
_atom_site_charge
Sm	Sm	0.78245 0.98433 0.59738 1.77500
Sm	Sm	0.21755 0.01567 0.09738 1.81400
Sm	Sm	0.21755 0.01567 0.40262 1.81600
Sm	Sm	0.78245 0.98433 0.90262 1.76900
Cu	Cu	0.24945 0.55362 0.68351 0.78100
Cu	Cu	0.17511 0.43904 0.58043 0.80200
Cu	Cu	0.37790 0.54483 0.49216 0.77900
Cu	Cu	0.75055 0.44638 0.18351 0.77000
Cu	Cu	0.82489 0.56096 0.08043 0.79100
Cu	Cu	0.62210 0.45517 0.99216 0.77000
Cu	Cu	0.75055 0.44638 0.31649 0.77000
Cu	Cu	0.82489 0.56096 0.41957 0.79000
Cu	Cu	0.62210 0.45517 0.50784 0.77600
Cu	Cu	0.24945 0.55362 0.81649 0.78100
Cu	Cu	0.17511 0.43904 0.91957 0.79900
Cu	Cu	0.37790 0.54483 0.00784 0.78300
Cu	Cu	0.23019 0.43285 0.75000 0.76500
Cu	Cu	0.76981 0.56715 0.25000 0.75100
H 	H 	0.30010 0.82860 0.65830 0.05400
H 	H 	0.40530 0.71690 0.67470 -0.00400
H 	H 	0.89260 0.60820 0.65590 0.02000
H 	H 	0.77430 0.71520 0.63990 0.08100
H 	H 	0.19700 0.21710 0.46510 0.03900
H 	H 	0.19680 0.33950 0.48530 -0.00400
H 	H 	0.11210 0.29300 0.63630 0.00700
H 	H 	0.10040 0.16880 0.62100 0.02700
H 	H 	0.69760 0.19400 0.47240 0.05800
H 	H 	0.68080 0.31650 0.45370 -0.00800
H 	H 	0.58740 0.35680 0.60430 -0.00800
H 	H 	0.61250 0.23680 0.62760 0.07300
H 	H 	0.69990 0.17140 0.15830 0.02600
H 	H 	0.59470 0.28310 0.17470 0.01300
H 	H 	0.10740 0.39180 0.15590 0.02700
H 	H 	0.22570 0.28480 0.13990 0.04700
H 	H 	0.80300 0.78290 0.96510 0.01600
H 	H 	0.80320 0.66050 0.98530 -0.02100
H 	H 	0.88790 0.70700 0.13630 0.00000
H 	H 	0.89960 0.83120 0.12100 0.01600
H 	H 	0.30240 0.80600 0.97240 0.01900
H 	H 	0.31920 0.68350 0.95370 0.01900
H 	H 	0.41260 0.64320 0.10430 -0.00200
H 	H 	0.38750 0.76320 0.12760 0.06500
H 	H 	0.69990 0.17140 0.34170 0.02600
H 	H 	0.59470 0.28310 0.32530 0.01300
H 	H 	0.10740 0.39180 0.34410 0.02700
H 	H 	0.22570 0.28480 0.36010 0.04700
H 	H 	0.80300 0.78290 0.53490 0.03500
H 	H 	0.80320 0.66050 0.51470 -0.00700
H 	H 	0.88790 0.70700 0.36370 -0.00200
H 	H 	0.89960 0.83120 0.37900 0.02000
H 	H 	0.30240 0.80600 0.52760 0.06300
H 	H 	0.31920 0.68350 0.54630 -0.00500
H 	H 	0.41260 0.64320 0.39570 -0.00900
H 	H 	0.38750 0.76320 0.37240 0.07600
H 	H 	0.30010 0.82860 0.84170 0.05300
H 	H 	0.40530 0.71690 0.82530 -0.00300
H 	H 	0.89260 0.60820 0.84410 0.02000
H 	H 	0.77430 0.71520 0.86010 0.08000
H 	H 	0.19700 0.21710 0.03490 0.05300
H 	H 	0.19680 0.33950 0.01470 0.00800
H 	H 	0.11210 0.29300 0.86370 0.00600
H 	H 	0.10040 0.16880 0.87900 0.03000
H 	H 	0.69760 0.19400 0.02760 0.05400
H 	H 	0.68080 0.31650 0.04630 -0.00900
H 	H 	0.58740 0.35680 0.89570 -0.00600
H 	H 	0.61250 0.23680 0.87240 0.07000
H 	H 	0.77030 0.28940 0.75000 0.06000
H 	H 	0.61730 0.39130 0.75000 0.02900
H 	H 	0.12130 0.26510 0.75000 0.01300
H 	H 	0.26100 0.16010 0.75000 0.06400
H 	H 	0.22970 0.71060 0.25000 0.07000
H 	H 	0.38270 0.60870 0.25000 0.02700
H 	H 	0.87870 0.73490 0.25000 -0.00100
H 	H 	0.73900 0.83990 0.25000 0.06100
C 	C 	0.94710 0.85620 0.63550 0.24200
C 	C 	0.02460 0.78510 0.64780 0.02800
C 	C 	0.21390 0.78440 0.65790 -0.09500
C 	C 	0.27610 0.71660 0.66770 0.04900
C 	C 	0.97620 0.65300 0.65680 0.02000
C 	C 	0.90390 0.71710 0.64700 -0.11200
C 	C 	0.14050 0.09650 0.52750 0.48300
C 	C 	0.14550 0.17780 0.54050 -0.12200
C 	C 	0.17700 0.23100 0.50040 -0.00200
C 	C 	0.17880 0.30470 0.51300 0.00300
C 	C 	0.12810 0.27740 0.60120 0.01800
C 	C 	0.12110 0.20240 0.59250 -0.00400
C 	C 	0.67360 0.12250 0.56690 0.30300
C 	C 	0.65460 0.20130 0.55210 -0.02500
C 	C 	0.67570 0.22620 0.50000 -0.07100
C 	C 	0.66400 0.29970 0.48900 0.03600
C 	C 	0.61060 0.32370 0.57750 0.03900
C 	C 	0.62390 0.25150 0.59180 -0.07700
C 	C 	0.05290 0.14380 0.13550 0.36200
C 	C 	0.97540 0.21490 0.14780 -0.11000
C 	C 	0.78610 0.21560 0.15790 -0.02100
C 	C 	0.72390 0.28340 0.16770 0.00400
C 	C 	0.02380 0.34700 0.15680 0.01600
C 	C 	0.09610 0.28290 0.14700 -0.00600
C 	C 	0.85950 0.90350 0.02750 0.50600
C 	C 	0.85450 0.82220 0.04050 -0.14600
C 	C 	0.82300 0.76900 0.00040 0.02600
C 	C 	0.82120 0.69530 0.01300 0.00800
C 	C 	0.87190 0.72260 0.10120 0.00700
C 	C 	0.87890 0.79760 0.09250 0.00400
C 	C 	0.32640 0.87750 0.06690 0.32100
C 	C 	0.34540 0.79870 0.05210 -0.06000
C 	C 	0.32430 0.77380 -0.00000 0.02800
C 	C 	0.33600 0.70030 0.98900 -0.03700
C 	C 	0.38940 0.67630 0.07750 0.02500
C 	C 	0.37610 0.74850 0.09180 -0.04500
C 	C 	0.05290 0.14380 0.36450 0.36100
C 	C 	0.97540 0.21490 0.35220 -0.10900
C 	C 	0.78610 0.21560 0.34210 -0.02100
C 	C 	0.72390 0.28340 0.33230 0.00400
C 	C 	0.02380 0.34700 0.34320 0.01600
C 	C 	0.09610 0.28290 0.35300 -0.00600
C 	C 	0.85950 0.90350 0.47250 0.48100
C 	C 	0.85450 0.82220 0.45950 -0.13000
C 	C 	0.82300 0.76900 0.49960 -0.00500
C 	C 	0.82120 0.69530 0.48700 -0.00400
C 	C 	0.87190 0.72260 0.39880 0.01200
C 	C 	0.87890 0.79760 0.40750 -0.00600
C 	C 	0.32640 0.87750 0.43310 0.30500
C 	C 	0.34540 0.79870 0.44790 -0.01700
C 	C 	0.32430 0.77380 0.50000 -0.06900
C 	C 	0.33600 0.70030 0.51100 0.04300
C 	C 	0.38940 0.67630 0.42250 0.04500
C 	C 	0.37610 0.74850 0.40820 -0.07600
C 	C 	0.94710 0.85620 0.86450 0.24400
C 	C 	0.02460 0.78510 0.85220 0.02600
C 	C 	0.21390 0.78440 0.84210 -0.09400
C 	C 	0.27610 0.71660 0.83230 0.04700
C 	C 	0.97620 0.65300 0.84320 0.01900
C 	C 	0.90390 0.71710 0.85300 -0.11100
C 	C 	0.14050 0.09650 0.97250 0.46500
C 	C 	0.14550 0.17780 0.95950 -0.11100
C 	C 	0.17700 0.23100 0.99960 -0.02500
C 	C 	0.17880 0.30470 0.98700 -0.01100
C 	C 	0.12810 0.27740 0.89880 0.02200
C 	C 	0.12110 0.20240 0.90750 -0.01000
C 	C 	0.67360 0.12250 0.93310 0.30800
C 	C 	0.65460 0.20130 0.94790 -0.04200
C 	C 	0.67570 0.22620 -0.00000 -0.05200
C 	C 	0.66400 0.29970 0.01100 0.04300
C 	C 	0.61060 0.32370 0.92250 0.03400
C 	C 	0.62390 0.25150 0.90820 -0.06900
C 	C 	0.63620 0.14320 0.75000 0.31800
C 	C 	0.53380 0.21220 0.75000 -0.03400
C 	C 	0.63740 0.28290 0.75000 -0.05200
C 	C 	0.54430 0.34410 0.75000 0.01100
C 	C 	0.25410 0.27050 0.75000 0.03600
C 	C 	0.33730 0.20670 0.75000 -0.06800
C 	C 	0.36380 0.85680 0.25000 0.31300
C 	C 	0.46620 0.78780 0.25000 -0.02700
C 	C 	0.36260 0.71710 0.25000 -0.05900
C 	C 	0.45570 0.65590 0.25000 0.01500
C 	C 	0.74590 0.72950 0.25000 0.04000
C 	C 	0.66270 0.79330 0.25000 -0.07400
I 	I 	0.98055 0.44317 0.67020 -0.65000
I 	I 	0.50937 0.52974 0.58947 -0.72800
I 	I 	0.01945 0.55683 0.17020 -0.60200
I 	I 	0.49063 0.47026 0.08947 -0.72700
I 	I 	0.01945 0.55683 0.32980 -0.60200
I 	I 	0.49063 0.47026 0.41053 -0.73000
I 	I 	0.98055 0.44317 0.82980 -0.65100
I 	I 	0.50937 0.52974 0.91053 -0.73600
I 	I 	0.52586 0.55746 0.75000 -0.59600
I 	I 	0.47414 0.44254 0.25000 -0.59900
I 	I 	-0.00000 0.50000 0.50000 -0.73600
I 	I 	-0.00000 0.50000 -0.00000 -0.72000
N 	N 	0.16050 0.65130 0.66750 -0.23000
N 	N 	0.15590 0.32880 0.56330 -0.22400
N 	N 	0.62940 0.34790 0.52720 -0.23700
N 	N 	0.83950 0.34870 0.16750 -0.23800
N 	N 	0.84410 0.67120 0.06330 -0.22800
N 	N 	0.37060 0.65210 0.02720 -0.21300
N 	N 	0.83950 0.34870 0.33250 -0.23800
N 	N 	0.84410 0.67120 0.43670 -0.22800
N 	N 	0.37060 0.65210 0.47280 -0.23600
N 	N 	0.16050 0.65130 0.83250 -0.23100
N 	N 	0.15590 0.32880 0.93670 -0.22400
N 	N 	0.62940 0.34790 0.97280 -0.24300
N 	N 	0.35140 0.33860 0.75000 -0.23200
N 	N 	0.64860 0.66140 0.25000 -0.23800
O 	O 	0.06050 0.91410 0.62630 -0.36400
O 	O 	0.76900 0.85360 0.63360 -0.41500
O 	O 	0.20700 0.08170 0.48268 -0.50600
O 	O 	0.07470 0.04970 0.56224 -0.48500
O 	O 	0.69790 0.07740 0.52971 -0.40300
O 	O 	0.67330 0.10430 0.61494 -0.43900
O 	O 	0.93950 0.08590 0.12630 -0.42900
O 	O 	0.23100 0.14640 0.13360 -0.44200
O 	O 	0.79300 0.91830 0.98268 -0.52500
O 	O 	0.92530 0.95030 0.06224 -0.50400
O 	O 	0.30210 0.92260 0.02971 -0.39200
O 	O 	0.32670 0.89570 0.11494 -0.43700
O 	O 	0.93950 0.08590 0.37370 -0.42900
O 	O 	0.23100 0.14640 0.36640 -0.44300
O 	O 	0.79300 0.91830 0.51732 -0.50700
O 	O 	0.92530 0.95030 0.43776 -0.50100
O 	O 	0.30210 0.92260 0.47029 -0.39600
O 	O 	0.32670 0.89570 0.38506 -0.43400
O 	O 	0.06050 0.91410 0.87370 -0.36600
O 	O 	0.76900 0.85360 0.86640 -0.41500
O 	O 	0.20700 0.08170 0.01732 -0.49300
O 	O 	0.07470 0.04970 0.93776 -0.48100
O 	O 	0.69790 0.07740 0.97029 -0.40700
O 	O 	0.67330 0.10430 0.88506 -0.44000
O 	O 	0.80990 0.15280 0.75000 -0.29300
O 	O 	0.53140 0.08160 0.75000 -0.29600
O 	O 	0.19010 0.84720 0.25000 -0.27400
O 	O 	0.46860 0.91840 0.25000 -0.29300
