data_crystal

_cell_length_a 7.10540
_cell_length_b 18.24190
_cell_length_c 24.94770
_cell_angle_alpha 90.00000
_cell_angle_beta  90.00000
_cell_angle_gamma 99.52200

_symmetry_space_group_name_	'P 1'
_symmetry_space_group_name_H-M	'P 1'

loop_
_symmetry_equiv_pos_as_xyz
  x,y,z

loop_
_atom_site_label
_atom_site_type_symbol
_atom_site_fract_x
_atom_site_fract_y
_atom_site_fract_z
_atom_site_charge
Ce	Ce	0.77882 0.98380 0.59859 2.08200
Ce	Ce	0.22118 0.01620 0.09859 2.09100
Ce	Ce	0.22118 0.01620 0.40141 2.09100
Ce	Ce	0.77882 0.98380 0.90141 2.08000
Cu	Cu	0.25102 0.55361 0.68316 0.78200
Cu	Cu	0.17371 0.43896 0.58014 0.80200
Cu	Cu	0.37816 0.54422 0.49231 0.77900
Cu	Cu	0.74898 0.44639 0.18316 0.77100
Cu	Cu	0.82629 0.56104 0.08014 0.79000
Cu	Cu	0.62184 0.45578 0.99231 0.77100
Cu	Cu	0.74898 0.44639 0.31684 0.77100
Cu	Cu	0.82629 0.56104 0.41986 0.79000
Cu	Cu	0.62184 0.45578 0.50769 0.77500
Cu	Cu	0.25102 0.55361 0.81684 0.78100
Cu	Cu	0.17371 0.43896 0.91986 0.80000
Cu	Cu	0.37816 0.54422 0.00769 0.78200
Cu	Cu	0.23017 0.43386 0.75000 0.76600
Cu	Cu	0.76983 0.56614 0.25000 0.75200
H 	H 	0.29890 0.82730 0.65900 0.04600
H 	H 	0.40490 0.71720 0.67470 -0.00500
H 	H 	0.89410 0.60610 0.65570 0.02000
H 	H 	0.77480 0.71300 0.63980 0.08200
H 	H 	0.19420 0.21720 0.46540 0.03900
H 	H 	0.19370 0.33990 0.48530 -0.00600
H 	H 	0.11260 0.29340 0.63660 0.00700
H 	H 	0.09990 0.16920 0.62030 0.02300
H 	H 	0.69480 0.19550 0.47300 0.05600
H 	H 	0.67950 0.31770 0.45430 -0.00900
H 	H 	0.58800 0.35820 0.60430 -0.00600
H 	H 	0.61000 0.23840 0.62770 0.07300
H 	H 	0.70110 0.17270 0.15900 0.01800
H 	H 	0.59510 0.28280 0.17470 0.01200
H 	H 	0.10590 0.39390 0.15570 0.02800
H 	H 	0.22520 0.28700 0.13980 0.04700
H 	H 	0.80580 0.78280 0.96540 0.01900
H 	H 	0.80630 0.66010 0.98530 -0.02000
H 	H 	0.88740 0.70660 0.13660 0.00000
H 	H 	0.90010 0.83080 0.12030 0.01300
H 	H 	0.30520 0.80450 0.97300 0.02400
H 	H 	0.32050 0.68230 0.95430 0.01300
H 	H 	0.41200 0.64180 0.10430 -0.00200
H 	H 	0.39000 0.76160 0.12770 0.06800
H 	H 	0.70110 0.17270 0.34100 0.01800
H 	H 	0.59510 0.28280 0.32530 0.01200
H 	H 	0.10590 0.39390 0.34430 0.02800
H 	H 	0.22520 0.28700 0.36020 0.04700
H 	H 	0.80580 0.78280 0.53460 0.03500
H 	H 	0.80630 0.66010 0.51470 -0.00900
H 	H 	0.88740 0.70660 0.36340 -0.00100
H 	H 	0.90010 0.83080 0.37970 0.01600
H 	H 	0.30520 0.80450 0.52700 0.06000
H 	H 	0.32050 0.68230 0.54570 -0.00600
H 	H 	0.41200 0.64180 0.39570 -0.00700
H 	H 	0.39000 0.76160 0.37230 0.07600
H 	H 	0.29890 0.82730 0.84100 0.04500
H 	H 	0.40490 0.71720 0.82530 -0.00500
H 	H 	0.89410 0.60610 0.84430 0.02000
H 	H 	0.77480 0.71300 0.86020 0.08100
H 	H 	0.19420 0.21720 0.03460 0.04900
H 	H 	0.19370 0.33990 0.01470 0.00300
H 	H 	0.11260 0.29340 0.86340 0.00700
H 	H 	0.09990 0.16920 0.87970 0.02400
H 	H 	0.69480 0.19550 0.02700 0.07600
H 	H 	0.67950 0.31770 0.04570 -0.02200
H 	H 	0.58800 0.35820 0.89570 -0.00900
H 	H 	0.61000 0.23840 0.87230 0.07900
H 	H 	0.76540 0.29120 0.75000 0.06100
H 	H 	0.61730 0.39270 0.75000 0.02800
H 	H 	0.11960 0.26670 0.75000 0.01500
H 	H 	0.25700 0.16200 0.75000 0.05700
H 	H 	0.23460 0.70880 0.25000 0.07000
H 	H 	0.38270 0.60730 0.25000 0.02600
H 	H 	0.88040 0.73330 0.25000 0.00100
H 	H 	0.74300 0.83800 0.25000 0.05400
C 	C 	0.94650 0.85420 0.63760 0.24000
C 	C 	0.02420 0.78300 0.64860 0.02800
C 	C 	0.21310 0.78290 0.65850 -0.09600
C 	C 	0.27590 0.71620 0.66780 0.04900
C 	C 	0.97690 0.65130 0.65670 0.01800
C 	C 	0.90390 0.71520 0.64720 -0.11100
C 	C 	0.14410 0.09760 0.52840 0.45200
C 	C 	0.14690 0.17890 0.54057 -0.11500
C 	C 	0.17560 0.23130 0.50050 -0.00800
C 	C 	0.17650 0.30510 0.51290 0.00800
C 	C 	0.12740 0.27780 0.60160 0.01800
C 	C 	0.12120 0.20310 0.59220 -0.01000
C 	C 	0.67250 0.12460 0.56710 0.29700
C 	C 	0.65390 0.20310 0.55240 -0.02600
C 	C 	0.67380 0.22780 0.50040 -0.07000
C 	C 	0.66230 0.30100 0.48940 0.03600
C 	C 	0.60980 0.32500 0.57770 0.03600
C 	C 	0.62240 0.25320 0.59200 -0.07300
C 	C 	0.05350 0.14580 0.13760 0.36100
C 	C 	0.97580 0.21700 0.14860 -0.11300
C 	C 	0.78690 0.21710 0.15850 -0.01900
C 	C 	0.72410 0.28380 0.16780 0.00200
C 	C 	0.02310 0.34870 0.15670 0.01300
C 	C 	0.09610 0.28480 0.14720 -0.00200
C 	C 	0.85590 0.90240 0.02840 0.47200
C 	C 	0.85310 0.82110 0.04057 -0.13700
C 	C 	0.82440 0.76870 0.00050 0.01600
C 	C 	0.82350 0.69490 0.01290 0.00900
C 	C 	0.87260 0.72220 0.10160 0.00700
C 	C 	0.87880 0.79690 0.09220 -0.00300
C 	C 	0.32750 0.87540 0.06710 0.31100
C 	C 	0.34610 0.79690 0.05240 -0.05300
C 	C 	0.32620 0.77220 0.00040 0.00900
C 	C 	0.33770 0.69900 0.98940 -0.02200
C 	C 	0.39020 0.67500 0.07770 0.02600
C 	C 	0.37760 0.74680 0.09200 -0.04800
C 	C 	0.05350 0.14580 0.36240 0.36100
C 	C 	0.97580 0.21700 0.35140 -0.11300
C 	C 	0.78690 0.21710 0.34150 -0.01900
C 	C 	0.72410 0.28380 0.33220 0.00200
C 	C 	0.02310 0.34870 0.34330 0.01300
C 	C 	0.09610 0.28480 0.35280 -0.00300
C 	C 	0.85590 0.90240 0.47160 0.45000
C 	C 	0.85310 0.82110 0.45943 -0.12400
C 	C 	0.82440 0.76870 0.49950 -0.01000
C 	C 	0.82350 0.69490 0.48710 0.00100
C 	C 	0.87260 0.72220 0.39840 0.01200
C 	C 	0.87880 0.79690 0.40780 -0.01200
C 	C 	0.32750 0.87540 0.43290 0.29900
C 	C 	0.34610 0.79690 0.44760 -0.01900
C 	C 	0.32620 0.77220 0.49960 -0.06900
C 	C 	0.33770 0.69900 0.51060 0.04200
C 	C 	0.39020 0.67500 0.42230 0.04200
C 	C 	0.37760 0.74680 0.40800 -0.07300
C 	C 	0.94650 0.85420 0.86240 0.24200
C 	C 	0.02420 0.78300 0.85140 0.02600
C 	C 	0.21310 0.78290 0.84150 -0.09500
C 	C 	0.27590 0.71620 0.83220 0.04800
C 	C 	0.97690 0.65130 0.84330 0.01700
C 	C 	0.90390 0.71520 0.85280 -0.11000
C 	C 	0.14410 0.09760 0.97160 0.44000
C 	C 	0.14690 0.17890 0.95943 -0.10800
C 	C 	0.17560 0.23130 0.99950 -0.02200
C 	C 	0.17650 0.30510 0.98710 -0.00200
C 	C 	0.12740 0.27780 0.89840 0.02100
C 	C 	0.12120 0.20310 0.90780 -0.01400
C 	C 	0.67250 0.12460 0.93290 0.28900
C 	C 	0.65390 0.20310 0.94760 -0.00600
C 	C 	0.67380 0.22780 0.99960 -0.11700
C 	C 	0.66230 0.30100 0.01060 0.07600
C 	C 	0.60980 0.32500 0.92230 0.04500
C 	C 	0.62240 0.25320 0.90800 -0.08900
C 	C 	0.63010 0.14550 0.75000 0.31200
C 	C 	0.52910 0.21340 0.75000 -0.03700
C 	C 	0.63280 0.28460 0.75000 -0.05300
C 	C 	0.54290 0.34570 0.75000 0.01400
C 	C 	0.25210 0.27210 0.75000 0.02900
C 	C 	0.33420 0.20840 0.75000 -0.06200
C 	C 	0.36990 0.85450 0.25000 0.30700
C 	C 	0.47090 0.78660 0.25000 -0.03000
C 	C 	0.36720 0.71540 0.25000 -0.05900
C 	C 	0.45710 0.65430 0.25000 0.01800
C 	C 	0.74790 0.72790 0.25000 0.03300
C 	C 	0.66580 0.79160 0.25000 -0.06900
I 	I 	0.98170 0.44286 0.67015 -0.65000
I 	I 	0.50922 0.52958 0.58924 -0.72700
I 	I 	0.01830 0.55714 0.17015 -0.60200
I 	I 	0.49078 0.47042 0.08924 -0.72700
I 	I 	0.01830 0.55714 0.32985 -0.60200
I 	I 	0.49078 0.47042 0.41076 -0.73000
I 	I 	0.98170 0.44286 0.82985 -0.65100
I 	I 	0.50922 0.52958 0.91076 -0.73300
I 	I 	0.52523 0.55811 0.75000 -0.59800
I 	I 	0.47477 0.44189 0.25000 -0.60100
I 	I 	0.00000 0.50000 0.50000 -0.73400
I 	I 	-0.00000 0.50000 -0.00000 -0.72200
N 	N 	0.16160 0.65070 0.66740 -0.22900
N 	N 	0.15360 0.32880 0.56290 -0.22300
N 	N 	0.62750 0.34900 0.52728 -0.23700
N 	N 	0.83840 0.34930 0.16740 -0.23700
N 	N 	0.84640 0.67120 0.06290 -0.22800
N 	N 	0.37250 0.65100 0.02728 -0.21700
N 	N 	0.83840 0.34930 0.33260 -0.23700
N 	N 	0.84640 0.67120 0.43710 -0.22800
N 	N 	0.37250 0.65100 0.47272 -0.23500
N 	N 	0.16160 0.65070 0.83260 -0.23000
N 	N 	0.15360 0.32880 0.93710 -0.22300
N 	N 	0.62750 0.34900 0.97272 -0.24900
N 	N 	0.35200 0.34050 0.75000 -0.23100
N 	N 	0.64800 0.65950 0.25000 -0.23600
O 	O 	0.05970 0.91280 0.62970 -0.41100
O 	O 	0.76930 0.85080 0.63590 -0.45800
O 	O 	0.20920 0.08310 0.48348 -0.53100
O 	O 	0.07930 0.05058 0.56302 -0.51900
O 	O 	0.69880 0.08011 0.53045 -0.44700
O 	O 	0.66650 0.10680 0.61552 -0.47200
O 	O 	0.94030 0.08720 0.12970 -0.47200
O 	O 	0.23070 0.14920 0.13590 -0.48200
O 	O 	0.79080 0.91690 0.98348 -0.55400
O 	O 	0.92070 0.94942 0.06302 -0.53500
O 	O 	0.30120 0.91989 0.03045 -0.43500
O 	O 	0.33350 0.89320 0.11552 -0.46600
O 	O 	0.94030 0.08720 0.37030 -0.47100
O 	O 	0.23070 0.14920 0.36410 -0.48100
O 	O 	0.79080 0.91690 0.51652 -0.53800
O 	O 	0.92070 0.94942 0.43698 -0.53300
O 	O 	0.30120 0.91989 0.46955 -0.43800
O 	O 	0.33350 0.89320 0.38448 -0.46400
O 	O 	0.05970 0.91280 0.87030 -0.41300
O 	O 	0.76930 0.85080 0.86410 -0.45900
O 	O 	0.20920 0.08310 0.01652 -0.52300
O 	O 	0.07930 0.05058 0.93698 -0.51600
O 	O 	0.69880 0.08011 0.96955 -0.44700
O 	O 	0.66650 0.10680 0.88448 -0.47000
O 	O 	0.80500 0.15530 0.75000 -0.29900
O 	O 	0.52540 0.08360 0.75000 -0.31200
O 	O 	0.19500 0.84470 0.25000 -0.28000
O 	O 	0.47460 0.91640 0.25000 -0.30800
