data_crystal

_cell_length_a 13.96800
_cell_length_b 14.61100
_cell_length_c 20.56600
_cell_angle_alpha 75.25000
_cell_angle_beta  85.51000
_cell_angle_gamma 69.00000

_symmetry_space_group_name_	'P 1'
_symmetry_space_group_name_H-M	'P 1'

loop_
_symmetry_equiv_pos_as_xyz
  x,y,z

loop_
_atom_site_label
_atom_site_type_symbol
_atom_site_fract_x
_atom_site_fract_y
_atom_site_fract_z
_atom_site_charge
Cd	Cd	0.52981 0.73393 0.04055 1.21700
Cd	Cd	0.47019 0.26607 0.95945 1.22500
Cd	Cd	0.99028 0.76043 0.44026 1.23200
Cd	Cd	0.50000 0.00000 -0.00000 1.18200
Cd	Cd	0.00972 0.23957 0.55974 1.20300
Cd	Cd	-0.00000 0.50000 0.50000 1.19400
H 	H 	0.71910 0.13030 0.95270 0.01700
H 	H 	0.59800 0.56940 0.55640 0.08400
H 	H 	0.62160 0.69300 0.90060 0.27500
H 	H 	0.02630 0.71000 0.94600 0.06100
H 	H 	0.23680 0.89000 0.85360 0.04500
H 	H 	0.91330 0.26200 0.27990 0.09700
H 	H 	0.58370 0.67810 0.83560 0.28400
H 	H 	0.94020 0.32420 0.77530 0.01700
H 	H 	0.96570 0.05000 0.32540 0.01300
H 	H 	0.46640 0.82290 0.41580 0.08400
H 	H 	0.73430 0.22320 0.66430 0.08000
H 	H 	0.70130 0.48950 0.08870 0.09300
H 	H 	0.75230 0.46600 0.89920 0.05900
H 	H 	0.59770 0.33060 0.27270 0.04100
H 	H 	0.68500 0.20650 0.77320 0.01800
H 	H 	0.21040 0.84580 0.72900 0.08000
H 	H 	0.75390 0.59100 0.53750 -0.01100
H 	H 	0.09240 0.84870 0.88010 0.04100
H 	H 	0.91650 0.06250 0.77230 0.00400
H 	H 	0.84740 0.11200 0.59330 0.08300
H 	H 	0.64350 0.37610 0.90600 0.02400
H 	H 	0.37840 0.30700 0.09940 0.25000
H 	H 	0.24610 0.40900 0.46250 -0.01900
H 	H 	0.41620 0.66200 0.59880 0.05900
H 	H 	0.72640 0.98320 0.48660 0.12500
H 	H 	0.40200 0.43060 0.44360 0.08700
H 	H 	0.07180 0.07130 0.95580 0.04900
H 	H 	0.72780 0.37860 0.37550 0.02900
H 	H 	0.96640 0.70890 0.63460 0.27200
H 	H 	0.38890 0.74290 0.77360 0.07400
H 	H 	0.61110 0.25710 0.22640 0.04700
H 	H 	0.15260 0.88800 0.40670 0.04300
H 	H 	0.82570 0.01890 0.39530 0.02600
H 	H 	0.22710 0.09210 0.94100 0.02100
H 	H 	0.90760 0.15130 0.11990 0.07300
H 	H 	0.13230 0.30850 0.04090 0.00900
H 	H 	0.87030 0.04070 0.88350 0.08300
H 	H 	0.28090 0.86970 0.04730 0.04700
H 	H 	0.24770 0.53400 0.10080 -0.01100
H 	H 	0.08350 0.93750 0.22770 0.01900
H 	H 	0.37800 0.15240 0.60180 0.00600
H 	H 	0.06890 0.80740 0.76980 0.02400
H 	H 	0.04740 0.10320 0.31620 -0.04400
H 	H 	0.10950 0.23010 0.42650 0.26700
H 	H 	0.35650 0.62390 0.09400 0.08600
H 	H 	0.89050 0.76990 0.57350 0.24000
H 	H 	0.62200 0.84760 0.39820 0.02500
H 	H 	0.29870 0.51050 0.91130 0.02700
H 	H 	0.78960 0.15420 0.27100 0.02600
H 	H 	0.88500 0.81520 0.63570 0.27000
H 	H 	0.97370 0.29000 0.05400 0.10200
H 	H 	0.76320 0.11000 0.14640 0.01600
H 	H 	0.43350 0.53340 0.82760 0.04800
H 	H 	0.03430 0.95000 0.67460 0.08300
H 	H 	0.89650 0.30320 0.88650 0.09900
H 	H 	0.58870 0.58210 0.28390 0.02000
H 	H 	0.03360 0.29110 0.36540 0.29000
H 	H 	0.86770 0.69150 0.95910 0.00500
H 	H 	0.26150 0.97220 0.41450 0.06700
H 	H 	0.10350 0.69680 0.11350 0.07700
H 	H 	0.08670 0.73800 0.72010 0.03000
H 	H 	0.27220 0.62140 0.62450 0.02600
H 	H 	0.76090 0.36710 0.56730 0.02100
H 	H 	0.52940 0.77900 0.85820 0.28400
H 	H 	0.11500 0.18480 0.36430 0.29300
H 	H 	0.41130 0.41790 0.71610 0.01900
H 	H 	0.05980 0.67580 0.22470 0.01200
H 	H 	0.54170 0.57290 0.39490 0.09500
H 	H 	0.78670 0.51240 0.99080 0.01500
H 	H 	0.53360 0.17710 0.58420 0.08100
H 	H 	0.73850 0.02780 0.58550 -0.01900
H 	H 	0.27360 0.01680 0.51340 -0.04100
H 	H 	0.52030 0.58000 0.81110 0.02300
H 	H 	0.47060 0.22100 0.14180 0.26400
H 	H 	0.77150 0.22470 0.32000 0.03100
H 	H 	0.25850 0.63610 0.77290 0.04100
H 	H 	0.24550 0.70800 0.82050 0.04300
H 	H 	0.95260 0.89680 0.68380 0.08800
H 	H 	0.17430 0.98110 0.60470 0.09900
H 	H 	0.75450 0.29200 0.17950 0.08000
H 	H 	0.40230 0.66940 0.72730 0.06800
H 	H 	0.92820 0.92870 0.04420 0.12900
H 	H 	0.45830 0.42710 0.60510 0.09400
H 	H 	0.41630 0.32190 0.16440 0.26700
H 	H 	0.93110 0.19260 0.23020 0.09000
H 	H 	0.12970 0.95930 0.11650 0.08800
H 	H 	0.77290 0.90790 0.05900 0.00500
H 	H 	0.22850 0.77530 0.68000 0.08400
H 	H 	0.31500 0.79350 0.22680 0.02000
H 	H 	0.21330 0.48760 0.00920 0.07400
H 	H 	0.26570 0.77680 0.33570 0.08400
H 	H 	0.23910 0.63290 0.43270 0.01700
H 	H 	0.47970 0.42000 0.18890 0.03300
H 	H 	0.58380 0.33800 0.40120 0.05600
H 	H 	0.74150 0.36390 0.22710 0.07900
H 	H 	0.56650 0.46660 0.17240 0.05600
C 	C 	0.72650 0.11690 0.05170 -0.16400
C 	C 	0.10610 0.90670 0.56170 0.09200
C 	C 	0.02500 0.24890 0.03170 -0.16600
C 	C 	0.30380 0.36220 0.48700 0.09200
C 	C 	0.80330 0.73910 0.45380 0.36800
C 	C 	0.99650 0.17680 0.42410 0.36700
C 	C 	0.36070 0.74760 0.26050 0.06900
C 	C 	0.82380 0.86820 0.03560 0.13100
C 	C 	0.44940 0.59370 0.82460 -0.01400
C 	C 	0.00350 0.82320 0.57590 0.27800
C 	C 	0.62920 0.09080 0.06860 0.37000
C 	C 	0.24180 0.86690 0.01370 -0.05600
C 	C 	0.78400 0.12220 0.10200 0.05800
C 	C 	0.26840 0.69710 0.77640 -0.03300
C 	C 	0.09390 0.79930 0.72550 -0.02100
C 	C 	0.93000 0.77520 0.60770 -0.79600
C 	C 	0.29620 0.27840 0.53460 -0.17400
C 	C 	0.12880 0.85460 0.91380 -0.04600
C 	C 	0.52440 0.77600 0.44010 -0.13800
C 	C 	0.73880 0.48080 0.99470 0.07200
C 	C 	0.38110 0.65560 0.56460 -0.09300
C 	C 	0.48590 0.70290 0.17070 0.33600
C 	C 	0.69620 0.63780 0.51300 0.08100
C 	C 	0.60010 0.32780 0.62290 0.09600
C 	C 	0.89800 0.12030 0.49810 0.09200
C 	C 	0.87900 0.16910 0.89750 0.11600
C 	C 	0.10000 0.74570 0.13590 -0.15000
C 	C 	0.06720 0.80460 0.23830 -0.14000
C 	C 	0.71960 0.45040 0.93950 -0.10100
C 	C 	0.65430 0.39850 0.94230 -0.01700
C 	C 	0.58210 0.32780 0.50050 0.00200
C 	C 	0.60310 0.62460 0.52370 -0.15100
C 	C 	0.24420 0.61840 0.53070 -0.12000
C 	C 	0.51410 0.29710 0.82930 0.33400
C 	C 	0.10200 0.87970 0.50190 0.02500
C 	C 	0.17620 0.13180 0.96440 0.01800
C 	C 	0.88490 0.09820 0.86190 -0.16400
C 	C 	0.15140 0.84620 0.03060 -0.02700
C 	C 	0.75580 0.38160 0.46930 -0.11300
C 	C 	0.70450 0.36970 0.41940 0.02300
C 	C 	0.82890 0.03900 0.43420 -0.01300
C 	C 	0.19670 0.26090 0.54620 0.37800
C 	C 	0.22230 0.95580 0.45120 -0.10400
C 	C 	0.84520 0.41680 0.45250 0.32500
C 	C 	0.27350 0.88310 0.94830 -0.06300
C 	C 	0.84860 0.15380 0.96940 -0.05900
C 	C 	0.41790 0.67220 0.49950 0.00900
C 	C 	0.72320 0.36310 0.53350 -0.00200
C 	C 	0.48270 0.30860 0.51320 0.08500
C 	C 	0.51100 0.33770 0.08500 0.28900
C 	C 	0.09410 0.83990 0.97940 -0.03300
C 	C 	0.55060 0.40630 0.17540 -0.05100
C 	C 	0.17110 0.96100 0.56580 -0.17900
C 	C 	0.19590 0.20240 0.98970 -0.11900
C 	C 	0.80410 0.79760 0.01030 -0.21200
C 	C 	0.39690 0.37540 0.47630 -0.16400
C 	C 	0.92630 0.26640 0.79730 0.08500
C 	C 	0.36480 0.66170 0.44890 -0.05100
C 	C 	0.93280 0.19540 0.76170 -0.14800
C 	C 	0.28040 0.54960 0.06050 0.07800
C 	C 	0.90610 0.20070 0.27450 -0.22100
C 	C 	0.15810 0.90500 0.44650 -0.05000
C 	C 	0.90000 0.25430 0.86410 -0.16200
C 	C 	0.02370 0.88840 0.67330 -0.13300
C 	C 	0.38240 0.20920 0.57050 0.08300
C 	C 	0.07000 0.22480 0.39230 -0.95200
C 	C 	0.61760 0.79080 0.42950 0.07200
C 	C 	0.77770 0.04420 0.54880 0.08200
C 	C 	0.11510 0.90180 0.13810 -0.14700
C 	C 	0.12100 0.83090 0.10250 0.08200
C 	C 	0.62370 0.41360 0.05830 0.09800
C 	C 	0.39990 0.67220 0.37710 0.09900
C 	C 	0.73160 0.30290 0.22360 -0.16000
C 	C 	0.34570 0.60150 0.05770 -0.21100
C 	C 	0.50490 0.38370 0.63910 -0.15800
C 	C 	0.33160 0.73860 0.32540 -0.15600
C 	C 	0.29790 0.21550 0.97880 0.36100
C 	C 	0.96000 0.21120 0.68920 0.35300
C 	C 	0.21600 0.87780 0.89800 -0.01000
C 	C 	0.20270 0.78460 0.72390 -0.16300
C 	C 	0.00490 0.17710 0.00740 -0.00800
C 	C 	0.30960 0.53420 0.94700 0.00100
C 	C 	0.89390 0.09330 0.43830 0.02000
C 	C 	0.27680 0.63690 0.46650 0.00400
C 	C 	0.37970 0.68110 0.77120 -0.14900
C 	C 	0.99510 0.82290 0.99260 0.15500
C 	C 	0.70380 0.72160 0.46540 -0.15500
C 	C 	0.70210 0.78450 0.02120 0.39400
C 	C 	0.87120 0.14540 0.08620 -0.13000
C 	C 	0.48900 0.66230 0.91500 0.30500
C 	C 	0.87970 0.73920 0.97660 0.12300
C 	C 	0.08300 0.11950 0.97320 -0.07500
C 	C 	0.52400 0.62310 0.29400 0.07400
C 	C 	0.47600 0.37690 0.70600 0.07100
C 	C 	0.26120 0.51920 0.00530 -0.16000
C 	C 	0.97500 0.75110 0.96830 -0.13800
C 	C 	0.91220 0.11150 0.79490 0.08400
C 	C 	0.49510 0.61630 0.36090 -0.15900
C 	C 	0.69040 0.46580 0.05300 -0.20100
C 	C 	0.66840 0.26140 0.67460 -0.15500
C 	C 	0.12030 0.26080 0.02340 0.02900
C 	C 	0.90590 0.16010 0.02060 0.04300
C 	C 	0.84190 0.09500 0.55350 -0.17800
C 	C 	0.37630 0.58640 0.94170 0.00100
C 	C 	0.15480 0.58320 0.54750 0.33000
C 	C 	0.63520 0.33830 0.55110 -0.04700
C 	C 	0.04000 0.78880 0.31080 0.34800
C 	C 	0.29550 0.63030 0.58060 0.02900
C 	C 	0.22920 0.98320 0.51090 0.11000
C 	C 	0.08780 0.88850 0.20510 0.06900
C 	C 	0.77080 0.01680 0.48910 -0.19300
C 	C 	0.62030 0.31890 0.22880 -0.06600
C 	C 	0.54130 0.31070 0.75690 -0.13600
C 	C 	0.56260 0.70720 0.87360 -0.86500
C 	C 	0.47560 0.22400 0.55990 -0.15300
C 	C 	0.79730 0.21540 0.27610 0.00800
C 	C 	0.91700 0.88050 0.02680 -0.21800
C 	C 	0.07370 0.73360 0.20270 0.06700
C 	C 	0.75820 0.13310 0.98630 0.04100
C 	C 	0.60660 0.38220 0.00210 -0.01000
C 	C 	0.45870 0.68930 0.24310 -0.13500
C 	C 	0.43740 0.29280 0.12640 -0.82500
C 	C 	0.61890 0.34440 0.43540 -0.08700
C 	C 	0.97630 0.11160 0.32670 0.10100
C 	C 	0.51730 0.69140 0.48680 0.07700
C 	C 	0.39340 0.61780 0.99790 0.12600
C 	C 	0.63930 0.25240 0.73950 0.06600
C 	C 	0.37080 0.90920 0.93140 0.34000
N 	N 	0.53350 0.33610 0.02120 -0.28700
N 	N 	0.56270 0.38390 0.10990 -0.17300
N 	N 	0.46650 0.66390 0.97880 -0.29800
N 	N 	0.95400 0.12990 0.39340 -0.19300
N 	N 	0.04600 0.87010 0.60660 -0.16300
N 	N 	0.43730 0.61610 0.89010 -0.16400
N 	N 	0.03720 0.82520 0.51270 -0.29100
N 	N 	0.96280 0.17480 0.48730 -0.30700
O 	O 	0.09900 0.59180 0.49780 -0.54000
O 	O 	0.80850 0.82180 0.42290 -0.38600
O 	O 	0.57240 0.10430 0.01890 -0.58000
O 	O 	0.11600 0.33340 0.52090 -0.55800
O 	O 	0.30930 0.28810 0.99380 -0.43700
O 	O 	0.03080 0.85530 0.34030 -0.40900
O 	O 	0.42760 0.89570 0.98110 -0.53200
O 	O 	0.13910 0.54440 0.60690 -0.31700
O 	O 	0.03110 0.70660 0.34190 -0.42200
O 	O 	0.43290 0.78080 0.12870 -0.41500
O 	O 	0.96920 0.14470 0.65970 -0.41000
O 	O 	0.61410 0.05340 0.12640 -0.33400
O 	O 	0.90100 0.40820 0.50220 -0.51700
O 	O 	0.86090 0.45560 0.39310 -0.29900
O 	O 	0.37070 0.15400 0.95510 -0.50700
O 	O 	0.56300 0.63920 0.15410 -0.39300
O 	O 	0.56710 0.21920 0.87130 -0.41400
O 	O 	0.62930 0.84600 0.04490 -0.50600
O 	O 	0.43700 0.36080 0.84590 -0.39000
O 	O 	0.38590 0.94660 0.87360 -0.29900
O 	O 	0.96890 0.29340 0.65810 -0.40100
O 	O 	0.88400 0.66660 0.47910 -0.53100
O 	O 	0.69070 0.71190 0.00620 -0.46100
O 	O 	0.19150 0.17820 0.57710 -0.42100
