data_crystal

_cell_length_a 9.15500
_cell_length_b 9.54540
_cell_length_c 21.56790
_cell_angle_alpha 90.00000
_cell_angle_beta  90.00000
_cell_angle_gamma 116.27800

_symmetry_space_group_name_	'P 1'
_symmetry_space_group_name_H-M	'P 1'

loop_
_symmetry_equiv_pos_as_xyz
  x,y,z

loop_
_atom_site_label
_atom_site_type_symbol
_atom_site_fract_x
_atom_site_fract_y
_atom_site_fract_z
_atom_site_charge
La	La	0.12122 0.35765 0.00938 1.78500
La	La	0.37878 0.64235 0.50938 1.78500
La	La	0.87878 0.64235 0.99062 1.78500
La	La	0.62122 0.35765 0.49062 1.78500
Cu	Cu	0.45125 0.30919 0.14575 0.85500
Cu	Cu	0.04875 0.69081 0.64575 0.85500
Cu	Cu	0.54875 0.69081 0.85425 0.85500
Cu	Cu	0.95125 0.30919 0.35425 0.85500
H 	H 	0.28780 0.02140 0.07180 -0.01100
H 	H 	0.69750 0.19990 0.16360 -0.03600
H 	H 	0.75670 0.00250 0.13250 0.10900
H 	H 	0.57070 0.80250 0.07290 0.00300
H 	H 	0.38410 0.58790 0.15570 -0.00500
H 	H 	0.36080 0.74190 0.23290 0.08700
H 	H 	0.40050 0.69100 0.33530 0.00300
H 	H 	0.49770 0.34610 0.27570 -0.02500
H 	H 	0.21220 0.97860 0.57180 -0.01000
H 	H 	0.80250 0.80010 0.66360 -0.03500
H 	H 	0.74330 0.99750 0.63250 0.10800
H 	H 	0.92930 0.19750 0.57290 0.00500
H 	H 	0.11590 0.41210 0.65570 -0.00500
H 	H 	0.13920 0.25810 0.73290 0.08800
H 	H 	0.09950 0.30900 0.83530 0.00300
H 	H 	0.00230 0.65390 0.77570 -0.02600
H 	H 	0.71220 0.97860 0.92820 -0.01100
H 	H 	0.30250 0.80010 0.83640 -0.03600
H 	H 	0.24330 0.99750 0.86750 0.10900
H 	H 	0.42930 0.19750 0.92710 0.00300
H 	H 	0.61590 0.41210 0.84430 -0.00500
H 	H 	0.63920 0.25810 0.76710 0.08700
H 	H 	0.59950 0.30900 0.66470 0.00300
H 	H 	0.50230 0.65390 0.72430 -0.02500
H 	H 	0.78780 0.02140 0.42820 -0.01000
H 	H 	0.19750 0.19990 0.33640 -0.03500
H 	H 	0.25670 0.00250 0.36750 0.10800
H 	H 	0.07070 0.80250 0.42710 0.00500
H 	H 	0.88410 0.58790 0.34430 -0.00500
H 	H 	0.86080 0.74190 0.26710 0.08800
H 	H 	0.90050 0.69100 0.16470 0.00300
H 	H 	0.99770 0.34610 0.22430 -0.02600
C 	C 	0.27640 0.76010 0.03040 0.42200
C 	C 	0.40660 0.89060 0.06700 -0.18100
C 	C 	0.38260 0.01690 0.08460 0.10200
C 	C 	0.62400 0.12290 0.13770 0.10800
C 	C 	0.65960 0.00330 0.12030 -0.18700
C 	C 	0.54990 0.88540 0.08490 0.11800
C 	C 	0.98910 0.99290 0.03420 0.22400
C 	C 	0.50340 0.47720 0.03390 0.23900
C 	C 	0.40100 0.56720 0.19650 0.09400
C 	C 	0.38690 0.66070 0.24260 -0.16800
C 	C 	0.41200 0.63150 0.30320 0.08700
C 	C 	0.45440 0.51240 0.31560 -0.19300
C 	C 	0.49020 0.47510 0.38010 0.42500
C 	C 	0.46720 0.42500 0.26700 0.09500
C 	C 	0.22360 0.23990 0.53040 0.42100
C 	C 	0.09340 0.10940 0.56700 -0.17800
C 	C 	0.11740 0.98310 0.58460 0.10000
C 	C 	0.87600 0.87710 0.63770 0.10700
C 	C 	0.84040 0.99670 0.62030 -0.18200
C 	C 	0.95010 0.11460 0.58490 0.11200
C 	C 	0.51090 0.00710 0.53420 0.22100
C 	C 	0.99660 0.52280 0.53390 0.23900
C 	C 	0.09900 0.43280 0.69650 0.09400
C 	C 	0.11310 0.33930 0.74260 -0.16800
C 	C 	0.08800 0.36850 0.80320 0.08700
C 	C 	0.04560 0.48760 0.81560 -0.19300
C 	C 	0.00980 0.52490 0.88010 0.42500
C 	C 	0.03280 0.57500 0.76700 0.09500
C 	C 	0.72360 0.23990 0.96960 0.42200
C 	C 	0.59340 0.10940 0.93300 -0.18100
C 	C 	0.61740 0.98310 0.91540 0.10200
C 	C 	0.37600 0.87710 0.86230 0.10800
C 	C 	0.34040 0.99670 0.87970 -0.18700
C 	C 	0.45010 0.11460 0.91510 0.11800
C 	C 	0.01090 0.00710 0.96580 0.22400
C 	C 	0.49660 0.52280 0.96610 0.23900
C 	C 	0.59900 0.43280 0.80350 0.09400
C 	C 	0.61310 0.33930 0.75740 -0.16800
C 	C 	0.58800 0.36850 0.69680 0.08700
C 	C 	0.54560 0.48760 0.68440 -0.19300
C 	C 	0.50980 0.52490 0.61990 0.42500
C 	C 	0.53280 0.57500 0.73300 0.09500
C 	C 	0.77640 0.76010 0.46960 0.42100
C 	C 	0.90660 0.89060 0.43300 -0.17800
C 	C 	0.88260 0.01690 0.41540 0.10000
C 	C 	0.12400 0.12290 0.36230 0.10700
C 	C 	0.15960 0.00330 0.37970 -0.18200
C 	C 	0.04990 0.88540 0.41510 0.11200
C 	C 	0.48910 0.99290 0.46580 0.22100
C 	C 	0.00340 0.47720 0.46610 0.23900
C 	C 	0.90100 0.56720 0.30350 0.09400
C 	C 	0.88690 0.66070 0.25740 -0.16800
C 	C 	0.91200 0.63150 0.19680 0.08700
C 	C 	0.95440 0.51240 0.18440 -0.19300
C 	C 	0.99020 0.47510 0.11990 0.42500
C 	C 	0.96720 0.42500 0.23300 0.09500
N 	N 	0.49060 0.13610 0.12000 -0.26700
N 	N 	0.43780 0.44800 0.20730 -0.26300
N 	N 	0.00940 0.86390 0.62000 -0.26600
N 	N 	0.06220 0.55200 0.70730 -0.26300
N 	N 	0.50940 0.86390 0.88000 -0.26700
N 	N 	0.56220 0.55200 0.79270 -0.26300
N 	N 	0.99060 0.13610 0.38000 -0.26600
N 	N 	0.93780 0.44800 0.29270 -0.26300
O 	O 	0.28610 0.63270 0.03110 -0.44000
O 	O 	0.16820 0.78480 0.00390 -0.44100
O 	O 	0.04980 0.11590 0.06620 -0.36800
O 	O 	0.91160 0.85650 0.05650 -0.36700
O 	O 	0.37270 0.38100 0.05810 -0.46200
O 	O 	0.63860 0.53940 0.06060 -0.39700
O 	O 	0.55780 0.38590 0.38490 -0.43800
O 	O 	0.45140 0.53120 0.42580 -0.50700
O 	O 	0.21390 0.36730 0.53110 -0.43900
O 	O 	0.33180 0.21520 0.50390 -0.44000
O 	O 	0.45020 0.88410 0.56620 -0.36700
O 	O 	0.58840 0.14350 0.55650 -0.36800
O 	O 	0.12730 0.61900 0.55810 -0.46300
O 	O 	0.86140 0.46060 0.56060 -0.39800
O 	O 	0.94220 0.61410 0.88490 -0.43800
O 	O 	0.04860 0.46880 0.92580 -0.50600
O 	O 	0.71390 0.36730 0.96890 -0.44000
O 	O 	0.83180 0.21520 0.99610 -0.44100
O 	O 	0.95020 0.88410 0.93380 -0.36800
O 	O 	0.08840 0.14350 0.94350 -0.36700
O 	O 	0.62730 0.61900 0.94190 -0.46200
O 	O 	0.36140 0.46060 0.93940 -0.39700
O 	O 	0.44220 0.61410 0.61510 -0.43800
O 	O 	0.54860 0.46880 0.57420 -0.50700
O 	O 	0.78610 0.63270 0.46890 -0.43900
O 	O 	0.66820 0.78480 0.49610 -0.44000
O 	O 	0.54980 0.11590 0.43380 -0.36700
O 	O 	0.41160 0.85650 0.44350 -0.36800
O 	O 	0.87270 0.38100 0.44190 -0.46300
O 	O 	0.13860 0.53940 0.43940 -0.39800
O 	O 	0.05780 0.38590 0.11510 -0.43800
O 	O 	0.95140 0.53120 0.07420 -0.50600
