data_crystal

_cell_length_a 7.18100
_cell_length_b 11.35110
_cell_length_c 11.35110
_cell_angle_alpha 66.32210
_cell_angle_beta  71.56000
_cell_angle_gamma 71.55990

_symmetry_space_group_name_	'P 1'
_symmetry_space_group_name_H-M	'P 1'

loop_
_symmetry_equiv_pos_as_xyz
  x,y,z

loop_
_atom_site_label
_atom_site_type_symbol
_atom_site_fract_x
_atom_site_fract_y
_atom_site_fract_z
_atom_site_charge
Cu	Cu	0.34052 0.88889 0.61111 0.85900
Cu	Cu	0.84052 0.11111 0.38889 0.84900
H 	H 	0.75390 0.84810 0.44130 0.09500
H 	H 	0.26620 0.62850 0.67710 0.22500
H 	H 	0.41550 0.49330 0.72490 0.22400
H 	H 	0.33200 0.52910 0.59990 0.22700
H 	H 	0.07490 0.75500 0.33120 0.23600
H 	H 	0.05910 0.64950 0.28050 0.22300
H 	H 	0.14470 0.60440 0.40660 0.21900
H 	H 	0.04330 0.15190 0.55870 0.12600
H 	H 	0.57180 0.37150 0.32290 0.20800
H 	H 	0.63370 0.50670 0.27510 0.20900
H 	H 	0.46100 0.47090 0.40010 0.21300
H 	H 	0.16110 0.24500 0.66880 0.18100
H 	H 	0.98910 0.35050 0.71950 0.14000
H 	H 	0.15570 0.39560 0.59340 0.16300
H 	H 	0.25390 0.94130 0.34810 0.10600
H 	H 	0.76620 0.17710 0.12850 0.21900
H 	H 	0.91550 0.22490 0.99330 0.21100
H 	H 	0.83200 0.09990 0.02910 0.22400
H 	H 	0.57490 0.83120 0.25500 0.24600
H 	H 	0.55910 0.78050 0.14950 0.23100
H 	H 	0.64470 0.90660 0.10440 0.22900
H 	H 	0.54330 0.05870 0.65190 0.10200
H 	H 	0.07180 0.82290 0.87150 0.18500
H 	H 	0.13370 0.77510 0.00670 0.18700
H 	H 	0.96100 0.90010 0.97090 0.16100
H 	H 	0.66110 0.16880 0.74500 0.24400
H 	H 	0.48910 0.21950 0.85050 0.23100
H 	H 	0.65570 0.09340 0.89560 0.22300
C 	C 	0.73740 0.56820 0.50160 -0.17200
C 	C 	0.84460 0.66700 0.44000 0.24400
C 	C 	0.54750 0.62520 0.56460 0.25200
C 	C 	0.37500 0.56370 0.64910 -0.74900
C 	C 	0.04850 0.66910 0.35750 -0.70900
C 	C 	0.80720 0.43180 0.49840 -0.13000
C 	C 	0.95160 0.33300 0.56000 0.18200
C 	C 	0.73730 0.37480 0.43540 0.22800
C 	C 	0.58780 0.43630 0.35090 -0.70900
C 	C 	0.07510 0.33090 0.64250 -0.52000
C 	C 	0.23740 0.00160 0.06820 -0.16200
C 	C 	0.34460 0.94000 0.16700 0.27200
C 	C 	0.04750 0.06460 0.12520 0.27500
C 	C 	0.87500 0.14910 0.06370 -0.75500
C 	C 	0.54850 0.85750 0.16910 -0.76600
C 	C 	0.30720 0.99840 0.93180 -0.14900
C 	C 	0.45160 0.06000 0.83300 0.26900
C 	C 	0.23730 0.93540 0.87480 0.21400
C 	C 	0.08780 0.85090 0.93630 -0.60700
C 	C 	0.57510 0.14250 0.83090 -0.76000
Br	Br	0.49303 0.09474 0.40526 -0.55700
Br	Br	0.99303 0.90526 0.59474 -0.58800
N 	N 	0.54106 0.75024 0.54444 -0.23900
N 	N 	0.72140 0.77330 0.46850 -0.21000
N 	N 	0.83574 0.24976 0.45556 -0.23700
N 	N 	0.96320 0.22670 0.53150 -0.22200
N 	N 	0.04106 0.04444 0.25024 -0.23000
N 	N 	0.22140 0.96850 0.27330 -0.21700
N 	N 	0.33574 0.95556 0.74976 -0.23000
N 	N 	0.46320 0.03150 0.72670 -0.21400
