data_crystal

_cell_length_a 12.20690
_cell_length_b 14.48110
_cell_length_c 28.55000
_cell_angle_alpha 90.00000
_cell_angle_beta  90.00000
_cell_angle_gamma 90.00000

_symmetry_space_group_name_	'P 1'
_symmetry_space_group_name_H-M	'P 1'

loop_
_symmetry_equiv_pos_as_xyz
  x,y,z

loop_
_atom_site_label
_atom_site_type_symbol
_atom_site_fract_x
_atom_site_fract_y
_atom_site_fract_z
_atom_site_charge
Sm	Sm	0.38782 0.47430 0.70775 2.26300
Sm	Sm	0.61574 0.49300 0.60508 2.23700
Sm	Sm	0.61218 0.52570 0.20775 2.26300
Sm	Sm	0.38426 0.50700 0.10508 2.23700
Sm	Sm	0.11218 0.97430 0.70775 2.26300
Sm	Sm	0.88426 0.99300 0.60508 2.22200
Sm	Sm	0.88782 0.02570 0.20775 2.26300
Sm	Sm	0.11574 0.00700 0.10508 2.22000
Zn	Zn	0.17469 0.27699 0.76605 1.20500
Zn	Zn	0.66846 0.18926 0.54906 1.20400
Zn	Zn	0.82531 0.72301 0.26605 1.20500
Zn	Zn	0.33154 0.81074 0.04906 1.20200
Zn	Zn	0.32531 0.77699 0.76605 1.20500
Zn	Zn	0.83154 0.68926 0.54906 1.20400
Zn	Zn	0.67469 0.22301 0.26605 1.20500
Zn	Zn	0.16846 0.31074 0.04906 1.20100
H 	H 	0.94170 0.30170 0.64740 0.02900
H 	H 	0.92910 0.45590 0.52940 0.06300
H 	H 	0.19200 0.47750 0.61580 0.04800
H 	H 	0.20700 0.73950 0.63870 0.01900
H 	H 	0.17660 0.86350 0.51070 0.09200
H 	H 	0.42070 0.68040 0.53270 0.07800
H 	H 	0.70360 0.72940 0.67720 0.01200
H 	H 	0.93860 0.77560 0.77560 0.07900
H 	H 	0.69920 0.58510 0.79790 0.08900
H 	H 	0.24270 0.38450 0.90670 0.04500
H 	H 	0.51300 0.46300 0.83330 0.07600
H 	H 	0.50940 0.48260 0.97540 0.08100
H 	H 	0.05520 0.66450 0.66820 0.02500
H 	H 	0.07990 0.49450 0.78170 0.05800
H 	H 	0.81720 0.47710 0.69430 0.05100
H 	H 	0.05830 0.69830 0.14740 0.02900
H 	H 	0.07090 0.54410 0.02940 0.05900
H 	H 	0.80800 0.52250 0.11580 0.04800
H 	H 	0.79300 0.26050 0.13870 0.01700
H 	H 	0.82340 0.13650 0.01070 0.08300
H 	H 	0.57930 0.31960 0.03270 0.07100
H 	H 	0.29640 0.27060 0.17720 0.01200
H 	H 	0.06140 0.22440 0.27560 0.08000
H 	H 	0.30080 0.41490 0.29790 0.08900
H 	H 	0.75730 0.61550 0.40670 0.04500
H 	H 	0.48700 0.53700 0.33330 0.07700
H 	H 	0.49060 0.51740 0.47540 0.07600
H 	H 	0.94480 0.33550 0.16820 0.02600
H 	H 	0.92010 0.50550 0.28170 0.05800
H 	H 	0.18280 0.52290 0.19430 0.05100
H 	H 	0.55830 0.80170 0.64740 0.02900
H 	H 	0.57090 0.95590 0.52940 0.06300
H 	H 	0.30800 0.97750 0.61580 0.04800
H 	H 	0.29300 0.23950 0.63870 0.01900
H 	H 	0.32340 0.36350 0.51070 0.09200
H 	H 	0.07930 0.18040 0.53270 0.07800
H 	H 	0.79640 0.22940 0.67720 0.01200
H 	H 	0.56140 0.27560 0.77560 0.08000
H 	H 	0.80080 0.08510 0.79790 0.09100
H 	H 	0.25730 0.88450 0.90670 0.04300
H 	H 	0.98700 0.96300 0.83330 0.06900
H 	H 	0.99060 0.98260 0.97540 0.07400
H 	H 	0.44480 0.16450 0.66820 0.02200
H 	H 	0.42010 0.99450 0.78170 0.04900
H 	H 	0.68280 0.97710 0.69430 0.04100
H 	H 	0.44170 0.19830 0.14740 0.02800
H 	H 	0.42910 0.04410 0.02940 0.05800
H 	H 	0.69200 0.02250 0.11580 0.04800
H 	H 	0.70700 0.76050 0.13870 0.01700
H 	H 	0.67660 0.63650 0.01070 0.08400
H 	H 	0.92070 0.81960 0.03270 0.07200
H 	H 	0.20360 0.77060 0.17720 0.01200
H 	H 	0.43860 0.72440 0.27560 0.08000
H 	H 	0.19920 0.91490 0.29790 0.09100
H 	H 	0.74270 0.11550 0.40670 0.04300
H 	H 	0.01300 0.03700 0.33330 0.07100
H 	H 	0.00940 0.01740 0.47540 0.07000
H 	H 	0.55520 0.83550 0.16820 0.02200
H 	H 	0.57990 0.00550 0.28170 0.05100
H 	H 	0.31720 0.02290 0.19430 0.04100
C 	C 	0.07590 0.38700 0.63840 -0.12400
C 	C 	0.97300 0.34660 0.62710 0.05200
C 	C 	0.91810 0.37260 0.58650 -0.10600
C 	C 	0.96640 0.43730 0.55700 -0.04700
C 	C 	0.06760 0.47500 0.56710 0.09900
C 	C 	0.12310 0.45060 0.60850 -0.02200
C 	C 	0.13370 0.36240 0.68340 0.45800
C 	C 	0.80750 0.33370 0.57500 0.40600
C 	C 	0.32080 0.69500 0.58860 -0.11700
C 	C 	0.23070 0.74690 0.60730 0.05500
C 	C 	0.17970 0.80900 0.57680 -0.09700
C 	C 	0.21410 0.82230 0.53100 -0.05100
C 	C 	0.30370 0.77410 0.51620 0.12000
C 	C 	0.35780 0.71170 0.54420 -0.02800
C 	C 	0.08430 0.87040 0.59290 0.41900
C 	C 	0.37600 0.61820 0.61610 0.51200
C 	C 	0.68750 0.64690 0.73420 -0.12700
C 	C 	0.73460 0.71570 0.70700 0.07900
C 	C 	0.82460 0.76460 0.72160 -0.12000
C 	C 	0.87630 0.74240 0.76500 -0.02900
C 	C 	0.83190 0.67020 0.79110 0.11400
C 	C 	0.73400 0.62760 0.77740 -0.03000
C 	C 	0.58910 0.59480 0.72020 0.43400
C 	C 	0.87300 0.84540 0.69590 0.46100
C 	C 	0.36870 0.43190 0.94850 -0.10900
C 	C 	0.31550 0.40770 0.90610 0.05000
C 	C 	0.36930 0.41770 0.86380 -0.10400
C 	C 	0.47530 0.45520 0.86210 -0.03400
C 	C 	0.52300 0.48060 0.90480 0.10600
C 	C 	0.47250 0.46730 0.94720 -0.03100
C 	C 	0.31470 0.41940 0.99570 0.48000
C 	C 	0.31750 0.39150 0.81720 0.45300
C 	C 	0.93290 0.57120 0.67420 -0.12500
C 	C 	0.02780 0.61470 0.68640 0.06000
C 	C 	0.08460 0.58420 0.72650 -0.11500
C 	C 	0.04140 0.51590 0.75490 -0.04100
C 	C 	0.94110 0.48010 0.74300 0.09700
C 	C 	0.88520 0.50480 0.70230 -0.02300
C 	C 	0.87630 0.59770 0.63010 0.42300
C 	C 	0.19180 0.62880 0.74150 0.43700
C 	C 	0.92410 0.61300 0.13840 -0.12400
C 	C 	0.02700 0.65340 0.12710 0.05300
C 	C 	0.08190 0.62740 0.08650 -0.10800
C 	C 	0.03360 0.56270 0.05700 -0.04700
C 	C 	0.93240 0.52500 0.06710 0.09800
C 	C 	0.87690 0.54940 0.10850 -0.02200
C 	C 	0.86630 0.63760 0.18340 0.45900
C 	C 	0.19250 0.66630 0.07500 0.40600
C 	C 	0.67920 0.30500 0.08860 -0.12300
C 	C 	0.76930 0.25310 0.10730 0.06000
C 	C 	0.82030 0.19100 0.07680 -0.10400
C 	C 	0.78590 0.17770 0.03100 -0.04000
C 	C 	0.69630 0.22590 0.01620 0.09900
C 	C 	0.64220 0.28830 0.04420 -0.01700
C 	C 	0.91570 0.12960 0.09290 0.42100
C 	C 	0.62400 0.38180 0.11610 0.51400
C 	C 	0.31250 0.35310 0.23420 -0.12700
C 	C 	0.26540 0.28430 0.20700 0.07900
C 	C 	0.17540 0.23540 0.22160 -0.12000
C 	C 	0.12370 0.25760 0.26500 -0.02900
C 	C 	0.16810 0.32980 0.29110 0.11500
C 	C 	0.26600 0.37240 0.27740 -0.03000
C 	C 	0.41090 0.40520 0.22020 0.43400
C 	C 	0.12700 0.15460 0.19590 0.46100
C 	C 	0.63130 0.56810 0.44850 -0.10500
C 	C 	0.68450 0.59230 0.40610 0.04700
C 	C 	0.63070 0.58230 0.36380 -0.10300
C 	C 	0.52470 0.54480 0.36210 -0.03500
C 	C 	0.47700 0.51940 0.40480 0.10600
C 	C 	0.52750 0.53270 0.44720 -0.03500
C 	C 	0.68530 0.58060 0.49570 0.45700
C 	C 	0.68250 0.60850 0.31720 0.45200
C 	C 	0.06710 0.42880 0.17420 -0.12500
C 	C 	0.97220 0.38530 0.18640 0.06000
C 	C 	0.91540 0.41580 0.22650 -0.11600
C 	C 	0.95860 0.48410 0.25490 -0.04100
C 	C 	0.05890 0.51990 0.24300 0.09700
C 	C 	0.11480 0.49520 0.20230 -0.02300
C 	C 	0.12370 0.40230 0.13010 0.42300
C 	C 	0.80820 0.37120 0.24150 0.43700
C 	C 	0.42410 0.88700 0.63840 -0.12300
C 	C 	0.52700 0.84660 0.62710 0.05200
C 	C 	0.58190 0.87260 0.58650 -0.10600
C 	C 	0.53360 0.93730 0.55700 -0.04700
C 	C 	0.43240 0.97500 0.56710 0.09800
C 	C 	0.37690 0.95060 0.60850 -0.02200
C 	C 	0.36630 0.86240 0.68340 0.45800
C 	C 	0.69250 0.83370 0.57500 0.40600
C 	C 	0.17920 0.19500 0.58860 -0.11700
C 	C 	0.26930 0.24690 0.60730 0.05500
C 	C 	0.32030 0.30900 0.57680 -0.09700
C 	C 	0.28590 0.32230 0.53100 -0.05100
C 	C 	0.19630 0.27410 0.51620 0.12000
C 	C 	0.14220 0.21170 0.54420 -0.02800
C 	C 	0.41570 0.37040 0.59290 0.41900
C 	C 	0.12400 0.11820 0.61610 0.51200
C 	C 	0.81250 0.14690 0.73420 -0.12500
C 	C 	0.76540 0.21570 0.70700 0.07900
C 	C 	0.67540 0.26460 0.72160 -0.12000
C 	C 	0.62370 0.24240 0.76500 -0.02900
C 	C 	0.66810 0.17020 0.79110 0.11500
C 	C 	0.76600 0.12760 0.77740 -0.03000
C 	C 	0.91090 0.09480 0.72020 0.43300
C 	C 	0.62700 0.34540 0.69590 0.46100
C 	C 	0.13130 0.93190 0.94850 -0.11400
C 	C 	0.18450 0.90770 0.90610 0.05500
C 	C 	0.13070 0.91770 0.86380 -0.11000
C 	C 	0.02470 0.95520 0.86210 -0.02100
C 	C 	0.97700 0.98060 0.90480 0.09100
C 	C 	0.02750 0.96730 0.94720 -0.01800
C 	C 	0.18530 0.91940 0.99570 0.47600
C 	C 	0.18250 0.89150 0.81720 0.45500
C 	C 	0.56710 0.07120 0.67420 -0.13600
C 	C 	0.47220 0.11470 0.68640 0.07100
C 	C 	0.41540 0.08420 0.72650 -0.12600
C 	C 	0.45860 0.01590 0.75490 -0.01800
C 	C 	0.55890 0.98010 0.74300 0.07800
C 	C 	0.61480 0.00480 0.70230 0.00100
C 	C 	0.62370 0.09770 0.63010 0.42700
C 	C 	0.30820 0.12880 0.74150 0.44200
C 	C 	0.57590 0.11300 0.13840 -0.12400
C 	C 	0.47300 0.15340 0.12710 0.05300
C 	C 	0.41810 0.12740 0.08650 -0.10900
C 	C 	0.46640 0.06270 0.05700 -0.04600
C 	C 	0.56760 0.02500 0.06710 0.09500
C 	C 	0.62310 0.04940 0.10850 -0.02100
C 	C 	0.63370 0.13760 0.18340 0.45800
C 	C 	0.30750 0.16630 0.07500 0.40600
C 	C 	0.82080 0.80500 0.08860 -0.12200
C 	C 	0.73070 0.75310 0.10730 0.05900
C 	C 	0.67970 0.69100 0.07680 -0.10300
C 	C 	0.71410 0.67770 0.03100 -0.04200
C 	C 	0.80370 0.72590 0.01620 0.10300
C 	C 	0.85780 0.78830 0.04420 -0.01900
C 	C 	0.58430 0.62960 0.09290 0.42100
C 	C 	0.87600 0.88180 0.11610 0.51300
C 	C 	0.18750 0.85310 0.23420 -0.12500
C 	C 	0.23460 0.78430 0.20700 0.07800
C 	C 	0.32460 0.73540 0.22160 -0.12000
C 	C 	0.37630 0.75760 0.26500 -0.03000
C 	C 	0.33190 0.82980 0.29110 0.11500
C 	C 	0.23400 0.87240 0.27740 -0.03100
C 	C 	0.08910 0.90520 0.22020 0.43300
C 	C 	0.37300 0.65460 0.19590 0.46100
C 	C 	0.86870 0.06810 0.44850 -0.11100
C 	C 	0.81550 0.09230 0.40610 0.05200
C 	C 	0.86930 0.08230 0.36380 -0.10900
C 	C 	0.97530 0.04480 0.36210 -0.02300
C 	C 	0.02300 0.01940 0.40480 0.09400
C 	C 	0.97250 0.03270 0.44720 -0.02200
C 	C 	0.81470 0.08060 0.49570 0.45800
C 	C 	0.81750 0.10850 0.31720 0.45400
C 	C 	0.43290 0.92880 0.17420 -0.13400
C 	C 	0.52780 0.88530 0.18640 0.07000
C 	C 	0.58460 0.91580 0.22650 -0.12400
C 	C 	0.54140 0.98410 0.25490 -0.02200
C 	C 	0.44110 0.01990 0.24300 0.08000
C 	C 	0.38520 0.99520 0.20230 -0.00100
C 	C 	0.37630 0.90230 0.13010 0.42600
C 	C 	0.69180 0.87120 0.24150 0.44100
Br	Br	0.13268 0.55747 0.52471 -0.24300
Br	Br	0.35400 0.79012 0.45341 -0.17500
Br	Br	0.90657 0.63330 0.84595 -0.18000
Br	Br	0.66950 0.52642 0.90276 -0.17600
Br	Br	0.87618 0.39119 0.78388 -0.24400
Br	Br	0.86732 0.44253 0.02471 -0.25200
Br	Br	0.64600 0.20988 0.95341 -0.15400
Br	Br	0.09343 0.36670 0.34595 -0.18100
Br	Br	0.33050 0.47358 0.40276 -0.18100
Br	Br	0.12382 0.60881 0.28388 -0.24400
Br	Br	0.36732 0.05747 0.52471 -0.24200
Br	Br	0.14600 0.29012 0.45341 -0.17600
Br	Br	0.59343 0.13330 0.84595 -0.17800
Br	Br	0.83050 0.02642 0.90276 -0.16600
Br	Br	0.62382 0.89119 0.78388 -0.24300
Br	Br	0.63268 0.94253 0.02471 -0.24800
Br	Br	0.85400 0.70988 0.95341 -0.15900
Br	Br	0.40657 0.86670 0.34595 -0.18100
Br	Br	0.16950 0.97358 0.40276 -0.17500
Br	Br	0.37618 0.10881 0.28388 -0.24300
O 	O 	0.22160 0.40160 0.69260 -0.58600
O 	O 	0.08620 0.30580 0.71040 -0.49600
O 	O 	0.80270 0.24560 0.57360 -0.48400
O 	O 	0.73170 0.38760 0.56340 -0.52600
O 	O 	0.33400 0.59510 0.65510 -0.53700
O 	O 	0.45730 0.58590 0.59840 -0.55700
O 	O 	0.08000 0.89810 0.63530 -0.58400
O 	O 	0.01280 0.89160 0.56330 -0.48300
O 	O 	0.51960 0.57290 0.75110 -0.47300
O 	O 	0.57740 0.56900 0.67820 -0.59100
O 	O 	0.82970 0.87220 0.65810 -0.52100
O 	O 	0.95760 0.88320 0.71530 -0.53600
O 	O 	0.36700 0.44030 0.03060 -0.56200
O 	O 	0.21860 0.38360 0.99530 -0.49000
O 	O 	0.22120 0.35350 0.81940 -0.48600
O 	O 	0.36860 0.40500 0.78160 -0.55100
O 	O 	0.78380 0.56200 0.62070 -0.56800
O 	O 	0.92300 0.65720 0.60300 -0.48400
O 	O 	0.19410 0.71410 0.74190 -0.49900
O 	O 	0.27200 0.57870 0.75160 -0.53300
O 	O 	0.77840 0.59840 0.19260 -0.58600
O 	O 	0.91380 0.69420 0.21040 -0.49600
O 	O 	0.19730 0.75440 0.07360 -0.48600
O 	O 	0.26830 0.61240 0.06340 -0.52900
O 	O 	0.66600 0.40490 0.15510 -0.53700
O 	O 	0.54270 0.41410 0.09840 -0.55900
O 	O 	0.92000 0.10190 0.13530 -0.58500
O 	O 	0.98720 0.10840 0.06330 -0.48700
O 	O 	0.48040 0.42710 0.25110 -0.47300
O 	O 	0.42260 0.43100 0.17820 -0.59100
O 	O 	0.17030 0.12780 0.15810 -0.52100
O 	O 	0.04240 0.11680 0.21530 -0.53600
O 	O 	0.63300 0.55970 0.53060 -0.54400
O 	O 	0.78140 0.61640 0.49530 -0.49500
O 	O 	0.77880 0.64650 0.31940 -0.48700
O 	O 	0.63140 0.59500 0.28160 -0.55100
O 	O 	0.21620 0.43800 0.12070 -0.56800
O 	O 	0.07700 0.34280 0.10300 -0.48500
O 	O 	0.80590 0.28590 0.24190 -0.49900
O 	O 	0.72800 0.42130 0.25160 -0.53300
O 	O 	0.27840 0.90160 0.69260 -0.58600
O 	O 	0.41380 0.80580 0.71040 -0.49500
O 	O 	0.69730 0.74560 0.57360 -0.48400
O 	O 	0.76830 0.88760 0.56340 -0.52600
O 	O 	0.16600 0.09510 0.65510 -0.53700
O 	O 	0.04270 0.08590 0.59840 -0.55600
O 	O 	0.42000 0.39810 0.63530 -0.58500
O 	O 	0.48720 0.39160 0.56330 -0.48600
O 	O 	0.98040 0.07290 0.75110 -0.47000
O 	O 	0.92260 0.06900 0.67820 -0.58600
O 	O 	0.67030 0.37220 0.65810 -0.52200
O 	O 	0.54240 0.38320 0.71530 -0.53400
O 	O 	0.13300 0.94030 0.03060 -0.55400
O 	O 	0.28140 0.88360 0.99530 -0.49000
O 	O 	0.27880 0.85350 0.81940 -0.48600
O 	O 	0.13140 0.90500 0.78160 -0.55200
O 	O 	0.71620 0.06200 0.62070 -0.56500
O 	O 	0.57700 0.15720 0.60300 -0.48400
O 	O 	0.30590 0.21410 0.74190 -0.50000
O 	O 	0.22800 0.07870 0.75160 -0.53400
O 	O 	0.72160 0.09840 0.19260 -0.58700
O 	O 	0.58620 0.19420 0.21040 -0.49500
O 	O 	0.30270 0.25440 0.07360 -0.48700
O 	O 	0.23170 0.11240 0.06340 -0.52900
O 	O 	0.83400 0.90490 0.15510 -0.53700
O 	O 	0.95730 0.91410 0.09840 -0.55600
O 	O 	0.58000 0.60190 0.13530 -0.58600
O 	O 	0.51280 0.60840 0.06330 -0.48900
O 	O 	0.01960 0.92710 0.25110 -0.47000
O 	O 	0.07740 0.93100 0.17820 -0.58600
O 	O 	0.32970 0.62780 0.15810 -0.52200
O 	O 	0.45760 0.61680 0.21530 -0.53400
O 	O 	0.86700 0.05970 0.53060 -0.54100
O 	O 	0.71860 0.11640 0.49530 -0.49400
O 	O 	0.72120 0.14650 0.31940 -0.48600
O 	O 	0.86860 0.09500 0.28160 -0.55100
O 	O 	0.28380 0.93800 0.12070 -0.56400
O 	O 	0.42300 0.84280 0.10300 -0.48400
O 	O 	0.69410 0.78590 0.24190 -0.50000
O 	O 	0.77200 0.92130 0.25160 -0.53400
