data_crystal

_cell_length_a 17.69720
_cell_length_b 17.69720
_cell_length_c 76.39700
_cell_angle_alpha 90.00000
_cell_angle_beta  90.00000
_cell_angle_gamma 120.00000

_symmetry_space_group_name_	'P 1'
_symmetry_space_group_name_H-M	'P 1'

loop_
_symmetry_equiv_pos_as_xyz
  x,y,z

loop_
_atom_site_label
_atom_site_type_symbol
_atom_site_fract_x
_atom_site_fract_y
_atom_site_fract_z
_atom_site_charge
C 	C 	0.86110 0.83530 0.42061 0.33200
C 	C 	0.82990 0.85890 0.43692 -0.01100
C 	C 	0.75630 0.82190 0.44737 -0.02000
C 	C 	0.66860 0.74040 0.44818 0.32000
C 	C 	0.56940 0.73950 0.50545 0.30700
C 	C 	0.65110 0.73290 0.50676 -0.00300
C 	C 	0.68840 0.69630 0.51686 0.00300
C 	C 	0.66380 0.63770 0.53263 0.29500
Co	Co	0.67204 0.83991 0.47717 1.19000
N 	N 	0.88410 0.93640 0.44389 -0.16400
N 	N 	0.84940 0.95150 0.45789 -0.03500
N 	N 	0.77170 0.88230 0.45981 -0.17300
N 	N 	0.71130 0.77660 0.49366 -0.17800
N 	N 	0.77910 0.76630 0.49552 -0.03800
N 	N 	0.76640 0.71910 0.50938 -0.17900
O 	O 	0.93750 0.89300 0.41612 -0.32400
O 	O 	0.81440 0.76610 0.41309 -0.28600
O 	O 	0.64700 0.68220 0.43692 -0.27700
O 	O 	0.62070 0.73660 0.46083 -0.34200
O 	O 	0.56620 0.78170 0.49250 -0.34000
O 	O 	0.51260 0.70380 0.51642 -0.16900
O 	O 	0.59380 0.61330 0.53997 -0.17100
O 	O 	0.72150 0.61860 0.53710 -0.33600
C 	C 	0.52777 0.16863 0.75394 0.33400
C 	C 	0.49657 0.19223 0.77025 -0.02000
C 	C 	0.42297 0.15523 0.78070 -0.02400
C 	C 	0.33527 0.07373 0.78151 0.32000
C 	C 	0.23607 0.07283 0.83878 0.30400
C 	C 	0.31777 0.06623 0.84009 -0.00200
C 	C 	0.35507 0.02963 0.85019 -0.02800
C 	C 	0.33047 0.97103 0.86596 0.32400
Co	Co	0.33871 0.17324 0.81051 1.18800
N 	N 	0.55077 0.26973 0.77722 -0.17700
N 	N 	0.51607 0.28483 0.79122 -0.04500
N 	N 	0.43837 0.21563 0.79314 -0.17500
N 	N 	0.37797 0.10993 0.82699 -0.18000
N 	N 	0.44577 0.09963 0.82885 -0.04400
N 	N 	0.43307 0.05243 0.84271 -0.18100
O 	O 	0.60417 0.22633 0.74945 -0.35000
O 	O 	0.48107 0.09943 0.74642 -0.30100
O 	O 	0.31367 0.01553 0.77025 -0.29300
O 	O 	0.28737 0.06993 0.79416 -0.35100
O 	O 	0.23287 0.11503 0.82583 -0.35000
O 	O 	0.17927 0.03713 0.84975 -0.18700
O 	O 	0.26047 0.94663 0.87330 -0.17000
O 	O 	0.38817 0.95193 0.87043 -0.33100
C 	C 	0.19443 0.50197 0.08728 0.33700
C 	C 	0.16323 0.52557 0.10359 -0.02900
C 	C 	0.08963 0.48857 0.11404 -0.00500
C 	C 	0.00193 0.40707 0.11485 0.24500
C 	C 	0.90273 0.40617 0.17212 0.28600
C 	C 	0.98443 0.39957 0.17343 0.06400
C 	C 	0.02173 0.36297 0.18353 -0.07600
C 	C 	0.99713 0.30437 0.19930 0.37100
Co	Co	0.00537 0.50658 0.14384 1.17500
N 	N 	0.21743 0.60307 0.11056 -0.17500
N 	N 	0.18273 0.61817 0.12456 -0.04600
N 	N 	0.10503 0.54897 0.12648 -0.18100
N 	N 	0.04463 0.44327 0.16033 -0.20000
N 	N 	0.11243 0.43297 0.16219 -0.04400
N 	N 	0.09973 0.38577 0.17605 -0.17200
O 	O 	0.27083 0.55967 0.08279 -0.35000
O 	O 	0.14773 0.43277 0.07976 -0.30000
O 	O 	0.98033 0.34887 0.10359 -0.23500
O 	O 	0.95403 0.40327 0.12750 -0.30300
O 	O 	0.89953 0.44837 0.15917 -0.32900
O 	O 	0.84593 0.37047 0.18309 -0.16200
O 	O 	0.92713 0.27997 0.20664 -0.18800
O 	O 	0.05483 0.28527 0.20377 -0.37500
C 	C 	0.16470 0.02580 0.42061 0.30300
C 	C 	0.14110 0.97100 0.43692 0.01200
C 	C 	0.17810 0.93440 0.44737 -0.02600
C 	C 	0.25960 0.92820 0.44818 0.32300
C 	C 	0.26050 0.82990 0.50545 0.31600
C 	C 	0.26710 0.91820 0.50676 -0.02200
C 	C 	0.30370 0.99210 0.51686 0.06100
C 	C 	0.36230 0.02610 0.53263 0.22500
Co	Co	0.16009 0.83213 0.47717 1.18800
N 	N 	0.06360 0.94770 0.44389 -0.17700
N 	N 	0.04850 0.89790 0.45789 -0.04800
N 	N 	0.11770 0.88940 0.45981 -0.17500
N 	N 	0.22340 0.93470 0.49366 -0.16500
N 	N 	0.23370 0.01280 0.49552 -0.05800
N 	N 	0.28090 0.04730 0.50938 -0.20000
O 	O 	0.10700 0.04450 0.41612 -0.35600
O 	O 	0.23390 0.04830 0.41309 -0.29800
O 	O 	0.31780 0.96480 0.43692 -0.26800
O 	O 	0.26340 0.88410 0.46083 -0.34000
O 	O 	0.21830 0.78450 0.49250 -0.34700
O 	O 	0.29620 0.80880 0.51642 -0.17300
O 	O 	0.38670 0.98050 0.53997 -0.13300
O 	O 	0.38140 0.10290 0.53710 -0.32500
C 	C 	0.83137 0.35913 0.75394 0.33200
C 	C 	0.80777 0.30433 0.77025 -0.01600
C 	C 	0.84477 0.26773 0.78070 -0.01900
C 	C 	0.92627 0.26153 0.78151 0.31700
C 	C 	0.92717 0.16323 0.83878 0.31100
C 	C 	0.93377 0.25153 0.84009 -0.00900
C 	C 	0.97037 0.32543 0.85019 0.02700
C 	C 	0.02897 0.35943 0.86596 0.26900
Co	Co	0.82676 0.16546 0.81051 1.18900
N 	N 	0.73027 0.28103 0.77722 -0.17700
N 	N 	0.71517 0.23123 0.79122 -0.04600
N 	N 	0.78437 0.22273 0.79314 -0.17600
N 	N 	0.89007 0.26803 0.82699 -0.17700
N 	N 	0.90037 0.34613 0.82885 -0.04000
N 	N 	0.94757 0.38063 0.84271 -0.18000
O 	O 	0.77367 0.37783 0.74945 -0.34500
O 	O 	0.90057 0.38163 0.74642 -0.28100
O 	O 	0.98447 0.29813 0.77025 -0.26500
O 	O 	0.93007 0.21743 0.79416 -0.33800
O 	O 	0.88497 0.11783 0.82583 -0.34500
O 	O 	0.96287 0.14213 0.84975 -0.16700
O 	O 	0.05337 0.31383 0.87330 -0.17700
O 	O 	0.04807 0.43623 0.87043 -0.34200
C 	C 	0.49803 0.69247 0.08728 0.33300
C 	C 	0.47443 0.63767 0.10359 -0.01700
C 	C 	0.51143 0.60107 0.11404 -0.02000
C 	C 	0.59293 0.59487 0.11485 0.31900
C 	C 	0.59383 0.49657 0.17212 0.30700
C 	C 	0.60043 0.58487 0.17343 -0.00400
C 	C 	0.63703 0.65877 0.18353 0.00300
C 	C 	0.69563 0.69277 0.19930 0.29400
Co	Co	0.49342 0.49880 0.14384 1.18800
N 	N 	0.39693 0.61437 0.11056 -0.17600
N 	N 	0.38183 0.56457 0.12456 -0.04500
N 	N 	0.45103 0.55607 0.12648 -0.17500
N 	N 	0.55673 0.60137 0.16033 -0.17800
N 	N 	0.56703 0.67947 0.16219 -0.04100
N 	N 	0.61423 0.71397 0.17605 -0.18000
O 	O 	0.44033 0.71117 0.08279 -0.34600
O 	O 	0.56723 0.71497 0.07976 -0.29000
O 	O 	0.65113 0.63147 0.10359 -0.27600
O 	O 	0.59673 0.55077 0.12750 -0.34200
O 	O 	0.55163 0.45117 0.15917 -0.34300
O 	O 	0.62953 0.47547 0.18309 -0.17000
O 	O 	0.72003 0.64717 0.20664 -0.16700
O 	O 	0.71473 0.76957 0.20377 -0.33200
C 	C 	0.97420 0.13890 0.42061 0.36000
C 	C 	0.02900 0.17010 0.43692 -0.04700
C 	C 	0.06560 0.24370 0.44737 -0.01800
C 	C 	0.07180 0.33140 0.44818 0.31400
C 	C 	0.17010 0.43060 0.50545 0.29700
C 	C 	0.08180 0.34890 0.50676 0.01300
C 	C 	0.00790 0.31160 0.51686 -0.06000
C 	C 	0.97390 0.33620 0.53263 0.36800
Co	Co	0.16787 0.32796 0.47717 1.18700
N 	N 	0.05230 0.11590 0.44389 -0.18000
N 	N 	0.10210 0.15060 0.45789 -0.05200
N 	N 	0.11060 0.22830 0.45981 -0.17800
N 	N 	0.06530 0.28870 0.49366 -0.19300
N 	N 	0.98720 0.22090 0.49552 -0.02900
N 	N 	0.95270 0.23360 0.50938 -0.16100
O 	O 	0.95550 0.06250 0.41612 -0.35100
O 	O 	0.95170 0.18560 0.41309 -0.29100
O 	O 	0.03520 0.35300 0.43692 -0.28700
O 	O 	0.11590 0.37930 0.46083 -0.34600
O 	O 	0.21550 0.43380 0.49250 -0.34200
O 	O 	0.19120 0.48740 0.51642 -0.17000
O 	O 	0.01950 0.40620 0.53997 -0.21300
O 	O 	0.89710 0.27850 0.53710 -0.34900
C 	C 	0.64087 0.47223 0.75394 0.33400
C 	C 	0.69567 0.50343 0.77025 -0.01700
C 	C 	0.73227 0.57703 0.78070 -0.02000
C 	C 	0.73847 0.66473 0.78151 0.31900
C 	C 	0.83677 0.76393 0.83878 0.30500
C 	C 	0.74847 0.68223 0.84009 -0.00200
C 	C 	0.67457 0.64493 0.85019 0.00300
C 	C 	0.64057 0.66953 0.86596 0.29400
Co	Co	0.83454 0.66129 0.81051 1.18800
N 	N 	0.71897 0.44923 0.77722 -0.17600
N 	N 	0.76877 0.48393 0.79122 -0.04400
N 	N 	0.77727 0.56163 0.79314 -0.17500
N 	N 	0.73197 0.62203 0.82699 -0.17800
N 	N 	0.65387 0.55423 0.82885 -0.04200
N 	N 	0.61937 0.56693 0.84271 -0.18100
O 	O 	0.62217 0.39583 0.74945 -0.34800
O 	O 	0.61837 0.51893 0.74642 -0.29100
O 	O 	0.70187 0.68633 0.77025 -0.27400
O 	O 	0.78257 0.71263 0.79416 -0.33900
O 	O 	0.88217 0.76713 0.82583 -0.33400
O 	O 	0.85787 0.82073 0.84975 -0.15900
O 	O 	0.68617 0.73953 0.87330 -0.16800
O 	O 	0.56377 0.61183 0.87043 -0.33600
C 	C 	0.30753 0.80557 0.08728 0.33000
C 	C 	0.36233 0.83677 0.10359 -0.00800
C 	C 	0.39893 0.91037 0.11404 -0.03500
C 	C 	0.40513 0.99807 0.11485 0.38200
C 	C 	0.50343 0.09727 0.17212 0.32500
C 	C 	0.41513 0.01557 0.17343 -0.06600
C 	C 	0.34123 0.97827 0.18353 0.07100
C 	C 	0.30723 0.00287 0.19930 0.22600
Co	Co	0.50120 0.99463 0.14384 1.20000
N 	N 	0.38563 0.78257 0.11056 -0.17700
N 	N 	0.43543 0.81727 0.12456 -0.04400
N 	N 	0.44393 0.89497 0.12648 -0.17000
N 	N 	0.39863 0.95537 0.16033 -0.15900
N 	N 	0.32053 0.88757 0.16219 -0.04100
N 	N 	0.28603 0.90027 0.17605 -0.18900
O 	O 	0.28883 0.72917 0.08279 -0.34700
O 	O 	0.28503 0.85227 0.07976 -0.28600
O 	O 	0.36853 0.01967 0.10359 -0.31600
O 	O 	0.44923 0.04597 0.12750 -0.37800
O 	O 	0.54883 0.10047 0.15917 -0.35500
O 	O 	0.52453 0.15407 0.18309 -0.18000
O 	O 	0.35283 0.07287 0.20664 -0.16200
O 	O 	0.23043 0.94517 0.20377 -0.30500
C 	C 	0.83530 0.86110 0.07939 0.33200
C 	C 	0.85890 0.82990 0.06308 -0.01100
C 	C 	0.82190 0.75630 0.05263 -0.02000
C 	C 	0.74040 0.66860 0.05182 0.32000
C 	C 	0.73950 0.56940 0.99455 0.30700
C 	C 	0.73290 0.65110 0.99324 -0.00300
C 	C 	0.69630 0.68840 0.98314 0.00300
C 	C 	0.63770 0.66380 0.96737 0.29500
Co	Co	0.83991 0.67204 0.02283 1.19000
N 	N 	0.93640 0.88410 0.05611 -0.16400
N 	N 	0.95150 0.84940 0.04211 -0.03500
N 	N 	0.88230 0.77170 0.04019 -0.17300
N 	N 	0.77660 0.71130 0.00634 -0.17800
N 	N 	0.76630 0.77910 0.00448 -0.03800
N 	N 	0.71910 0.76640 0.99062 -0.17900
O 	O 	0.89300 0.93750 0.08388 -0.32400
O 	O 	0.76610 0.81440 0.08691 -0.28600
O 	O 	0.68220 0.64700 0.06308 -0.27700
O 	O 	0.73660 0.62070 0.03917 -0.34200
O 	O 	0.78170 0.56620 0.00750 -0.34000
O 	O 	0.70380 0.51260 0.98358 -0.16900
O 	O 	0.61330 0.59380 0.96003 -0.17100
O 	O 	0.61860 0.72150 0.96290 -0.33600
C 	C 	0.50197 0.19443 0.41272 0.33700
C 	C 	0.52557 0.16323 0.39641 -0.02900
C 	C 	0.48857 0.08963 0.38596 -0.00500
C 	C 	0.40707 0.00193 0.38515 0.24500
C 	C 	0.40617 0.90273 0.32788 0.28600
C 	C 	0.39957 0.98443 0.32657 0.06400
C 	C 	0.36297 0.02173 0.31647 -0.07600
C 	C 	0.30437 0.99713 0.30070 0.37100
Co	Co	0.50658 0.00537 0.35616 1.17500
N 	N 	0.60307 0.21743 0.38944 -0.17500
N 	N 	0.61817 0.18273 0.37544 -0.04600
N 	N 	0.54897 0.10503 0.37352 -0.18100
N 	N 	0.44327 0.04463 0.33967 -0.20000
N 	N 	0.43297 0.11243 0.33781 -0.04400
N 	N 	0.38577 0.09973 0.32395 -0.17200
O 	O 	0.55967 0.27083 0.41721 -0.35000
O 	O 	0.43277 0.14773 0.42024 -0.30000
O 	O 	0.34887 0.98033 0.39641 -0.23500
O 	O 	0.40327 0.95403 0.37250 -0.30300
O 	O 	0.44837 0.89953 0.34083 -0.32900
O 	O 	0.37047 0.84593 0.31691 -0.16200
O 	O 	0.27997 0.92713 0.29336 -0.18800
O 	O 	0.28527 0.05483 0.29623 -0.37500
C 	C 	0.16863 0.52777 0.74606 0.33400
C 	C 	0.19223 0.49657 0.72975 -0.02000
C 	C 	0.15523 0.42297 0.71930 -0.02400
C 	C 	0.07373 0.33527 0.71849 0.32000
C 	C 	0.07283 0.23607 0.66122 0.30400
C 	C 	0.06623 0.31777 0.65991 -0.00200
C 	C 	0.02963 0.35507 0.64981 -0.02800
C 	C 	0.97103 0.33047 0.63404 0.32400
Co	Co	0.17324 0.33871 0.68949 1.18800
N 	N 	0.26973 0.55077 0.72278 -0.17700
N 	N 	0.28483 0.51607 0.70878 -0.04500
N 	N 	0.21563 0.43837 0.70686 -0.17500
N 	N 	0.10993 0.37797 0.67301 -0.18000
N 	N 	0.09963 0.44577 0.67115 -0.04400
N 	N 	0.05243 0.43307 0.65729 -0.18100
O 	O 	0.22633 0.60417 0.75055 -0.35000
O 	O 	0.09943 0.48107 0.75358 -0.30100
O 	O 	0.01553 0.31367 0.72975 -0.29300
O 	O 	0.06993 0.28737 0.70584 -0.35100
O 	O 	0.11503 0.23287 0.67417 -0.35000
O 	O 	0.03713 0.17927 0.65025 -0.18700
O 	O 	0.94663 0.26047 0.62670 -0.17000
O 	O 	0.95193 0.38817 0.62957 -0.33100
C 	C 	0.02580 0.16470 0.07939 0.30300
C 	C 	0.97100 0.14110 0.06308 0.01200
C 	C 	0.93440 0.17810 0.05263 -0.02600
C 	C 	0.92820 0.25960 0.05182 0.32300
C 	C 	0.82990 0.26050 0.99455 0.31600
C 	C 	0.91820 0.26710 0.99324 -0.02200
C 	C 	0.99210 0.30370 0.98314 0.06100
C 	C 	0.02610 0.36230 0.96737 0.22500
Co	Co	0.83213 0.16009 0.02283 1.18800
N 	N 	0.94770 0.06360 0.05611 -0.17700
N 	N 	0.89790 0.04850 0.04211 -0.04800
N 	N 	0.88940 0.11770 0.04019 -0.17500
N 	N 	0.93470 0.22340 0.00634 -0.16500
N 	N 	0.01280 0.23370 0.00448 -0.05800
N 	N 	0.04730 0.28090 0.99062 -0.20000
O 	O 	0.04450 0.10700 0.08388 -0.35600
O 	O 	0.04830 0.23390 0.08691 -0.29800
O 	O 	0.96480 0.31780 0.06308 -0.26800
O 	O 	0.88410 0.26340 0.03917 -0.34000
O 	O 	0.78450 0.21830 0.00750 -0.34700
O 	O 	0.80880 0.29620 0.98358 -0.17300
O 	O 	0.98050 0.38670 0.96003 -0.13300
O 	O 	0.10290 0.38140 0.96290 -0.32500
C 	C 	0.69247 0.49803 0.41272 0.33300
C 	C 	0.63767 0.47443 0.39641 -0.01700
C 	C 	0.60107 0.51143 0.38596 -0.02000
C 	C 	0.59487 0.59293 0.38515 0.31900
C 	C 	0.49657 0.59383 0.32788 0.30700
C 	C 	0.58487 0.60043 0.32657 -0.00400
C 	C 	0.65877 0.63703 0.31647 0.00300
C 	C 	0.69277 0.69563 0.30070 0.29400
Co	Co	0.49880 0.49342 0.35616 1.18800
N 	N 	0.61437 0.39693 0.38944 -0.17600
N 	N 	0.56457 0.38183 0.37544 -0.04500
N 	N 	0.55607 0.45103 0.37352 -0.17500
N 	N 	0.60137 0.55673 0.33967 -0.17800
N 	N 	0.67947 0.56703 0.33781 -0.04100
N 	N 	0.71397 0.61423 0.32395 -0.18000
O 	O 	0.71117 0.44033 0.41721 -0.34600
O 	O 	0.71497 0.56723 0.42024 -0.29000
O 	O 	0.63147 0.65113 0.39641 -0.27600
O 	O 	0.55077 0.59673 0.37250 -0.34200
O 	O 	0.45117 0.55163 0.34083 -0.34300
O 	O 	0.47547 0.62953 0.31691 -0.17000
O 	O 	0.64717 0.72003 0.29336 -0.16700
O 	O 	0.76957 0.71473 0.29623 -0.33200
C 	C 	0.35913 0.83137 0.74606 0.33200
C 	C 	0.30433 0.80777 0.72975 -0.01600
C 	C 	0.26773 0.84477 0.71930 -0.01900
C 	C 	0.26153 0.92627 0.71849 0.31700
C 	C 	0.16323 0.92717 0.66122 0.31100
C 	C 	0.25153 0.93377 0.65991 -0.00900
C 	C 	0.32543 0.97037 0.64981 0.02700
C 	C 	0.35943 0.02897 0.63404 0.26900
Co	Co	0.16546 0.82676 0.68949 1.18900
N 	N 	0.28103 0.73027 0.72278 -0.17700
N 	N 	0.23123 0.71517 0.70878 -0.04600
N 	N 	0.22273 0.78437 0.70686 -0.17600
N 	N 	0.26803 0.89007 0.67301 -0.17700
N 	N 	0.34613 0.90037 0.67115 -0.04000
N 	N 	0.38063 0.94757 0.65729 -0.18000
O 	O 	0.37783 0.77367 0.75055 -0.34500
O 	O 	0.38163 0.90057 0.75358 -0.28100
O 	O 	0.29813 0.98447 0.72975 -0.26500
O 	O 	0.21743 0.93007 0.70584 -0.33800
O 	O 	0.11783 0.88497 0.67417 -0.34500
O 	O 	0.14213 0.96287 0.65025 -0.16700
O 	O 	0.31383 0.05337 0.62670 -0.17700
O 	O 	0.43623 0.04807 0.62957 -0.34200
C 	C 	0.13890 0.97420 0.07939 0.36000
C 	C 	0.17010 0.02900 0.06308 -0.04700
C 	C 	0.24370 0.06560 0.05263 -0.01800
C 	C 	0.33140 0.07180 0.05182 0.31400
C 	C 	0.43060 0.17010 0.99455 0.29700
C 	C 	0.34890 0.08180 0.99324 0.01300
C 	C 	0.31160 0.00790 0.98314 -0.06000
C 	C 	0.33620 0.97390 0.96737 0.36800
Co	Co	0.32796 0.16787 0.02283 1.18700
N 	N 	0.11590 0.05230 0.05611 -0.18000
N 	N 	0.15060 0.10210 0.04211 -0.05200
N 	N 	0.22830 0.11060 0.04019 -0.17800
N 	N 	0.28870 0.06530 0.00634 -0.19300
N 	N 	0.22090 0.98720 0.00448 -0.02900
N 	N 	0.23360 0.95270 0.99062 -0.16100
O 	O 	0.06250 0.95550 0.08388 -0.35100
O 	O 	0.18560 0.95170 0.08691 -0.29100
O 	O 	0.35300 0.03520 0.06308 -0.28700
O 	O 	0.37930 0.11590 0.03917 -0.34600
O 	O 	0.43380 0.21550 0.00750 -0.34200
O 	O 	0.48740 0.19120 0.98358 -0.17000
O 	O 	0.40620 0.01950 0.96003 -0.21300
O 	O 	0.27850 0.89710 0.96290 -0.34900
C 	C 	0.80557 0.30753 0.41272 0.33000
C 	C 	0.83677 0.36233 0.39641 -0.00800
C 	C 	0.91037 0.39893 0.38596 -0.03500
C 	C 	0.99807 0.40513 0.38515 0.38200
C 	C 	0.09727 0.50343 0.32788 0.32500
C 	C 	0.01557 0.41513 0.32657 -0.06600
C 	C 	0.97827 0.34123 0.31647 0.07100
C 	C 	0.00287 0.30723 0.30070 0.22600
Co	Co	0.99463 0.50120 0.35616 1.20000
N 	N 	0.78257 0.38563 0.38944 -0.17700
N 	N 	0.81727 0.43543 0.37544 -0.04400
N 	N 	0.89497 0.44393 0.37352 -0.17000
N 	N 	0.95537 0.39863 0.33967 -0.15900
N 	N 	0.88757 0.32053 0.33781 -0.04100
N 	N 	0.90027 0.28603 0.32395 -0.18900
O 	O 	0.72917 0.28883 0.41721 -0.34700
O 	O 	0.85227 0.28503 0.42024 -0.28600
O 	O 	0.01967 0.36853 0.39641 -0.31600
O 	O 	0.04597 0.44923 0.37250 -0.37800
O 	O 	0.10047 0.54883 0.34083 -0.35500
O 	O 	0.15407 0.52453 0.31691 -0.18000
O 	O 	0.07287 0.35283 0.29336 -0.16200
O 	O 	0.94517 0.23043 0.29623 -0.30500
C 	C 	0.47223 0.64087 0.74606 0.33400
C 	C 	0.50343 0.69567 0.72975 -0.01700
C 	C 	0.57703 0.73227 0.71930 -0.02000
C 	C 	0.66473 0.73847 0.71849 0.31900
C 	C 	0.76393 0.83677 0.66122 0.30500
C 	C 	0.68223 0.74847 0.65991 -0.00200
C 	C 	0.64493 0.67457 0.64981 0.00300
C 	C 	0.66953 0.64057 0.63404 0.29400
Co	Co	0.66129 0.83454 0.68949 1.18800
N 	N 	0.44923 0.71897 0.72278 -0.17600
N 	N 	0.48393 0.76877 0.70878 -0.04400
N 	N 	0.56163 0.77727 0.70686 -0.17500
N 	N 	0.62203 0.73197 0.67301 -0.17800
N 	N 	0.55423 0.65387 0.67115 -0.04200
N 	N 	0.56693 0.61937 0.65729 -0.18100
O 	O 	0.39583 0.62217 0.75055 -0.34800
O 	O 	0.51893 0.61837 0.75358 -0.29100
O 	O 	0.68633 0.70187 0.72975 -0.27400
O 	O 	0.71263 0.78257 0.70584 -0.33900
O 	O 	0.76713 0.88217 0.67417 -0.33400
O 	O 	0.82073 0.85787 0.65025 -0.15900
O 	O 	0.73953 0.68617 0.62670 -0.16800
O 	O 	0.61183 0.56377 0.62957 -0.33600
C 	C 	0.13890 0.16470 0.57939 0.33400
C 	C 	0.17010 0.14110 0.56308 -0.02200
C 	C 	0.24370 0.17810 0.55263 -0.02200
C 	C 	0.33140 0.25960 0.55182 0.31800
C 	C 	0.43060 0.26050 0.49455 0.30700
C 	C 	0.34890 0.26710 0.49324 -0.00600
C 	C 	0.31160 0.30370 0.48314 0.00100
C 	C 	0.33620 0.36230 0.46737 0.29400
Co	Co	0.32796 0.16009 0.52283 1.18600
N 	N 	0.11590 0.06360 0.55611 -0.18400
N 	N 	0.15060 0.04850 0.54211 -0.05500
N 	N 	0.22830 0.11770 0.54019 -0.17800
N 	N 	0.28870 0.22340 0.50634 -0.17900
N 	N 	0.22090 0.23370 0.50448 -0.04500
N 	N 	0.23360 0.28090 0.49062 -0.18200
O 	O 	0.06250 0.10700 0.58388 -0.36500
O 	O 	0.18560 0.23390 0.58691 -0.29700
O 	O 	0.35300 0.31780 0.56308 -0.27900
O 	O 	0.37930 0.26340 0.53917 -0.34400
O 	O 	0.43380 0.21830 0.50750 -0.34500
O 	O 	0.48740 0.29620 0.48358 -0.17200
O 	O 	0.40620 0.38670 0.46003 -0.17300
O 	O 	0.27850 0.38140 0.46290 -0.33700
C 	C 	0.80557 0.49803 0.91272 0.33000
C 	C 	0.83677 0.47443 0.89641 -0.00800
C 	C 	0.91037 0.51143 0.88596 -0.03400
C 	C 	0.99807 0.59293 0.88515 0.38000
C 	C 	0.09727 0.59383 0.82788 0.32400
C 	C 	0.01557 0.60043 0.82657 -0.06300
C 	C 	0.97827 0.63703 0.81647 0.06900
C 	C 	0.00287 0.69563 0.80070 0.22900
Co	Co	0.99463 0.49342 0.85616 1.20000
N 	N 	0.78257 0.39693 0.88944 -0.17700
N 	N 	0.81727 0.38183 0.87544 -0.04400
N 	N 	0.89497 0.45103 0.87352 -0.17000
N 	N 	0.95537 0.55673 0.83967 -0.16000
N 	N 	0.88757 0.56703 0.83781 -0.04000
N 	N 	0.90027 0.61423 0.82395 -0.18800
O 	O 	0.72917 0.44033 0.91721 -0.34600
O 	O 	0.85227 0.56723 0.92024 -0.28400
O 	O 	0.01967 0.65113 0.89641 -0.31200
O 	O 	0.04597 0.59673 0.87250 -0.37600
O 	O 	0.10047 0.55163 0.84083 -0.35500
O 	O 	0.15407 0.62953 0.81691 -0.17800
O 	O 	0.07287 0.72003 0.79336 -0.15700
O 	O 	0.94517 0.71473 0.79623 -0.30200
C 	C 	0.47223 0.83137 0.24606 0.33200
C 	C 	0.50343 0.80777 0.22975 -0.01500
C 	C 	0.57703 0.84477 0.21930 -0.01800
C 	C 	0.66473 0.92627 0.21849 0.31800
C 	C 	0.76393 0.92717 0.16122 0.30900
C 	C 	0.68223 0.93377 0.15991 -0.00600
C 	C 	0.64493 0.97037 0.14981 0.02700
C 	C 	0.66953 0.02897 0.13404 0.27000
Co	Co	0.66129 0.82676 0.18949 1.18900
N 	N 	0.44923 0.73027 0.22278 -0.17700
N 	N 	0.48393 0.71517 0.20878 -0.04500
N 	N 	0.56163 0.78437 0.20686 -0.17500
N 	N 	0.62203 0.89007 0.17301 -0.17700
N 	N 	0.55423 0.90037 0.17115 -0.03900
N 	N 	0.56693 0.94757 0.15729 -0.18000
O 	O 	0.39583 0.77367 0.25055 -0.34500
O 	O 	0.51893 0.90057 0.25358 -0.28100
O 	O 	0.68633 0.98447 0.22975 -0.26300
O 	O 	0.71263 0.93007 0.20584 -0.33400
O 	O 	0.76713 0.88497 0.17417 -0.33600
O 	O 	0.82073 0.96287 0.15025 -0.15600
O 	O 	0.73953 0.05337 0.12670 -0.17200
O 	O 	0.61183 0.04807 0.12957 -0.34100
C 	C 	0.83530 0.97420 0.57939 0.35600
C 	C 	0.85890 0.02900 0.56308 -0.03800
C 	C 	0.82190 0.06560 0.55263 -0.01800
C 	C 	0.74040 0.07180 0.55182 0.31600
C 	C 	0.73950 0.17010 0.49455 0.29800
C 	C 	0.73290 0.08180 0.49324 0.01300
C 	C 	0.69630 0.00790 0.48314 -0.05600
C 	C 	0.63770 0.97390 0.46737 0.36400
Co	Co	0.83991 0.16787 0.52283 1.18900
N 	N 	0.93640 0.05230 0.55611 -0.16900
N 	N 	0.95150 0.10210 0.54211 -0.04000
N 	N 	0.88230 0.11060 0.54019 -0.17500
N 	N 	0.77660 0.06530 0.50634 -0.19100
N 	N 	0.76630 0.98720 0.50448 -0.02700
N 	N 	0.71910 0.95270 0.49062 -0.16100
O 	O 	0.89300 0.95550 0.58388 -0.33100
O 	O 	0.76610 0.95170 0.58691 -0.28500
O 	O 	0.68220 0.03520 0.56308 -0.28600
O 	O 	0.73660 0.11590 0.53917 -0.34500
O 	O 	0.78170 0.21550 0.50750 -0.33900
O 	O 	0.70380 0.19120 0.48358 -0.16900
O 	O 	0.61330 0.01950 0.46003 -0.21100
O 	O 	0.61860 0.89710 0.46290 -0.34700
C 	C 	0.50197 0.30753 0.91272 0.33300
C 	C 	0.52557 0.36233 0.89641 -0.01800
C 	C 	0.48857 0.39893 0.88596 -0.02100
C 	C 	0.40707 0.40513 0.88515 0.31900
C 	C 	0.40617 0.50343 0.82788 0.30700
C 	C 	0.39957 0.41513 0.82657 -0.00500
C 	C 	0.36297 0.34123 0.81647 0.00000
C 	C 	0.30437 0.30723 0.80070 0.29500
Co	Co	0.50658 0.50120 0.85616 1.18800
N 	N 	0.60307 0.38563 0.88944 -0.17600
N 	N 	0.61817 0.43543 0.87544 -0.04500
N 	N 	0.54897 0.44393 0.87352 -0.17500
N 	N 	0.44327 0.39863 0.83967 -0.17900
N 	N 	0.43297 0.32053 0.83781 -0.04200
N 	N 	0.38577 0.28603 0.82395 -0.18100
O 	O 	0.55967 0.28883 0.91721 -0.34900
O 	O 	0.43277 0.28503 0.92024 -0.29400
O 	O 	0.34887 0.36853 0.89641 -0.28000
O 	O 	0.40327 0.44923 0.87250 -0.34400
O 	O 	0.44837 0.54883 0.84083 -0.34300
O 	O 	0.37047 0.52453 0.81691 -0.17200
O 	O 	0.27997 0.35283 0.79336 -0.17700
O 	O 	0.28527 0.23043 0.79623 -0.34100
C 	C 	0.16863 0.64087 0.24606 0.33400
C 	C 	0.19223 0.69567 0.22975 -0.01900
C 	C 	0.15523 0.73227 0.21930 -0.02300
C 	C 	0.07373 0.73847 0.21849 0.32000
C 	C 	0.07283 0.83677 0.16122 0.30300
C 	C 	0.06623 0.74847 0.15991 0.00100
C 	C 	0.02963 0.67457 0.14981 -0.02600
C 	C 	0.97103 0.64057 0.13404 0.32200
Co	Co	0.17324 0.83454 0.18949 1.18800
N 	N 	0.26973 0.71897 0.22278 -0.17600
N 	N 	0.28483 0.76877 0.20878 -0.04400
N 	N 	0.21563 0.77727 0.20686 -0.17500
N 	N 	0.10993 0.73197 0.17301 -0.18000
N 	N 	0.09963 0.65387 0.17115 -0.04400
N 	N 	0.05243 0.61937 0.15729 -0.18100
O 	O 	0.22633 0.62217 0.25055 -0.35000
O 	O 	0.09943 0.61837 0.25358 -0.30000
O 	O 	0.01553 0.70187 0.22975 -0.28800
O 	O 	0.06993 0.78257 0.20584 -0.34700
O 	O 	0.11503 0.88217 0.17417 -0.34000
O 	O 	0.03713 0.85787 0.15025 -0.17400
O 	O 	0.94663 0.68617 0.12670 -0.16700
O 	O 	0.95193 0.56377 0.12957 -0.33000
C 	C 	0.02580 0.86110 0.57939 0.30500
C 	C 	0.97100 0.82990 0.56308 0.01400
C 	C 	0.93440 0.75630 0.55263 -0.02400
C 	C 	0.92820 0.66860 0.55182 0.32300
C 	C 	0.82990 0.56940 0.49455 0.31500
C 	C 	0.91820 0.65110 0.49324 -0.02000
C 	C 	0.99210 0.68840 0.48314 0.05800
C 	C 	0.02610 0.66380 0.46737 0.22900
Co	Co	0.83213 0.67204 0.52283 1.19000
N 	N 	0.94770 0.88410 0.55611 -0.16800
N 	N 	0.89790 0.84940 0.54211 -0.03900
N 	N 	0.88940 0.77170 0.54019 -0.17200
N 	N 	0.93470 0.71130 0.50634 -0.16500
N 	N 	0.01280 0.77910 0.50448 -0.05300
N 	N 	0.04730 0.76640 0.49062 -0.19800
O 	O 	0.04450 0.93750 0.58388 -0.33600
O 	O 	0.04830 0.81440 0.58691 -0.29200
O 	O 	0.96480 0.64700 0.56308 -0.26700
O 	O 	0.88410 0.62070 0.53917 -0.33900
O 	O 	0.78450 0.56620 0.50750 -0.34400
O 	O 	0.80880 0.51260 0.48358 -0.17100
O 	O 	0.98050 0.59380 0.46003 -0.13500
O 	O 	0.10290 0.72150 0.46290 -0.32500
C 	C 	0.69247 0.19443 0.91272 0.33700
C 	C 	0.63767 0.16323 0.89641 -0.02800
C 	C 	0.60107 0.08963 0.88596 -0.00500
C 	C 	0.59487 0.00193 0.88515 0.24700
C 	C 	0.49657 0.90273 0.82788 0.28700
C 	C 	0.58487 0.98443 0.82657 0.06200
C 	C 	0.65877 0.02173 0.81647 -0.07200
C 	C 	0.69277 0.99713 0.80070 0.36600
Co	Co	0.49880 0.00537 0.85616 1.17500
N 	N 	0.61437 0.21743 0.88944 -0.17500
N 	N 	0.56457 0.18273 0.87544 -0.04600
N 	N 	0.55607 0.10503 0.87352 -0.18100
N 	N 	0.60137 0.04463 0.83967 -0.20000
N 	N 	0.67947 0.11243 0.83781 -0.04300
N 	N 	0.71397 0.09973 0.82395 -0.17200
O 	O 	0.71117 0.27083 0.91721 -0.34800
O 	O 	0.71497 0.14773 0.92024 -0.29800
O 	O 	0.63147 0.98033 0.89641 -0.23500
O 	O 	0.55077 0.95403 0.87250 -0.30300
O 	O 	0.45117 0.89953 0.84083 -0.32900
O 	O 	0.47547 0.84593 0.81691 -0.16100
O 	O 	0.64717 0.92713 0.79336 -0.18300
O 	O 	0.76957 0.05483 0.79623 -0.36800
C 	C 	0.35913 0.52777 0.24606 0.33300
C 	C 	0.30433 0.49657 0.22975 -0.01800
C 	C 	0.26773 0.42297 0.21930 -0.02200
C 	C 	0.26153 0.33527 0.21849 0.31900
C 	C 	0.16323 0.23607 0.16122 0.30800
C 	C 	0.25153 0.31777 0.15991 -0.00700
C 	C 	0.32543 0.35507 0.14981 0.00100
C 	C 	0.35943 0.33047 0.13404 0.29500
Co	Co	0.16546 0.33871 0.18949 1.18800
N 	N 	0.28103 0.55077 0.22278 -0.17700
N 	N 	0.23123 0.51607 0.20878 -0.04700
N 	N 	0.22273 0.43837 0.20686 -0.17600
N 	N 	0.26803 0.37797 0.17301 -0.17900
N 	N 	0.34613 0.44577 0.17115 -0.04200
N 	N 	0.38063 0.43307 0.15729 -0.18100
O 	O 	0.37783 0.60417 0.25055 -0.34700
O 	O 	0.38163 0.48107 0.25358 -0.29200
O 	O 	0.29813 0.31367 0.22975 -0.28200
O 	O 	0.21743 0.28737 0.20584 -0.34700
O 	O 	0.11783 0.23287 0.17417 -0.35200
O 	O 	0.14213 0.17927 0.15025 -0.18300
O 	O 	0.31383 0.26047 0.12670 -0.17600
O 	O 	0.43623 0.38817 0.12957 -0.33700
C 	C 	0.16470 0.13890 0.92061 0.33400
C 	C 	0.14110 0.17010 0.93692 -0.02200
C 	C 	0.17810 0.24370 0.94737 -0.02200
C 	C 	0.25960 0.33140 0.94818 0.31800
C 	C 	0.26050 0.43060 0.00545 0.30700
C 	C 	0.26710 0.34890 0.00676 -0.00600
C 	C 	0.30370 0.31160 0.01686 0.00100
C 	C 	0.36230 0.33620 0.03263 0.29400
Co	Co	0.16009 0.32796 0.97717 1.18600
N 	N 	0.06360 0.11590 0.94389 -0.18400
N 	N 	0.04850 0.15060 0.95789 -0.05500
N 	N 	0.11770 0.22830 0.95981 -0.17800
N 	N 	0.22340 0.28870 0.99366 -0.17900
N 	N 	0.23370 0.22090 0.99552 -0.04500
N 	N 	0.28090 0.23360 0.00938 -0.18200
O 	O 	0.10700 0.06250 0.91612 -0.36500
O 	O 	0.23390 0.18560 0.91309 -0.29700
O 	O 	0.31780 0.35300 0.93692 -0.27900
O 	O 	0.26340 0.37930 0.96083 -0.34400
O 	O 	0.21830 0.43380 0.99250 -0.34500
O 	O 	0.29620 0.48740 0.01642 -0.17200
O 	O 	0.38670 0.40620 0.03997 -0.17300
O 	O 	0.38140 0.27850 0.03710 -0.33700
C 	C 	0.83137 0.47223 0.25394 0.33200
C 	C 	0.80777 0.50343 0.27025 -0.01500
C 	C 	0.84477 0.57703 0.28070 -0.01800
C 	C 	0.92627 0.66473 0.28151 0.31800
C 	C 	0.92717 0.76393 0.33878 0.30900
C 	C 	0.93377 0.68223 0.34009 -0.00600
C 	C 	0.97037 0.64493 0.35019 0.02700
C 	C 	0.02897 0.66953 0.36596 0.27000
Co	Co	0.82676 0.66129 0.31051 1.18900
N 	N 	0.73027 0.44923 0.27722 -0.17700
N 	N 	0.71517 0.48393 0.29122 -0.04500
N 	N 	0.78437 0.56163 0.29314 -0.17500
N 	N 	0.89007 0.62203 0.32699 -0.17700
N 	N 	0.90037 0.55423 0.32885 -0.03900
N 	N 	0.94757 0.56693 0.34271 -0.18000
O 	O 	0.77367 0.39583 0.24945 -0.34500
O 	O 	0.90057 0.51893 0.24642 -0.28100
O 	O 	0.98447 0.68633 0.27025 -0.26300
O 	O 	0.93007 0.71263 0.29416 -0.33400
O 	O 	0.88497 0.76713 0.32583 -0.33600
O 	O 	0.96287 0.82073 0.34975 -0.15600
O 	O 	0.05337 0.73953 0.37330 -0.17200
O 	O 	0.04807 0.61183 0.37043 -0.34100
C 	C 	0.49803 0.80557 0.58728 0.33000
C 	C 	0.47443 0.83677 0.60359 -0.00800
C 	C 	0.51143 0.91037 0.61404 -0.03400
C 	C 	0.59293 0.99807 0.61485 0.38000
C 	C 	0.59383 0.09727 0.67212 0.32400
C 	C 	0.60043 0.01557 0.67343 -0.06300
C 	C 	0.63703 0.97827 0.68353 0.06900
C 	C 	0.69563 0.00287 0.69930 0.22900
Co	Co	0.49342 0.99463 0.64384 1.20000
N 	N 	0.39693 0.78257 0.61056 -0.17700
N 	N 	0.38183 0.81727 0.62456 -0.04400
N 	N 	0.45103 0.89497 0.62648 -0.17000
N 	N 	0.55673 0.95537 0.66033 -0.16000
N 	N 	0.56703 0.88757 0.66219 -0.04000
N 	N 	0.61423 0.90027 0.67605 -0.18800
O 	O 	0.44033 0.72917 0.58279 -0.34600
O 	O 	0.56723 0.85227 0.57976 -0.28400
O 	O 	0.65113 0.01967 0.60359 -0.31200
O 	O 	0.59673 0.04597 0.62750 -0.37600
O 	O 	0.55163 0.10047 0.65917 -0.35500
O 	O 	0.62953 0.15407 0.68309 -0.17800
O 	O 	0.72003 0.07287 0.70664 -0.15700
O 	O 	0.71473 0.94517 0.70377 -0.30200
C 	C 	0.97420 0.83530 0.92061 0.35600
C 	C 	0.02900 0.85890 0.93692 -0.03800
C 	C 	0.06560 0.82190 0.94737 -0.01800
C 	C 	0.07180 0.74040 0.94818 0.31600
C 	C 	0.17010 0.73950 0.00545 0.29800
C 	C 	0.08180 0.73290 0.00676 0.01300
C 	C 	0.00790 0.69630 0.01686 -0.05600
C 	C 	0.97390 0.63770 0.03263 0.36400
Co	Co	0.16787 0.83991 0.97717 1.18900
N 	N 	0.05230 0.93640 0.94389 -0.16900
N 	N 	0.10210 0.95150 0.95789 -0.04000
N 	N 	0.11060 0.88230 0.95981 -0.17500
N 	N 	0.06530 0.77660 0.99366 -0.19100
N 	N 	0.98720 0.76630 0.99552 -0.02700
N 	N 	0.95270 0.71910 0.00938 -0.16100
O 	O 	0.95550 0.89300 0.91612 -0.33100
O 	O 	0.95170 0.76610 0.91309 -0.28500
O 	O 	0.03520 0.68220 0.93692 -0.28600
O 	O 	0.11590 0.73660 0.96083 -0.34500
O 	O 	0.21550 0.78170 0.99250 -0.33900
O 	O 	0.19120 0.70380 0.01642 -0.16900
O 	O 	0.01950 0.61330 0.03997 -0.21100
O 	O 	0.89710 0.61860 0.03710 -0.34700
C 	C 	0.64087 0.16863 0.25394 0.33400
C 	C 	0.69567 0.19223 0.27025 -0.01900
C 	C 	0.73227 0.15523 0.28070 -0.02300
C 	C 	0.73847 0.07373 0.28151 0.32000
C 	C 	0.83677 0.07283 0.33878 0.30300
C 	C 	0.74847 0.06623 0.34009 0.00100
C 	C 	0.67457 0.02963 0.35019 -0.02600
C 	C 	0.64057 0.97103 0.36596 0.32200
Co	Co	0.83454 0.17324 0.31051 1.18800
N 	N 	0.71897 0.26973 0.27722 -0.17600
N 	N 	0.76877 0.28483 0.29122 -0.04400
N 	N 	0.77727 0.21563 0.29314 -0.17500
N 	N 	0.73197 0.10993 0.32699 -0.18000
N 	N 	0.65387 0.09963 0.32885 -0.04400
N 	N 	0.61937 0.05243 0.34271 -0.18100
O 	O 	0.62217 0.22633 0.24945 -0.35000
O 	O 	0.61837 0.09943 0.24642 -0.30000
O 	O 	0.70187 0.01553 0.27025 -0.28800
O 	O 	0.78257 0.06993 0.29416 -0.34700
O 	O 	0.88217 0.11503 0.32583 -0.34000
O 	O 	0.85787 0.03713 0.34975 -0.17400
O 	O 	0.68617 0.94663 0.37330 -0.16700
O 	O 	0.56377 0.95193 0.37043 -0.33000
C 	C 	0.30753 0.50197 0.58728 0.33300
C 	C 	0.36233 0.52557 0.60359 -0.01800
C 	C 	0.39893 0.48857 0.61404 -0.02100
C 	C 	0.40513 0.40707 0.61485 0.31900
C 	C 	0.50343 0.40617 0.67212 0.30700
C 	C 	0.41513 0.39957 0.67343 -0.00500
C 	C 	0.34123 0.36297 0.68353 0.00000
C 	C 	0.30723 0.30437 0.69930 0.29500
Co	Co	0.50120 0.50658 0.64384 1.18800
N 	N 	0.38563 0.60307 0.61056 -0.17600
N 	N 	0.43543 0.61817 0.62456 -0.04500
N 	N 	0.44393 0.54897 0.62648 -0.17500
N 	N 	0.39863 0.44327 0.66033 -0.17900
N 	N 	0.32053 0.43297 0.66219 -0.04200
N 	N 	0.28603 0.38577 0.67605 -0.18100
O 	O 	0.28883 0.55967 0.58279 -0.34900
O 	O 	0.28503 0.43277 0.57976 -0.29400
O 	O 	0.36853 0.34887 0.60359 -0.28000
O 	O 	0.44923 0.40327 0.62750 -0.34400
O 	O 	0.54883 0.44837 0.65917 -0.34300
O 	O 	0.52453 0.37047 0.68309 -0.17200
O 	O 	0.35283 0.27997 0.70664 -0.17700
O 	O 	0.23043 0.28527 0.70377 -0.34100
C 	C 	0.86110 0.02580 0.92061 0.30500
C 	C 	0.82990 0.97100 0.93692 0.01400
C 	C 	0.75630 0.93440 0.94737 -0.02400
C 	C 	0.66860 0.92820 0.94818 0.32300
C 	C 	0.56940 0.82990 0.00545 0.31500
C 	C 	0.65110 0.91820 0.00676 -0.02000
C 	C 	0.68840 0.99210 0.01686 0.05800
C 	C 	0.66380 0.02610 0.03263 0.22900
Co	Co	0.67204 0.83213 0.97717 1.19000
N 	N 	0.88410 0.94770 0.94389 -0.16800
N 	N 	0.84940 0.89790 0.95789 -0.03900
N 	N 	0.77170 0.88940 0.95981 -0.17200
N 	N 	0.71130 0.93470 0.99366 -0.16500
N 	N 	0.77910 0.01280 0.99552 -0.05300
N 	N 	0.76640 0.04730 0.00938 -0.19800
O 	O 	0.93750 0.04450 0.91612 -0.33600
O 	O 	0.81440 0.04830 0.91309 -0.29200
O 	O 	0.64700 0.96480 0.93692 -0.26700
O 	O 	0.62070 0.88410 0.96083 -0.33900
O 	O 	0.56620 0.78450 0.99250 -0.34400
O 	O 	0.51260 0.80880 0.01642 -0.17100
O 	O 	0.59380 0.98050 0.03997 -0.13500
O 	O 	0.72150 0.10290 0.03710 -0.32500
C 	C 	0.52777 0.35913 0.25394 0.33300
C 	C 	0.49657 0.30433 0.27025 -0.01800
C 	C 	0.42297 0.26773 0.28070 -0.02200
C 	C 	0.33527 0.26153 0.28151 0.31900
C 	C 	0.23607 0.16323 0.33878 0.30800
C 	C 	0.31777 0.25153 0.34009 -0.00700
C 	C 	0.35507 0.32543 0.35019 0.00100
C 	C 	0.33047 0.35943 0.36596 0.29500
Co	Co	0.33871 0.16546 0.31051 1.18800
N 	N 	0.55077 0.28103 0.27722 -0.17700
N 	N 	0.51607 0.23123 0.29122 -0.04700
N 	N 	0.43837 0.22273 0.29314 -0.17600
N 	N 	0.37797 0.26803 0.32699 -0.17900
N 	N 	0.44577 0.34613 0.32885 -0.04200
N 	N 	0.43307 0.38063 0.34271 -0.18100
O 	O 	0.60417 0.37783 0.24945 -0.34700
O 	O 	0.48107 0.38163 0.24642 -0.29200
O 	O 	0.31367 0.29813 0.27025 -0.28200
O 	O 	0.28737 0.21743 0.29416 -0.34700
O 	O 	0.23287 0.11783 0.32583 -0.35200
O 	O 	0.17927 0.14213 0.34975 -0.18300
O 	O 	0.26047 0.31383 0.37330 -0.17600
O 	O 	0.38817 0.43623 0.37043 -0.33700
C 	C 	0.19443 0.69247 0.58728 0.33700
C 	C 	0.16323 0.63767 0.60359 -0.02800
C 	C 	0.08963 0.60107 0.61404 -0.00500
C 	C 	0.00193 0.59487 0.61485 0.24700
C 	C 	0.90273 0.49657 0.67212 0.28700
C 	C 	0.98443 0.58487 0.67343 0.06200
C 	C 	0.02173 0.65877 0.68353 -0.07200
C 	C 	0.99713 0.69277 0.69930 0.36600
Co	Co	0.00537 0.49880 0.64384 1.17500
N 	N 	0.21743 0.61437 0.61056 -0.17500
N 	N 	0.18273 0.56457 0.62456 -0.04600
N 	N 	0.10503 0.55607 0.62648 -0.18100
N 	N 	0.04463 0.60137 0.66033 -0.20000
N 	N 	0.11243 0.67947 0.66219 -0.04300
N 	N 	0.09973 0.71397 0.67605 -0.17200
O 	O 	0.27083 0.71117 0.58279 -0.34800
O 	O 	0.14773 0.71497 0.57976 -0.29800
O 	O 	0.98033 0.63147 0.60359 -0.23500
O 	O 	0.95403 0.55077 0.62750 -0.30300
O 	O 	0.89953 0.45117 0.65917 -0.32900
O 	O 	0.84593 0.47547 0.68309 -0.16100
O 	O 	0.92713 0.64717 0.70664 -0.18300
O 	O 	0.05483 0.76957 0.70377 -0.36800
Co	Co	-0.00000 0.00000 0.43120 1.16500
Co	Co	0.66667 0.33333 0.76453 1.18900
Co	Co	0.33333 0.66667 0.09786 1.18900
Co	Co	-0.00000 0.00000 0.06880 1.16500
Co	Co	0.66667 0.33333 0.40214 1.18900
Co	Co	0.33333 0.66667 0.73547 1.18900
Co	Co	-0.00000 0.00000 0.56880 1.16500
Co	Co	0.66667 0.33333 0.90214 1.18900
Co	Co	0.33333 0.66667 0.23547 1.18900
Co	Co	-0.00000 0.00000 0.93120 1.16500
Co	Co	0.66667 0.33333 0.26453 1.18900
Co	Co	0.33333 0.66667 0.59786 1.18900
Li	Li	0.70118 0.66667 0.41667 0.56400
Li	Li	0.36785 0.00000 0.75000 0.56200
Li	Li	0.33333 0.03452 0.41667 0.56100
Li	Li	0.00000 0.36785 0.75000 0.56200
Li	Li	0.96548 0.29882 0.41667 0.56600
Li	Li	0.63215 0.63215 0.75000 0.56400
Li	Li	0.66667 0.70118 0.08333 0.56400
Li	Li	0.03452 0.33333 0.08333 0.56100
Li	Li	0.29882 0.96548 0.08333 0.56600
Li	Li	0.29882 0.33333 0.58333 0.56400
Li	Li	0.66667 0.96548 0.58333 0.56600
Li	Li	0.03452 0.70118 0.58333 0.56200
Li	Li	0.33333 0.29882 0.91667 0.56400
Li	Li	-0.00000 0.63215 0.25000 0.56200
Li	Li	0.96548 0.66667 0.91667 0.56600
Li	Li	0.63215 0.00000 0.25000 0.56200
Li	Li	0.70118 0.03452 0.91667 0.56200
Li	Li	0.36785 0.36785 0.25000 0.56400
