data_crystal

_cell_length_a 20.36500
_cell_length_b 20.11900
_cell_length_c 17.31100
_cell_angle_alpha 90.00000
_cell_angle_beta  103.16600
_cell_angle_gamma 90.00000

_symmetry_space_group_name_	'P 1'
_symmetry_space_group_name_H-M	'P 1'

loop_
_symmetry_equiv_pos_as_xyz
  x,y,z

loop_
_atom_site_label
_atom_site_type_symbol
_atom_site_fract_x
_atom_site_fract_y
_atom_site_fract_z
_atom_site_charge
Co	Co	0.87510 0.13550 0.26328 1.14900
Co	Co	0.38409 0.12816 0.25581 1.15100
C 	C 	0.87780 0.20880 0.42330 0.01100
H 	H 	0.84020 0.23390 0.40000 0.02400
C 	C 	0.91340 0.21580 0.49970 0.00100
H 	H 	0.90510 0.24560 0.53750 0.03400
C 	C 	0.95709 0.13844 0.43840 0.10700
H 	H 	0.98600 0.10550 0.42830 -0.00400
C 	C 	0.01646 0.15968 0.57840 0.11300
C 	C 	0.04018 0.21439 0.62600 -0.11000
H 	H 	0.02290 0.25660 0.61190 0.08000
C 	C 	0.08927 0.20518 0.69370 -0.02000
H 	H 	0.10480 0.24170 0.72550 0.05300
C 	C 	0.11666 0.14298 0.71650 0.00100
C 	C 	0.09196 0.08893 0.66740 -0.02700
H 	H 	0.10960 0.04670 0.68050 0.06100
C 	C 	0.04190 0.09777 0.60020 -0.11100
H 	H 	0.02500 0.06120 0.56910 0.07700
C 	C 	0.17016 0.13557 0.79040 0.00200
C 	C 	0.21752 0.18600 0.81320 -0.02400
H 	H 	0.21580 0.22350 0.78140 0.05400
C 	C 	0.26660 0.18114 0.88190 -0.10800
H 	H 	0.29800 0.21510 0.89610 0.07400
C 	C 	0.26951 0.12610 0.93010 0.11500
C 	C 	0.22380 0.07521 0.90760 -0.11400
H 	H 	0.22620 0.03750 0.93920 0.07700
C 	C 	0.17434 0.08000 0.83830 -0.01700
H 	H 	0.14360 0.04550 0.82380 0.04600
C 	C 	0.31195 0.11464 0.07530 0.10200
H 	H 	0.27060 0.10470 0.08680 -0.00200
C 	C 	0.41570 0.13800 0.08790 -0.00000
H 	H 	0.46090 0.14680 0.11030 0.02900
C 	C 	0.38730 0.13950 0.00940 0.00700
H 	H 	0.40870 0.14960 0.96880 0.03100
C 	C 	0.79540 0.13630 0.08600 0.10900
H 	H 	0.75930 0.15760 0.10000 -0.00600
C 	C 	0.88860 0.09250 0.09410 0.01700
H 	H 	0.93240 0.07750 0.11380 0.02300
C 	C 	0.85560 0.08860 0.01830 -0.00200
H 	H 	0.87120 0.06870 0.97730 0.03500
C 	C 	0.74334 0.12468 0.94130 0.11900
C 	C 	0.71890 0.18560 0.91190 -0.12000
H 	H 	0.73530 0.22420 0.93910 0.07800
C 	C 	0.67010 0.18950 0.84260 -0.01400
H 	H 	0.65330 0.23080 0.82380 0.04400
C 	C 	0.64547 0.13238 0.79970 -0.00700
C 	C 	0.66970 0.07230 0.83100 -0.01500
H 	H 	0.65240 0.03340 0.80520 0.04600
C 	C 	0.71940 0.06830 0.90040 -0.12000
H 	H 	0.73650 0.02710 0.91920 0.07800
C 	C 	0.59417 0.13577 0.72320 0.00100
C 	C 	0.54960 0.18930 0.70460 -0.02300
H 	H 	0.55290 0.22430 0.74030 0.05200
C 	C 	0.50130 0.19160 0.63530 -0.10700
H 	H 	0.47180 0.22750 0.62450 0.07500
C 	C 	0.49654 0.14002 0.58130 0.11400
C 	C 	0.53900 0.08610 0.59800 -0.11200
H 	H 	0.53500 0.05100 0.56230 0.07700
C 	C 	0.58770 0.08490 0.66840 -0.01800
H 	H 	0.61690 0.04870 0.67910 0.04600
C 	C 	0.37980 0.16240 0.49850 0.00300
H 	H 	0.35860 0.17680 0.53770 0.03400
C 	C 	0.35200 0.15720 0.42090 0.00200
H 	H 	0.30730 0.16720 0.39740 0.02500
C 	C 	0.45403 0.12641 0.43630 0.10500
H 	H 	0.49440 0.11100 0.42640 -0.00300
C 	C 	0.51150 0.09030 0.26910 0.32800
C 	C 	0.57589 0.05225 0.27130 -0.07800
C 	C 	0.63692 0.08530 0.27550 0.01500
H 	H 	0.63810 0.13150 0.27780 0.04900
C 	C 	0.76082 0.08519 0.27500 0.31900
C 	C 	0.69607 0.05014 0.27640 -0.07600
C 	C 	0.69309 0.98113 0.27300 -0.01300
H 	H 	0.73230 0.95710 0.27440 0.05300
C 	C 	0.63289 0.94738 0.26769 -0.03200
C 	C 	0.57473 0.98357 0.26670 -0.01300
H 	H 	0.53410 0.96120 0.26290 0.05400
C 	C 	0.63011 0.87351 0.26230 0.10400
C 	C 	0.67573 0.83327 0.31330 -0.16500
H 	H 	0.70990 0.85220 0.35190 0.09300
C 	C 	0.67026 0.76557 0.30670 0.09400
H 	H 	0.70150 0.73980 0.34150 -0.00200
C 	C 	0.57842 0.77306 0.20260 0.09200
H 	H 	0.54530 0.75290 0.16370 -0.00700
C 	C 	0.58041 0.84112 0.20660 -0.16300
H 	H 	0.54810 0.86590 0.17170 0.09100
C 	C 	0.24679 0.10047 0.24700 0.33100
C 	C 	0.18746 0.06167 0.26099 -0.08900
C 	C 	0.18859 0.99226 0.26648 0.00200
H 	H 	0.22800 0.96960 0.26470 0.04200
C 	C 	0.13228 0.95650 0.27449 -0.04800
C 	C 	0.07402 0.99180 0.27886 0.00000
H 	H 	0.03610 0.96880 0.28560 0.04300
C 	C 	0.07191 0.06083 0.27327 -0.08700
C 	C 	0.00725 0.09921 0.27090 0.33400
C 	C 	0.12903 0.09486 0.26506 0.02500
H 	H 	0.12800 0.14100 0.26220 0.04600
C 	C 	0.13295 0.88287 0.27400 0.12200
C 	C 	0.18980 0.84608 0.27680 -0.17900
H 	H 	0.23100 0.86770 0.28240 0.09700
C 	C 	0.18770 0.77836 0.27160 0.10300
H 	H 	0.22820 0.75580 0.27590 0.00200
C 	C 	0.07738 0.77812 0.26140 0.09800
H 	H 	0.03700 0.75530 0.25720 0.00600
C 	C 	0.07568 0.84631 0.26790 -0.17600
H 	H 	0.03520 0.86750 0.26810 0.09900
N 	N 	0.90468 0.16027 0.38584 -0.22600
N 	N 	0.96409 0.16933 0.50887 -0.14100
N 	N 	0.32061 0.12323 0.00150 -0.14200
N 	N 	0.36857 0.12187 0.12983 -0.22300
N 	N 	0.85064 0.12067 0.13710 -0.23100
N 	N 	0.79545 0.11891 0.01198 -0.14500
N 	N 	0.44593 0.14246 0.50890 -0.14200
N 	N 	0.39876 0.13482 0.38084 -0.22600
N 	N 	0.62229 0.73418 0.25268 -0.24300
N 	N 	0.13148 0.74264 0.26073 -0.24100
O 	O 	0.45835 0.05763 0.26419 -0.40900
O 	O 	0.51187 0.15124 0.27190 -0.34000
O 	O 	0.76035 0.14635 0.26423 -0.36100
O 	O 	0.81366 0.05274 0.28271 -0.38500
O 	O 	0.30232 0.06987 0.25637 -0.41700
O 	O 	0.23860 0.15885 0.22660 -0.31200
O 	O 	0.95551 0.06829 0.27658 -0.40500
O 	O 	0.00797 0.15959 0.26230 -0.32900
Co	Co	0.12490 0.63550 0.23672 1.15000
Co	Co	0.61591 0.62816 0.24419 1.15200
C 	C 	0.12220 0.70880 0.07670 0.01400
H 	H 	0.15980 0.73390 0.10000 0.02400
C 	C 	0.08660 0.71580 0.00030 -0.00300
H 	H 	0.09490 0.74560 0.96250 0.03700
C 	C 	0.04291 0.63844 0.06160 0.10700
H 	H 	0.01400 0.60550 0.07170 -0.00300
C 	C 	0.98354 0.65968 0.92160 0.11200
C 	C 	0.95982 0.71439 0.87400 -0.10900
H 	H 	0.97710 0.75660 0.88810 0.08000
C 	C 	0.91073 0.70518 0.80630 -0.02000
H 	H 	0.89520 0.74170 0.77450 0.05300
C 	C 	0.88334 0.64298 0.78350 0.00200
C 	C 	0.90804 0.58893 0.83260 -0.02800
H 	H 	0.89040 0.54670 0.81950 0.06200
C 	C 	0.95810 0.59777 0.89980 -0.11100
H 	H 	0.97500 0.56120 0.93090 0.07700
C 	C 	0.82984 0.63557 0.70960 0.00100
C 	C 	0.78248 0.68600 0.68680 -0.02300
H 	H 	0.78420 0.72350 0.71860 0.05400
C 	C 	0.73340 0.68114 0.61810 -0.10900
H 	H 	0.70200 0.71510 0.60390 0.07400
C 	C 	0.73049 0.62610 0.56990 0.11600
C 	C 	0.77620 0.57521 0.59240 -0.11500
H 	H 	0.77380 0.53750 0.56080 0.07800
C 	C 	0.82566 0.58000 0.66170 -0.01600
H 	H 	0.85640 0.54550 0.67620 0.04600
C 	C 	0.68805 0.61464 0.42470 0.10200
H 	H 	0.72940 0.60470 0.41320 -0.00200
C 	C 	0.58430 0.63800 0.41210 0.00100
H 	H 	0.53910 0.64680 0.38970 0.02800
C 	C 	0.61270 0.63950 0.49060 0.00500
H 	H 	0.59130 0.64960 0.53120 0.03300
C 	C 	0.20460 0.63630 0.41400 0.10900
H 	H 	0.24070 0.65760 0.40000 -0.00600
C 	C 	0.11140 0.59250 0.40590 0.01900
H 	H 	0.06760 0.57750 0.38620 0.02200
C 	C 	0.14440 0.58860 0.48170 -0.00600
H 	H 	0.12880 0.56870 0.52270 0.03700
C 	C 	0.25666 0.62468 0.55870 0.12100
C 	C 	0.28110 0.68560 0.58810 -0.12100
H 	H 	0.26470 0.72420 0.56090 0.07900
C 	C 	0.32990 0.68950 0.65740 -0.01300
H 	H 	0.34670 0.73080 0.67620 0.04400
C 	C 	0.35453 0.63238 0.70030 -0.00700
C 	C 	0.33030 0.57230 0.66900 -0.01400
H 	H 	0.34760 0.53340 0.69480 0.04600
C 	C 	0.28060 0.56830 0.59960 -0.12000
H 	H 	0.26350 0.52710 0.58080 0.07900
C 	C 	0.40583 0.63577 0.77680 0.00100
C 	C 	0.45040 0.68930 0.79540 -0.02300
H 	H 	0.44710 0.72430 0.75970 0.05300
C 	C 	0.49870 0.69160 0.86470 -0.10700
H 	H 	0.52820 0.72750 0.87550 0.07500
C 	C 	0.50346 0.64002 0.91870 0.11400
C 	C 	0.46100 0.58610 0.90200 -0.11200
H 	H 	0.46500 0.55100 0.93770 0.07700
C 	C 	0.41230 0.58490 0.83160 -0.01800
H 	H 	0.38310 0.54870 0.82090 0.04700
C 	C 	0.62020 0.66240 0.00150 0.00100
H 	H 	0.64140 0.67680 0.96230 0.03500
C 	C 	0.64800 0.65720 0.07910 0.00300
H 	H 	0.69270 0.66720 0.10260 0.02400
C 	C 	0.54597 0.62641 0.06370 0.10400
H 	H 	0.50560 0.61100 0.07360 -0.00300
C 	C 	0.48850 0.59030 0.23090 0.32800
C 	C 	0.42411 0.55225 0.22870 -0.08000
C 	C 	0.36308 0.58530 0.22450 0.01700
H 	H 	0.36190 0.63150 0.22220 0.04900
C 	C 	0.23918 0.58519 0.22500 0.31900
C 	C 	0.30393 0.55014 0.22360 -0.07900
C 	C 	0.30691 0.48113 0.22700 -0.01000
H 	H 	0.26770 0.45710 0.22560 0.05200
C 	C 	0.36711 0.44738 0.23231 -0.03400
C 	C 	0.42527 0.48357 0.23330 -0.01000
H 	H 	0.46590 0.46120 0.23710 0.05300
C 	C 	0.36989 0.37351 0.23770 0.10500
C 	C 	0.32427 0.33327 0.18670 -0.16600
H 	H 	0.29010 0.35220 0.14810 0.09300
C 	C 	0.32974 0.26557 0.19330 0.09400
H 	H 	0.29850 0.23980 0.15850 -0.00200
C 	C 	0.42158 0.27306 0.29740 0.09200
H 	H 	0.45470 0.25290 0.33630 -0.00700
C 	C 	0.41959 0.34112 0.29340 -0.16300
H 	H 	0.45190 0.36590 0.32830 0.09200
C 	C 	0.75321 0.60047 0.25300 0.33200
C 	C 	0.81254 0.56167 0.23901 -0.09000
C 	C 	0.81141 0.49226 0.23352 0.00300
H 	H 	0.77200 0.46960 0.23530 0.04100
C 	C 	0.86772 0.45650 0.22551 -0.04900
C 	C 	0.92598 0.49180 0.22114 0.00200
H 	H 	0.96390 0.46880 0.21440 0.04200
C 	C 	0.92809 0.56083 0.22673 -0.08900
C 	C 	0.99275 0.59921 0.22910 0.33500
C 	C 	0.87097 0.59486 0.23494 0.02600
H 	H 	0.87200 0.64100 0.23780 0.04600
C 	C 	0.86705 0.38287 0.22600 0.12200
C 	C 	0.81020 0.34608 0.22320 -0.17900
H 	H 	0.76900 0.36770 0.21760 0.09700
C 	C 	0.81230 0.27836 0.22840 0.10300
H 	H 	0.77180 0.25580 0.22410 0.00200
C 	C 	0.92262 0.27812 0.23860 0.09800
H 	H 	0.96300 0.25530 0.24280 0.00600
C 	C 	0.92432 0.34631 0.23210 -0.17600
H 	H 	0.96480 0.36750 0.23190 0.09900
N 	N 	0.09532 0.66027 0.11416 -0.22600
N 	N 	0.03591 0.66933 0.99113 -0.13900
N 	N 	0.67939 0.62323 0.49850 -0.14300
N 	N 	0.63143 0.62187 0.37017 -0.22400
N 	N 	0.14936 0.62067 0.36290 -0.23100
N 	N 	0.20455 0.61891 0.48802 -0.14600
N 	N 	0.55407 0.64246 0.99110 -0.14100
N 	N 	0.60124 0.63482 0.11916 -0.22600
N 	N 	0.37771 0.23418 0.24732 -0.24300
N 	N 	0.86852 0.24264 0.23927 -0.24100
O 	O 	0.54165 0.55763 0.23581 -0.41000
O 	O 	0.48813 0.65124 0.22810 -0.34100
O 	O 	0.23965 0.64635 0.23577 -0.36100
O 	O 	0.18634 0.55274 0.21729 -0.38500
O 	O 	0.69768 0.56987 0.24363 -0.41700
O 	O 	0.76140 0.65885 0.27340 -0.31200
O 	O 	0.04449 0.56829 0.22342 -0.40600
O 	O 	0.99203 0.65959 0.23770 -0.32900
Co	Co	0.12490 0.86450 0.73672 1.15000
Co	Co	0.61591 0.87184 0.74419 1.15200
C 	C 	0.12220 0.79120 0.57670 0.01200
H 	H 	0.15980 0.76610 0.60000 0.02500
C 	C 	0.08660 0.78420 0.50030 0.00200
H 	H 	0.09490 0.75440 0.46250 0.03500
C 	C 	0.04291 0.86156 0.56160 0.10800
H 	H 	0.01400 0.89450 0.57170 -0.00300
C 	C 	0.98354 0.84032 0.42160 0.11300
C 	C 	0.95982 0.78561 0.37400 -0.11000
H 	H 	0.97710 0.74340 0.38810 0.08000
C 	C 	0.91073 0.79482 0.30630 -0.02000
H 	H 	0.89520 0.75830 0.27450 0.05300
C 	C 	0.88334 0.85702 0.28350 0.00100
C 	C 	0.90804 0.91107 0.33260 -0.02700
H 	H 	0.89040 0.95330 0.31950 0.06100
C 	C 	0.95810 0.90223 0.39980 -0.11100
H 	H 	0.97500 0.93880 0.43090 0.07700
C 	C 	0.82984 0.86443 0.20960 0.00200
C 	C 	0.78248 0.81400 0.18680 -0.02400
H 	H 	0.78420 0.77650 0.21860 0.05400
C 	C 	0.73340 0.81886 0.11810 -0.10800
H 	H 	0.70200 0.78490 0.10390 0.07400
C 	C 	0.73049 0.87390 0.06990 0.11500
C 	C 	0.77620 0.92479 0.09240 -0.11400
H 	H 	0.77380 0.96250 0.06080 0.07700
C 	C 	0.82566 0.92000 0.16170 -0.01700
H 	H 	0.85640 0.95450 0.17620 0.04600
C 	C 	0.68805 0.88536 0.92470 0.10200
H 	H 	0.72940 0.89530 0.91320 -0.00200
C 	C 	0.58430 0.86200 0.91210 -0.00000
H 	H 	0.53910 0.85320 0.88970 0.02900
C 	C 	0.61270 0.86050 0.99060 0.00700
H 	H 	0.59130 0.85040 0.03120 0.03100
C 	C 	0.20460 0.86370 0.91400 0.10900
H 	H 	0.24070 0.84240 0.90000 -0.00600
C 	C 	0.11140 0.90750 0.90590 0.01700
H 	H 	0.06760 0.92250 0.88620 0.02300
C 	C 	0.14440 0.91140 0.98170 -0.00200
H 	H 	0.12880 0.93130 0.02270 0.03500
C 	C 	0.25666 0.87532 0.05870 0.11900
C 	C 	0.28110 0.81440 0.08810 -0.12000
H 	H 	0.26470 0.77580 0.06090 0.07800
C 	C 	0.32990 0.81050 0.15740 -0.01400
H 	H 	0.34670 0.76920 0.17620 0.04400
C 	C 	0.35453 0.86762 0.20030 -0.00700
C 	C 	0.33030 0.92770 0.16900 -0.01500
H 	H 	0.34760 0.96660 0.19480 0.04600
C 	C 	0.28060 0.93170 0.09960 -0.12000
H 	H 	0.26350 0.97290 0.08080 0.07800
C 	C 	0.40583 0.86423 0.27680 0.00100
C 	C 	0.45040 0.81070 0.29540 -0.02300
H 	H 	0.44710 0.77570 0.25970 0.05200
C 	C 	0.49870 0.80840 0.36470 -0.10700
H 	H 	0.52820 0.77250 0.37550 0.07500
C 	C 	0.50346 0.85998 0.41870 0.11400
C 	C 	0.46100 0.91390 0.40200 -0.11200
H 	H 	0.46500 0.94900 0.43770 0.07700
C 	C 	0.41230 0.91510 0.33160 -0.01800
H 	H 	0.38310 0.95130 0.32090 0.04600
C 	C 	0.62020 0.83760 0.50150 0.00300
H 	H 	0.64140 0.82320 0.46230 0.03400
C 	C 	0.64800 0.84280 0.57910 0.00200
H 	H 	0.69270 0.83280 0.60260 0.02500
C 	C 	0.54597 0.87359 0.56370 0.10500
H 	H 	0.50560 0.88900 0.57360 -0.00300
C 	C 	0.48850 0.90970 0.73090 0.32800
C 	C 	0.42411 0.94775 0.72870 -0.07800
C 	C 	0.36308 0.91470 0.72450 0.01500
H 	H 	0.36190 0.86850 0.72220 0.04900
C 	C 	0.23918 0.91481 0.72500 0.31900
C 	C 	0.30393 0.94986 0.72360 -0.07600
C 	C 	0.30691 0.01887 0.72700 -0.01300
H 	H 	0.26770 0.04290 0.72560 0.05300
C 	C 	0.36711 0.05262 0.73231 -0.03200
C 	C 	0.42527 0.01643 0.73330 -0.01300
H 	H 	0.46590 0.03880 0.73710 0.05400
C 	C 	0.36989 0.12649 0.73770 0.10400
C 	C 	0.32427 0.16673 0.68670 -0.16500
H 	H 	0.29010 0.14780 0.64810 0.09300
C 	C 	0.32974 0.23443 0.69330 0.09400
H 	H 	0.29850 0.26020 0.65850 -0.00200
C 	C 	0.42158 0.22694 0.79740 0.09200
H 	H 	0.45470 0.24710 0.83630 -0.00700
C 	C 	0.41959 0.15888 0.79340 -0.16300
H 	H 	0.45190 0.13410 0.82830 0.09100
C 	C 	0.75321 0.89953 0.75300 0.33100
C 	C 	0.81254 0.93833 0.73901 -0.08900
C 	C 	0.81141 0.00774 0.73352 0.00200
H 	H 	0.77200 0.03040 0.73530 0.04200
C 	C 	0.86772 0.04350 0.72551 -0.04800
C 	C 	0.92598 0.00820 0.72114 0.00000
H 	H 	0.96390 0.03120 0.71440 0.04300
C 	C 	0.92809 0.93917 0.72673 -0.08700
C 	C 	0.99275 0.90079 0.72910 0.33400
C 	C 	0.87097 0.90514 0.73494 0.02500
H 	H 	0.87200 0.85900 0.73780 0.04600
C 	C 	0.86705 0.11713 0.72600 0.12200
C 	C 	0.81020 0.15392 0.72320 -0.17900
H 	H 	0.76900 0.13230 0.71760 0.09700
C 	C 	0.81230 0.22164 0.72840 0.10300
H 	H 	0.77180 0.24420 0.72410 0.00200
C 	C 	0.92262 0.22188 0.73860 0.09800
H 	H 	0.96300 0.24470 0.74280 0.00600
C 	C 	0.92432 0.15369 0.73210 -0.17600
H 	H 	0.96480 0.13250 0.73190 0.09900
N 	N 	0.09532 0.83973 0.61416 -0.22600
N 	N 	0.03591 0.83067 0.49113 -0.14100
N 	N 	0.67939 0.87677 0.99850 -0.14200
N 	N 	0.63143 0.87813 0.87017 -0.22300
N 	N 	0.14936 0.87933 0.86290 -0.23100
N 	N 	0.20455 0.88109 0.98802 -0.14500
N 	N 	0.55407 0.85754 0.49110 -0.14200
N 	N 	0.60124 0.86518 0.61916 -0.22600
N 	N 	0.37771 0.26582 0.74732 -0.24300
N 	N 	0.86852 0.25736 0.73927 -0.24100
O 	O 	0.54165 0.94237 0.73581 -0.40900
O 	O 	0.48813 0.84876 0.72810 -0.34000
O 	O 	0.23965 0.85365 0.73577 -0.36100
O 	O 	0.18634 0.94726 0.71729 -0.38500
O 	O 	0.69768 0.93013 0.74363 -0.41700
O 	O 	0.76140 0.84115 0.77340 -0.31200
O 	O 	0.04449 0.93171 0.72342 -0.40500
O 	O 	0.99203 0.84041 0.73770 -0.32900
Co	Co	0.87510 0.36450 0.76328 1.15000
Co	Co	0.38409 0.37184 0.75581 1.15200
C 	C 	0.87780 0.29120 0.92330 0.01400
H 	H 	0.84020 0.26610 0.90000 0.02400
C 	C 	0.91340 0.28420 0.99970 -0.00300
H 	H 	0.90510 0.25440 0.03750 0.03700
C 	C 	0.95709 0.36156 0.93840 0.10700
H 	H 	0.98600 0.39450 0.92830 -0.00300
C 	C 	0.01646 0.34032 0.07840 0.11200
C 	C 	0.04018 0.28561 0.12600 -0.10900
H 	H 	0.02290 0.24340 0.11190 0.08000
C 	C 	0.08927 0.29482 0.19370 -0.02000
H 	H 	0.10480 0.25830 0.22550 0.05300
C 	C 	0.11666 0.35702 0.21650 0.00200
C 	C 	0.09196 0.41107 0.16740 -0.02800
H 	H 	0.10960 0.45330 0.18050 0.06200
C 	C 	0.04190 0.40223 0.10020 -0.11100
H 	H 	0.02500 0.43880 0.06910 0.07700
C 	C 	0.17016 0.36443 0.29040 0.00100
C 	C 	0.21752 0.31400 0.31320 -0.02300
H 	H 	0.21580 0.27650 0.28140 0.05400
C 	C 	0.26660 0.31886 0.38190 -0.10900
H 	H 	0.29800 0.28490 0.39610 0.07400
C 	C 	0.26951 0.37390 0.43010 0.11600
C 	C 	0.22380 0.42479 0.40760 -0.11500
H 	H 	0.22620 0.46250 0.43920 0.07800
C 	C 	0.17434 0.42000 0.33830 -0.01600
H 	H 	0.14360 0.45450 0.32380 0.04600
C 	C 	0.31195 0.38536 0.57530 0.10200
H 	H 	0.27060 0.39530 0.58680 -0.00200
C 	C 	0.41570 0.36200 0.58790 0.00100
H 	H 	0.46090 0.35320 0.61030 0.02800
C 	C 	0.38730 0.36050 0.50940 0.00500
H 	H 	0.40870 0.35040 0.46880 0.03300
C 	C 	0.79540 0.36370 0.58600 0.10900
H 	H 	0.75930 0.34240 0.60000 -0.00600
C 	C 	0.88860 0.40750 0.59410 0.01900
H 	H 	0.93240 0.42250 0.61380 0.02200
C 	C 	0.85560 0.41140 0.51830 -0.00600
H 	H 	0.87120 0.43130 0.47730 0.03700
C 	C 	0.74334 0.37532 0.44130 0.12100
C 	C 	0.71890 0.31440 0.41190 -0.12100
H 	H 	0.73530 0.27580 0.43910 0.07900
C 	C 	0.67010 0.31050 0.34260 -0.01300
H 	H 	0.65330 0.26920 0.32380 0.04400
C 	C 	0.64547 0.36762 0.29970 -0.00700
C 	C 	0.66970 0.42770 0.33100 -0.01400
H 	H 	0.65240 0.46660 0.30520 0.04600
C 	C 	0.71940 0.43170 0.40040 -0.12000
H 	H 	0.73650 0.47290 0.41920 0.07900
C 	C 	0.59417 0.36423 0.22320 0.00100
C 	C 	0.54960 0.31070 0.20460 -0.02300
H 	H 	0.55290 0.27570 0.24030 0.05300
C 	C 	0.50130 0.30840 0.13530 -0.10700
H 	H 	0.47180 0.27250 0.12450 0.07500
C 	C 	0.49654 0.35998 0.08130 0.11400
C 	C 	0.53900 0.41390 0.09800 -0.11200
H 	H 	0.53500 0.44900 0.06230 0.07700
C 	C 	0.58770 0.41510 0.16840 -0.01800
H 	H 	0.61690 0.45130 0.17910 0.04700
C 	C 	0.37980 0.33760 0.99850 0.00100
H 	H 	0.35860 0.32320 0.03770 0.03500
C 	C 	0.35200 0.34280 0.92090 0.00300
H 	H 	0.30730 0.33280 0.89740 0.02400
C 	C 	0.45403 0.37359 0.93630 0.10400
H 	H 	0.49440 0.38900 0.92640 -0.00300
C 	C 	0.51150 0.40970 0.76910 0.32800
C 	C 	0.57589 0.44775 0.77130 -0.08000
C 	C 	0.63692 0.41470 0.77550 0.01700
H 	H 	0.63810 0.36850 0.77780 0.04900
C 	C 	0.76082 0.41481 0.77500 0.31900
C 	C 	0.69607 0.44986 0.77640 -0.07900
C 	C 	0.69309 0.51887 0.77300 -0.01000
H 	H 	0.73230 0.54290 0.77440 0.05200
C 	C 	0.63289 0.55262 0.76769 -0.03400
C 	C 	0.57473 0.51643 0.76670 -0.01000
H 	H 	0.53410 0.53880 0.76290 0.05300
C 	C 	0.63011 0.62649 0.76230 0.10500
C 	C 	0.67573 0.66673 0.81330 -0.16600
H 	H 	0.70990 0.64780 0.85190 0.09300
C 	C 	0.67026 0.73443 0.80670 0.09400
H 	H 	0.70150 0.76020 0.84150 -0.00200
C 	C 	0.57842 0.72694 0.70260 0.09200
H 	H 	0.54530 0.74710 0.66370 -0.00700
C 	C 	0.58041 0.65888 0.70660 -0.16300
H 	H 	0.54810 0.63410 0.67170 0.09200
C 	C 	0.24679 0.39953 0.74700 0.33200
C 	C 	0.18746 0.43833 0.76099 -0.09000
C 	C 	0.18859 0.50774 0.76648 0.00300
H 	H 	0.22800 0.53040 0.76470 0.04100
C 	C 	0.13228 0.54350 0.77449 -0.04900
C 	C 	0.07402 0.50820 0.77886 0.00200
H 	H 	0.03610 0.53120 0.78560 0.04200
C 	C 	0.07191 0.43917 0.77327 -0.08900
C 	C 	0.00725 0.40079 0.77090 0.33500
C 	C 	0.12903 0.40514 0.76506 0.02600
H 	H 	0.12800 0.35900 0.76220 0.04600
C 	C 	0.13295 0.61713 0.77400 0.12200
C 	C 	0.18980 0.65392 0.77680 -0.17900
H 	H 	0.23100 0.63230 0.78240 0.09700
C 	C 	0.18770 0.72164 0.77160 0.10300
H 	H 	0.22820 0.74420 0.77590 0.00200
C 	C 	0.07738 0.72188 0.76140 0.09800
H 	H 	0.03700 0.74470 0.75720 0.00600
C 	C 	0.07568 0.65369 0.76790 -0.17600
H 	H 	0.03520 0.63250 0.76810 0.09900
N 	N 	0.90468 0.33973 0.88584 -0.22600
N 	N 	0.96409 0.33067 0.00887 -0.13900
N 	N 	0.32061 0.37677 0.50150 -0.14300
N 	N 	0.36857 0.37813 0.62983 -0.22400
N 	N 	0.85064 0.37933 0.63710 -0.23100
N 	N 	0.79545 0.38109 0.51198 -0.14600
N 	N 	0.44593 0.35754 0.00890 -0.14100
N 	N 	0.39876 0.36518 0.88084 -0.22600
N 	N 	0.62229 0.76582 0.75268 -0.24300
N 	N 	0.13148 0.75736 0.76073 -0.24100
O 	O 	0.45835 0.44237 0.76419 -0.41000
O 	O 	0.51187 0.34876 0.77190 -0.34100
O 	O 	0.76035 0.35365 0.76423 -0.36100
O 	O 	0.81366 0.44726 0.78271 -0.38500
O 	O 	0.30232 0.43013 0.75637 -0.41700
O 	O 	0.23860 0.34115 0.72660 -0.31200
O 	O 	0.95551 0.43171 0.77658 -0.40600
O 	O 	0.00797 0.34041 0.76230 -0.32900
