data_crystal

_cell_length_a 10.94950
_cell_length_b 22.08560
_cell_length_c 28.33140
_cell_angle_alpha 100.49600
_cell_angle_beta  99.54200
_cell_angle_gamma 101.67400

_symmetry_space_group_name_	'P 1'
_symmetry_space_group_name_H-M	'P 1'

loop_
_symmetry_equiv_pos_as_xyz
  x,y,z

loop_
_atom_site_label
_atom_site_type_symbol
_atom_site_fract_x
_atom_site_fract_y
_atom_site_fract_z
_atom_site_charge
C 	C 	0.78840 0.89052 0.19229 -0.08300
C 	C 	0.91310 0.92350 0.19615 0.02400
H 	H 	0.93230 0.96730 0.19980 0.04700
C 	C 	0.00860 0.89147 0.19454 -0.08500
C 	C 	0.98170 0.82609 0.19031 -0.00300
H 	H 	0.04660 0.80470 0.19010 0.04900
C 	C 	0.85650 0.79313 0.18638 -0.03800
C 	C 	0.76020 0.82664 0.18849 -0.00300
H 	H 	0.67700 0.80510 0.18730 0.04400
C 	C 	0.67770 0.92199 0.19416 0.34400
C 	C 	0.13240 0.92636 0.18959 0.31600
C 	C 	0.85530 0.62569 0.19860 0.10200
H 	H 	0.90210 0.60450 0.21750 0.00500
C 	C 	0.88940 0.69096 0.20930 -0.16600
H 	H 	0.95600 0.71330 0.23540 0.09200
C 	C 	0.82250 0.72283 0.18030 0.10800
C 	C 	0.72130 0.68688 0.14253 -0.16600
H 	H 	0.67440 0.70710 0.12280 0.09200
C 	C 	0.69120 0.62364 0.13452 0.09300
H 	H 	0.62290 0.60070 0.10930 -0.00300
C 	C 	0.32930 0.49430 0.14907 -0.10500
C 	C 	0.35620 0.55828 0.15420 0.01100
H 	H 	0.43760 0.57950 0.15280 0.04100
C 	C 	0.26370 0.59381 0.16158 -0.05100
C 	C 	0.14210 0.56074 0.16427 0.01000
H 	H 	0.08040 0.58280 0.17050 0.04000
C 	C 	0.11280 0.49302 0.15750 -0.12100
C 	C 	0.20170 0.45960 0.14820 0.04900
H 	H 	0.18050 0.41550 0.14150 0.03700
C 	C 	0.40370 0.75975 0.14973 0.07400
H 	H 	0.45610 0.77960 0.13150 0.00700
C 	C 	0.37520 0.69288 0.14296 -0.14600
H 	H 	0.40970 0.66850 0.12080 0.08400
C 	C 	0.29240 0.66350 0.17068 0.11200
C 	C 	0.25240 0.70028 0.20443 -0.17600
H 	H 	0.20460 0.68210 0.22470 0.09400
C 	C 	0.28150 0.76585 0.20961 0.10000
H 	H 	0.24890 0.79010 0.23260 -0.01400
C 	C 	0.43260 0.46198 0.13884 0.35600
C 	C 	0.97510 0.46232 0.15513 0.42400
C 	C 	0.25400 0.87156 0.03686 -0.11300
C 	C 	0.28820 0.81703 0.01428 0.04600
H 	H 	0.34590 0.80000 0.03240 0.03800
C 	C 	0.23630 0.78811 0.96476 -0.10800
C 	C 	0.14540 0.81447 0.93909 0.00800
H 	H 	0.10750 0.79500 0.90650 0.04400
C 	C 	0.11100 0.86773 0.96045 -0.05000
C 	C 	0.17300 0.89858 0.00910 0.01400
H 	H 	0.15930 0.93760 0.02270 0.03900
C 	C 	0.81590 0.87761 0.87528 0.09800
H 	H 	0.74370 0.84930 0.85490 -0.01600
C 	C 	0.90360 0.85440 0.90164 -0.16900
H 	H 	0.88890 0.81080 0.89890 0.09100
C 	C 	0.01430 0.89310 0.93251 0.10000
C 	C 	0.03370 0.96098 0.93308 -0.15700
H 	H 	0.10820 0.99040 0.95030 0.08900
C 	C 	0.93600 0.97800 0.90686 0.09500
H 	H 	0.94380 0.02130 0.90950 0.00700
C 	C 	0.30700 0.90378 0.09004 0.39300
C 	C 	0.26780 0.73156 0.93740 0.35800
C 	C 	0.29950 0.15041 0.29076 -0.09800
C 	C 	0.23160 0.18371 0.26587 0.01300
H 	H 	0.22530 0.17790 0.23210 0.04100
C 	C 	0.17110 0.22615 0.28897 -0.05300
C 	C 	0.18970 0.23785 0.33969 0.01800
H 	H 	0.15130 0.26700 0.35570 0.03700
C 	C 	0.26450 0.20723 0.36773 -0.12300
C 	C 	0.31660 0.16144 0.34233 0.04700
H 	H 	0.36260 0.13830 0.35950 0.03900
C 	C 	0.01690 0.29604 0.18947 0.08400
H 	H 	0.03010 0.30480 0.15960 0.01200
C 	C 	0.10370 0.26915 0.21574 -0.15900
H 	H 	0.17200 0.25910 0.20310 0.08900
C 	C 	0.08590 0.25788 0.26055 0.11100
C 	C 	0.98320 0.27563 0.27913 -0.17700
H 	H 	0.97060 0.27080 0.31000 0.09700
C 	C 	0.90260 0.30039 0.24970 0.11100
H 	H 	0.83440 0.31140 0.26190 -0.01800
C 	C 	0.36020 0.10518 0.26179 0.34300
C 	C 	0.28180 0.22543 0.42197 0.40900
C 	C 	0.73280 0.19996 0.52956 -0.08200
C 	C 	0.70800 0.13644 0.52598 -0.00400
H 	H 	0.62740 0.11510 0.52820 0.04800
C 	C 	0.80080 0.10186 0.51897 -0.03500
C 	C 	0.92370 0.13568 0.51713 -0.00300
H 	H 	0.98610 0.11350 0.51250 0.04600
C 	C 	0.95420 0.20142 0.52209 -0.09500
C 	C 	0.85860 0.23675 0.52886 0.01900
H 	H 	0.87640 0.28060 0.53260 0.04700
C 	C 	0.65940 0.93414 0.52732 0.07400
H 	H 	0.60630 0.91390 0.54510 0.01600
C 	C 	0.68930 0.00043 0.53595 -0.14600
H 	H 	0.65590 0.02400 0.55900 0.08600
C 	C 	0.76840 0.03021 0.50995 0.09400
C 	C 	0.81970 0.99490 0.47573 -0.14600
H 	H 	0.87610 0.01550 0.45930 0.08700
C 	C 	0.78680 0.92912 0.46613 0.06500
H 	H 	0.81730 0.90560 0.44200 -0.00500
C 	C 	0.62650 0.23374 0.53354 0.35200
C 	C 	0.08470 0.23323 0.51940 0.36500
C 	C 	0.26230 0.46549 0.62764 -0.10800
C 	C 	0.28250 0.47909 0.67805 0.05300
H 	H 	0.33300 0.45820 0.69580 0.03900
C 	C 	0.22790 0.52410 0.70309 -0.12000
C 	C 	0.15300 0.55404 0.67552 0.01700
H 	H 	0.11950 0.58520 0.69180 0.04000
C 	C 	0.12520 0.53923 0.62340 -0.04900
C 	C 	0.18630 0.49711 0.60013 0.00900
H 	H 	0.17730 0.48960 0.56620 0.04100
C 	C 	0.85030 0.61271 0.58694 0.08300
H 	H 	0.78450 0.62540 0.59990 -0.01200
C 	C 	0.93260 0.58468 0.61472 -0.15400
H 	H 	0.91870 0.57680 0.64480 0.08900
C 	C 	0.03650 0.56879 0.59609 0.09800
C 	C 	0.05180 0.58039 0.55004 -0.15200
H 	H 	0.11830 0.56970 0.53650 0.08800
C 	C 	0.96510 0.60835 0.52490 0.08400
H 	H 	0.97750 0.61810 0.49520 0.01000
C 	C 	0.31660 0.41751 0.59909 0.36600
C 	C 	0.24980 0.54243 0.75735 0.40300
C 	C 	0.16590 0.47650 0.93624 0.04500
H 	H 	0.09920 0.45480 0.91000 0.01500
C 	C 	0.15120 0.47597 0.98441 -0.10000
H 	H 	0.07520 0.45390 0.99020 0.07000
C 	C 	0.25140 0.50877 0.02356 0.02200
H 	H 	0.24280 0.50860 0.05570 0.03000
C 	C 	0.36580 0.54218 0.01433 -0.09700
H 	H 	0.43280 0.56450 0.04030 0.06900
C 	C 	0.37800 0.54155 0.96626 0.04800
H 	H 	0.45370 0.56320 0.96010 0.01200
N 	N 	0.75860 0.59134 0.16255 -0.21700
N 	N 	0.35360 0.79555 0.18336 -0.22800
N 	N 	0.82930 0.93923 0.87749 -0.22900
N 	N 	0.91310 0.30985 0.20647 -0.23100
N 	N 	0.70740 0.89832 0.49296 -0.21500
N 	N 	0.86420 0.62157 0.54263 -0.22500
N 	N 	0.27870 0.50901 0.92756 -0.21300
Ni	Ni	0.39904 0.89303 0.19219 1.10800
Ni	Ni	0.31182 0.02689 0.16141 1.11200
Ni	Ni	0.34370 0.20096 0.52202 1.10900
Ni	Ni	0.26586 0.33915 0.49764 1.10900
Ni	Ni	0.21197 0.65038 0.83489 1.11100
Ni	Ni	0.28698 0.50900 0.85453 1.12800
O 	O 	0.59340 0.89519 0.21252 -0.41100
O 	O 	0.67950 0.97266 0.17958 -0.30300
O 	O 	0.17240 0.98400 0.18778 -0.39400
O 	O 	0.22040 0.88954 0.19564 -0.39900
O 	O 	0.52960 0.49340 0.13139 -0.42000
O 	O 	0.41950 0.40267 0.14091 -0.29400
O 	O 	0.94720 0.40626 0.15143 -0.43200
O 	O 	0.90090 0.49841 0.16119 -0.44400
O 	O 	0.27830 0.95595 0.10262 -0.44800
O 	O 	0.36720 0.87643 0.11689 -0.42200
O 	O 	0.33660 0.70199 0.95866 -0.30600
O 	O 	0.21470 0.71644 0.89247 -0.42800
O 	O 	0.34120 0.10227 0.21667 -0.42100
O 	O 	0.41090 0.06695 0.28305 -0.30000
O 	O 	0.34270 0.19684 0.44784 -0.41000
O 	O 	0.23810 0.27034 0.43774 -0.45600
O 	O 	0.52430 0.19560 0.53378 -0.42600
O 	O 	0.64260 0.29076 0.53288 -0.31000
O 	O 	0.15670 0.19605 0.51300 -0.43400
O 	O 	0.11900 0.29313 0.52340 -0.40200
O 	O 	0.30080 0.41641 0.55306 -0.41700
O 	O 	0.37220 0.38404 0.61892 -0.32100
O 	O 	0.29580 0.50819 0.78273 -0.40800
O 	O 	0.21110 0.58980 0.77234 -0.44900
O 	O 	0.45490 0.99417 0.20396 -0.95500
H 	H 	0.52590 0.00520 0.19570 0.37000
H 	H 	0.46380 0.01080 0.23420 0.38100
O 	O 	0.40040 0.30218 0.54000 -0.96100
H 	H 	0.47360 0.31420 0.53370 0.37500
H 	H 	0.40550 0.31600 0.57050 0.38000
O 	O 	0.34760 0.61247 0.87619 -0.94700
H 	H 	0.35120 0.62490 0.90670 0.38000
H 	H 	0.42120 0.62520 0.87050 0.37500
C 	C 	0.21160 0.10948 0.80771 -0.08400
C 	C 	0.08690 0.07650 0.80385 0.02300
H 	H 	0.06770 0.03270 0.80020 0.04600
C 	C 	0.99140 0.10853 0.80546 -0.08600
C 	C 	0.01830 0.17391 0.80969 -0.00400
H 	H 	0.95340 0.19530 0.80990 0.04800
C 	C 	0.14350 0.20687 0.81362 -0.03900
C 	C 	0.23980 0.17336 0.81151 -0.00400
H 	H 	0.32300 0.19490 0.81270 0.04300
C 	C 	0.32230 0.07801 0.80584 0.34300
C 	C 	0.86760 0.07364 0.81041 0.31500
C 	C 	0.14470 0.37431 0.80140 0.10100
H 	H 	0.09790 0.39550 0.78250 0.00400
C 	C 	0.11060 0.30904 0.79070 -0.16700
H 	H 	0.04400 0.28670 0.76460 0.09100
C 	C 	0.17750 0.27717 0.81970 0.10700
C 	C 	0.27870 0.31312 0.85747 -0.16700
H 	H 	0.32560 0.29290 0.87720 0.09100
C 	C 	0.30880 0.37636 0.86548 0.09300
H 	H 	0.37710 0.39930 0.89070 -0.00300
C 	C 	0.67070 0.50570 0.85093 -0.10500
C 	C 	0.64380 0.44172 0.84580 0.01100
H 	H 	0.56240 0.42050 0.84720 0.04100
C 	C 	0.73630 0.40619 0.83842 -0.05100
C 	C 	0.85790 0.43926 0.83573 0.01000
H 	H 	0.91960 0.41720 0.82950 0.04000
C 	C 	0.88720 0.50698 0.84250 -0.12100
C 	C 	0.79830 0.54040 0.85180 0.04900
H 	H 	0.81950 0.58450 0.85850 0.03700
C 	C 	0.59630 0.24025 0.85027 0.07400
H 	H 	0.54390 0.22040 0.86850 0.00700
C 	C 	0.62480 0.30712 0.85704 -0.14600
H 	H 	0.59030 0.33150 0.87920 0.08400
C 	C 	0.70760 0.33650 0.82932 0.11200
C 	C 	0.74760 0.29972 0.79557 -0.17600
H 	H 	0.79540 0.31790 0.77530 0.09400
C 	C 	0.71850 0.23415 0.79039 0.10000
H 	H 	0.75110 0.20990 0.76740 -0.01400
C 	C 	0.56740 0.53802 0.86116 0.35600
C 	C 	0.02490 0.53768 0.84487 0.42400
C 	C 	0.74600 0.12844 0.96314 -0.11300
C 	C 	0.71180 0.18297 0.98572 0.04600
H 	H 	0.65410 0.20000 0.96760 0.03800
C 	C 	0.76370 0.21189 0.03524 -0.10800
C 	C 	0.85460 0.18553 0.06091 0.00800
H 	H 	0.89250 0.20500 0.09350 0.04400
C 	C 	0.88900 0.13227 0.03955 -0.05000
C 	C 	0.82700 0.10142 0.99090 0.01400
H 	H 	0.84070 0.06240 0.97730 0.03900
C 	C 	0.18410 0.12239 0.12472 0.09800
H 	H 	0.25630 0.15070 0.14510 -0.01600
C 	C 	0.09640 0.14560 0.09836 -0.16900
H 	H 	0.11110 0.18920 0.10110 0.09100
C 	C 	0.98570 0.10690 0.06749 0.10000
C 	C 	0.96630 0.03902 0.06692 -0.15700
H 	H 	0.89180 0.00960 0.04970 0.08900
C 	C 	0.06400 0.02200 0.09314 0.09500
H 	H 	0.05620 0.97870 0.09050 0.00700
C 	C 	0.69300 0.09622 0.90996 0.39300
C 	C 	0.73220 0.26844 0.06260 0.35800
C 	C 	0.70050 0.84959 0.70924 -0.09800
C 	C 	0.76840 0.81629 0.73413 0.01300
H 	H 	0.77470 0.82210 0.76790 0.04100
C 	C 	0.82890 0.77385 0.71103 -0.05300
C 	C 	0.81030 0.76215 0.66031 0.01800
H 	H 	0.84870 0.73300 0.64430 0.03700
C 	C 	0.73550 0.79277 0.63227 -0.12300
C 	C 	0.68340 0.83856 0.65767 0.04700
H 	H 	0.63740 0.86170 0.64050 0.03900
C 	C 	0.98310 0.70396 0.81053 0.08400
H 	H 	0.96990 0.69520 0.84040 0.01200
C 	C 	0.89630 0.73085 0.78426 -0.15900
H 	H 	0.82800 0.74090 0.79690 0.08900
C 	C 	0.91410 0.74212 0.73945 0.11100
C 	C 	0.01680 0.72437 0.72087 -0.17700
H 	H 	0.02940 0.72920 0.69000 0.09700
C 	C 	0.09740 0.69961 0.75030 0.11100
H 	H 	0.16560 0.68860 0.73810 -0.01800
C 	C 	0.63980 0.89482 0.73821 0.34300
C 	C 	0.71820 0.77457 0.57803 0.40900
C 	C 	0.26720 0.80004 0.47044 -0.08200
C 	C 	0.29200 0.86356 0.47402 -0.00400
H 	H 	0.37260 0.88490 0.47180 0.04800
C 	C 	0.19920 0.89814 0.48103 -0.03500
C 	C 	0.07630 0.86432 0.48287 -0.00300
H 	H 	0.01390 0.88650 0.48750 0.04600
C 	C 	0.04580 0.79858 0.47791 -0.09500
C 	C 	0.14140 0.76325 0.47114 0.01900
H 	H 	0.12360 0.71940 0.46740 0.04700
C 	C 	0.34060 0.06586 0.47268 0.07400
H 	H 	0.39370 0.08610 0.45490 0.01600
C 	C 	0.31070 0.99957 0.46405 -0.14600
H 	H 	0.34410 0.97600 0.44100 0.08600
C 	C 	0.23160 0.96979 0.49005 0.09400
C 	C 	0.18030 0.00510 0.52427 -0.14600
H 	H 	0.12390 0.98450 0.54070 0.08700
C 	C 	0.21320 0.07088 0.53387 0.06500
H 	H 	0.18270 0.09440 0.55800 -0.00500
C 	C 	0.37350 0.76626 0.46646 0.35200
C 	C 	0.91530 0.76677 0.48060 0.36500
C 	C 	0.73770 0.53451 0.37236 -0.10800
C 	C 	0.71750 0.52091 0.32195 0.05300
H 	H 	0.66700 0.54180 0.30420 0.03900
C 	C 	0.77210 0.47590 0.29691 -0.12000
C 	C 	0.84700 0.44596 0.32448 0.01700
H 	H 	0.88050 0.41480 0.30820 0.04000
C 	C 	0.87480 0.46077 0.37660 -0.04900
C 	C 	0.81370 0.50289 0.39987 0.00900
H 	H 	0.82270 0.51040 0.43380 0.04100
C 	C 	0.14970 0.38729 0.41306 0.08300
H 	H 	0.21550 0.37460 0.40010 -0.01200
C 	C 	0.06740 0.41532 0.38528 -0.15400
H 	H 	0.08130 0.42320 0.35520 0.08900
C 	C 	0.96350 0.43121 0.40391 0.09800
C 	C 	0.94820 0.41961 0.44996 -0.15200
H 	H 	0.88170 0.43030 0.46350 0.08800
C 	C 	0.03490 0.39165 0.47510 0.08400
H 	H 	0.02250 0.38190 0.50480 0.01000
C 	C 	0.68340 0.58249 0.40091 0.36600
C 	C 	0.75020 0.45757 0.24265 0.40300
C 	C 	0.83410 0.52350 0.06376 0.04500
H 	H 	0.90080 0.54520 0.09000 0.01500
C 	C 	0.84880 0.52403 0.01559 -0.10000
H 	H 	0.92480 0.54610 0.00980 0.07000
C 	C 	0.74860 0.49123 0.97644 0.02200
H 	H 	0.75720 0.49140 0.94430 0.03000
C 	C 	0.63420 0.45782 0.98567 -0.09700
H 	H 	0.56720 0.43550 0.95970 0.06900
C 	C 	0.62200 0.45845 0.03374 0.04800
H 	H 	0.54630 0.43680 0.03990 0.01200
N 	N 	0.24140 0.40866 0.83745 -0.21700
N 	N 	0.64640 0.20445 0.81664 -0.22800
N 	N 	0.17070 0.06077 0.12251 -0.22900
N 	N 	0.08690 0.69015 0.79353 -0.23100
N 	N 	0.29260 0.10168 0.50704 -0.21500
N 	N 	0.13580 0.37843 0.45737 -0.22500
N 	N 	0.72130 0.49099 0.07244 -0.21300
Ni	Ni	0.60096 0.10697 0.80781 1.10800
Ni	Ni	0.68818 0.97311 0.83859 1.11200
Ni	Ni	0.65630 0.79904 0.47798 1.10900
Ni	Ni	0.73414 0.66085 0.50236 1.10900
Ni	Ni	0.78803 0.34962 0.16511 1.11100
Ni	Ni	0.71302 0.49100 0.14547 1.12800
O 	O 	0.40660 0.10481 0.78748 -0.41100
O 	O 	0.32050 0.02734 0.82042 -0.30300
O 	O 	0.82760 0.01600 0.81222 -0.39400
O 	O 	0.77960 0.11046 0.80436 -0.39900
O 	O 	0.47040 0.50660 0.86861 -0.42000
O 	O 	0.58050 0.59733 0.85909 -0.29400
O 	O 	0.05280 0.59374 0.84857 -0.43200
O 	O 	0.09910 0.50159 0.83881 -0.44400
O 	O 	0.72170 0.04405 0.89738 -0.44800
O 	O 	0.63280 0.12357 0.88311 -0.42200
O 	O 	0.66340 0.29801 0.04134 -0.30600
O 	O 	0.78530 0.28356 0.10753 -0.42800
O 	O 	0.65880 0.89773 0.78333 -0.42100
O 	O 	0.58910 0.93305 0.71695 -0.30000
O 	O 	0.65730 0.80316 0.55216 -0.41000
O 	O 	0.76190 0.72966 0.56226 -0.45600
O 	O 	0.47570 0.80440 0.46622 -0.42600
O 	O 	0.35740 0.70924 0.46712 -0.31000
O 	O 	0.84330 0.80395 0.48700 -0.43400
O 	O 	0.88100 0.70687 0.47660 -0.40200
O 	O 	0.69920 0.58359 0.44694 -0.41700
O 	O 	0.62780 0.61596 0.38108 -0.32100
O 	O 	0.70420 0.49181 0.21727 -0.40800
O 	O 	0.78890 0.41020 0.22766 -0.44900
O 	O 	0.54510 0.00583 0.79604 -0.95500
H 	H 	0.47410 0.99480 0.80430 0.37000
H 	H 	0.53620 0.98920 0.76580 0.38100
O 	O 	0.59960 0.69782 0.46000 -0.96100
H 	H 	0.52640 0.68580 0.46630 0.37500
H 	H 	0.59450 0.68400 0.42950 0.38000
O 	O 	0.65240 0.38753 0.12381 -0.94700
H 	H 	0.64880 0.37510 0.09330 0.38000
H 	H 	0.57880 0.37480 0.12950 0.37500
