data_crystal

_cell_length_a 15.82500
_cell_length_b 15.82500
_cell_length_c 43.70300
_cell_angle_alpha 90.00000
_cell_angle_beta  90.00000
_cell_angle_gamma 120.00000

_symmetry_space_group_name_	'P 1'
_symmetry_space_group_name_H-M	'P 1'

loop_
_symmetry_equiv_pos_as_xyz
  x,y,z

loop_
_atom_site_label
_atom_site_type_symbol
_atom_site_fract_x
_atom_site_fract_y
_atom_site_fract_z
_atom_site_charge
C 	C 	0.58777 0.66765 0.03511 0.04400
C 	C 	0.63950 0.65174 0.05893 -0.09100
H 	H 	0.60790 0.62490 0.07790 0.02700
C 	C 	0.73437 0.67480 0.05479 -0.03300
H 	H 	0.76730 0.66140 0.07060 0.03500
C 	C 	0.78456 0.71920 0.02689 -0.03200
H 	H 	0.85090 0.73610 0.02450 0.03300
C 	C 	0.73790 0.73747 0.00352 -0.07900
H 	H 	0.77150 0.76880 0.98530 0.06500
C 	C 	0.64003 0.70877 0.00738 0.04800
C 	C 	0.49610 0.69965 0.98800 -0.02800
H 	H 	0.46090 0.70840 0.97190 0.03200
C 	C 	0.45110 0.66488 0.01676 0.04100
C 	C 	0.35199 0.65086 0.02149 0.00800
C 	C 	0.30387 0.67816 0.99715 0.01800
H 	H 	0.35400 0.73670 0.98620 0.02400
H 	H 	0.25750 0.69490 0.00680 0.01800
C 	C 	0.24940 0.59610 0.97422 -0.40900
H 	H 	0.29440 0.57720 0.96530 0.15100
H 	H 	0.22250 0.61840 0.95800 0.14100
H 	H 	0.19610 0.53980 0.98460 0.14700
C 	C 	0.12920 0.37040 0.07719 -0.36200
H 	H 	0.18470 0.40900 0.09080 0.12500
H 	H 	0.13350 0.31470 0.06920 0.12500
H 	H 	0.06820 0.34670 0.08860 0.13000
C 	C 	0.13125 0.43402 0.05054 -0.02600
H 	H 	0.18290 0.44270 0.03600 0.03400
H 	H 	0.06800 0.39990 0.03960 0.04200
C 	C 	0.14946 0.53143 0.06048 0.02300
C 	C 	0.07175 0.54193 0.07609 0.03900
C 	C 	0.97662 0.46389 0.07707 -0.03200
H 	H 	0.96250 0.40320 0.06840 0.04600
C 	C 	0.92571 0.56140 0.10347 0.04700
C 	C 	0.85259 0.57504 0.11522 -0.07300
H 	H 	0.78640 0.52410 0.11470 0.05900
C 	C 	0.87766 0.66320 0.12751 -0.03500
H 	H 	0.82820 0.67330 0.13610 0.03100
C 	C 	0.97570 0.74090 0.12796 -0.02100
H 	H 	0.99150 0.80170 0.13700 0.02900
C 	C 	0.04601 0.72796 0.11559 -0.09000
H 	H 	0.11140 0.78060 0.11570 0.03100
C 	C 	0.02517 0.63737 0.10232 0.05300
N 	N 	0.58633 0.71986 0.98352 -0.06200
N 	N 	0.49602 0.64793 0.03976 -0.18000
N 	N 	0.31257 0.61222 0.04712 -0.13200
N 	N 	0.22864 0.61122 0.05670 -0.13500
N 	N 	0.09657 0.62856 0.08927 -0.17800
N 	N 	0.90537 0.47225 0.08982 -0.05900
O 	O 	0.81556 0.39857 0.09033 -0.19800
O 	O 	0.62952 0.74915 0.95675 -0.21200
C 	C 	0.33235 0.92012 0.70178 0.04500
C 	C 	0.34826 0.98776 0.72560 -0.08900
H 	H 	0.37510 0.98300 0.74457 0.02700
C 	C 	0.32520 0.05957 0.72146 -0.03400
H 	H 	0.33860 0.10590 0.73727 0.03500
C 	C 	0.28080 0.06536 0.69356 -0.03200
H 	H 	0.26390 0.11480 0.69117 0.03300
C 	C 	0.26253 0.00043 0.67019 -0.08000
H 	H 	0.23120 0.00270 0.65197 0.06500
C 	C 	0.29123 0.93126 0.67405 0.04800
C 	C 	0.30035 0.79645 0.65467 -0.02800
H 	H 	0.29160 0.75250 0.63857 0.03200
C 	C 	0.33512 0.78622 0.68343 0.04100
C 	C 	0.34914 0.70113 0.68816 0.00800
C 	C 	0.32184 0.62571 0.66382 0.01800
H 	H 	0.26330 0.61730 0.65287 0.02400
H 	H 	0.30510 0.56260 0.67347 0.01800
C 	C 	0.40390 0.65330 0.64089 -0.40900
H 	H 	0.42280 0.71720 0.63197 0.15100
H 	H 	0.38160 0.60410 0.62467 0.14100
H 	H 	0.46020 0.65630 0.65127 0.14700
C 	C 	0.62960 0.75880 0.74386 -0.36200
H 	H 	0.59100 0.77570 0.75747 0.12500
H 	H 	0.68530 0.81880 0.73587 0.12500
H 	H 	0.65330 0.72150 0.75527 0.13100
C 	C 	0.56598 0.69723 0.71721 -0.02500
H 	H 	0.55730 0.74020 0.70267 0.03400
H 	H 	0.60010 0.66810 0.70627 0.04200
C 	C 	0.46857 0.61803 0.72715 0.02300
C 	C 	0.45807 0.52982 0.74276 0.03900
C 	C 	0.53611 0.51273 0.74374 -0.03300
H 	H 	0.59680 0.55930 0.73507 0.04700
C 	C 	0.43860 0.36431 0.77014 0.04600
C 	C 	0.42496 0.27755 0.78189 -0.07300
H 	H 	0.47590 0.26230 0.78137 0.05900
C 	C 	0.33680 0.21446 0.79418 -0.03500
H 	H 	0.32670 0.15490 0.80277 0.03100
C 	C 	0.25910 0.23480 0.79463 -0.02100
H 	H 	0.19830 0.18980 0.80367 0.02900
C 	C 	0.27204 0.31805 0.78226 -0.09000
H 	H 	0.21940 0.33080 0.78237 0.03100
C 	C 	0.36263 0.38780 0.76899 0.05300
N 	N 	0.28014 0.86647 0.65019 -0.06200
N 	N 	0.35207 0.84809 0.70643 -0.18000
N 	N 	0.38778 0.70035 0.71379 -0.13200
N 	N 	0.38878 0.61742 0.72337 -0.13500
N 	N 	0.37144 0.46801 0.75594 -0.17800
N 	N 	0.52775 0.43312 0.75649 -0.05900
O 	O 	0.60143 0.41699 0.75700 -0.19800
O 	O 	0.25085 0.88037 0.62342 -0.21200
C 	C 	0.07988 0.41223 0.36844 0.04500
C 	C 	0.01224 0.36050 0.39226 -0.08900
H 	H 	0.01700 0.39210 0.41123 0.02700
C 	C 	0.94043 0.26563 0.38812 -0.03400
H 	H 	0.89410 0.23270 0.40393 0.03500
C 	C 	0.93464 0.21544 0.36022 -0.03200
H 	H 	0.88520 0.14910 0.35783 0.03300
C 	C 	0.99957 0.26210 0.33685 -0.08000
H 	H 	0.99730 0.22850 0.31863 0.06500
C 	C 	0.06874 0.35997 0.34071 0.04800
C 	C 	0.20355 0.50390 0.32133 -0.02800
H 	H 	0.24750 0.53910 0.30523 0.03200
C 	C 	0.21378 0.54890 0.35009 0.04100
C 	C 	0.29887 0.64801 0.35482 0.00800
C 	C 	0.37429 0.69613 0.33048 0.01800
H 	H 	0.38270 0.64600 0.31953 0.02400
H 	H 	0.43740 0.74250 0.34013 0.01800
C 	C 	0.34670 0.75060 0.30755 -0.40900
H 	H 	0.28280 0.70560 0.29863 0.15100
H 	H 	0.39590 0.77750 0.29133 0.14100
H 	H 	0.34370 0.80390 0.31793 0.14700
C 	C 	0.24120 0.87080 0.41052 -0.36200
H 	H 	0.22430 0.81530 0.42413 0.12500
H 	H 	0.18120 0.86650 0.40253 0.12500
H 	H 	0.27850 0.93180 0.42193 0.13100
C 	C 	0.30277 0.86875 0.38387 -0.02500
H 	H 	0.25980 0.81710 0.36933 0.03400
H 	H 	0.33190 0.93200 0.37293 0.04200
C 	C 	0.38197 0.85054 0.39381 0.02300
C 	C 	0.47018 0.92825 0.40942 0.03900
C 	C 	0.48727 0.02338 0.41040 -0.03300
H 	H 	0.44070 0.03750 0.40173 0.04600
C 	C 	0.63569 0.07429 0.43680 0.04700
C 	C 	0.72245 0.14741 0.44855 -0.07300
H 	H 	0.73770 0.21360 0.44803 0.05900
C 	C 	0.78554 0.12234 0.46084 -0.03500
H 	H 	0.84510 0.17180 0.46943 0.03100
C 	C 	0.76520 0.02430 0.46129 -0.02100
H 	H 	0.81020 0.00850 0.47033 0.02900
C 	C 	0.68195 0.95399 0.44892 -0.09000
H 	H 	0.66920 0.88860 0.44903 0.03100
C 	C 	0.61220 0.97483 0.43565 0.05300
N 	N 	0.13353 0.41367 0.31685 -0.06200
N 	N 	0.15191 0.50398 0.37309 -0.18000
N 	N 	0.29965 0.68743 0.38045 -0.13200
N 	N 	0.38258 0.77136 0.39003 -0.13500
N 	N 	0.53199 0.90343 0.42260 -0.17800
N 	N 	0.56688 0.09463 0.42315 -0.05900
O 	O 	0.58301 0.18444 0.42366 -0.19800
O 	O 	0.11963 0.37048 0.29008 -0.21200
C 	C 	0.33235 0.41223 0.13156 0.04500
C 	C 	0.34826 0.36050 0.10774 -0.09000
H 	H 	0.37510 0.39210 0.08877 0.02700
C 	C 	0.32520 0.26563 0.11188 -0.03300
H 	H 	0.33860 0.23270 0.09607 0.03500
C 	C 	0.28080 0.21544 0.13978 -0.03200
H 	H 	0.26390 0.14910 0.14217 0.03300
C 	C 	0.26253 0.26210 0.16315 -0.07900
H 	H 	0.23120 0.22850 0.18137 0.06500
C 	C 	0.29123 0.35997 0.15929 0.04800
C 	C 	0.30035 0.50390 0.17867 -0.02800
H 	H 	0.29160 0.53910 0.19477 0.03200
C 	C 	0.33512 0.54890 0.14991 0.04100
C 	C 	0.34914 0.64801 0.14518 0.00800
C 	C 	0.32184 0.69613 0.16952 0.01800
H 	H 	0.26330 0.64600 0.18047 0.02400
H 	H 	0.30510 0.74250 0.15987 0.01800
C 	C 	0.40390 0.75060 0.19245 -0.40900
H 	H 	0.42280 0.70560 0.20137 0.15100
H 	H 	0.38160 0.77750 0.20867 0.14100
H 	H 	0.46020 0.80390 0.18207 0.14700
C 	C 	0.62960 0.87080 0.08948 -0.36200
H 	H 	0.59100 0.81530 0.07587 0.12500
H 	H 	0.68530 0.86650 0.09747 0.12500
H 	H 	0.65330 0.93180 0.07807 0.13000
C 	C 	0.56598 0.86875 0.11613 -0.02600
H 	H 	0.55730 0.81710 0.13067 0.03400
H 	H 	0.60010 0.93200 0.12707 0.04200
C 	C 	0.46857 0.85054 0.10619 0.02300
C 	C 	0.45807 0.92825 0.09058 0.03900
C 	C 	0.53611 0.02338 0.08960 -0.03200
H 	H 	0.59680 0.03750 0.09827 0.04600
C 	C 	0.43860 0.07429 0.06320 0.04700
C 	C 	0.42496 0.14741 0.05145 -0.07300
H 	H 	0.47590 0.21360 0.05197 0.05900
C 	C 	0.33680 0.12234 0.03916 -0.03500
H 	H 	0.32670 0.17180 0.03057 0.03100
C 	C 	0.25910 0.02430 0.03871 -0.02100
H 	H 	0.19830 0.00850 0.02967 0.02900
C 	C 	0.27204 0.95399 0.05108 -0.09000
H 	H 	0.21940 0.88860 0.05097 0.03100
C 	C 	0.36263 0.97483 0.06435 0.05300
N 	N 	0.28014 0.41367 0.18315 -0.06200
N 	N 	0.35207 0.50398 0.12691 -0.18000
N 	N 	0.38778 0.68743 0.11955 -0.13200
N 	N 	0.38878 0.77136 0.10997 -0.13500
N 	N 	0.37144 0.90343 0.07740 -0.17800
N 	N 	0.52775 0.09463 0.07685 -0.05900
O 	O 	0.60143 0.18444 0.07634 -0.19800
O 	O 	0.25085 0.37048 0.20992 -0.21200
C 	C 	0.07988 0.66765 0.46489 0.04500
C 	C 	0.01224 0.65174 0.44107 -0.08900
H 	H 	0.01700 0.62490 0.42210 0.02700
C 	C 	0.94043 0.67480 0.44521 -0.03400
H 	H 	0.89410 0.66140 0.42940 0.03500
C 	C 	0.93464 0.71920 0.47311 -0.03200
H 	H 	0.88520 0.73610 0.47550 0.03300
C 	C 	0.99957 0.73747 0.49648 -0.08000
H 	H 	0.99730 0.76880 0.51470 0.06500
C 	C 	0.06874 0.70877 0.49262 0.04800
C 	C 	0.20355 0.69965 0.51200 -0.02800
H 	H 	0.24750 0.70840 0.52810 0.03200
C 	C 	0.21378 0.66488 0.48324 0.04100
C 	C 	0.29887 0.65086 0.47851 0.00800
C 	C 	0.37429 0.67816 0.50285 0.01800
H 	H 	0.38270 0.73670 0.51380 0.02400
H 	H 	0.43740 0.69490 0.49320 0.01800
C 	C 	0.34670 0.59610 0.52578 -0.40900
H 	H 	0.28280 0.57720 0.53470 0.15100
H 	H 	0.39590 0.61840 0.54200 0.14100
H 	H 	0.34370 0.53980 0.51540 0.14700
C 	C 	0.24120 0.37040 0.42281 -0.36200
H 	H 	0.22430 0.40900 0.40920 0.12500
H 	H 	0.18120 0.31470 0.43080 0.12500
H 	H 	0.27850 0.34670 0.41140 0.13100
C 	C 	0.30277 0.43402 0.44946 -0.02500
H 	H 	0.25980 0.44270 0.46400 0.03400
H 	H 	0.33190 0.39990 0.46040 0.04200
C 	C 	0.38197 0.53143 0.43952 0.02300
C 	C 	0.47018 0.54193 0.42391 0.03900
C 	C 	0.48727 0.46389 0.42293 -0.03300
H 	H 	0.44070 0.40320 0.43160 0.04700
C 	C 	0.63569 0.56140 0.39653 0.04600
C 	C 	0.72245 0.57504 0.38478 -0.07300
H 	H 	0.73770 0.52410 0.38530 0.05900
C 	C 	0.78554 0.66320 0.37249 -0.03500
H 	H 	0.84510 0.67330 0.36390 0.03100
C 	C 	0.76520 0.74090 0.37204 -0.02100
H 	H 	0.81020 0.80170 0.36300 0.02900
C 	C 	0.68195 0.72796 0.38441 -0.09000
H 	H 	0.66920 0.78060 0.38430 0.03100
C 	C 	0.61220 0.63737 0.39768 0.05300
N 	N 	0.13353 0.71986 0.51648 -0.06200
N 	N 	0.15191 0.64793 0.46024 -0.18000
N 	N 	0.29965 0.61222 0.45288 -0.13200
N 	N 	0.38258 0.61122 0.44330 -0.13500
N 	N 	0.53199 0.62856 0.41073 -0.17800
N 	N 	0.56688 0.47225 0.41018 -0.05900
O 	O 	0.58301 0.39857 0.40967 -0.19800
O 	O 	0.11963 0.74915 0.54325 -0.21200
C 	C 	0.58777 0.92012 0.79822 0.04500
C 	C 	0.63950 0.98776 0.77440 -0.08900
H 	H 	0.60790 0.98300 0.75543 0.02700
C 	C 	0.73437 0.05957 0.77854 -0.03400
H 	H 	0.76730 0.10590 0.76273 0.03500
C 	C 	0.78456 0.06536 0.80644 -0.03200
H 	H 	0.85090 0.11480 0.80883 0.03300
C 	C 	0.73790 0.00043 0.82981 -0.08000
H 	H 	0.77150 0.00270 0.84803 0.06500
C 	C 	0.64003 0.93126 0.82595 0.04800
C 	C 	0.49610 0.79645 0.84533 -0.02800
H 	H 	0.46090 0.75250 0.86143 0.03200
C 	C 	0.45110 0.78622 0.81657 0.04100
C 	C 	0.35199 0.70113 0.81184 0.00800
C 	C 	0.30387 0.62571 0.83618 0.01800
H 	H 	0.35400 0.61730 0.84713 0.02400
H 	H 	0.25750 0.56260 0.82653 0.01800
C 	C 	0.24940 0.65330 0.85911 -0.40900
H 	H 	0.29440 0.71720 0.86803 0.15100
H 	H 	0.22250 0.60410 0.87533 0.14100
H 	H 	0.19610 0.65630 0.84873 0.14700
C 	C 	0.12920 0.75880 0.75614 -0.36200
H 	H 	0.18470 0.77570 0.74253 0.12500
H 	H 	0.13350 0.81880 0.76413 0.12500
H 	H 	0.06820 0.72150 0.74473 0.13100
C 	C 	0.13125 0.69723 0.78279 -0.02500
H 	H 	0.18290 0.74020 0.79733 0.03400
H 	H 	0.06800 0.66810 0.79373 0.04200
C 	C 	0.14946 0.61803 0.77285 0.02300
C 	C 	0.07175 0.52982 0.75724 0.03900
C 	C 	0.97662 0.51273 0.75626 -0.03300
H 	H 	0.96250 0.55930 0.76493 0.04600
C 	C 	0.92571 0.36431 0.72986 0.04700
C 	C 	0.85259 0.27755 0.71811 -0.07300
H 	H 	0.78640 0.26230 0.71863 0.05900
C 	C 	0.87766 0.21446 0.70582 -0.03500
H 	H 	0.82820 0.15490 0.69723 0.03100
C 	C 	0.97570 0.23480 0.70537 -0.02100
H 	H 	0.99150 0.18980 0.69633 0.02900
C 	C 	0.04601 0.31805 0.71774 -0.09000
H 	H 	0.11140 0.33080 0.71763 0.03100
C 	C 	0.02517 0.38780 0.73101 0.05300
N 	N 	0.58633 0.86647 0.84981 -0.06200
N 	N 	0.49602 0.84809 0.79357 -0.18000
N 	N 	0.31257 0.70035 0.78621 -0.13200
N 	N 	0.22864 0.61742 0.77663 -0.13500
N 	N 	0.09657 0.46801 0.74406 -0.17800
N 	N 	0.90537 0.43312 0.74351 -0.05900
O 	O 	0.81556 0.41699 0.74300 -0.19800
O 	O 	0.62952 0.88037 0.87658 -0.21200
Ag	Ag	0.41316 0.58684 0.08333 0.53400
Ag	Ag	0.24757 0.75243 0.08333 0.54000
Ag	Ag	0.41316 0.82633 0.75000 0.53400
Ag	Ag	0.24757 0.49515 0.75000 0.54000
Ag	Ag	0.17367 0.58684 0.41667 0.53400
Ag	Ag	0.50485 0.75243 0.41667 0.54000
Ag	Ag	0.54626 0.77313 0.91667 0.56400
Ag	Ag	0.22687 0.77313 0.58333 0.56400
Ag	Ag	0.22687 0.45374 0.25000 0.56400
C 	C 	0.41223 0.33235 0.53511 0.04500
C 	C 	0.36050 0.34826 0.55893 -0.09000
H 	H 	0.39210 0.37510 0.57790 0.02700
C 	C 	0.26563 0.32520 0.55479 -0.03300
H 	H 	0.23270 0.33860 0.57060 0.03500
C 	C 	0.21544 0.28080 0.52689 -0.03200
H 	H 	0.14910 0.26390 0.52450 0.03300
C 	C 	0.26210 0.26253 0.50352 -0.07900
H 	H 	0.22850 0.23120 0.48530 0.06500
C 	C 	0.35997 0.29123 0.50738 0.04800
C 	C 	0.50390 0.30035 0.48800 -0.02800
H 	H 	0.53910 0.29160 0.47190 0.03200
C 	C 	0.54890 0.33512 0.51676 0.04100
C 	C 	0.64801 0.34914 0.52149 0.00800
C 	C 	0.69613 0.32184 0.49715 0.01800
H 	H 	0.64600 0.26330 0.48620 0.02400
H 	H 	0.74250 0.30510 0.50680 0.01800
C 	C 	0.75060 0.40390 0.47422 -0.40900
H 	H 	0.70560 0.42280 0.46530 0.15100
H 	H 	0.77750 0.38160 0.45800 0.14100
H 	H 	0.80390 0.46020 0.48460 0.14700
C 	C 	0.87080 0.62960 0.57719 -0.36200
H 	H 	0.81530 0.59100 0.59080 0.12500
H 	H 	0.86650 0.68530 0.56920 0.12500
H 	H 	0.93180 0.65330 0.58860 0.13100
C 	C 	0.86875 0.56598 0.55054 -0.02600
H 	H 	0.81710 0.55730 0.53600 0.03400
H 	H 	0.93200 0.60010 0.53960 0.04200
C 	C 	0.85054 0.46857 0.56048 0.02300
C 	C 	0.92825 0.45807 0.57609 0.03900
C 	C 	0.02338 0.53611 0.57707 -0.03200
H 	H 	0.03750 0.59680 0.56840 0.04600
C 	C 	0.07429 0.43860 0.60347 0.04700
C 	C 	0.14741 0.42496 0.61522 -0.07300
H 	H 	0.21360 0.47590 0.61470 0.05900
C 	C 	0.12234 0.33680 0.62751 -0.03500
H 	H 	0.17180 0.32670 0.63610 0.03100
C 	C 	0.02430 0.25910 0.62796 -0.02100
H 	H 	0.00850 0.19830 0.63700 0.02900
C 	C 	0.95399 0.27204 0.61559 -0.09000
H 	H 	0.88860 0.21940 0.61570 0.03100
C 	C 	0.97483 0.36263 0.60232 0.05300
N 	N 	0.41367 0.28014 0.48352 -0.06200
N 	N 	0.50398 0.35207 0.53976 -0.18000
N 	N 	0.68743 0.38778 0.54712 -0.13200
N 	N 	0.77136 0.38878 0.55670 -0.13500
N 	N 	0.90343 0.37144 0.58927 -0.17800
N 	N 	0.09463 0.52775 0.58982 -0.05900
O 	O 	0.18444 0.60143 0.59033 -0.19800
O 	O 	0.37048 0.25085 0.45675 -0.21200
C 	C 	0.66765 0.07988 0.20178 0.04500
C 	C 	0.65174 0.01224 0.22560 -0.08900
H 	H 	0.62490 0.01700 0.24457 0.02700
C 	C 	0.67480 0.94043 0.22146 -0.03400
H 	H 	0.66140 0.89410 0.23727 0.03500
C 	C 	0.71920 0.93464 0.19356 -0.03200
H 	H 	0.73610 0.88520 0.19117 0.03300
C 	C 	0.73747 0.99957 0.17019 -0.08000
H 	H 	0.76880 0.99730 0.15197 0.06500
C 	C 	0.70877 0.06874 0.17405 0.04800
C 	C 	0.69965 0.20355 0.15467 -0.02800
H 	H 	0.70840 0.24750 0.13857 0.03200
C 	C 	0.66488 0.21378 0.18343 0.04100
C 	C 	0.65086 0.29887 0.18816 0.00800
C 	C 	0.67816 0.37429 0.16382 0.01800
H 	H 	0.73670 0.38270 0.15287 0.02400
H 	H 	0.69490 0.43740 0.17347 0.01800
C 	C 	0.59610 0.34670 0.14089 -0.40900
H 	H 	0.57720 0.28280 0.13197 0.15100
H 	H 	0.61840 0.39590 0.12467 0.14100
H 	H 	0.53980 0.34370 0.15127 0.14700
C 	C 	0.37040 0.24120 0.24386 -0.36200
H 	H 	0.40900 0.22430 0.25747 0.12500
H 	H 	0.31470 0.18120 0.23587 0.12500
H 	H 	0.34670 0.27850 0.25527 0.13100
C 	C 	0.43402 0.30277 0.21721 -0.02500
H 	H 	0.44270 0.25980 0.20267 0.03400
H 	H 	0.39990 0.33190 0.20627 0.04200
C 	C 	0.53143 0.38197 0.22715 0.02300
C 	C 	0.54193 0.47018 0.24276 0.03900
C 	C 	0.46389 0.48727 0.24374 -0.03300
H 	H 	0.40320 0.44070 0.23507 0.04700
C 	C 	0.56140 0.63569 0.27014 0.04600
C 	C 	0.57504 0.72245 0.28189 -0.07300
H 	H 	0.52410 0.73770 0.28137 0.05900
C 	C 	0.66320 0.78554 0.29418 -0.03500
H 	H 	0.67330 0.84510 0.30277 0.03100
C 	C 	0.74090 0.76520 0.29463 -0.02100
H 	H 	0.80170 0.81020 0.30367 0.02900
C 	C 	0.72796 0.68195 0.28226 -0.09000
H 	H 	0.78060 0.66920 0.28237 0.03100
C 	C 	0.63737 0.61220 0.26899 0.05300
N 	N 	0.71986 0.13353 0.15019 -0.06200
N 	N 	0.64793 0.15191 0.20643 -0.18000
N 	N 	0.61222 0.29965 0.21379 -0.13200
N 	N 	0.61122 0.38258 0.22337 -0.13500
N 	N 	0.62856 0.53199 0.25594 -0.17800
N 	N 	0.47225 0.56688 0.25649 -0.05900
O 	O 	0.39857 0.58301 0.25700 -0.19800
O 	O 	0.74915 0.11963 0.12342 -0.21200
C 	C 	0.92012 0.58777 0.86844 0.04500
C 	C 	0.98776 0.63950 0.89226 -0.08900
H 	H 	0.98300 0.60790 0.91123 0.02700
C 	C 	0.05957 0.73437 0.88812 -0.03400
H 	H 	0.10590 0.76730 0.90393 0.03500
C 	C 	0.06536 0.78456 0.86022 -0.03200
H 	H 	0.11480 0.85090 0.85783 0.03300
C 	C 	0.00043 0.73790 0.83685 -0.08000
H 	H 	0.00270 0.77150 0.81863 0.06500
C 	C 	0.93126 0.64003 0.84071 0.04800
C 	C 	0.79645 0.49610 0.82133 -0.02800
H 	H 	0.75250 0.46090 0.80523 0.03200
C 	C 	0.78622 0.45110 0.85009 0.04100
C 	C 	0.70113 0.35199 0.85482 0.00800
C 	C 	0.62571 0.30387 0.83048 0.01800
H 	H 	0.61730 0.35400 0.81953 0.02400
H 	H 	0.56260 0.25750 0.84013 0.01800
C 	C 	0.65330 0.24940 0.80755 -0.40900
H 	H 	0.71720 0.29440 0.79863 0.15100
H 	H 	0.60410 0.22250 0.79133 0.14100
H 	H 	0.65630 0.19610 0.81793 0.14700
C 	C 	0.75880 0.12920 0.91052 -0.36200
H 	H 	0.77570 0.18470 0.92413 0.12500
H 	H 	0.81880 0.13350 0.90253 0.12500
H 	H 	0.72150 0.06820 0.92193 0.13100
C 	C 	0.69723 0.13125 0.88387 -0.02500
H 	H 	0.74020 0.18290 0.86933 0.03400
H 	H 	0.66810 0.06800 0.87293 0.04200
C 	C 	0.61803 0.14946 0.89381 0.02300
C 	C 	0.52982 0.07175 0.90942 0.03900
C 	C 	0.51273 0.97662 0.91040 -0.03200
H 	H 	0.55930 0.96250 0.90173 0.04600
C 	C 	0.36431 0.92571 0.93680 0.04700
C 	C 	0.27755 0.85259 0.94855 -0.07300
H 	H 	0.26230 0.78640 0.94803 0.05900
C 	C 	0.21446 0.87766 0.96084 -0.03500
H 	H 	0.15490 0.82820 0.96943 0.03100
C 	C 	0.23480 0.97570 0.96129 -0.02100
H 	H 	0.18980 0.99150 0.97033 0.02900
C 	C 	0.31805 0.04601 0.94892 -0.09000
H 	H 	0.33080 0.11140 0.94903 0.03100
C 	C 	0.38780 0.02517 0.93565 0.05300
N 	N 	0.86647 0.58633 0.81685 -0.06200
N 	N 	0.84809 0.49602 0.87309 -0.18000
N 	N 	0.70035 0.31257 0.88045 -0.13200
N 	N 	0.61742 0.22864 0.89003 -0.13500
N 	N 	0.46801 0.09657 0.92260 -0.17800
N 	N 	0.43312 0.90537 0.92315 -0.05900
O 	O 	0.41699 0.81556 0.92366 -0.19800
O 	O 	0.88037 0.62952 0.79008 -0.21200
C 	C 	0.66765 0.58777 0.63156 0.04500
C 	C 	0.65174 0.63950 0.60774 -0.09000
H 	H 	0.62490 0.60790 0.58877 0.02700
C 	C 	0.67480 0.73437 0.61188 -0.03300
H 	H 	0.66140 0.76730 0.59607 0.03500
C 	C 	0.71920 0.78456 0.63978 -0.03200
H 	H 	0.73610 0.85090 0.64217 0.03300
C 	C 	0.73747 0.73790 0.66315 -0.07900
H 	H 	0.76880 0.77150 0.68137 0.06500
C 	C 	0.70877 0.64003 0.65929 0.04800
C 	C 	0.69965 0.49610 0.67867 -0.02800
H 	H 	0.70840 0.46090 0.69477 0.03200
C 	C 	0.66488 0.45110 0.64991 0.04100
C 	C 	0.65086 0.35199 0.64518 0.00800
C 	C 	0.67816 0.30387 0.66952 0.01800
H 	H 	0.73670 0.35400 0.68047 0.02400
H 	H 	0.69490 0.25750 0.65987 0.01800
C 	C 	0.59610 0.24940 0.69245 -0.40900
H 	H 	0.57720 0.29440 0.70137 0.15100
H 	H 	0.61840 0.22250 0.70867 0.14100
H 	H 	0.53980 0.19610 0.68207 0.14700
C 	C 	0.37040 0.12920 0.58948 -0.36200
H 	H 	0.40900 0.18470 0.57587 0.12500
H 	H 	0.31470 0.13350 0.59747 0.12500
H 	H 	0.34670 0.06820 0.57807 0.13000
C 	C 	0.43402 0.13125 0.61613 -0.02600
H 	H 	0.44270 0.18290 0.63067 0.03400
H 	H 	0.39990 0.06800 0.62707 0.04200
C 	C 	0.53143 0.14946 0.60619 0.02300
C 	C 	0.54193 0.07175 0.59058 0.03900
C 	C 	0.46389 0.97662 0.58960 -0.03200
H 	H 	0.40320 0.96250 0.59827 0.04600
C 	C 	0.56140 0.92571 0.56320 0.04700
C 	C 	0.57504 0.85259 0.55145 -0.07300
H 	H 	0.52410 0.78640 0.55197 0.05900
C 	C 	0.66320 0.87766 0.53916 -0.03500
H 	H 	0.67330 0.82820 0.53057 0.03100
C 	C 	0.74090 0.97570 0.53871 -0.02100
H 	H 	0.80170 0.99150 0.52967 0.02900
C 	C 	0.72796 0.04601 0.55108 -0.09000
H 	H 	0.78060 0.11140 0.55097 0.03100
C 	C 	0.63737 0.02517 0.56435 0.05300
N 	N 	0.71986 0.58633 0.68315 -0.06200
N 	N 	0.64793 0.49602 0.62691 -0.18000
N 	N 	0.61222 0.31257 0.61955 -0.13200
N 	N 	0.61122 0.22864 0.60997 -0.13500
N 	N 	0.62856 0.09657 0.57740 -0.17800
N 	N 	0.47225 0.90537 0.57685 -0.05900
O 	O 	0.39857 0.81556 0.57634 -0.19800
O 	O 	0.74915 0.62952 0.70992 -0.21200
C 	C 	0.92012 0.33235 0.96489 0.04500
C 	C 	0.98776 0.34826 0.94107 -0.08900
H 	H 	0.98300 0.37510 0.92210 0.02700
C 	C 	0.05957 0.32520 0.94521 -0.03400
H 	H 	0.10590 0.33860 0.92940 0.03500
C 	C 	0.06536 0.28080 0.97311 -0.03200
H 	H 	0.11480 0.26390 0.97550 0.03300
C 	C 	0.00043 0.26253 0.99648 -0.08000
H 	H 	0.00270 0.23120 0.01470 0.06500
C 	C 	0.93126 0.29123 0.99262 0.04800
C 	C 	0.79645 0.30035 0.01200 -0.02800
H 	H 	0.75250 0.29160 0.02810 0.03200
C 	C 	0.78622 0.33512 0.98324 0.04100
C 	C 	0.70113 0.34914 0.97851 0.00800
C 	C 	0.62571 0.32184 0.00285 0.01800
H 	H 	0.61730 0.26330 0.01380 0.02400
H 	H 	0.56260 0.30510 0.99320 0.01800
C 	C 	0.65330 0.40390 0.02578 -0.40900
H 	H 	0.71720 0.42280 0.03470 0.15100
H 	H 	0.60410 0.38160 0.04200 0.14100
H 	H 	0.65630 0.46020 0.01540 0.14700
C 	C 	0.75880 0.62960 0.92281 -0.36200
H 	H 	0.77570 0.59100 0.90920 0.12500
H 	H 	0.81880 0.68530 0.93080 0.12500
H 	H 	0.72150 0.65330 0.91140 0.13100
C 	C 	0.69723 0.56598 0.94946 -0.02500
H 	H 	0.74020 0.55730 0.96400 0.03400
H 	H 	0.66810 0.60010 0.96040 0.04200
C 	C 	0.61803 0.46857 0.93952 0.02300
C 	C 	0.52982 0.45807 0.92391 0.03900
C 	C 	0.51273 0.53611 0.92293 -0.03300
H 	H 	0.55930 0.59680 0.93160 0.04700
C 	C 	0.36431 0.43860 0.89653 0.04600
C 	C 	0.27755 0.42496 0.88478 -0.07300
H 	H 	0.26230 0.47590 0.88530 0.05900
C 	C 	0.21446 0.33680 0.87249 -0.03500
H 	H 	0.15490 0.32670 0.86390 0.03100
C 	C 	0.23480 0.25910 0.87204 -0.02100
H 	H 	0.18980 0.19830 0.86300 0.02900
C 	C 	0.31805 0.27204 0.88441 -0.09000
H 	H 	0.33080 0.21940 0.88430 0.03100
C 	C 	0.38780 0.36263 0.89768 0.05300
N 	N 	0.86647 0.28014 0.01648 -0.06200
N 	N 	0.84809 0.35207 0.96024 -0.18000
N 	N 	0.70035 0.38778 0.95288 -0.13200
N 	N 	0.61742 0.38878 0.94330 -0.13500
N 	N 	0.46801 0.37144 0.91073 -0.17800
N 	N 	0.43312 0.52775 0.91018 -0.05900
O 	O 	0.41699 0.60143 0.90967 -0.19800
O 	O 	0.88037 0.25085 0.04325 -0.21200
C 	C 	0.41223 0.07988 0.29822 0.04500
C 	C 	0.36050 0.01224 0.27440 -0.08900
H 	H 	0.39210 0.01700 0.25543 0.02700
C 	C 	0.26563 0.94043 0.27854 -0.03400
H 	H 	0.23270 0.89410 0.26273 0.03500
C 	C 	0.21544 0.93464 0.30644 -0.03200
H 	H 	0.14910 0.88520 0.30883 0.03300
C 	C 	0.26210 0.99957 0.32981 -0.08000
H 	H 	0.22850 0.99730 0.34803 0.06500
C 	C 	0.35997 0.06874 0.32595 0.04800
C 	C 	0.50390 0.20355 0.34533 -0.02800
H 	H 	0.53910 0.24750 0.36143 0.03200
C 	C 	0.54890 0.21378 0.31657 0.04100
C 	C 	0.64801 0.29887 0.31184 0.00800
C 	C 	0.69613 0.37429 0.33618 0.01800
H 	H 	0.64600 0.38270 0.34713 0.02400
H 	H 	0.74250 0.43740 0.32653 0.01800
C 	C 	0.75060 0.34670 0.35911 -0.40900
H 	H 	0.70560 0.28280 0.36803 0.15100
H 	H 	0.77750 0.39590 0.37533 0.14100
H 	H 	0.80390 0.34370 0.34873 0.14700
C 	C 	0.87080 0.24120 0.25614 -0.36200
H 	H 	0.81530 0.22430 0.24253 0.12500
H 	H 	0.86650 0.18120 0.26413 0.12500
H 	H 	0.93180 0.27850 0.24473 0.13100
C 	C 	0.86875 0.30277 0.28279 -0.02500
H 	H 	0.81710 0.25980 0.29733 0.03400
H 	H 	0.93200 0.33190 0.29373 0.04200
C 	C 	0.85054 0.38197 0.27285 0.02300
C 	C 	0.92825 0.47018 0.25724 0.03900
C 	C 	0.02338 0.48727 0.25626 -0.03300
H 	H 	0.03750 0.44070 0.26493 0.04600
C 	C 	0.07429 0.63569 0.22986 0.04700
C 	C 	0.14741 0.72245 0.21811 -0.07300
H 	H 	0.21360 0.73770 0.21863 0.05900
C 	C 	0.12234 0.78554 0.20582 -0.03500
H 	H 	0.17180 0.84510 0.19723 0.03100
C 	C 	0.02430 0.76520 0.20537 -0.02100
H 	H 	0.00850 0.81020 0.19633 0.02900
C 	C 	0.95399 0.68195 0.21774 -0.09000
H 	H 	0.88860 0.66920 0.21763 0.03100
C 	C 	0.97483 0.61220 0.23101 0.05300
N 	N 	0.41367 0.13353 0.34981 -0.06200
N 	N 	0.50398 0.15191 0.29357 -0.18000
N 	N 	0.68743 0.29965 0.28621 -0.13200
N 	N 	0.77136 0.38258 0.27663 -0.13500
N 	N 	0.90343 0.53199 0.24406 -0.17800
N 	N 	0.09463 0.56688 0.24351 -0.05900
O 	O 	0.18444 0.58301 0.24300 -0.19800
O 	O 	0.37048 0.11963 0.37658 -0.21200
Ag	Ag	0.58684 0.41316 0.58333 0.53400
Ag	Ag	0.75243 0.24757 0.58333 0.54000
Ag	Ag	0.58684 0.17367 0.25000 0.53400
Ag	Ag	0.75243 0.50485 0.25000 0.54000
Ag	Ag	0.82633 0.41316 0.91667 0.53400
Ag	Ag	0.49515 0.24757 0.91667 0.54000
Ag	Ag	0.45374 0.22687 0.41667 0.56400
Ag	Ag	0.77313 0.22687 0.08333 0.56400
Ag	Ag	0.77313 0.54626 0.75000 0.56400
