data_crystal

_cell_length_a 33.49300
_cell_length_b 53.70700
_cell_length_c 22.03600
_cell_angle_alpha 90.00000
_cell_angle_beta  90.00000
_cell_angle_gamma 90.00000

_symmetry_space_group_name_	'P 1'
_symmetry_space_group_name_H-M	'P 1'

loop_
_symmetry_equiv_pos_as_xyz
  x,y,z

loop_
_atom_site_label
_atom_site_type_symbol
_atom_site_fract_x
_atom_site_fract_y
_atom_site_fract_z
_atom_site_charge
In	In	0.72092 0.72132 0.56868 1.96400
In	In	0.70772 0.55447 0.71191 2.00200
In	In	0.67285 0.88054 0.29403 1.99900
O 	O 	0.90160 0.69254 0.90340 -0.42300
O 	O 	0.90021 0.68096 0.99770 -0.44900
O 	O 	0.73440 0.69020 0.62350 -0.55200
O 	O 	0.74230 0.71450 0.70200 -0.19100
O 	O 	0.71380 0.59831 0.67030 -0.39200
O 	O 	0.73730 0.58495 0.75420 -0.49800
O 	O 	0.76673 0.62394 0.24740 -0.43600
O 	O 	0.82105 0.62317 0.19350 -0.43600
O 	O 	0.63889 0.63848 0.03120 -0.47200
O 	O 	0.63470 0.62758 0.12740 -0.34800
O 	O 	0.48320 0.70512 0.37400 -0.45600
O 	O 	0.52190 0.71333 0.45060 -0.41300
O 	O 	0.70060 0.74836 0.50260 -0.65900
O 	O 	0.72890 0.78506 0.50970 -0.61000
O 	O 	0.69302 0.85069 0.35980 -0.43800
O 	O 	0.65380 0.84038 0.28460 -0.43900
O 	O 	0.55940 0.76463 0.98200 -0.44100
O 	O 	0.53807 0.78800 0.05680 -0.42300
O 	O 	0.56920 0.67294 0.02030 -0.39900
O 	O 	0.55770 0.65830 0.11090 -0.45700
C 	C 	0.84270 0.67291 0.93840 0.00300
C 	C 	0.82650 0.67054 0.88050 -0.09000
H 	H 	0.84010 0.67700 0.84730 0.08700
C 	C 	0.79020 0.65860 0.87220 0.06400
C 	C 	0.76980 0.64960 0.92340 -0.12200
H 	H 	0.74550 0.64160 0.91790 0.08200
C 	C 	0.78460 0.65240 0.98220 0.05900
C 	C 	0.82110 0.66414 0.98920 -0.10600
H 	H 	0.83150 0.66630 0.02800 0.10100
C 	C 	0.77360 0.65445 0.81020 -0.00900
C 	C 	0.76970 0.67490 0.77060 -0.02400
H 	H 	0.77900 0.69050 0.78200 0.06700
C 	C 	0.75220 0.67151 0.71520 -0.06400
C 	C 	0.74060 0.64829 0.69550 0.01300
H 	H 	0.73060 0.64610 0.65650 0.05400
C 	C 	0.74440 0.62790 0.73530 -0.07400
C 	C 	0.76020 0.63140 0.79290 -0.02000
H 	H 	0.76170 0.61810 0.81980 0.06300
C 	C 	0.76210 0.64417 0.03660 0.00600
C 	C 	0.78130 0.63806 0.08810 -0.03700
H 	H 	0.80910 0.63860 0.08900 0.07200
C 	C 	0.76080 0.63107 0.13960 -0.04100
C 	C 	0.71930 0.63028 0.13950 -0.00700
H 	H 	0.70520 0.62610 0.17440 0.07000
C 	C 	0.69930 0.63596 0.08580 -0.05000
C 	C 	0.72030 0.64287 0.03520 -0.01200
H 	H 	0.70670 0.64670 0.99960 0.05400
C 	C 	0.88400 0.68276 0.94670 0.29300
C 	C 	0.74120 0.69380 0.67890 0.15300
C 	C 	0.73100 0.60237 0.71750 0.35300
C 	C 	0.78390 0.62579 0.19710 0.30500
C 	C 	0.65460 0.63346 0.08350 0.31100
C 	C 	0.54390 0.72628 0.35210 0.00700
C 	C 	0.57390 0.74115 0.37380 -0.10700
H 	H 	0.57770 0.74260 0.41540 0.08300
C 	C 	0.59860 0.75399 0.33430 0.09100
C 	C 	0.59300 0.75124 0.27270 -0.14400
H 	H 	0.60920 0.76000 0.24590 0.09200
C 	C 	0.56350 0.73570 0.25000 0.07400
C 	C 	0.53860 0.72288 0.28950 -0.09800
H 	H 	0.51890 0.71230 0.27480 0.09200
C 	C 	0.63060 0.77078 0.36000 -0.06200
C 	C 	0.65270 0.76348 0.40940 0.06700
H 	H 	0.64810 0.74790 0.42650 0.00900
C 	C 	0.68150 0.77852 0.43430 -0.19700
C 	C 	0.68810 0.80203 0.40900 0.08800
H 	H 	0.70720 0.81260 0.42540 0.02900
C 	C 	0.66600 0.80932 0.35950 -0.09800
C 	C 	0.63800 0.79355 0.33460 0.01900
H 	H 	0.62390 0.79850 0.30020 0.05000
C 	C 	0.56010 0.73071 0.18310 -0.00300
C 	C 	0.55700 0.75074 0.14170 -0.03300
H 	H 	0.55640 0.76700 0.15590 0.06800
C 	C 	0.55490 0.74615 0.08080 -0.04600
C 	C 	0.55710 0.72241 0.05910 -0.00400
H 	H 	0.55740 0.71960 0.01750 0.07600
C 	C 	0.55890 0.70216 0.09900 -0.04900
C 	C 	0.55960 0.70677 0.16110 -0.03200
H 	H 	0.55980 0.69350 0.18810 0.06800
C 	C 	0.51510 0.71422 0.39530 0.28500
C 	C 	0.70490 0.76988 0.48670 0.54400
C 	C 	0.67130 0.83481 0.33280 0.31500
C 	C 	0.55010 0.76748 0.03830 0.30600
C 	C 	0.56210 0.67670 0.07540 0.29800
O 	O 	0.77180 0.71170 0.68900 -0.17200
C 	C 	0.75590 0.69200 0.67190 0.17700
In	In	0.72092 0.22132 0.06868 1.96300
In	In	0.70772 0.05447 0.21191 2.00100
In	In	0.67285 0.38054 0.79403 1.99800
O 	O 	0.90160 0.19254 0.40340 -0.42400
O 	O 	0.90021 0.18096 0.49770 -0.44500
O 	O 	0.73440 0.19020 0.12350 -0.55100
O 	O 	0.74230 0.21450 0.20200 -0.19200
O 	O 	0.71380 0.09831 0.17030 -0.39000
O 	O 	0.73730 0.08495 0.25420 -0.49700
O 	O 	0.76673 0.12394 0.74740 -0.43700
O 	O 	0.82105 0.12317 0.69350 -0.43700
O 	O 	0.63889 0.13848 0.53120 -0.47500
O 	O 	0.63470 0.12758 0.62740 -0.34700
O 	O 	0.48320 0.20512 0.87400 -0.45800
O 	O 	0.52190 0.21333 0.95060 -0.41800
O 	O 	0.70060 0.24836 0.00260 -0.64000
O 	O 	0.72890 0.28506 0.00970 -0.59200
O 	O 	0.69302 0.35069 0.85980 -0.44000
O 	O 	0.65380 0.34038 0.78460 -0.43900
O 	O 	0.55940 0.26463 0.48200 -0.42900
O 	O 	0.53807 0.28800 0.55680 -0.42300
O 	O 	0.56920 0.17294 0.52030 -0.40400
O 	O 	0.55770 0.15830 0.61090 -0.45900
C 	C 	0.84270 0.17291 0.43840 -0.00500
C 	C 	0.82650 0.17054 0.38050 -0.08400
H 	H 	0.84010 0.17700 0.34730 0.08600
C 	C 	0.79020 0.15860 0.37220 0.06100
C 	C 	0.76980 0.14960 0.42340 -0.11800
H 	H 	0.74550 0.14160 0.41790 0.08300
C 	C 	0.78460 0.15240 0.48220 0.05800
C 	C 	0.82110 0.16414 0.48920 -0.08100
H 	H 	0.83150 0.16630 0.52800 0.08400
C 	C 	0.77360 0.15445 0.31020 -0.00600
C 	C 	0.76970 0.17490 0.27060 -0.02600
H 	H 	0.77900 0.19050 0.28200 0.06900
C 	C 	0.75220 0.17151 0.21520 -0.06200
C 	C 	0.74060 0.14829 0.19550 0.01200
H 	H 	0.73060 0.14610 0.15650 0.05500
C 	C 	0.74440 0.12790 0.23530 -0.07200
C 	C 	0.76020 0.13140 0.29290 -0.02200
H 	H 	0.76170 0.11810 0.31980 0.06400
C 	C 	0.76210 0.14417 0.53660 0.00700
C 	C 	0.78130 0.13806 0.58810 -0.04100
H 	H 	0.80910 0.13860 0.58900 0.07100
C 	C 	0.76080 0.13107 0.63960 -0.03800
C 	C 	0.71930 0.13028 0.63950 -0.01300
H 	H 	0.70520 0.12610 0.67440 0.07200
C 	C 	0.69930 0.13596 0.58580 -0.04000
C 	C 	0.72030 0.14287 0.53520 -0.03800
H 	H 	0.70670 0.14670 0.49960 0.07200
C 	C 	0.88400 0.18276 0.44670 0.29600
C 	C 	0.74120 0.19380 0.17890 0.15300
C 	C 	0.73100 0.10237 0.21750 0.35300
C 	C 	0.78390 0.12579 0.69710 0.30400
C 	C 	0.65460 0.13346 0.58350 0.30700
C 	C 	0.54390 0.22628 0.85210 0.00400
C 	C 	0.57390 0.24115 0.87380 -0.10400
H 	H 	0.57770 0.24260 0.91540 0.08000
C 	C 	0.59860 0.25399 0.83430 0.08600
C 	C 	0.59300 0.25124 0.77270 -0.14100
H 	H 	0.60920 0.26000 0.74590 0.09000
C 	C 	0.56350 0.23570 0.75000 0.07100
C 	C 	0.53860 0.22288 0.78950 -0.09600
H 	H 	0.51890 0.21230 0.77480 0.09000
C 	C 	0.63060 0.27078 0.86000 -0.05700
C 	C 	0.65270 0.26348 0.90940 0.05800
H 	H 	0.64810 0.24790 0.92650 0.01000
C 	C 	0.68150 0.27852 0.93430 -0.18500
C 	C 	0.68810 0.30203 0.90900 0.07900
H 	H 	0.70720 0.31260 0.92540 0.02900
C 	C 	0.66600 0.30932 0.85950 -0.09500
C 	C 	0.63800 0.29355 0.83460 0.01400
H 	H 	0.62390 0.29850 0.80020 0.05100
C 	C 	0.56010 0.23071 0.68310 -0.00200
C 	C 	0.55700 0.25074 0.64170 -0.03600
H 	H 	0.55640 0.26700 0.65590 0.06800
C 	C 	0.55490 0.24615 0.58080 -0.04300
C 	C 	0.55710 0.22241 0.55910 -0.00700
H 	H 	0.55740 0.21960 0.51750 0.07400
C 	C 	0.55890 0.20216 0.59900 -0.05000
C 	C 	0.55960 0.20677 0.66110 -0.03400
H 	H 	0.55980 0.19350 0.68810 0.06800
C 	C 	0.51510 0.21422 0.89530 0.28600
C 	C 	0.70490 0.26988 0.98670 0.51000
C 	C 	0.67130 0.33481 0.83280 0.31400
C 	C 	0.55010 0.26748 0.53830 0.29100
C 	C 	0.56210 0.17670 0.57540 0.29800
O 	O 	0.77180 0.21170 0.18900 -0.17100
C 	C 	0.75590 0.19200 0.17190 0.17600
In	In	0.22092 0.72132 0.06868 1.96300
In	In	0.20772 0.55447 0.21191 2.00100
In	In	0.17285 0.88054 0.79403 1.99800
O 	O 	0.40160 0.69254 0.40340 -0.42400
O 	O 	0.40021 0.68096 0.49770 -0.44400
O 	O 	0.23440 0.69020 0.12350 -0.55100
O 	O 	0.24230 0.71450 0.20200 -0.19100
O 	O 	0.21380 0.59831 0.17030 -0.39000
O 	O 	0.23730 0.58495 0.25420 -0.49700
O 	O 	0.26673 0.62394 0.74740 -0.43700
O 	O 	0.32105 0.62317 0.69350 -0.43700
O 	O 	0.13889 0.63848 0.53120 -0.47500
O 	O 	0.13470 0.62758 0.62740 -0.34700
O 	O 	0.98320 0.70512 0.87400 -0.46100
O 	O 	0.02190 0.71333 0.95060 -0.41700
O 	O 	0.20060 0.74836 0.00260 -0.64000
O 	O 	0.22890 0.78506 0.00970 -0.59200
O 	O 	0.19302 0.85069 0.85980 -0.44000
O 	O 	0.15380 0.84038 0.78460 -0.43900
O 	O 	0.05940 0.76463 0.48200 -0.42800
O 	O 	0.03807 0.78800 0.55680 -0.42300
O 	O 	0.06920 0.67294 0.52030 -0.40400
O 	O 	0.05770 0.65830 0.61090 -0.45800
C 	C 	0.34270 0.67291 0.43840 -0.00500
C 	C 	0.32650 0.67054 0.38050 -0.08400
H 	H 	0.34010 0.67700 0.34730 0.08600
C 	C 	0.29020 0.65860 0.37220 0.06100
C 	C 	0.26980 0.64960 0.42340 -0.11800
H 	H 	0.24550 0.64160 0.41790 0.08300
C 	C 	0.28460 0.65240 0.48220 0.05800
C 	C 	0.32110 0.66414 0.48920 -0.08100
H 	H 	0.33150 0.66630 0.52800 0.08400
C 	C 	0.27360 0.65445 0.31020 -0.00600
C 	C 	0.26970 0.67490 0.27060 -0.02600
H 	H 	0.27900 0.69050 0.28200 0.06900
C 	C 	0.25220 0.67151 0.21520 -0.06100
C 	C 	0.24060 0.64829 0.19550 0.01200
H 	H 	0.23060 0.64610 0.15650 0.05500
C 	C 	0.24440 0.62790 0.23530 -0.07200
C 	C 	0.26020 0.63140 0.29290 -0.02200
H 	H 	0.26170 0.61810 0.31980 0.06400
C 	C 	0.26210 0.64417 0.53660 0.00700
C 	C 	0.28130 0.63806 0.58810 -0.04100
H 	H 	0.30910 0.63860 0.58900 0.07100
C 	C 	0.26080 0.63107 0.63960 -0.03800
C 	C 	0.21930 0.63028 0.63950 -0.01300
H 	H 	0.20520 0.62610 0.67440 0.07200
C 	C 	0.19930 0.63596 0.58580 -0.04000
C 	C 	0.22030 0.64287 0.53520 -0.03800
H 	H 	0.20670 0.64670 0.49960 0.07200
C 	C 	0.38400 0.68276 0.44670 0.29600
C 	C 	0.24120 0.69380 0.17890 0.15400
C 	C 	0.23100 0.60237 0.21750 0.35300
C 	C 	0.28390 0.62579 0.69710 0.30400
C 	C 	0.15460 0.63346 0.58350 0.30700
C 	C 	0.04390 0.72628 0.85210 0.00300
C 	C 	0.07390 0.74115 0.87380 -0.10300
H 	H 	0.07770 0.74260 0.91540 0.08000
C 	C 	0.09860 0.75399 0.83430 0.08600
C 	C 	0.09300 0.75124 0.77270 -0.14100
H 	H 	0.10920 0.76000 0.74590 0.09000
C 	C 	0.06350 0.73570 0.75000 0.07100
C 	C 	0.03860 0.72288 0.78950 -0.09500
H 	H 	0.01890 0.71230 0.77480 0.09100
C 	C 	0.13060 0.77078 0.86000 -0.05700
C 	C 	0.15270 0.76348 0.90940 0.05800
H 	H 	0.14810 0.74790 0.92650 0.01000
C 	C 	0.18150 0.77852 0.93430 -0.18500
C 	C 	0.18810 0.80203 0.90900 0.07900
H 	H 	0.20720 0.81260 0.92540 0.02900
C 	C 	0.16600 0.80932 0.85950 -0.09500
C 	C 	0.13800 0.79355 0.83460 0.01400
H 	H 	0.12390 0.79850 0.80020 0.05100
C 	C 	0.06010 0.73071 0.68310 -0.00100
C 	C 	0.05700 0.75074 0.64170 -0.03700
H 	H 	0.05640 0.76700 0.65590 0.06900
C 	C 	0.05490 0.74615 0.58080 -0.04300
C 	C 	0.05710 0.72241 0.55910 -0.00700
H 	H 	0.05740 0.71960 0.51750 0.07400
C 	C 	0.05890 0.70216 0.59900 -0.04900
C 	C 	0.05960 0.70677 0.66110 -0.03400
H 	H 	0.05980 0.69350 0.68810 0.06800
C 	C 	0.01510 0.71422 0.89530 0.29100
C 	C 	0.20490 0.76988 0.98670 0.51000
C 	C 	0.17130 0.83481 0.83280 0.31400
C 	C 	0.05010 0.76748 0.53830 0.29100
C 	C 	0.06210 0.67670 0.57540 0.29800
O 	O 	0.27180 0.71170 0.18900 -0.17100
C 	C 	0.25590 0.69200 0.17190 0.17600
In	In	0.22092 0.22132 0.56868 1.96300
In	In	0.20772 0.05447 0.71191 2.00100
In	In	0.17285 0.38054 0.29403 1.99800
O 	O 	0.40160 0.19254 0.90340 -0.42400
O 	O 	0.40021 0.18096 0.99770 -0.44900
O 	O 	0.23440 0.19020 0.62350 -0.55200
O 	O 	0.24230 0.21450 0.70200 -0.19200
O 	O 	0.21380 0.09831 0.67030 -0.39200
O 	O 	0.23730 0.08495 0.75420 -0.49800
O 	O 	0.26673 0.12394 0.24740 -0.43600
O 	O 	0.32105 0.12317 0.19350 -0.43600
O 	O 	0.13889 0.13848 0.03120 -0.47200
O 	O 	0.13470 0.12758 0.12740 -0.34700
O 	O 	0.98320 0.20512 0.37400 -0.46000
O 	O 	0.02190 0.21333 0.45060 -0.41200
O 	O 	0.20060 0.24836 0.50260 -0.65900
O 	O 	0.22890 0.28506 0.50970 -0.60900
O 	O 	0.19302 0.35069 0.35980 -0.43800
O 	O 	0.15380 0.34038 0.28460 -0.43900
O 	O 	0.05940 0.26463 0.98200 -0.44000
O 	O 	0.03807 0.28800 0.05680 -0.42200
O 	O 	0.06920 0.17294 0.02030 -0.39900
O 	O 	0.05770 0.15830 0.11090 -0.45600
C 	C 	0.34270 0.17291 0.93840 0.00300
C 	C 	0.32650 0.17054 0.88050 -0.09000
H 	H 	0.34010 0.17700 0.84730 0.08800
C 	C 	0.29020 0.15860 0.87220 0.06400
C 	C 	0.26980 0.14960 0.92340 -0.12200
H 	H 	0.24550 0.14160 0.91790 0.08200
C 	C 	0.28460 0.15240 0.98220 0.05900
C 	C 	0.32110 0.16414 0.98920 -0.10600
H 	H 	0.33150 0.16630 0.02800 0.10100
C 	C 	0.27360 0.15445 0.81020 -0.00900
C 	C 	0.26970 0.17490 0.77060 -0.02400
H 	H 	0.27900 0.19050 0.78200 0.06700
C 	C 	0.25220 0.17151 0.71520 -0.06400
C 	C 	0.24060 0.14829 0.69550 0.01300
H 	H 	0.23060 0.14610 0.65650 0.05400
C 	C 	0.24440 0.12790 0.73530 -0.07400
C 	C 	0.26020 0.13140 0.79290 -0.02000
H 	H 	0.26170 0.11810 0.81980 0.06300
C 	C 	0.26210 0.14417 0.03660 0.00600
C 	C 	0.28130 0.13806 0.08810 -0.03700
H 	H 	0.30910 0.13860 0.08900 0.07200
C 	C 	0.26080 0.13107 0.13960 -0.04100
C 	C 	0.21930 0.13028 0.13950 -0.00700
H 	H 	0.20520 0.12610 0.17440 0.07000
C 	C 	0.19930 0.13596 0.08580 -0.05000
C 	C 	0.22030 0.14287 0.03520 -0.01200
H 	H 	0.20670 0.14670 0.99960 0.05400
C 	C 	0.38400 0.18276 0.94670 0.29300
C 	C 	0.24120 0.19380 0.67890 0.15300
C 	C 	0.23100 0.10237 0.71750 0.35300
C 	C 	0.28390 0.12579 0.19710 0.30500
C 	C 	0.15460 0.13346 0.08350 0.31100
C 	C 	0.04390 0.22628 0.35210 0.00600
C 	C 	0.07390 0.24115 0.37380 -0.10600
H 	H 	0.07770 0.24260 0.41540 0.08300
C 	C 	0.09860 0.25399 0.33430 0.09000
C 	C 	0.09300 0.25124 0.27270 -0.14300
H 	H 	0.10920 0.26000 0.24590 0.09200
C 	C 	0.06350 0.23570 0.25000 0.07400
C 	C 	0.03860 0.22288 0.28950 -0.09700
H 	H 	0.01890 0.21230 0.27480 0.09200
C 	C 	0.13060 0.27078 0.36000 -0.06100
C 	C 	0.15270 0.26348 0.40940 0.06700
H 	H 	0.14810 0.24790 0.42650 0.00900
C 	C 	0.18150 0.27852 0.43430 -0.19600
C 	C 	0.18810 0.30203 0.40900 0.08700
H 	H 	0.20720 0.31260 0.42540 0.02900
C 	C 	0.16600 0.30932 0.35950 -0.09800
C 	C 	0.13800 0.29355 0.33460 0.01900
H 	H 	0.12390 0.29850 0.30020 0.05000
C 	C 	0.06010 0.23071 0.18310 -0.00300
C 	C 	0.05700 0.25074 0.14170 -0.03300
H 	H 	0.05640 0.26700 0.15590 0.06800
C 	C 	0.05490 0.24615 0.08080 -0.04600
C 	C 	0.05710 0.22241 0.05910 -0.00400
H 	H 	0.05740 0.21960 0.01750 0.07700
C 	C 	0.05890 0.20216 0.09900 -0.04900
C 	C 	0.05960 0.20677 0.16110 -0.03200
H 	H 	0.05980 0.19350 0.18810 0.06800
C 	C 	0.01510 0.21422 0.39530 0.28900
C 	C 	0.20490 0.26988 0.48670 0.54400
C 	C 	0.17130 0.33481 0.33280 0.31500
C 	C 	0.05010 0.26748 0.03830 0.30600
C 	C 	0.06210 0.17670 0.07540 0.29800
O 	O 	0.27180 0.21170 0.68900 -0.17200
C 	C 	0.25590 0.19200 0.67190 0.17700
In	In	0.27908 0.27868 0.56868 1.96300
In	In	0.29228 0.44553 0.71191 2.00100
In	In	0.32715 0.11946 0.29403 1.99800
O 	O 	0.09840 0.30746 0.90340 -0.42400
O 	O 	0.09979 0.31904 0.99770 -0.44900
O 	O 	0.26560 0.30980 0.62350 -0.55300
O 	O 	0.25770 0.28550 0.70200 -0.19200
O 	O 	0.28620 0.40169 0.67030 -0.39200
O 	O 	0.26270 0.41505 0.75420 -0.49800
O 	O 	0.23327 0.37606 0.24740 -0.43600
O 	O 	0.17895 0.37683 0.19350 -0.43600
O 	O 	0.36111 0.36152 0.03120 -0.47200
O 	O 	0.36530 0.37242 0.12740 -0.34800
O 	O 	0.51680 0.29488 0.37400 -0.45600
O 	O 	0.47810 0.28667 0.45060 -0.41300
O 	O 	0.29940 0.25164 0.50260 -0.65900
O 	O 	0.27110 0.21494 0.50970 -0.61000
O 	O 	0.30698 0.14931 0.35980 -0.43800
O 	O 	0.34620 0.15962 0.28460 -0.43900
O 	O 	0.44060 0.23537 0.98200 -0.44100
O 	O 	0.46193 0.21200 0.05680 -0.42300
O 	O 	0.43080 0.32706 0.02030 -0.39900
O 	O 	0.44230 0.34170 0.11090 -0.45700
C 	C 	0.15730 0.32709 0.93840 0.00300
C 	C 	0.17350 0.32946 0.88050 -0.09000
H 	H 	0.15990 0.32300 0.84730 0.08800
C 	C 	0.20980 0.34140 0.87220 0.06400
C 	C 	0.23020 0.35040 0.92340 -0.12200
H 	H 	0.25450 0.35840 0.91790 0.08200
C 	C 	0.21540 0.34760 0.98220 0.05900
C 	C 	0.17890 0.33586 0.98920 -0.10600
H 	H 	0.16850 0.33370 0.02800 0.10100
C 	C 	0.22640 0.34555 0.81020 -0.00900
C 	C 	0.23030 0.32510 0.77060 -0.02400
H 	H 	0.22100 0.30950 0.78200 0.06700
C 	C 	0.24780 0.32849 0.71520 -0.06400
C 	C 	0.25940 0.35171 0.69550 0.01300
H 	H 	0.26940 0.35390 0.65650 0.05400
C 	C 	0.25560 0.37210 0.73530 -0.07400
C 	C 	0.23980 0.36860 0.79290 -0.02000
H 	H 	0.23830 0.38190 0.81980 0.06300
C 	C 	0.23790 0.35583 0.03660 0.00600
C 	C 	0.21870 0.36194 0.08810 -0.03700
H 	H 	0.19090 0.36140 0.08900 0.07200
C 	C 	0.23920 0.36893 0.13960 -0.04100
C 	C 	0.28070 0.36972 0.13950 -0.00700
H 	H 	0.29480 0.37390 0.17440 0.07000
C 	C 	0.30070 0.36404 0.08580 -0.05000
C 	C 	0.27970 0.35713 0.03520 -0.01200
H 	H 	0.29330 0.35330 0.99960 0.05400
C 	C 	0.11600 0.31724 0.94670 0.29300
C 	C 	0.25880 0.30620 0.67890 0.15400
C 	C 	0.26900 0.39763 0.71750 0.35300
C 	C 	0.21610 0.37421 0.19710 0.30500
C 	C 	0.34540 0.36654 0.08350 0.31100
C 	C 	0.45610 0.27372 0.35210 0.00700
C 	C 	0.42610 0.25885 0.37380 -0.10700
H 	H 	0.42230 0.25740 0.41540 0.08300
C 	C 	0.40140 0.24601 0.33430 0.09100
C 	C 	0.40700 0.24876 0.27270 -0.14400
H 	H 	0.39080 0.24000 0.24590 0.09200
C 	C 	0.43650 0.26430 0.25000 0.07400
C 	C 	0.46140 0.27712 0.28950 -0.09800
H 	H 	0.48110 0.28770 0.27480 0.09200
C 	C 	0.36940 0.22922 0.36000 -0.06200
C 	C 	0.34730 0.23652 0.40940 0.06700
H 	H 	0.35190 0.25210 0.42650 0.00900
C 	C 	0.31850 0.22148 0.43430 -0.19700
C 	C 	0.31190 0.19797 0.40900 0.08700
H 	H 	0.29280 0.18740 0.42540 0.02900
C 	C 	0.33400 0.19068 0.35950 -0.09800
C 	C 	0.36200 0.20645 0.33460 0.01900
H 	H 	0.37610 0.20150 0.30020 0.05000
C 	C 	0.43990 0.26929 0.18310 -0.00300
C 	C 	0.44300 0.24926 0.14170 -0.03300
H 	H 	0.44360 0.23300 0.15590 0.06800
C 	C 	0.44510 0.25385 0.08080 -0.04600
C 	C 	0.44290 0.27759 0.05910 -0.00400
H 	H 	0.44260 0.28040 0.01750 0.07600
C 	C 	0.44110 0.29784 0.09900 -0.04900
C 	C 	0.44040 0.29323 0.16110 -0.03200
H 	H 	0.44020 0.30650 0.18810 0.06800
C 	C 	0.48490 0.28578 0.39530 0.28500
C 	C 	0.29510 0.23012 0.48670 0.54400
C 	C 	0.32870 0.16519 0.33280 0.31500
C 	C 	0.44990 0.23252 0.03830 0.30600
C 	C 	0.43790 0.32330 0.07540 0.29800
O 	O 	0.22820 0.28830 0.68900 -0.17100
C 	C 	0.24410 0.30800 0.67190 0.17700
In	In	0.27908 0.77868 0.06868 1.96300
In	In	0.29228 0.94553 0.21191 2.00100
In	In	0.32715 0.61946 0.79403 1.99800
O 	O 	0.09840 0.80746 0.40340 -0.42300
O 	O 	0.09979 0.81904 0.49770 -0.44400
O 	O 	0.26560 0.80980 0.12350 -0.55100
O 	O 	0.25770 0.78550 0.20200 -0.19200
O 	O 	0.28620 0.90169 0.17030 -0.39000
O 	O 	0.26270 0.91505 0.25420 -0.49700
O 	O 	0.23327 0.87606 0.74740 -0.43700
O 	O 	0.17895 0.87683 0.69350 -0.43600
O 	O 	0.36111 0.86152 0.53120 -0.47500
O 	O 	0.36530 0.87242 0.62740 -0.34700
O 	O 	0.51680 0.79488 0.87400 -0.45800
O 	O 	0.47810 0.78667 0.95060 -0.41800
O 	O 	0.29940 0.75164 0.00260 -0.64000
O 	O 	0.27110 0.71494 0.00970 -0.59200
O 	O 	0.30698 0.64931 0.85980 -0.44000
O 	O 	0.34620 0.65962 0.78460 -0.43900
O 	O 	0.44060 0.73537 0.48200 -0.42900
O 	O 	0.46193 0.71200 0.55680 -0.42300
O 	O 	0.43080 0.82706 0.52030 -0.40400
O 	O 	0.44230 0.84170 0.61090 -0.45900
C 	C 	0.15730 0.82709 0.43840 -0.00500
C 	C 	0.17350 0.82946 0.38050 -0.08400
H 	H 	0.15990 0.82300 0.34730 0.08600
C 	C 	0.20980 0.84140 0.37220 0.06100
C 	C 	0.23020 0.85040 0.42340 -0.11800
H 	H 	0.25450 0.85840 0.41790 0.08300
C 	C 	0.21540 0.84760 0.48220 0.05800
C 	C 	0.17890 0.83586 0.48920 -0.08100
H 	H 	0.16850 0.83370 0.52800 0.08400
C 	C 	0.22640 0.84555 0.31020 -0.00600
C 	C 	0.23030 0.82510 0.27060 -0.02600
H 	H 	0.22100 0.80950 0.28200 0.06900
C 	C 	0.24780 0.82849 0.21520 -0.06100
C 	C 	0.25940 0.85171 0.19550 0.01200
H 	H 	0.26940 0.85390 0.15650 0.05500
C 	C 	0.25560 0.87210 0.23530 -0.07200
C 	C 	0.23980 0.86860 0.29290 -0.02200
H 	H 	0.23830 0.88190 0.31980 0.06400
C 	C 	0.23790 0.85583 0.53660 0.00700
C 	C 	0.21870 0.86194 0.58810 -0.04100
H 	H 	0.19090 0.86140 0.58900 0.07100
C 	C 	0.23920 0.86893 0.63960 -0.03800
C 	C 	0.28070 0.86972 0.63950 -0.01300
H 	H 	0.29480 0.87390 0.67440 0.07200
C 	C 	0.30070 0.86404 0.58580 -0.04000
C 	C 	0.27970 0.85713 0.53520 -0.03800
H 	H 	0.29330 0.85330 0.49960 0.07200
C 	C 	0.11600 0.81724 0.44670 0.29600
C 	C 	0.25880 0.80620 0.17890 0.15400
C 	C 	0.26900 0.89763 0.21750 0.35300
C 	C 	0.21610 0.87421 0.69710 0.30400
C 	C 	0.34540 0.86654 0.58350 0.30700
C 	C 	0.45610 0.77372 0.85210 0.00400
C 	C 	0.42610 0.75885 0.87380 -0.10400
H 	H 	0.42230 0.75740 0.91540 0.08000
C 	C 	0.40140 0.74601 0.83430 0.08600
C 	C 	0.40700 0.74876 0.77270 -0.14100
H 	H 	0.39080 0.74000 0.74590 0.09000
C 	C 	0.43650 0.76430 0.75000 0.07100
C 	C 	0.46140 0.77712 0.78950 -0.09600
H 	H 	0.48110 0.78770 0.77480 0.09000
C 	C 	0.36940 0.72922 0.86000 -0.05700
C 	C 	0.34730 0.73652 0.90940 0.05800
H 	H 	0.35190 0.75210 0.92650 0.01000
C 	C 	0.31850 0.72148 0.93430 -0.18500
C 	C 	0.31190 0.69797 0.90900 0.07900
H 	H 	0.29280 0.68740 0.92540 0.02900
C 	C 	0.33400 0.69068 0.85950 -0.09500
C 	C 	0.36200 0.70645 0.83460 0.01400
H 	H 	0.37610 0.70150 0.80020 0.05100
C 	C 	0.43990 0.76929 0.68310 -0.00200
C 	C 	0.44300 0.74926 0.64170 -0.03600
H 	H 	0.44360 0.73300 0.65590 0.06800
C 	C 	0.44510 0.75385 0.58080 -0.04300
C 	C 	0.44290 0.77759 0.55910 -0.00700
H 	H 	0.44260 0.78040 0.51750 0.07400
C 	C 	0.44110 0.79784 0.59900 -0.05000
C 	C 	0.44040 0.79323 0.66110 -0.03400
H 	H 	0.44020 0.80650 0.68810 0.06800
C 	C 	0.48490 0.78578 0.89530 0.28600
C 	C 	0.29510 0.73012 0.98670 0.51000
C 	C 	0.32870 0.66519 0.83280 0.31400
C 	C 	0.44990 0.73252 0.53830 0.29100
C 	C 	0.43790 0.82330 0.57540 0.29800
O 	O 	0.22820 0.78830 0.18900 -0.17000
C 	C 	0.24410 0.80800 0.17190 0.17600
In	In	0.77908 0.27868 0.06868 1.96300
In	In	0.79228 0.44553 0.21191 2.00100
In	In	0.82715 0.11946 0.79403 1.99800
O 	O 	0.59840 0.30746 0.40340 -0.42400
O 	O 	0.59979 0.31904 0.49770 -0.44400
O 	O 	0.76560 0.30980 0.12350 -0.55100
O 	O 	0.75770 0.28550 0.20200 -0.19200
O 	O 	0.78620 0.40169 0.17030 -0.39000
O 	O 	0.76270 0.41505 0.25420 -0.49700
O 	O 	0.73327 0.37606 0.74740 -0.43700
O 	O 	0.67895 0.37683 0.69350 -0.43700
O 	O 	0.86111 0.36152 0.53120 -0.47500
O 	O 	0.86530 0.37242 0.62740 -0.34700
O 	O 	0.01680 0.29488 0.87400 -0.45400
O 	O 	0.97810 0.28667 0.95060 -0.41900
O 	O 	0.79940 0.25164 0.00260 -0.64100
O 	O 	0.77110 0.21494 0.00970 -0.59200
O 	O 	0.80698 0.14931 0.85980 -0.44000
O 	O 	0.84620 0.15962 0.78460 -0.43900
O 	O 	0.94060 0.23537 0.48200 -0.42900
O 	O 	0.96193 0.21200 0.55680 -0.42400
O 	O 	0.93080 0.32706 0.52030 -0.40400
O 	O 	0.94230 0.34170 0.61090 -0.45900
C 	C 	0.65730 0.32709 0.43840 -0.00500
C 	C 	0.67350 0.32946 0.38050 -0.08400
H 	H 	0.65990 0.32300 0.34730 0.08600
C 	C 	0.70980 0.34140 0.37220 0.06100
C 	C 	0.73020 0.35040 0.42340 -0.11800
H 	H 	0.75450 0.35840 0.41790 0.08300
C 	C 	0.71540 0.34760 0.48220 0.05800
C 	C 	0.67890 0.33586 0.48920 -0.08100
H 	H 	0.66850 0.33370 0.52800 0.08400
C 	C 	0.72640 0.34555 0.31020 -0.00600
C 	C 	0.73030 0.32510 0.27060 -0.02600
H 	H 	0.72100 0.30950 0.28200 0.06900
C 	C 	0.74780 0.32849 0.21520 -0.06200
C 	C 	0.75940 0.35171 0.19550 0.01200
H 	H 	0.76940 0.35390 0.15650 0.05500
C 	C 	0.75560 0.37210 0.23530 -0.07200
C 	C 	0.73980 0.36860 0.29290 -0.02200
H 	H 	0.73830 0.38190 0.31980 0.06400
C 	C 	0.73790 0.35583 0.53660 0.00700
C 	C 	0.71870 0.36194 0.58810 -0.04100
H 	H 	0.69090 0.36140 0.58900 0.07100
C 	C 	0.73920 0.36893 0.63960 -0.03800
C 	C 	0.78070 0.36972 0.63950 -0.01300
H 	H 	0.79480 0.37390 0.67440 0.07200
C 	C 	0.80070 0.36404 0.58580 -0.04000
C 	C 	0.77970 0.35713 0.53520 -0.03800
H 	H 	0.79330 0.35330 0.49960 0.07200
C 	C 	0.61600 0.31724 0.44670 0.29600
C 	C 	0.75880 0.30620 0.17890 0.15400
C 	C 	0.76900 0.39763 0.21750 0.35300
C 	C 	0.71610 0.37421 0.69710 0.30400
C 	C 	0.84540 0.36654 0.58350 0.30700
C 	C 	0.95610 0.27372 0.85210 0.00500
C 	C 	0.92610 0.25885 0.87380 -0.10500
H 	H 	0.92230 0.25740 0.91540 0.08000
C 	C 	0.90140 0.24601 0.83430 0.08700
C 	C 	0.90700 0.24876 0.77270 -0.14200
H 	H 	0.89080 0.24000 0.74590 0.09000
C 	C 	0.93650 0.26430 0.75000 0.07200
C 	C 	0.96140 0.27712 0.78950 -0.09700
H 	H 	0.98110 0.28770 0.77480 0.09000
C 	C 	0.86940 0.22922 0.86000 -0.05800
C 	C 	0.84730 0.23652 0.90940 0.05800
H 	H 	0.85190 0.25210 0.92650 0.00900
C 	C 	0.81850 0.22148 0.93430 -0.18600
C 	C 	0.81190 0.19797 0.90900 0.07900
H 	H 	0.79280 0.18740 0.92540 0.02900
C 	C 	0.83400 0.19068 0.85950 -0.09500
C 	C 	0.86200 0.20645 0.83460 0.01500
H 	H 	0.87610 0.20150 0.80020 0.05100
C 	C 	0.93990 0.26929 0.68310 -0.00300
C 	C 	0.94300 0.24926 0.64170 -0.03600
H 	H 	0.94360 0.23300 0.65590 0.06800
C 	C 	0.94510 0.25385 0.58080 -0.04400
C 	C 	0.94290 0.27759 0.55910 -0.00600
H 	H 	0.94260 0.28040 0.51750 0.07300
C 	C 	0.94110 0.29784 0.59900 -0.05000
C 	C 	0.94040 0.29323 0.66110 -0.03300
H 	H 	0.94020 0.30650 0.68810 0.06700
C 	C 	0.98490 0.28578 0.89530 0.28200
C 	C 	0.79510 0.23012 0.98670 0.51000
C 	C 	0.82870 0.16519 0.83280 0.31400
C 	C 	0.94990 0.23252 0.53830 0.29100
C 	C 	0.93790 0.32330 0.57540 0.29800
O 	O 	0.72820 0.28830 0.18900 -0.17100
C 	C 	0.74410 0.30800 0.17190 0.17600
In	In	0.77908 0.77868 0.56868 1.96300
In	In	0.79228 0.94553 0.71191 2.00100
In	In	0.82715 0.61946 0.29403 1.99800
O 	O 	0.59840 0.80746 0.90340 -0.42400
O 	O 	0.59979 0.81904 0.99770 -0.44900
O 	O 	0.76560 0.80980 0.62350 -0.55300
O 	O 	0.75770 0.78550 0.70200 -0.19200
O 	O 	0.78620 0.90169 0.67030 -0.39200
O 	O 	0.76270 0.91505 0.75420 -0.49800
O 	O 	0.73327 0.87606 0.24740 -0.43600
O 	O 	0.67895 0.87683 0.19350 -0.43600
O 	O 	0.86111 0.86152 0.03120 -0.47200
O 	O 	0.86530 0.87242 0.12740 -0.34800
O 	O 	0.01680 0.79488 0.37400 -0.45300
O 	O 	0.97810 0.78667 0.45060 -0.41400
O 	O 	0.79940 0.75164 0.50260 -0.65900
O 	O 	0.77110 0.71494 0.50970 -0.61000
O 	O 	0.80698 0.64931 0.35980 -0.43800
O 	O 	0.84620 0.65962 0.28460 -0.43900
O 	O 	0.94060 0.73537 0.98200 -0.44200
O 	O 	0.96193 0.71200 0.05680 -0.42300
O 	O 	0.93080 0.82706 0.02030 -0.39900
O 	O 	0.94230 0.84170 0.11090 -0.45700
C 	C 	0.65730 0.82709 0.93840 0.00300
C 	C 	0.67350 0.82946 0.88050 -0.09000
H 	H 	0.65990 0.82300 0.84730 0.08800
C 	C 	0.70980 0.84140 0.87220 0.06400
C 	C 	0.73020 0.85040 0.92340 -0.12200
H 	H 	0.75450 0.85840 0.91790 0.08200
C 	C 	0.71540 0.84760 0.98220 0.05900
C 	C 	0.67890 0.83586 0.98920 -0.10600
H 	H 	0.66850 0.83370 0.02800 0.10100
C 	C 	0.72640 0.84555 0.81020 -0.00900
C 	C 	0.73030 0.82510 0.77060 -0.02400
H 	H 	0.72100 0.80950 0.78200 0.06700
C 	C 	0.74780 0.82849 0.71520 -0.06400
C 	C 	0.75940 0.85171 0.69550 0.01300
H 	H 	0.76940 0.85390 0.65650 0.05400
C 	C 	0.75560 0.87210 0.73530 -0.07400
C 	C 	0.73980 0.86860 0.79290 -0.02000
H 	H 	0.73830 0.88190 0.81980 0.06300
C 	C 	0.73790 0.85583 0.03660 0.00600
C 	C 	0.71870 0.86194 0.08810 -0.03700
H 	H 	0.69090 0.86140 0.08900 0.07200
C 	C 	0.73920 0.86893 0.13960 -0.04100
C 	C 	0.78070 0.86972 0.13950 -0.00700
H 	H 	0.79480 0.87390 0.17440 0.07000
C 	C 	0.80070 0.86404 0.08580 -0.05000
C 	C 	0.77970 0.85713 0.03520 -0.01200
H 	H 	0.79330 0.85330 0.99960 0.05400
C 	C 	0.61600 0.81724 0.94670 0.29300
C 	C 	0.75880 0.80620 0.67890 0.15400
C 	C 	0.76900 0.89763 0.71750 0.35300
C 	C 	0.71610 0.87421 0.19710 0.30500
C 	C 	0.84540 0.86654 0.08350 0.31100
C 	C 	0.95610 0.77372 0.35210 0.00800
C 	C 	0.92610 0.75885 0.37380 -0.10800
H 	H 	0.92230 0.75740 0.41540 0.08300
C 	C 	0.90140 0.74601 0.33430 0.09100
C 	C 	0.90700 0.74876 0.27270 -0.14400
H 	H 	0.89080 0.74000 0.24590 0.09200
C 	C 	0.93650 0.76430 0.25000 0.07400
C 	C 	0.96140 0.77712 0.28950 -0.09900
H 	H 	0.98110 0.78770 0.27480 0.09100
C 	C 	0.86940 0.72922 0.36000 -0.06200
C 	C 	0.84730 0.73652 0.40940 0.06700
H 	H 	0.85190 0.75210 0.42650 0.00900
C 	C 	0.81850 0.72148 0.43430 -0.19700
C 	C 	0.81190 0.69797 0.40900 0.08800
H 	H 	0.79280 0.68740 0.42540 0.02900
C 	C 	0.83400 0.69068 0.35950 -0.09900
C 	C 	0.86200 0.70645 0.33460 0.01900
H 	H 	0.87610 0.70150 0.30020 0.05000
C 	C 	0.93990 0.76929 0.18310 -0.00400
C 	C 	0.94300 0.74926 0.14170 -0.03300
H 	H 	0.94360 0.73300 0.15590 0.06700
C 	C 	0.94510 0.75385 0.08080 -0.04700
C 	C 	0.94290 0.77759 0.05910 -0.00300
H 	H 	0.94260 0.78040 0.01750 0.07600
C 	C 	0.94110 0.79784 0.09900 -0.05000
C 	C 	0.94040 0.79323 0.16110 -0.03200
H 	H 	0.94020 0.80650 0.18810 0.06700
C 	C 	0.98490 0.78578 0.39530 0.28100
C 	C 	0.79510 0.73012 0.48670 0.54400
C 	C 	0.82870 0.66519 0.33280 0.31500
C 	C 	0.94990 0.73252 0.03830 0.30600
C 	C 	0.93790 0.82330 0.07540 0.29800
O 	O 	0.72820 0.78830 0.68900 -0.17200
C 	C 	0.74410 0.80800 0.67190 0.17700
In	In	0.97092 0.52868 0.81868 1.96300
In	In	0.95772 0.69553 0.96191 1.99900
In	In	0.92285 0.36946 0.54403 1.99800
O 	O 	0.15160 0.55746 0.15340 -0.42200
O 	O 	0.15021 0.56904 0.24770 -0.44400
O 	O 	0.98440 0.55980 0.87350 -0.55700
O 	O 	0.99230 0.53550 0.95200 -0.20400
O 	O 	0.96380 0.65169 0.92030 -0.39200
O 	O 	0.98730 0.66505 0.00420 -0.48700
O 	O 	0.01673 0.62606 0.49740 -0.43400
O 	O 	0.07105 0.62683 0.44350 -0.43500
O 	O 	0.88889 0.61152 0.28120 -0.47400
O 	O 	0.88470 0.62242 0.37740 -0.34600
O 	O 	0.73320 0.54488 0.62400 -0.45700
O 	O 	0.77190 0.53667 0.70060 -0.41400
O 	O 	0.95060 0.50164 0.75260 -0.66100
O 	O 	0.97890 0.46494 0.75970 -0.61200
O 	O 	0.94302 0.39931 0.60980 -0.43900
O 	O 	0.90380 0.40962 0.53460 -0.44000
O 	O 	0.80940 0.48537 0.23200 -0.42800
O 	O 	0.78807 0.46200 0.30680 -0.42300
O 	O 	0.81920 0.57706 0.27030 -0.40400
O 	O 	0.80770 0.59170 0.36090 -0.45800
C 	C 	0.09270 0.57709 0.18840 -0.00400
C 	C 	0.07650 0.57946 0.13050 -0.08700
H 	H 	0.09010 0.57300 0.09730 0.08900
C 	C 	0.04020 0.59140 0.12220 0.06700
C 	C 	0.01980 0.60040 0.17340 -0.11300
H 	H 	0.99550 0.60840 0.16790 0.07900
C 	C 	0.03460 0.59760 0.23220 0.05400
C 	C 	0.07110 0.58586 0.23920 -0.07900
H 	H 	0.08150 0.58370 0.27800 0.08400
C 	C 	0.02360 0.59555 0.06020 -0.02500
C 	C 	0.01970 0.57510 0.02060 0.00600
H 	H 	0.02900 0.55950 0.03200 0.06200
C 	C 	0.00220 0.57849 0.96520 -0.08500
C 	C 	0.99060 0.60171 0.94550 0.02700
H 	H 	0.98060 0.60390 0.90650 0.04800
C 	C 	0.99440 0.62210 0.98530 -0.10000
C 	C 	0.01020 0.61860 0.04290 0.01300
H 	H 	0.01170 0.63190 0.06980 0.05500
C 	C 	0.01210 0.60583 0.28660 0.01800
C 	C 	0.03130 0.61194 0.33810 -0.05000
H 	H 	0.05910 0.61140 0.33900 0.07400
C 	C 	0.01080 0.61893 0.38960 -0.02800
C 	C 	0.96930 0.61972 0.38950 -0.02400
H 	H 	0.95520 0.62390 0.42440 0.07500
C 	C 	0.94930 0.61404 0.33580 -0.03300
C 	C 	0.97030 0.60713 0.28520 -0.05000
H 	H 	0.95670 0.60330 0.24960 0.07500
C 	C 	0.13400 0.56724 0.19670 0.29600
C 	C 	0.99120 0.55620 0.92890 0.17200
C 	C 	0.98100 0.64763 0.96750 0.34700
C 	C 	0.03390 0.62421 0.44710 0.30100
C 	C 	0.90460 0.61654 0.33350 0.30400
C 	C 	0.79390 0.52372 0.60210 0.00700
C 	C 	0.82390 0.50885 0.62380 -0.10700
H 	H 	0.82770 0.50740 0.66540 0.08300
C 	C 	0.84860 0.49601 0.58430 0.09000
C 	C 	0.84300 0.49876 0.52270 -0.14300
H 	H 	0.85920 0.49000 0.49590 0.09100
C 	C 	0.81350 0.51430 0.50000 0.07300
C 	C 	0.78860 0.52712 0.53950 -0.09700
H 	H 	0.76890 0.53770 0.52480 0.09100
C 	C 	0.88060 0.47922 0.61000 -0.06200
C 	C 	0.90270 0.48652 0.65940 0.06700
H 	H 	0.89810 0.50210 0.67650 0.00900
C 	C 	0.93150 0.47148 0.68430 -0.19800
C 	C 	0.93810 0.44797 0.65900 0.08800
H 	H 	0.95720 0.43740 0.67540 0.02800
C 	C 	0.91600 0.44068 0.60950 -0.09900
C 	C 	0.88800 0.45645 0.58460 0.01900
H 	H 	0.87390 0.45150 0.55020 0.05000
C 	C 	0.81010 0.51929 0.43310 -0.00200
C 	C 	0.80700 0.49926 0.39170 -0.03600
H 	H 	0.80640 0.48300 0.40590 0.06800
C 	C 	0.80490 0.50385 0.33080 -0.04300
C 	C 	0.80710 0.52759 0.30910 -0.00700
H 	H 	0.80740 0.53040 0.26750 0.07400
C 	C 	0.80890 0.54784 0.34900 -0.05000
C 	C 	0.80960 0.54323 0.41110 -0.03300
H 	H 	0.80980 0.55650 0.43810 0.06800
C 	C 	0.76510 0.53578 0.64530 0.28500
C 	C 	0.95490 0.48012 0.73670 0.54400
C 	C 	0.92130 0.41519 0.58280 0.31500
C 	C 	0.80010 0.48252 0.28830 0.29100
C 	C 	0.81210 0.57330 0.32540 0.29800
O 	O 	0.02180 0.53830 0.93900 -0.16700
C 	C 	0.00590 0.55800 0.92190 0.16600
In	In	0.97092 0.02868 0.31868 1.96300
In	In	0.95772 0.19553 0.46191 2.00100
In	In	0.92285 0.86946 0.04403 2.00000
O 	O 	0.15160 0.05746 0.65340 -0.42400
O 	O 	0.15021 0.06904 0.74770 -0.44500
O 	O 	0.98440 0.05980 0.37350 -0.55400
O 	O 	0.99230 0.03550 0.45200 -0.20000
O 	O 	0.96380 0.15169 0.42030 -0.39200
O 	O 	0.98730 0.16505 0.50420 -0.49900
O 	O 	0.01673 0.12606 0.99740 -0.44100
O 	O 	0.07105 0.12683 0.94350 -0.44100
O 	O 	0.88889 0.11152 0.78120 -0.47500
O 	O 	0.88470 0.12242 0.87740 -0.34800
O 	O 	0.73320 0.04488 0.12400 -0.45500
O 	O 	0.77190 0.03667 0.20060 -0.41300
O 	O 	0.95060 0.00164 0.25260 -0.65900
O 	O 	0.97890 0.96494 0.25970 -0.61100
O 	O 	0.94302 0.89931 0.10980 -0.43600
O 	O 	0.90380 0.90962 0.03460 -0.43500
O 	O 	0.80940 0.98537 0.73200 -0.43000
O 	O 	0.78807 0.96200 0.80680 -0.42500
O 	O 	0.81920 0.07706 0.77030 -0.40500
O 	O 	0.80770 0.09170 0.86090 -0.46100
C 	C 	0.09270 0.07709 0.68840 -0.00900
C 	C 	0.07650 0.07946 0.63050 -0.08000
H 	H 	0.09010 0.07300 0.59730 0.08500
C 	C 	0.04020 0.09140 0.62220 0.05500
C 	C 	0.01980 0.10040 0.67340 -0.10600
H 	H 	0.99550 0.10840 0.66790 0.07600
C 	C 	0.03460 0.09760 0.73220 0.04900
C 	C 	0.07110 0.08586 0.73920 -0.07500
H 	H 	0.08150 0.08370 0.77800 0.08200
C 	C 	0.02360 0.09555 0.56020 -0.00300
C 	C 	0.01970 0.07510 0.52060 -0.02900
H 	H 	0.02900 0.05950 0.53200 0.07000
C 	C 	0.00220 0.07849 0.46520 -0.05500
C 	C 	0.99060 0.10171 0.44550 0.00600
H 	H 	0.98060 0.10390 0.40650 0.05600
C 	C 	0.99440 0.12210 0.48530 -0.07500
C 	C 	0.01020 0.11860 0.54290 -0.02000
H 	H 	0.01170 0.13190 0.56980 0.06500
C 	C 	0.01210 0.10583 0.78660 0.01900
C 	C 	0.03130 0.11194 0.83810 -0.05000
H 	H 	0.05910 0.11140 0.83900 0.07400
C 	C 	0.01080 0.11893 0.88960 -0.03100
C 	C 	0.96930 0.11972 0.88950 -0.02400
H 	H 	0.95520 0.12390 0.92440 0.07300
C 	C 	0.94930 0.11404 0.83580 -0.03400
C 	C 	0.97030 0.10713 0.78520 -0.05000
H 	H 	0.95670 0.10330 0.74960 0.07500
C 	C 	0.13400 0.06724 0.69670 0.29800
C 	C 	0.99120 0.05620 0.42890 0.16700
C 	C 	0.98100 0.14763 0.46750 0.35300
C 	C 	0.03390 0.12421 0.94710 0.30200
C 	C 	0.90460 0.11654 0.83350 0.30400
C 	C 	0.79390 0.02372 0.10210 0.00600
C 	C 	0.82390 0.00885 0.12380 -0.10100
H 	H 	0.82770 0.00740 0.16540 0.08100
C 	C 	0.84860 0.99601 0.08430 0.08000
C 	C 	0.84300 0.99876 0.02270 -0.12000
H 	H 	0.85920 0.99000 0.99590 0.07400
C 	C 	0.81350 0.01430 -0.00000 0.07900
C 	C 	0.78860 0.02712 0.03950 -0.09700
H 	H 	0.76890 0.03770 0.02480 0.09500
C 	C 	0.88060 0.97922 0.11000 -0.05400
C 	C 	0.90270 0.98652 0.15940 0.06200
H 	H 	0.89810 0.00210 0.17650 0.01100
C 	C 	0.93150 0.97148 0.18430 -0.19400
C 	C 	0.93810 0.94797 0.15900 0.08500
H 	H 	0.95720 0.93740 0.17540 0.03000
C 	C 	0.91600 0.94068 0.10950 -0.09400
C 	C 	0.88800 0.95645 0.08460 0.01400
H 	H 	0.87390 0.95150 0.05020 0.05400
C 	C 	0.81010 0.01929 0.93310 -0.01600
C 	C 	0.80700 0.99926 0.89170 -0.03000
H 	H 	0.80640 0.98300 0.90590 0.06400
C 	C 	0.80490 0.00385 0.83080 -0.04800
C 	C 	0.80710 0.02759 0.80910 -0.00300
H 	H 	0.80740 0.03040 0.76750 0.07200
C 	C 	0.80890 0.04784 0.84900 -0.05500
C 	C 	0.80960 0.04323 0.91110 -0.02700
H 	H 	0.80980 0.05650 0.93810 0.06200
C 	C 	0.76510 0.03578 0.14530 0.28600
C 	C 	0.95490 0.98012 0.23670 0.54300
C 	C 	0.92130 0.91519 0.08280 0.31400
C 	C 	0.80010 0.98252 0.78830 0.29300
C 	C 	0.81210 0.07330 0.82540 0.30000
O 	O 	0.02180 0.03830 0.43900 -0.16400
C 	C 	0.00590 0.05800 0.42190 0.16200
In	In	0.47092 0.52868 0.31868 1.96300
In	In	0.45772 0.69553 0.46191 2.00100
In	In	0.42285 0.36946 0.04403 2.00000
O 	O 	0.65160 0.55746 0.65340 -0.42400
O 	O 	0.65021 0.56904 0.74770 -0.44500
O 	O 	0.48440 0.55980 0.37350 -0.55200
O 	O 	0.49230 0.53550 0.45200 -0.19200
O 	O 	0.46380 0.65169 0.42030 -0.39100
O 	O 	0.48730 0.66505 0.50420 -0.49700
O 	O 	0.51673 0.62606 0.99740 -0.44300
O 	O 	0.57105 0.62683 0.94350 -0.44200
O 	O 	0.38889 0.61152 0.78120 -0.47600
O 	O 	0.38470 0.62242 0.87740 -0.34900
O 	O 	0.23320 0.54488 0.12400 -0.45500
O 	O 	0.27190 0.53667 0.20060 -0.41300
O 	O 	0.45060 0.50164 0.25260 -0.65800
O 	O 	0.47890 0.46494 0.25970 -0.60900
O 	O 	0.44302 0.39931 0.10980 -0.43600
O 	O 	0.40380 0.40962 0.03460 -0.43500
O 	O 	0.30940 0.48537 0.73200 -0.43000
O 	O 	0.28807 0.46200 0.80680 -0.42500
O 	O 	0.31920 0.57706 0.77030 -0.40500
O 	O 	0.30770 0.59170 0.86090 -0.46000
C 	C 	0.59270 0.57709 0.68840 -0.00500
C 	C 	0.57650 0.57946 0.63050 -0.08400
H 	H 	0.59010 0.57300 0.59730 0.08600
C 	C 	0.54020 0.59140 0.62220 0.06100
C 	C 	0.51980 0.60040 0.67340 -0.11800
H 	H 	0.49550 0.60840 0.66790 0.08300
C 	C 	0.53460 0.59760 0.73220 0.05800
C 	C 	0.57110 0.58586 0.73920 -0.08100
H 	H 	0.58150 0.58370 0.77800 0.08400
C 	C 	0.52360 0.59555 0.56020 -0.00600
C 	C 	0.51970 0.57510 0.52060 -0.02500
H 	H 	0.52900 0.55950 0.53200 0.06800
C 	C 	0.50220 0.57849 0.46520 -0.06200
C 	C 	0.49060 0.60171 0.44550 0.01200
H 	H 	0.48060 0.60390 0.40650 0.05400
C 	C 	0.49440 0.62210 0.48530 -0.07300
C 	C 	0.51020 0.61860 0.54290 -0.02200
H 	H 	0.51170 0.63190 0.56980 0.06400
C 	C 	0.51210 0.60583 0.78660 0.00600
C 	C 	0.53130 0.61194 0.83810 -0.04000
H 	H 	0.55910 0.61140 0.83900 0.07000
C 	C 	0.51080 0.61893 0.88960 -0.04100
C 	C 	0.46930 0.61972 0.88950 -0.01200
H 	H 	0.45520 0.62390 0.92440 0.07000
C 	C 	0.44930 0.61404 0.83580 -0.04200
C 	C 	0.47030 0.60713 0.78520 -0.03800
H 	H 	0.45670 0.60330 0.74960 0.07100
C 	C 	0.63400 0.56724 0.69670 0.29600
C 	C 	0.49120 0.55620 0.42890 0.15300
C 	C 	0.48100 0.64763 0.46750 0.35300
C 	C 	0.53390 0.62421 0.94710 0.30500
C 	C 	0.40460 0.61654 0.83350 0.30700
C 	C 	0.29390 0.52372 0.10210 0.00600
C 	C 	0.32390 0.50885 0.12380 -0.10100
H 	H 	0.32770 0.50740 0.16540 0.08100
C 	C 	0.34860 0.49601 0.08430 0.08100
C 	C 	0.34300 0.49876 0.02270 -0.12000
H 	H 	0.35920 0.49000 0.99590 0.07500
C 	C 	0.31350 0.51430 -0.00000 0.07900
C 	C 	0.28860 0.52712 0.03950 -0.09700
H 	H 	0.26890 0.53770 0.02480 0.09500
C 	C 	0.38060 0.47922 0.11000 -0.05400
C 	C 	0.40270 0.48652 0.15940 0.06200
H 	H 	0.39810 0.50210 0.17650 0.01100
C 	C 	0.43150 0.47148 0.18430 -0.19300
C 	C 	0.43810 0.44797 0.15900 0.08500
H 	H 	0.45720 0.43740 0.17540 0.03000
C 	C 	0.41600 0.44068 0.10950 -0.09400
C 	C 	0.38800 0.45645 0.08460 0.01400
H 	H 	0.37390 0.45150 0.05020 0.05400
C 	C 	0.31010 0.51929 0.93310 -0.01600
C 	C 	0.30700 0.49926 0.89170 -0.02900
H 	H 	0.30640 0.48300 0.90590 0.06300
C 	C 	0.30490 0.50385 0.83080 -0.04900
C 	C 	0.30710 0.52759 0.80910 -0.00200
H 	H 	0.30740 0.53040 0.76750 0.07200
C 	C 	0.30890 0.54784 0.84900 -0.05500
C 	C 	0.30960 0.54323 0.91110 -0.02600
H 	H 	0.30980 0.55650 0.93810 0.06200
C 	C 	0.26510 0.53578 0.14530 0.28600
C 	C 	0.45490 0.48012 0.23670 0.54300
C 	C 	0.42130 0.41519 0.08280 0.31400
C 	C 	0.30010 0.48252 0.78830 0.29300
C 	C 	0.31210 0.57330 0.82540 0.30000
O 	O 	0.52180 0.53830 0.43900 -0.17100
C 	C 	0.50590 0.55800 0.42190 0.17700
In	In	0.47092 0.02868 0.81868 1.96300
In	In	0.45772 0.19553 0.96191 1.99900
In	In	0.42285 0.86946 0.54403 1.99800
O 	O 	0.65160 0.05746 0.15340 -0.42200
O 	O 	0.65021 0.06904 0.24770 -0.44400
O 	O 	0.48440 0.05980 0.87350 -0.55500
O 	O 	0.49230 0.03550 0.95200 -0.19500
O 	O 	0.46380 0.15169 0.92030 -0.39100
O 	O 	0.48730 0.16505 0.00420 -0.48500
O 	O 	0.51673 0.12606 0.49740 -0.43600
O 	O 	0.57105 0.12683 0.44350 -0.43600
O 	O 	0.38889 0.11152 0.28120 -0.47500
O 	O 	0.38470 0.12242 0.37740 -0.34700
O 	O 	0.23320 0.04488 0.62400 -0.45700
O 	O 	0.27190 0.03667 0.70060 -0.41400
O 	O 	0.45060 0.00164 0.75260 -0.65900
O 	O 	0.47890 0.96494 0.75970 -0.61000
O 	O 	0.44302 0.89931 0.60980 -0.43900
O 	O 	0.40380 0.90962 0.53460 -0.43900
O 	O 	0.30940 0.98537 0.23200 -0.42800
O 	O 	0.28807 0.96200 0.30680 -0.42300
O 	O 	0.31920 0.07706 0.27030 -0.40300
O 	O 	0.30770 0.09170 0.36090 -0.45800
C 	C 	0.59270 0.07709 0.18840 -0.00000
C 	C 	0.57650 0.07946 0.13050 -0.09100
H 	H 	0.59010 0.07300 0.09730 0.09000
C 	C 	0.54020 0.09140 0.12220 0.07300
C 	C 	0.51980 0.10040 0.17340 -0.12500
H 	H 	0.49550 0.10840 0.16790 0.08600
C 	C 	0.53460 0.09760 0.23220 0.06200
C 	C 	0.57110 0.08586 0.23920 -0.08400
H 	H 	0.58150 0.08370 0.27800 0.08600
C 	C 	0.52360 0.09555 0.06020 -0.02800
C 	C 	0.51970 0.07510 0.02060 0.01000
H 	H 	0.52900 0.05950 0.03200 0.06000
C 	C 	0.50220 0.07849 0.96520 -0.09300
C 	C 	0.49060 0.10171 0.94550 0.03300
H 	H 	0.48060 0.10390 0.90650 0.04600
C 	C 	0.49440 0.12210 0.98530 -0.09900
C 	C 	0.51020 0.11860 0.04290 0.01100
H 	H 	0.51170 0.13190 0.06980 0.05500
C 	C 	0.51210 0.10583 0.28660 0.00600
C 	C 	0.53130 0.11194 0.33810 -0.04000
H 	H 	0.55910 0.11140 0.33900 0.07100
C 	C 	0.51080 0.11893 0.38960 -0.03900
C 	C 	0.46930 0.11972 0.38950 -0.01300
H 	H 	0.45520 0.12390 0.42440 0.07200
C 	C 	0.44930 0.11404 0.33580 -0.04000
C 	C 	0.47030 0.10713 0.28520 -0.03700
H 	H 	0.45670 0.10330 0.24960 0.07200
C 	C 	0.63400 0.06724 0.19670 0.29500
C 	C 	0.49120 0.05620 0.92890 0.15800
C 	C 	0.48100 0.14763 0.96750 0.34700
C 	C 	0.53390 0.12421 0.44710 0.30400
C 	C 	0.40460 0.11654 0.33350 0.30700
C 	C 	0.29390 0.02372 0.60210 0.00600
C 	C 	0.32390 0.00885 0.62380 -0.10600
H 	H 	0.32770 0.00740 0.66540 0.08200
C 	C 	0.34860 0.99601 0.58430 0.08900
C 	C 	0.34300 0.99876 0.52270 -0.14300
H 	H 	0.35920 0.99000 0.49590 0.09100
C 	C 	0.31350 0.01430 0.50000 0.07300
C 	C 	0.28860 0.02712 0.53950 -0.09700
H 	H 	0.26890 0.03770 0.52480 0.09100
C 	C 	0.38060 0.97922 0.61000 -0.06100
C 	C 	0.40270 0.98652 0.65940 0.06600
H 	H 	0.39810 0.00210 0.67650 0.00900
C 	C 	0.43150 0.97148 0.68430 -0.19600
C 	C 	0.43810 0.94797 0.65900 0.08700
H 	H 	0.45720 0.93740 0.67540 0.02900
C 	C 	0.41600 0.94068 0.60950 -0.09800
C 	C 	0.38800 0.95645 0.58460 0.01900
H 	H 	0.37390 0.95150 0.55020 0.05000
C 	C 	0.31010 0.01929 0.43310 -0.00200
C 	C 	0.30700 0.99926 0.39170 -0.03700
H 	H 	0.30640 0.98300 0.40590 0.06900
C 	C 	0.30490 0.00385 0.33080 -0.04200
C 	C 	0.30710 0.02759 0.30910 -0.00700
H 	H 	0.30740 0.03040 0.26750 0.07500
C 	C 	0.30890 0.04784 0.34900 -0.04900
C 	C 	0.30960 0.04323 0.41110 -0.03400
H 	H 	0.30980 0.05650 0.43810 0.06800
C 	C 	0.26510 0.03578 0.64530 0.28500
C 	C 	0.45490 0.98012 0.73670 0.54400
C 	C 	0.42130 0.91519 0.58280 0.31500
C 	C 	0.30010 0.98252 0.28830 0.29100
C 	C 	0.31210 0.07330 0.32540 0.29800
O 	O 	0.52180 0.03830 0.93900 -0.17500
C 	C 	0.50590 0.05800 0.92190 0.18100
In	In	0.52908 0.97132 0.81868 1.96300
In	In	0.54228 0.80447 0.96191 1.99900
In	In	0.57715 0.13054 0.54403 1.99800
O 	O 	0.34840 0.94254 0.15340 -0.42200
O 	O 	0.34979 0.93096 0.24770 -0.44400
O 	O 	0.51560 0.94020 0.87350 -0.55500
O 	O 	0.50770 0.96450 0.95200 -0.19600
O 	O 	0.53620 0.84831 0.92030 -0.39100
O 	O 	0.51270 0.83495 0.00420 -0.48500
O 	O 	0.48327 0.87394 0.49740 -0.43600
O 	O 	0.42895 0.87317 0.44350 -0.43600
O 	O 	0.61111 0.88848 0.28120 -0.47500
O 	O 	0.61530 0.87758 0.37740 -0.34700
O 	O 	0.76680 0.95512 0.62400 -0.45700
O 	O 	0.72810 0.96333 0.70060 -0.41400
O 	O 	0.54940 0.99836 0.75260 -0.66000
O 	O 	0.52110 0.03506 0.75970 -0.61000
O 	O 	0.55698 0.10069 0.60980 -0.43900
O 	O 	0.59620 0.09038 0.53460 -0.44000
O 	O 	0.69060 0.01463 0.23200 -0.42800
O 	O 	0.71193 0.03800 0.30680 -0.42300
O 	O 	0.68080 0.92294 0.27030 -0.40300
O 	O 	0.69230 0.90830 0.36090 -0.45800
C 	C 	0.40730 0.92291 0.18840 -0.00100
C 	C 	0.42350 0.92054 0.13050 -0.09100
H 	H 	0.40990 0.92700 0.09730 0.09000
C 	C 	0.45980 0.90860 0.12220 0.07300
C 	C 	0.48020 0.89960 0.17340 -0.12500
H 	H 	0.50450 0.89160 0.16790 0.08600
C 	C 	0.46540 0.90240 0.23220 0.06200
C 	C 	0.42890 0.91414 0.23920 -0.08400
H 	H 	0.41850 0.91630 0.27800 0.08600
C 	C 	0.47640 0.90445 0.06020 -0.02800
C 	C 	0.48030 0.92490 0.02060 0.01000
H 	H 	0.47100 0.94050 0.03200 0.06000
C 	C 	0.49780 0.92151 0.96520 -0.09300
C 	C 	0.50940 0.89829 0.94550 0.03300
H 	H 	0.51940 0.89610 0.90650 0.04600
C 	C 	0.50560 0.87790 0.98530 -0.09900
C 	C 	0.48980 0.88140 0.04290 0.01100
H 	H 	0.48830 0.86810 0.06980 0.05500
C 	C 	0.48790 0.89417 0.28660 0.00600
C 	C 	0.46870 0.88806 0.33810 -0.04000
H 	H 	0.44090 0.88860 0.33900 0.07100
C 	C 	0.48920 0.88107 0.38960 -0.03900
C 	C 	0.53070 0.88028 0.38950 -0.01300
H 	H 	0.54480 0.87610 0.42440 0.07200
C 	C 	0.55070 0.88596 0.33580 -0.04000
C 	C 	0.52970 0.89287 0.28520 -0.03700
H 	H 	0.54330 0.89670 0.24960 0.07200
C 	C 	0.36600 0.93276 0.19670 0.29500
C 	C 	0.50880 0.94380 0.92890 0.15800
C 	C 	0.51900 0.85237 0.96750 0.34700
C 	C 	0.46610 0.87579 0.44710 0.30400
C 	C 	0.59540 0.88346 0.33350 0.30700
C 	C 	0.70610 0.97628 0.60210 0.00700
C 	C 	0.67610 0.99115 0.62380 -0.10700
H 	H 	0.67230 0.99260 0.66540 0.08300
C 	C 	0.65140 0.00399 0.58430 0.09000
C 	C 	0.65700 0.00124 0.52270 -0.14300
H 	H 	0.64080 0.01000 0.49590 0.09100
C 	C 	0.68650 0.98570 0.50000 0.07300
C 	C 	0.71140 0.97288 0.53950 -0.09700
H 	H 	0.73110 0.96230 0.52480 0.09100
C 	C 	0.61940 0.02078 0.61000 -0.06200
C 	C 	0.59730 0.01348 0.65940 0.06800
H 	H 	0.60190 0.99790 0.67650 0.00900
C 	C 	0.56850 0.02852 0.68430 -0.19700
C 	C 	0.56190 0.05203 0.65900 0.08800
H 	H 	0.54280 0.06260 0.67540 0.02800
C 	C 	0.58400 0.05932 0.60950 -0.09900
C 	C 	0.61200 0.04355 0.58460 0.02000
H 	H 	0.62610 0.04850 0.55020 0.05000
C 	C 	0.68990 0.98071 0.43310 -0.00300
C 	C 	0.69300 0.00074 0.39170 -0.03500
H 	H 	0.69360 0.01700 0.40590 0.06800
C 	C 	0.69510 0.99615 0.33080 -0.04400
C 	C 	0.69290 0.97241 0.30910 -0.00600
H 	H 	0.69260 0.96960 0.26750 0.07400
C 	C 	0.69110 0.95216 0.34900 -0.05000
C 	C 	0.69040 0.95677 0.41110 -0.03300
H 	H 	0.69020 0.94350 0.43810 0.06800
C 	C 	0.73490 0.96422 0.64530 0.28500
C 	C 	0.54510 0.01988 0.73670 0.54400
C 	C 	0.57870 0.08481 0.58280 0.31500
C 	C 	0.69990 0.01748 0.28830 0.29200
C 	C 	0.68790 0.92670 0.32540 0.29800
O 	O 	0.47820 0.96170 0.93900 -0.17500
C 	C 	0.49410 0.94200 0.92190 0.18100
In	In	0.52908 0.47132 0.31868 1.96300
In	In	0.54228 0.30447 0.46191 2.00100
In	In	0.57715 0.63054 0.04403 2.00000
O 	O 	0.34840 0.44254 0.65340 -0.42400
O 	O 	0.34979 0.43096 0.74770 -0.44500
O 	O 	0.51560 0.44020 0.37350 -0.55200
O 	O 	0.50770 0.46450 0.45200 -0.19200
O 	O 	0.53620 0.34831 0.42030 -0.39100
O 	O 	0.51270 0.33495 0.50420 -0.49700
O 	O 	0.48327 0.37394 0.99740 -0.44300
O 	O 	0.42895 0.37317 0.94350 -0.44200
O 	O 	0.61111 0.38848 0.78120 -0.47600
O 	O 	0.61530 0.37758 0.87740 -0.34900
O 	O 	0.76680 0.45512 0.12400 -0.45500
O 	O 	0.72810 0.46333 0.20060 -0.41300
O 	O 	0.54940 0.49836 0.25260 -0.65800
O 	O 	0.52110 0.53506 0.25970 -0.60900
O 	O 	0.55698 0.60069 0.10980 -0.43600
O 	O 	0.59620 0.59038 0.03460 -0.43500
O 	O 	0.69060 0.51463 0.73200 -0.43000
O 	O 	0.71193 0.53800 0.80680 -0.42500
O 	O 	0.68080 0.42294 0.77030 -0.40500
O 	O 	0.69230 0.40830 0.86090 -0.46100
C 	C 	0.40730 0.42291 0.68840 -0.00500
C 	C 	0.42350 0.42054 0.63050 -0.08400
H 	H 	0.40990 0.42700 0.59730 0.08600
C 	C 	0.45980 0.40860 0.62220 0.06100
C 	C 	0.48020 0.39960 0.67340 -0.11800
H 	H 	0.50450 0.39160 0.66790 0.08300
C 	C 	0.46540 0.40240 0.73220 0.05800
C 	C 	0.42890 0.41414 0.73920 -0.08100
H 	H 	0.41850 0.41630 0.77800 0.08400
C 	C 	0.47640 0.40445 0.56020 -0.00600
C 	C 	0.48030 0.42490 0.52060 -0.02500
H 	H 	0.47100 0.44050 0.53200 0.06800
C 	C 	0.49780 0.42151 0.46520 -0.06200
C 	C 	0.50940 0.39829 0.44550 0.01200
H 	H 	0.51940 0.39610 0.40650 0.05400
C 	C 	0.50560 0.37790 0.48530 -0.07300
C 	C 	0.48980 0.38140 0.54290 -0.02200
H 	H 	0.48830 0.36810 0.56980 0.06400
C 	C 	0.48790 0.39417 0.78660 0.00600
C 	C 	0.46870 0.38806 0.83810 -0.04000
H 	H 	0.44090 0.38860 0.83900 0.07000
C 	C 	0.48920 0.38107 0.88960 -0.04100
C 	C 	0.53070 0.38028 0.88950 -0.01200
H 	H 	0.54480 0.37610 0.92440 0.07000
C 	C 	0.55070 0.38596 0.83580 -0.04200
C 	C 	0.52970 0.39287 0.78520 -0.03800
H 	H 	0.54330 0.39670 0.74960 0.07100
C 	C 	0.36600 0.43276 0.69670 0.29600
C 	C 	0.50880 0.44380 0.42890 0.15300
C 	C 	0.51900 0.35237 0.46750 0.35300
C 	C 	0.46610 0.37579 0.94710 0.30500
C 	C 	0.59540 0.38346 0.83350 0.30700
C 	C 	0.70610 0.47628 0.10210 0.00600
C 	C 	0.67610 0.49115 0.12380 -0.10100
H 	H 	0.67230 0.49260 0.16540 0.08100
C 	C 	0.65140 0.50399 0.08430 0.08100
C 	C 	0.65700 0.50124 0.02270 -0.12000
H 	H 	0.64080 0.51000 0.99590 0.07500
C 	C 	0.68650 0.48570 -0.00000 0.07900
C 	C 	0.71140 0.47288 0.03950 -0.09700
H 	H 	0.73110 0.46230 0.02480 0.09500
C 	C 	0.61940 0.52078 0.11000 -0.05400
C 	C 	0.59730 0.51348 0.15940 0.06200
H 	H 	0.60190 0.49790 0.17650 0.01100
C 	C 	0.56850 0.52852 0.18430 -0.19300
C 	C 	0.56190 0.55203 0.15900 0.08500
H 	H 	0.54280 0.56260 0.17540 0.03000
C 	C 	0.58400 0.55932 0.10950 -0.09400
C 	C 	0.61200 0.54355 0.08460 0.01400
H 	H 	0.62610 0.54850 0.05020 0.05400
C 	C 	0.68990 0.48071 0.93310 -0.01600
C 	C 	0.69300 0.50074 0.89170 -0.02900
H 	H 	0.69360 0.51700 0.90590 0.06300
C 	C 	0.69510 0.49615 0.83080 -0.04900
C 	C 	0.69290 0.47241 0.80910 -0.00200
H 	H 	0.69260 0.46960 0.76750 0.07200
C 	C 	0.69110 0.45216 0.84900 -0.05500
C 	C 	0.69040 0.45677 0.91110 -0.02600
H 	H 	0.69020 0.44350 0.93810 0.06200
C 	C 	0.73490 0.46422 0.14530 0.28600
C 	C 	0.54510 0.51988 0.23670 0.54300
C 	C 	0.57870 0.58481 0.08280 0.31400
C 	C 	0.69990 0.51748 0.78830 0.29300
C 	C 	0.68790 0.42670 0.82540 0.30000
O 	O 	0.47820 0.46170 0.43900 -0.17100
C 	C 	0.49410 0.44200 0.42190 0.17700
In	In	0.02908 0.97132 0.31868 1.96400
In	In	0.04228 0.80447 0.46191 2.00100
In	In	0.07715 0.13054 0.04403 2.00000
O 	O 	0.84840 0.94254 0.65340 -0.42400
O 	O 	0.84979 0.93096 0.74770 -0.44500
O 	O 	0.01560 0.94020 0.37350 -0.55000
O 	O 	0.00770 0.96450 0.45200 -0.18400
O 	O 	0.03620 0.84831 0.42030 -0.39100
O 	O 	0.01270 0.83495 0.50420 -0.49600
O 	O 	0.98327 0.87394 0.99740 -0.44500
O 	O 	0.92895 0.87317 0.94350 -0.44300
O 	O 	0.11111 0.88848 0.78120 -0.47600
O 	O 	0.11530 0.87758 0.87740 -0.34900
O 	O 	0.26680 0.95512 0.12400 -0.45500
O 	O 	0.22810 0.96333 0.20060 -0.41300
O 	O 	0.04940 0.99836 0.25260 -0.65800
O 	O 	0.02110 0.03506 0.25970 -0.60800
O 	O 	0.05698 0.10069 0.10980 -0.43500
O 	O 	0.09620 0.09038 0.03460 -0.43500
O 	O 	0.19060 0.01463 0.73200 -0.42900
O 	O 	0.21193 0.03800 0.80680 -0.42500
O 	O 	0.18080 0.92294 0.77030 -0.40500
O 	O 	0.19230 0.90830 0.86090 -0.46000
C 	C 	0.90730 0.92291 0.68840 -0.00200
C 	C 	0.92350 0.92054 0.63050 -0.08800
H 	H 	0.90990 0.92700 0.59730 0.08700
C 	C 	0.95980 0.90860 0.62220 0.06600
C 	C 	0.98020 0.89960 0.67340 -0.13000
H 	H 	0.00450 0.89160 0.66790 0.09000
C 	C 	0.96540 0.90240 0.73220 0.06600
C 	C 	0.92890 0.91414 0.73920 -0.08600
H 	H 	0.91850 0.91630 0.77800 0.08600
C 	C 	0.97640 0.90445 0.56020 -0.01000
C 	C 	0.98030 0.92490 0.52060 -0.02200
H 	H 	0.97100 0.94050 0.53200 0.06600
C 	C 	0.99780 0.92151 0.46520 -0.07000
C 	C 	0.00940 0.89829 0.44550 0.01800
H 	H 	0.01940 0.89610 0.40650 0.05300
C 	C 	0.00560 0.87790 0.48530 -0.07100
C 	C 	0.98980 0.88140 0.54290 -0.02400
H 	H 	0.98830 0.86810 0.56980 0.06300
C 	C 	0.98790 0.89417 0.78660 -0.00600
C 	C 	0.96870 0.88806 0.83810 -0.03100
H 	H 	0.94090 0.88860 0.83900 0.06700
C 	C 	0.98920 0.88107 0.88960 -0.05100
C 	C 	0.03070 0.88028 0.88950 -0.00100
H 	H 	0.04480 0.87610 0.92440 0.06700
C 	C 	0.05070 0.88596 0.83580 -0.04900
C 	C 	0.02970 0.89287 0.78520 -0.02500
H 	H 	0.04330 0.89670 0.74960 0.06800
C 	C 	0.86600 0.93276 0.69670 0.29500
C 	C 	0.00880 0.94380 0.42890 0.13900
C 	C 	0.01900 0.85237 0.46750 0.35300
C 	C 	0.96610 0.87579 0.94710 0.30800
C 	C 	0.09540 0.88346 0.83350 0.31000
C 	C 	0.20610 0.97628 0.10210 0.00600
C 	C 	0.17610 0.99115 0.12380 -0.10100
H 	H 	0.17230 0.99260 0.16540 0.08100
C 	C 	0.15140 0.00399 0.08430 0.08100
C 	C 	0.15700 0.00124 0.02270 -0.12000
H 	H 	0.14080 0.01000 0.99590 0.07500
C 	C 	0.18650 0.98570 -0.00000 0.07900
C 	C 	0.21140 0.97288 0.03950 -0.09700
H 	H 	0.23110 0.96230 0.02480 0.09500
C 	C 	0.11940 0.02078 0.11000 -0.05400
C 	C 	0.09730 0.01348 0.15940 0.06300
H 	H 	0.10190 0.99790 0.17650 0.01100
C 	C 	0.06850 0.02852 0.18430 -0.19300
C 	C 	0.06190 0.05203 0.15900 0.08500
H 	H 	0.04280 0.06260 0.17540 0.03100
C 	C 	0.08400 0.05932 0.10950 -0.09400
C 	C 	0.11200 0.04355 0.08460 0.01500
H 	H 	0.12610 0.04850 0.05020 0.05400
C 	C 	0.18990 0.98071 0.93310 -0.01700
C 	C 	0.19300 0.00074 0.89170 -0.02800
H 	H 	0.19360 0.01700 0.90590 0.06300
C 	C 	0.19510 0.99615 0.83080 -0.04900
C 	C 	0.19290 0.97241 0.80910 -0.00200
H 	H 	0.19260 0.96960 0.76750 0.07200
C 	C 	0.19110 0.95216 0.84900 -0.05500
C 	C 	0.19040 0.95677 0.91110 -0.02600
H 	H 	0.19020 0.94350 0.93810 0.06200
C 	C 	0.23490 0.96422 0.14530 0.28600
C 	C 	0.04510 0.01988 0.23670 0.54300
C 	C 	0.07870 0.08481 0.08280 0.31400
C 	C 	0.19990 0.01748 0.78830 0.29400
C 	C 	0.18790 0.92670 0.82540 0.30000
O 	O 	0.97820 0.96170 0.43900 -0.17900
C 	C 	0.99410 0.94200 0.42190 0.19200
In	In	0.02908 0.47132 0.81868 1.96400
In	In	0.04228 0.30447 0.96191 1.99900
In	In	0.07715 0.63054 0.54403 1.99800
O 	O 	0.84840 0.44254 0.15340 -0.42200
O 	O 	0.84979 0.43096 0.24770 -0.44400
O 	O 	0.01560 0.44020 0.87350 -0.55300
O 	O 	0.00770 0.46450 0.95200 -0.18800
O 	O 	0.03620 0.34831 0.92030 -0.39100
O 	O 	0.01270 0.33495 0.00420 -0.48400
O 	O 	0.98327 0.37394 0.49740 -0.43800
O 	O 	0.92895 0.37317 0.44350 -0.43700
O 	O 	0.11111 0.38848 0.28120 -0.47500
O 	O 	0.11530 0.37758 0.37740 -0.34700
O 	O 	0.26680 0.45512 0.62400 -0.45700
O 	O 	0.22810 0.46333 0.70060 -0.41300
O 	O 	0.04940 0.49836 0.75260 -0.65800
O 	O 	0.02110 0.53506 0.75970 -0.60800
O 	O 	0.05698 0.60069 0.60980 -0.43800
O 	O 	0.09620 0.59038 0.53460 -0.43900
O 	O 	0.19060 0.51463 0.23200 -0.42800
O 	O 	0.21193 0.53800 0.30680 -0.42300
O 	O 	0.18080 0.42294 0.27030 -0.40300
O 	O 	0.19230 0.40830 0.36090 -0.45800
C 	C 	0.90730 0.42291 0.18840 0.00300
C 	C 	0.92350 0.42054 0.13050 -0.09500
H 	H 	0.90990 0.42700 0.09730 0.09100
C 	C 	0.95980 0.40860 0.12220 0.07800
C 	C 	0.98020 0.39960 0.17340 -0.13700
H 	H 	0.00450 0.39160 0.16790 0.09300
C 	C 	0.96540 0.40240 0.23220 0.07000
C 	C 	0.92890 0.41414 0.23920 -0.09000
H 	H 	0.91850 0.41630 0.27800 0.08800
C 	C 	0.97640 0.40445 0.06020 -0.03100
C 	C 	0.98030 0.42490 0.02060 0.01400
H 	H 	0.97100 0.44050 0.03200 0.05800
C 	C 	0.99780 0.42151 0.96520 -0.10000
C 	C 	0.00940 0.39829 0.94550 0.03900
H 	H 	0.01940 0.39610 0.90650 0.04500
C 	C 	0.00560 0.37790 0.98530 -0.09700
C 	C 	0.98980 0.38140 0.04290 0.00900
H 	H 	0.98830 0.36810 0.06980 0.05400
C 	C 	0.98790 0.39417 0.28660 -0.00700
C 	C 	0.96870 0.38806 0.33810 -0.03100
H 	H 	0.94090 0.38860 0.33900 0.06700
C 	C 	0.98920 0.38107 0.38960 -0.04900
C 	C 	0.03070 0.38028 0.38950 -0.00100
H 	H 	0.04480 0.37610 0.42440 0.06900
C 	C 	0.05070 0.38596 0.33580 -0.04800
C 	C 	0.02970 0.39287 0.28520 -0.02500
H 	H 	0.04330 0.39670 0.24960 0.06800
C 	C 	0.86600 0.43276 0.19670 0.29300
C 	C 	0.00880 0.44380 0.92890 0.14400
C 	C 	0.01900 0.35237 0.96750 0.34700
C 	C 	0.96610 0.37579 0.44710 0.30700
C 	C 	0.09540 0.38346 0.33350 0.31000
C 	C 	0.20610 0.47628 0.60210 0.00700
C 	C 	0.17610 0.49115 0.62380 -0.10600
H 	H 	0.17230 0.49260 0.66540 0.08300
C 	C 	0.15140 0.50399 0.58430 0.09000
C 	C 	0.15700 0.50124 0.52270 -0.14300
H 	H 	0.14080 0.51000 0.49590 0.09100
C 	C 	0.18650 0.48570 0.50000 0.07300
C 	C 	0.21140 0.47288 0.53950 -0.09700
H 	H 	0.23110 0.46230 0.52480 0.09100
C 	C 	0.11940 0.52078 0.61000 -0.06100
C 	C 	0.09730 0.51348 0.65940 0.06700
H 	H 	0.10190 0.49790 0.67650 0.00900
C 	C 	0.06850 0.52852 0.68430 -0.19600
C 	C 	0.06190 0.55203 0.65900 0.08700
H 	H 	0.04280 0.56260 0.67540 0.02900
C 	C 	0.08400 0.55932 0.60950 -0.09800
C 	C 	0.11200 0.54355 0.58460 0.01900
H 	H 	0.12610 0.54850 0.55020 0.05000
C 	C 	0.18990 0.48071 0.43310 -0.00200
C 	C 	0.19300 0.50074 0.39170 -0.03600
H 	H 	0.19360 0.51700 0.40590 0.06800
C 	C 	0.19510 0.49615 0.33080 -0.04300
C 	C 	0.19290 0.47241 0.30910 -0.00700
H 	H 	0.19260 0.46960 0.26750 0.07400
C 	C 	0.19110 0.45216 0.34900 -0.04900
C 	C 	0.19040 0.45677 0.41110 -0.03300
H 	H 	0.19020 0.44350 0.43810 0.06800
C 	C 	0.23490 0.46422 0.64530 0.28500
C 	C 	0.04510 0.51988 0.73670 0.54400
C 	C 	0.07870 0.58481 0.58280 0.31500
C 	C 	0.19990 0.51748 0.28830 0.29100
C 	C 	0.18790 0.42670 0.32540 0.29800
O 	O 	0.97820 0.46170 0.93900 -0.18300
C 	C 	0.99410 0.44200 0.92190 0.19600
O 	O 	0.75000 0.75000 0.61210 -0.72800
O 	O 	0.75000 0.25000 0.11210 -0.72700
O 	O 	0.25000 0.25000 0.61210 -0.72800
O 	O 	0.25000 0.75000 0.11210 -0.72700
O 	O 	0.00000 0.50000 0.86210 -0.72600
O 	O 	0.00000 0.00000 0.36210 -0.72500
O 	O 	0.50000 0.50000 0.36210 -0.72700
O 	O 	0.50000 0.00000 0.86210 -0.72800
