data_crystal

_cell_length_a 14.08280
_cell_length_b 23.99670
_cell_length_c 37.15160
_cell_angle_alpha 90.00000
_cell_angle_beta  90.00000
_cell_angle_gamma 90.00000

_symmetry_space_group_name_	'P 1'
_symmetry_space_group_name_H-M	'P 1'

loop_
_symmetry_equiv_pos_as_xyz
  x,y,z

loop_
_atom_site_label
_atom_site_type_symbol
_atom_site_fract_x
_atom_site_fract_y
_atom_site_fract_z
_atom_site_charge
C 	C 	0.91060 0.40250 0.84373 -1.14900
H 	H 	0.91220 0.40610 0.81800 0.36400
H 	H 	0.85520 0.42090 0.85300 0.36200
H 	H 	0.90850 0.36370 0.85010 0.35900
C 	C 	0.97100 0.93050 0.88060 0.82400
C 	C 	0.95840 0.89650 0.90200 -0.55600
C 	C 	0.87500 0.91080 0.89210 -0.04700
C 	C 	0.32920 0.25680 0.20886 0.08600
H 	H 	0.34360 0.21910 0.21090 -0.01200
C 	C 	0.33480 0.34580 0.21372 0.00400
H 	H 	0.35410 0.38160 0.21990 0.02300
C 	C 	0.25710 0.33310 0.19420 -0.01000
H 	H 	0.21380 0.35820 0.18450 0.03700
C 	C 	0.18470 0.24470 0.17047 -0.05600
H 	H 	0.12100 0.25460 0.17810 0.05600
H 	H 	0.19370 0.20530 0.17510 0.04800
C 	C 	0.19450 0.25560 0.13022 -0.10600
H 	H 	0.14680 0.23410 0.11750 0.06300
H 	H 	0.18220 0.29470 0.12560 0.06700
C 	C 	0.29060 0.24100 0.11543 -0.08000
H 	H 	0.30070 0.20130 0.11850 0.04400
H 	H 	0.33840 0.26020 0.12950 0.05200
C 	C 	0.30510 0.25530 0.07597 -0.06300
H 	H 	0.29470 0.29490 0.07250 0.04900
H 	H 	0.37020 0.24720 0.06930 0.04900
C 	C 	0.16190 0.24350 0.03664 0.08300
H 	H 	0.14010 0.28000 0.03850 -0.00100
C 	C 	0.17490 0.15680 0.02183 -0.00000
H 	H 	0.16300 0.12220 0.01150 0.02700
C 	C 	0.24930 0.16930 0.04290 -0.00900
H 	H 	0.29760 0.14510 0.04970 0.03700
N 	N 	0.38090 0.29737 0.22297 -0.26700
N 	N 	0.25410 0.27691 0.19144 -0.11900
N 	N 	0.24100 0.22416 0.05250 -0.11600
N 	N 	0.11890 0.20374 0.01803 -0.26500
C 	C 	0.05800 0.47920 0.95340 0.39800
C 	C 	0.05600 0.43410 0.97550 0.34900
C 	C 	0.58940 0.59750 0.34373 -1.04700
H 	H 	0.58780 0.59390 0.31800 0.34700
H 	H 	0.64480 0.57910 0.35300 0.33700
H 	H 	0.59150 0.63630 0.35010 0.34000
C 	C 	0.52900 0.06950 0.38060 0.01300
C 	C 	0.54160 0.10350 0.40200 -0.01200
C 	C 	0.62500 0.08920 0.39210 -0.04000
C 	C 	0.17080 0.74320 0.70886 0.08700
H 	H 	0.15640 0.78090 0.71090 -0.01200
C 	C 	0.16520 0.65420 0.71372 0.00600
H 	H 	0.14590 0.61840 0.71990 0.02500
C 	C 	0.24290 0.66690 0.69420 -0.00900
H 	H 	0.28620 0.64180 0.68450 0.03900
C 	C 	0.31530 0.75530 0.67047 -0.05100
H 	H 	0.37900 0.74540 0.67810 0.05300
H 	H 	0.30630 0.79470 0.67510 0.04500
C 	C 	0.30550 0.74440 0.63022 -0.11200
H 	H 	0.35320 0.76590 0.61750 0.06600
H 	H 	0.31780 0.70530 0.62560 0.06900
C 	C 	0.20940 0.75900 0.61543 -0.07500
H 	H 	0.19930 0.79870 0.61850 0.04200
H 	H 	0.16160 0.73980 0.62950 0.05300
C 	C 	0.19490 0.74470 0.57597 -0.06600
H 	H 	0.20530 0.70510 0.57250 0.05200
H 	H 	0.12980 0.75280 0.56930 0.05000
C 	C 	0.33810 0.75650 0.53664 0.08300
H 	H 	0.35990 0.72000 0.53850 -0.00000
C 	C 	0.32510 0.84320 0.52183 -0.00200
H 	H 	0.33700 0.87780 0.51150 0.02200
C 	C 	0.25070 0.83070 0.54290 -0.00300
H 	H 	0.20240 0.85490 0.54970 0.02100
N 	N 	0.11910 0.70263 0.72297 -0.26500
N 	N 	0.24590 0.72309 0.69144 -0.12000
N 	N 	0.25900 0.77584 0.55250 -0.11600
N 	N 	0.38110 0.79626 0.51803 -0.26600
C 	C 	0.44200 0.52080 0.45340 0.04600
C 	C 	0.44400 0.56590 0.47550 0.06700
C 	C 	0.41060 0.59750 0.34373 -1.06100
H 	H 	0.41220 0.59390 0.31800 0.35500
H 	H 	0.35520 0.57910 0.35300 0.35000
H 	H 	0.40850 0.63630 0.35010 0.34500
C 	C 	0.47100 0.06950 0.38060 -0.00600
C 	C 	0.45840 0.10350 0.40200 -0.00500
C 	C 	0.37500 0.08920 0.39210 -0.03500
C 	C 	0.82920 0.74320 0.70886 0.08200
H 	H 	0.84360 0.78090 0.71090 -0.02300
C 	C 	0.83480 0.65420 0.71372 0.00100
H 	H 	0.85410 0.61840 0.71990 0.00900
C 	C 	0.75710 0.66690 0.69420 -0.01400
H 	H 	0.71380 0.64180 0.68450 0.03600
C 	C 	0.68470 0.75530 0.67047 -0.05200
H 	H 	0.62100 0.74540 0.67810 0.05300
H 	H 	0.69370 0.79470 0.67510 0.04400
C 	C 	0.69450 0.74440 0.63022 -0.11100
H 	H 	0.64680 0.76590 0.61750 0.06500
H 	H 	0.68220 0.70530 0.62560 0.06700
C 	C 	0.79060 0.75900 0.61543 -0.07500
H 	H 	0.80070 0.79870 0.61850 0.03700
H 	H 	0.83840 0.73980 0.62950 0.04200
C 	C 	0.80510 0.74470 0.57597 -0.05900
H 	H 	0.79470 0.70510 0.57250 0.04200
H 	H 	0.87020 0.75280 0.56930 0.03300
C 	C 	0.66190 0.75650 0.53664 0.08300
H 	H 	0.64010 0.72000 0.53850 -0.00200
C 	C 	0.67490 0.84320 0.52183 -0.00300
H 	H 	0.66300 0.87780 0.51150 0.02100
C 	C 	0.74930 0.83070 0.54290 -0.00400
H 	H 	0.79760 0.85490 0.54970 0.01600
N 	N 	0.88090 0.70263 0.72297 -0.28000
N 	N 	0.75410 0.72309 0.69144 -0.12000
N 	N 	0.74100 0.77584 0.55250 -0.11800
N 	N 	0.61890 0.79626 0.51803 -0.26600
C 	C 	0.55800 0.52080 0.45340 0.04100
C 	C 	0.55600 0.56590 0.47550 0.06500
C 	C 	0.08940 0.40250 0.84373 -1.11200
H 	H 	0.08780 0.40610 0.81800 0.37300
H 	H 	0.14480 0.42090 0.85300 0.35800
H 	H 	0.09150 0.36370 0.85010 0.36400
C 	C 	0.02900 0.93050 0.88060 -0.85600
C 	C 	0.04160 0.89650 0.90200 0.54900
C 	C 	0.12500 0.91080 0.89210 -0.02300
C 	C 	0.67080 0.25680 0.20886 0.08500
H 	H 	0.65640 0.21910 0.21090 -0.01500
C 	C 	0.66520 0.34580 0.21372 0.00200
H 	H 	0.64590 0.38160 0.21990 0.02100
C 	C 	0.74290 0.33310 0.19420 -0.01000
H 	H 	0.78620 0.35820 0.18450 0.02800
C 	C 	0.81530 0.24470 0.17047 -0.04400
H 	H 	0.87900 0.25460 0.17810 0.03600
H 	H 	0.80630 0.20530 0.17510 0.03500
C 	C 	0.80550 0.25560 0.13022 -0.11200
H 	H 	0.85320 0.23410 0.11750 0.06100
H 	H 	0.81780 0.29470 0.12560 0.06100
C 	C 	0.70940 0.24100 0.11543 -0.07700
H 	H 	0.69930 0.20130 0.11850 0.04400
H 	H 	0.66160 0.26020 0.12950 0.05000
C 	C 	0.69490 0.25530 0.07597 -0.06300
H 	H 	0.70530 0.29490 0.07250 0.04700
H 	H 	0.62980 0.24720 0.06930 0.04900
C 	C 	0.83810 0.24350 0.03664 0.08400
H 	H 	0.85990 0.28000 0.03850 -0.01400
C 	C 	0.82510 0.15680 0.02183 0.00600
H 	H 	0.83700 0.12220 0.01150 0.01900
C 	C 	0.75070 0.16930 0.04290 -0.00400
H 	H 	0.70240 0.14510 0.04970 0.03700
N 	N 	0.61910 0.29737 0.22297 -0.26700
N 	N 	0.74590 0.27691 0.19144 -0.12300
N 	N 	0.75900 0.22416 0.05250 -0.11500
N 	N 	0.88110 0.20374 0.01803 -0.27900
C 	C 	0.94200 0.47920 0.95340 0.34900
C 	C 	0.94400 0.43410 0.97550 0.29600
C 	C 	0.00000 0.52370 0.82428 0.12500
H 	H 	-0.00000 0.50580 0.80210 -0.00600
C 	C 	-0.00000 0.58180 0.82567 -0.15000
C 	C 	-0.00000 0.60770 0.85965 0.08000
H 	H 	0.00000 0.64640 0.86080 0.02100
C 	C 	0.00000 0.57780 0.89100 -0.15400
H 	H 	0.00000 0.59570 0.91320 0.09600
C 	C 	0.00000 0.48360 0.95460 -0.66400
C 	C 	0.00000 0.43380 0.97460 -0.56300
C 	C 	-0.00000 0.38100 0.95930 -0.05600
C 	C 	0.00000 0.37670 0.92169 0.05100
H 	H 	0.00000 0.34180 0.91080 0.01800
C 	C 	0.00000 0.42920 0.85994 0.60900
C 	C 	-0.00000 0.49270 0.85528 -0.23700
C 	C 	-0.00000 0.51960 0.88880 0.08300
C 	C 	-0.00000 0.47660 0.91690 0.06000
C 	C 	-0.00000 0.42420 0.90070 -0.22500
C 	C 	0.00000 0.61590 0.79183 0.36100
C 	C 	0.00000 0.33070 0.98340 0.31700
C 	C 	0.00000 0.82870 0.76007 0.35500
C 	C 	-0.00000 0.88020 0.78216 -0.10500
C 	C 	0.00000 0.93240 0.76653 0.04400
H 	H 	0.00000 0.93490 0.74160 0.01300
C 	C 	-0.00000 0.98080 0.78632 -0.11700
H 	H 	-0.00000 0.01540 0.77500 0.09400
C 	C 	-0.00000 0.87670 0.81910 -0.01600
H 	H 	0.00000 0.84190 0.83020 0.05800
C 	C 	0.00000 0.92470 0.84010 0.00700
C 	C 	0.00000 0.97680 0.82366 0.03300
C 	C 	-0.00000 0.02030 0.85160 -0.00600
C 	C 	-0.00000 0.07780 0.84970 -0.05600
H 	H 	-0.00000 0.09580 0.82750 0.05300
C 	C 	-0.00000 0.10810 0.88143 -0.01300
H 	H 	-0.00000 0.14680 0.88040 0.05100
C 	C 	-0.00000 0.08240 0.91444 -0.04800
C 	C 	-0.00000 0.02430 0.91620 -0.05600
H 	H 	0.00000 0.00650 0.93840 0.07800
C 	C 	-0.00000 0.99350 0.88530 0.03800
C 	C 	-0.00000 0.11580 0.94860 0.30900
O 	O 	-0.00000 0.66836 0.79644 -0.44800
O 	O 	-0.00000 0.59260 0.76254 -0.33000
O 	O 	-0.00000 0.28444 0.96594 -0.44400
O 	O 	0.00000 0.33520 0.01629 -0.29700
O 	O 	-0.00000 0.78301 0.77753 -0.45500
O 	O 	-0.00000 0.83190 0.72733 -0.33800
O 	O 	-0.00000 0.16888 0.94500 -0.43900
O 	O 	0.00000 0.09260 0.97851 -0.29500
Zn	Zn	-0.00000 0.71230 0.75186 1.21500
Zn	Zn	-0.00000 0.21190 0.98968 1.21600
C 	C 	0.50000 0.47630 0.32428 0.11600
H 	H 	0.50000 0.49420 0.30210 -0.00800
C 	C 	0.50000 0.41820 0.32567 -0.15600
C 	C 	0.50000 0.39230 0.35965 0.08300
H 	H 	0.50000 0.35360 0.36080 0.01300
C 	C 	0.50000 0.42220 0.39100 -0.16500
H 	H 	0.50000 0.40430 0.41320 0.09800
C 	C 	0.50000 0.51640 0.45460 -0.10200
C 	C 	0.50000 0.56620 0.47460 -0.07800
C 	C 	0.50000 0.61900 0.45930 -0.11400
C 	C 	0.50000 0.62330 0.42169 0.07600
H 	H 	0.50000 0.65820 0.41080 0.00400
C 	C 	0.50000 0.57080 0.35994 0.54900
C 	C 	0.50000 0.50730 0.35528 -0.22900
C 	C 	0.50000 0.48040 0.38880 0.09800
C 	C 	0.50000 0.52340 0.41690 0.02800
C 	C 	0.50000 0.57580 0.40070 -0.19900
C 	C 	0.50000 0.38410 0.29183 0.36000
C 	C 	0.50000 0.66930 0.48340 0.34400
C 	C 	0.50000 0.17130 0.26007 0.35900
C 	C 	0.50000 0.11980 0.28216 -0.12300
C 	C 	0.50000 0.06760 0.26653 0.05100
H 	H 	0.50000 0.06510 0.24160 0.00500
C 	C 	0.50000 0.01920 0.28632 -0.13100
H 	H 	0.50000 0.98460 0.27500 0.09300
C 	C 	0.50000 0.12330 0.31910 -0.00100
H 	H 	0.50000 0.15810 0.33020 0.04300
C 	C 	0.50000 0.07530 0.34010 -0.02600
C 	C 	0.50000 0.02320 0.32366 0.03600
C 	C 	0.50000 0.97970 0.35160 -0.00300
C 	C 	0.50000 0.92220 0.34970 -0.07100
H 	H 	0.50000 0.90420 0.32750 0.05000
C 	C 	0.50000 0.89190 0.38143 -0.00700
H 	H 	0.50000 0.85320 0.38040 0.04000
C 	C 	0.50000 0.91760 0.41444 -0.06800
C 	C 	0.50000 0.97570 0.41620 -0.04300
H 	H 	0.50000 0.99350 0.43840 0.06100
C 	C 	0.50000 0.00650 0.38530 0.00300
C 	C 	0.50000 0.88420 0.44860 0.31000
O 	O 	0.50000 0.33164 0.29644 -0.45900
O 	O 	0.50000 0.40740 0.26254 -0.34000
O 	O 	0.50000 0.71556 0.46594 -0.46000
O 	O 	0.50000 0.66480 0.51629 -0.31000
O 	O 	0.50000 0.21699 0.27753 -0.46800
O 	O 	0.50000 0.16810 0.22733 -0.35200
O 	O 	0.50000 0.83112 0.44500 -0.45200
O 	O 	0.50000 0.90740 0.47851 -0.31300
Zn	Zn	0.50000 0.28770 0.25186 1.20800
Zn	Zn	0.50000 0.78810 0.48968 1.20900
C 	C 	0.41060 0.90250 0.84373 -1.06100
H 	H 	0.41220 0.90610 0.81800 0.35500
H 	H 	0.35520 0.92090 0.85300 0.35000
H 	H 	0.40850 0.86370 0.85010 0.34500
C 	C 	0.47100 0.43050 0.88060 -0.00600
C 	C 	0.45840 0.39650 0.90200 -0.00500
C 	C 	0.37500 0.41080 0.89210 -0.03500
C 	C 	0.82920 0.75680 0.20886 0.08200
H 	H 	0.84360 0.71910 0.21090 -0.02300
C 	C 	0.83480 0.84580 0.21372 0.00100
H 	H 	0.85410 0.88160 0.21990 0.00900
C 	C 	0.75710 0.83310 0.19420 -0.01400
H 	H 	0.71380 0.85820 0.18450 0.03600
C 	C 	0.68470 0.74470 0.17047 -0.05200
H 	H 	0.62100 0.75460 0.17810 0.05300
H 	H 	0.69370 0.70530 0.17510 0.04400
C 	C 	0.69450 0.75560 0.13022 -0.11200
H 	H 	0.64680 0.73410 0.11750 0.06500
H 	H 	0.68220 0.79470 0.12560 0.06700
C 	C 	0.79060 0.74100 0.11543 -0.07500
H 	H 	0.80070 0.70130 0.11850 0.03700
H 	H 	0.83840 0.76020 0.12950 0.04200
C 	C 	0.80510 0.75530 0.07597 -0.05900
H 	H 	0.79470 0.79490 0.07250 0.04200
H 	H 	0.87020 0.74720 0.06930 0.03300
C 	C 	0.66190 0.74350 0.03664 0.08300
H 	H 	0.64010 0.78000 0.03850 -0.00200
C 	C 	0.67490 0.65680 0.02183 -0.00300
H 	H 	0.66300 0.62220 0.01150 0.02100
C 	C 	0.74930 0.66930 0.04290 -0.00400
H 	H 	0.79760 0.64510 0.04970 0.01600
N 	N 	0.88090 0.79737 0.22297 -0.28000
N 	N 	0.75410 0.77691 0.19144 -0.12000
N 	N 	0.74100 0.72416 0.05250 -0.11800
N 	N 	0.61890 0.70374 0.01803 -0.26600
C 	C 	0.55800 0.97920 0.95340 0.04100
C 	C 	0.55600 0.93410 0.97550 0.06500
C 	C 	0.08940 0.09750 0.34373 -1.11200
H 	H 	0.08780 0.09390 0.31800 0.37200
H 	H 	0.14480 0.07910 0.35300 0.35800
H 	H 	0.09150 0.13630 0.35010 0.36300
C 	C 	0.02900 0.56950 0.38060 -0.86700
C 	C 	0.04160 0.60350 0.40200 0.55500
C 	C 	0.12500 0.58920 0.39210 -0.02300
C 	C 	0.67080 0.24320 0.70886 0.08500
H 	H 	0.65640 0.28090 0.71090 -0.01500
C 	C 	0.66520 0.15420 0.71372 0.00200
H 	H 	0.64590 0.11840 0.71990 0.02100
C 	C 	0.74290 0.16690 0.69420 -0.01000
H 	H 	0.78620 0.14180 0.68450 0.02800
C 	C 	0.81530 0.25530 0.67047 -0.04400
H 	H 	0.87900 0.24540 0.67810 0.03600
H 	H 	0.80630 0.29470 0.67510 0.03500
C 	C 	0.80550 0.24440 0.63022 -0.11200
H 	H 	0.85320 0.26590 0.61750 0.06100
H 	H 	0.81780 0.20530 0.62560 0.06100
C 	C 	0.70940 0.25900 0.61543 -0.07700
H 	H 	0.69930 0.29870 0.61850 0.04400
H 	H 	0.66160 0.23980 0.62950 0.05000
C 	C 	0.69490 0.24470 0.57597 -0.06300
H 	H 	0.70530 0.20510 0.57250 0.04700
H 	H 	0.62980 0.25280 0.56930 0.04900
C 	C 	0.83810 0.25650 0.53664 0.08400
H 	H 	0.85990 0.22000 0.53850 -0.01400
C 	C 	0.82510 0.34320 0.52183 0.00600
H 	H 	0.83700 0.37780 0.51150 0.01900
C 	C 	0.75070 0.33070 0.54290 -0.00400
H 	H 	0.70240 0.35490 0.54970 0.03700
N 	N 	0.61910 0.20263 0.72297 -0.26700
N 	N 	0.74590 0.22309 0.69144 -0.12300
N 	N 	0.75900 0.27584 0.55250 -0.11500
N 	N 	0.88110 0.29626 0.51803 -0.27900
C 	C 	0.94200 0.02080 0.45340 0.34600
C 	C 	0.94400 0.06590 0.47550 0.29400
C 	C 	0.91060 0.09750 0.34373 -1.14900
H 	H 	0.91220 0.09390 0.31800 0.36300
H 	H 	0.85520 0.07910 0.35300 0.36000
H 	H 	0.90850 0.13630 0.35010 0.35800
C 	C 	0.97100 0.56950 0.38060 0.83300
C 	C 	0.95840 0.60350 0.40200 -0.56300
C 	C 	0.87500 0.58920 0.39210 -0.04800
C 	C 	0.32920 0.24320 0.70886 0.08500
H 	H 	0.34360 0.28090 0.71090 -0.01200
C 	C 	0.33480 0.15420 0.71372 0.00400
H 	H 	0.35410 0.11840 0.71990 0.02300
C 	C 	0.25710 0.16690 0.69420 -0.01000
H 	H 	0.21380 0.14180 0.68450 0.03700
C 	C 	0.18470 0.25530 0.67047 -0.05600
H 	H 	0.12100 0.24540 0.67810 0.05600
H 	H 	0.19370 0.29470 0.67510 0.04800
C 	C 	0.19450 0.24440 0.63022 -0.10600
H 	H 	0.14680 0.26590 0.61750 0.06300
H 	H 	0.18220 0.20530 0.62560 0.06700
C 	C 	0.29060 0.25900 0.61543 -0.08000
H 	H 	0.30070 0.29870 0.61850 0.04400
H 	H 	0.33840 0.23980 0.62950 0.05200
C 	C 	0.30510 0.24470 0.57597 -0.06300
H 	H 	0.29470 0.20510 0.57250 0.04900
H 	H 	0.37020 0.25280 0.56930 0.04900
C 	C 	0.16190 0.25650 0.53664 0.08300
H 	H 	0.14010 0.22000 0.53850 -0.00100
C 	C 	0.17490 0.34320 0.52183 -0.00000
H 	H 	0.16300 0.37780 0.51150 0.02700
C 	C 	0.24930 0.33070 0.54290 -0.00900
H 	H 	0.29760 0.35490 0.54970 0.03700
N 	N 	0.38090 0.20263 0.72297 -0.26700
N 	N 	0.25410 0.22309 0.69144 -0.11900
N 	N 	0.24100 0.27584 0.55250 -0.11600
N 	N 	0.11890 0.29626 0.51803 -0.26500
C 	C 	0.05800 0.02080 0.45340 0.39400
C 	C 	0.05600 0.06590 0.47550 0.34700
C 	C 	0.58940 0.90250 0.84373 -1.04700
H 	H 	0.58780 0.90610 0.81800 0.34700
H 	H 	0.64480 0.92090 0.85300 0.33700
H 	H 	0.59150 0.86370 0.85010 0.34000
C 	C 	0.52900 0.43050 0.88060 0.01400
C 	C 	0.54160 0.39650 0.90200 -0.01300
C 	C 	0.62500 0.41080 0.89210 -0.04000
C 	C 	0.17080 0.75680 0.20886 0.08700
H 	H 	0.15640 0.71910 0.21090 -0.01200
C 	C 	0.16520 0.84580 0.21372 0.00600
H 	H 	0.14590 0.88160 0.21990 0.02500
C 	C 	0.24290 0.83310 0.19420 -0.00900
H 	H 	0.28620 0.85820 0.18450 0.03900
C 	C 	0.31530 0.74470 0.17047 -0.05100
H 	H 	0.37900 0.75460 0.17810 0.05300
H 	H 	0.30630 0.70530 0.17510 0.04500
C 	C 	0.30550 0.75560 0.13022 -0.11200
H 	H 	0.35320 0.73410 0.11750 0.06600
H 	H 	0.31780 0.79470 0.12560 0.06900
C 	C 	0.20940 0.74100 0.11543 -0.07500
H 	H 	0.19930 0.70130 0.11850 0.04200
H 	H 	0.16160 0.76020 0.12950 0.05300
C 	C 	0.19490 0.75530 0.07597 -0.06600
H 	H 	0.20530 0.79490 0.07250 0.05200
H 	H 	0.12980 0.74720 0.06930 0.05000
C 	C 	0.33810 0.74350 0.03664 0.08300
H 	H 	0.35990 0.78000 0.03850 -0.00000
C 	C 	0.32510 0.65680 0.02183 -0.00200
H 	H 	0.33700 0.62220 0.01150 0.02200
C 	C 	0.25070 0.66930 0.04290 -0.00300
H 	H 	0.20240 0.64510 0.04970 0.02100
N 	N 	0.11910 0.79737 0.22297 -0.26500
N 	N 	0.24590 0.77691 0.19144 -0.12000
N 	N 	0.25900 0.72416 0.05250 -0.11600
N 	N 	0.38110 0.70374 0.01803 -0.26600
C 	C 	0.44200 0.97920 0.95340 0.04500
C 	C 	0.44400 0.93410 0.97550 0.06700
C 	C 	0.50000 0.02370 0.82428 0.11600
H 	H 	0.50000 0.00580 0.80210 -0.00800
C 	C 	0.50000 0.08180 0.82567 -0.15600
C 	C 	0.50000 0.10770 0.85965 0.08200
H 	H 	0.50000 0.14640 0.86080 0.01300
C 	C 	0.50000 0.07780 0.89100 -0.16500
H 	H 	0.50000 0.09570 0.91320 0.09800
C 	C 	0.50000 0.98360 0.95460 -0.10100
C 	C 	0.50000 0.93380 0.97460 -0.07800
C 	C 	0.50000 0.88100 0.95930 -0.11400
C 	C 	0.50000 0.87670 0.92169 0.07600
H 	H 	0.50000 0.84180 0.91080 0.00400
C 	C 	0.50000 0.92920 0.85994 0.54800
C 	C 	0.50000 0.99270 0.85528 -0.22800
C 	C 	0.50000 0.01960 0.88880 0.09800
C 	C 	0.50000 0.97660 0.91690 0.02800
C 	C 	0.50000 0.92420 0.90070 -0.19900
C 	C 	0.50000 0.11590 0.79183 0.35900
C 	C 	0.50000 0.83070 0.98340 0.34400
C 	C 	0.50000 0.32870 0.76007 0.35900
C 	C 	0.50000 0.38020 0.78216 -0.12300
C 	C 	0.50000 0.43240 0.76653 0.05100
H 	H 	0.50000 0.43490 0.74160 0.00500
C 	C 	0.50000 0.48080 0.78632 -0.13100
H 	H 	0.50000 0.51540 0.77500 0.09300
C 	C 	0.50000 0.37670 0.81910 -0.00100
H 	H 	0.50000 0.34190 0.83020 0.04300
C 	C 	0.50000 0.42470 0.84010 -0.02600
C 	C 	0.50000 0.47680 0.82366 0.03600
C 	C 	0.50000 0.52030 0.85160 -0.00300
C 	C 	0.50000 0.57780 0.84970 -0.07100
H 	H 	0.50000 0.59580 0.82750 0.05000
C 	C 	0.50000 0.60810 0.88143 -0.00600
H 	H 	0.50000 0.64680 0.88040 0.04000
C 	C 	0.50000 0.58240 0.91444 -0.06800
C 	C 	0.50000 0.52430 0.91620 -0.04300
H 	H 	0.50000 0.50650 0.93840 0.06100
C 	C 	0.50000 0.49350 0.88530 0.00300
C 	C 	0.50000 0.61580 0.94860 0.31000
O 	O 	0.50000 0.16836 0.79644 -0.45900
O 	O 	0.50000 0.09260 0.76254 -0.34000
O 	O 	0.50000 0.78444 0.96594 -0.46000
O 	O 	0.50000 0.83520 0.01629 -0.31100
O 	O 	0.50000 0.28301 0.77753 -0.46800
O 	O 	0.50000 0.33190 0.72733 -0.35200
O 	O 	0.50000 0.66888 0.94500 -0.45200
O 	O 	0.50000 0.59260 0.97851 -0.31300
Zn	Zn	0.50000 0.21230 0.75186 1.20800
Zn	Zn	0.50000 0.71190 0.98968 1.20900
C 	C 	-0.00000 0.97630 0.32428 0.12500
H 	H 	-0.00000 0.99420 0.30210 -0.00600
C 	C 	-0.00000 0.91820 0.32567 -0.15000
C 	C 	-0.00000 0.89230 0.35965 0.08000
H 	H 	-0.00000 0.85360 0.36080 0.02100
C 	C 	0.00000 0.92220 0.39100 -0.15400
H 	H 	0.00000 0.90430 0.41320 0.09600
C 	C 	-0.00000 0.01640 0.45460 -0.65900
C 	C 	0.00000 0.06620 0.47460 -0.56000
C 	C 	0.00000 0.11900 0.45930 -0.05700
C 	C 	0.00000 0.12330 0.42169 0.05100
H 	H 	0.00000 0.15820 0.41080 0.01800
C 	C 	0.00000 0.07080 0.35994 0.60800
C 	C 	-0.00000 0.00730 0.35528 -0.23700
C 	C 	0.00000 0.98040 0.38880 0.08300
C 	C 	-0.00000 0.02340 0.41690 0.06000
C 	C 	-0.00000 0.07580 0.40070 -0.22500
C 	C 	-0.00000 0.88410 0.29183 0.36100
C 	C 	-0.00000 0.16930 0.48340 0.31800
C 	C 	0.00000 0.67130 0.26007 0.35500
C 	C 	-0.00000 0.61980 0.28216 -0.10500
C 	C 	-0.00000 0.56760 0.26653 0.04400
H 	H 	0.00000 0.56510 0.24160 0.01300
C 	C 	-0.00000 0.51920 0.28632 -0.11700
H 	H 	-0.00000 0.48460 0.27500 0.09400
C 	C 	-0.00000 0.62330 0.31910 -0.01600
H 	H 	0.00000 0.65810 0.33020 0.05800
C 	C 	0.00000 0.57530 0.34010 0.00700
C 	C 	0.00000 0.52320 0.32366 0.03300
C 	C 	-0.00000 0.47970 0.35160 -0.00600
C 	C 	-0.00000 0.42220 0.34970 -0.05600
H 	H 	0.00000 0.40420 0.32750 0.05300
C 	C 	-0.00000 0.39190 0.38143 -0.01300
H 	H 	0.00000 0.35320 0.38040 0.05100
C 	C 	-0.00000 0.41760 0.41444 -0.04800
C 	C 	0.00000 0.47570 0.41620 -0.05600
H 	H 	-0.00000 0.49350 0.43840 0.07800
C 	C 	-0.00000 0.50650 0.38530 0.03800
C 	C 	-0.00000 0.38420 0.44860 0.30900
O 	O 	0.00000 0.83164 0.29644 -0.44800
O 	O 	-0.00000 0.90740 0.26254 -0.33000
O 	O 	-0.00000 0.21556 0.46594 -0.44400
O 	O 	0.00000 0.16480 0.51629 -0.29700
O 	O 	0.00000 0.71699 0.27753 -0.45500
O 	O 	-0.00000 0.66810 0.22733 -0.33800
O 	O 	-0.00000 0.33112 0.44500 -0.43900
O 	O 	0.00000 0.40740 0.47851 -0.29500
Zn	Zn	0.00000 0.78770 0.25186 1.21500
Zn	Zn	-0.00000 0.28810 0.48968 1.21600
C 	C 	0.08940 0.90250 0.65627 -1.11200
H 	H 	0.08780 0.90610 0.68200 0.37200
H 	H 	0.14480 0.92090 0.64700 0.35800
H 	H 	0.09150 0.86370 0.64990 0.36300
C 	C 	0.02900 0.43050 0.61940 -0.86700
C 	C 	0.04160 0.39650 0.59800 0.55500
C 	C 	0.12500 0.41080 0.60790 -0.02300
C 	C 	0.67080 0.75680 0.29114 0.08500
H 	H 	0.65640 0.71910 0.28910 -0.01500
C 	C 	0.66520 0.84580 0.28628 0.00200
H 	H 	0.64590 0.88160 0.28010 0.02100
C 	C 	0.74290 0.83310 0.30580 -0.01000
H 	H 	0.78620 0.85820 0.31550 0.02800
C 	C 	0.81530 0.74470 0.32953 -0.04400
H 	H 	0.87900 0.75460 0.32190 0.03600
H 	H 	0.80630 0.70530 0.32490 0.03500
C 	C 	0.80550 0.75560 0.36978 -0.11200
H 	H 	0.85320 0.73410 0.38250 0.06100
H 	H 	0.81780 0.79470 0.37440 0.06100
C 	C 	0.70940 0.74100 0.38457 -0.07700
H 	H 	0.69930 0.70130 0.38150 0.04400
H 	H 	0.66160 0.76020 0.37050 0.05000
C 	C 	0.69490 0.75530 0.42403 -0.06300
H 	H 	0.70530 0.79490 0.42750 0.04700
H 	H 	0.62980 0.74720 0.43070 0.04900
C 	C 	0.83810 0.74350 0.46336 0.08400
H 	H 	0.85990 0.78000 0.46150 -0.01400
C 	C 	0.82510 0.65680 0.47817 0.00600
H 	H 	0.83700 0.62220 0.48850 0.01900
C 	C 	0.75070 0.66930 0.45710 -0.00400
H 	H 	0.70240 0.64510 0.45030 0.03700
N 	N 	0.61910 0.79737 0.27703 -0.26700
N 	N 	0.74590 0.77691 0.30856 -0.12300
N 	N 	0.75900 0.72416 0.44750 -0.11500
N 	N 	0.88110 0.70374 0.48197 -0.27900
C 	C 	0.94200 0.97920 0.54660 0.34600
C 	C 	0.94400 0.93410 0.52450 0.29400
C 	C 	0.41060 0.09750 0.15627 -1.06100
H 	H 	0.41220 0.09390 0.18200 0.35500
H 	H 	0.35520 0.07910 0.14700 0.35000
H 	H 	0.40850 0.13630 0.14990 0.34500
C 	C 	0.47100 0.56950 0.11940 -0.00600
C 	C 	0.45840 0.60350 0.09800 -0.00500
C 	C 	0.37500 0.58920 0.10790 -0.03500
C 	C 	0.82920 0.24320 0.79114 0.08200
H 	H 	0.84360 0.28090 0.78910 -0.02300
C 	C 	0.83480 0.15420 0.78628 0.00100
H 	H 	0.85410 0.11840 0.78010 0.00900
C 	C 	0.75710 0.16690 0.80580 -0.01400
H 	H 	0.71380 0.14180 0.81550 0.03600
C 	C 	0.68470 0.25530 0.82953 -0.05200
H 	H 	0.62100 0.24540 0.82190 0.05300
H 	H 	0.69370 0.29470 0.82490 0.04400
C 	C 	0.69450 0.24440 0.86978 -0.11200
H 	H 	0.64680 0.26590 0.88250 0.06500
H 	H 	0.68220 0.20530 0.87440 0.06700
C 	C 	0.79060 0.25900 0.88457 -0.07500
H 	H 	0.80070 0.29870 0.88150 0.03700
H 	H 	0.83840 0.23980 0.87050 0.04200
C 	C 	0.80510 0.24470 0.92403 -0.05900
H 	H 	0.79470 0.20510 0.92750 0.04200
H 	H 	0.87020 0.25280 0.93070 0.03300
C 	C 	0.66190 0.25650 0.96336 0.08300
H 	H 	0.64010 0.22000 0.96150 -0.00200
C 	C 	0.67490 0.34320 0.97817 -0.00300
H 	H 	0.66300 0.37780 0.98850 0.02100
C 	C 	0.74930 0.33070 0.95710 -0.00400
H 	H 	0.79760 0.35490 0.95030 0.01600
N 	N 	0.88090 0.20263 0.77703 -0.28000
N 	N 	0.75410 0.22309 0.80856 -0.12000
N 	N 	0.74100 0.27584 0.94750 -0.11800
N 	N 	0.61890 0.29626 0.98197 -0.26600
C 	C 	0.55800 0.02080 0.04660 0.04100
C 	C 	0.55600 0.06590 0.02450 0.06500
C 	C 	0.58940 0.09750 0.15627 -1.04700
H 	H 	0.58780 0.09390 0.18200 0.34700
H 	H 	0.64480 0.07910 0.14700 0.33700
H 	H 	0.59150 0.13630 0.14990 0.34000
C 	C 	0.52900 0.56950 0.11940 0.01400
C 	C 	0.54160 0.60350 0.09800 -0.01300
C 	C 	0.62500 0.58920 0.10790 -0.04000
C 	C 	0.17080 0.24320 0.79114 0.08700
H 	H 	0.15640 0.28090 0.78910 -0.01200
C 	C 	0.16520 0.15420 0.78628 0.00600
H 	H 	0.14590 0.11840 0.78010 0.02500
C 	C 	0.24290 0.16690 0.80580 -0.00900
H 	H 	0.28620 0.14180 0.81550 0.03900
C 	C 	0.31530 0.25530 0.82953 -0.05100
H 	H 	0.37900 0.24540 0.82190 0.05300
H 	H 	0.30630 0.29470 0.82490 0.04500
C 	C 	0.30550 0.24440 0.86978 -0.11200
H 	H 	0.35320 0.26590 0.88250 0.06600
H 	H 	0.31780 0.20530 0.87440 0.06900
C 	C 	0.20940 0.25900 0.88457 -0.07500
H 	H 	0.19930 0.29870 0.88150 0.04200
H 	H 	0.16160 0.23980 0.87050 0.05300
C 	C 	0.19490 0.24470 0.92403 -0.06600
H 	H 	0.20530 0.20510 0.92750 0.05200
H 	H 	0.12980 0.25280 0.93070 0.05000
C 	C 	0.33810 0.25650 0.96336 0.08300
H 	H 	0.35990 0.22000 0.96150 -0.00000
C 	C 	0.32510 0.34320 0.97817 -0.00200
H 	H 	0.33700 0.37780 0.98850 0.02200
C 	C 	0.25070 0.33070 0.95710 -0.00300
H 	H 	0.20240 0.35490 0.95030 0.02100
N 	N 	0.11910 0.20263 0.77703 -0.26500
N 	N 	0.24590 0.22309 0.80856 -0.12000
N 	N 	0.25900 0.27584 0.94750 -0.11600
N 	N 	0.38110 0.29626 0.98197 -0.26600
C 	C 	0.44200 0.02080 0.04660 0.04500
C 	C 	0.44400 0.06590 0.02450 0.06700
C 	C 	0.91060 0.90250 0.65627 -1.14900
H 	H 	0.91220 0.90610 0.68200 0.36300
H 	H 	0.85520 0.92090 0.64700 0.36000
H 	H 	0.90850 0.86370 0.64990 0.35800
C 	C 	0.97100 0.43050 0.61940 0.83300
C 	C 	0.95840 0.39650 0.59800 -0.56300
C 	C 	0.87500 0.41080 0.60790 -0.04800
C 	C 	0.32920 0.75680 0.29114 0.08500
H 	H 	0.34360 0.71910 0.28910 -0.01200
C 	C 	0.33480 0.84580 0.28628 0.00400
H 	H 	0.35410 0.88160 0.28010 0.02300
C 	C 	0.25710 0.83310 0.30580 -0.01000
H 	H 	0.21380 0.85820 0.31550 0.03700
C 	C 	0.18470 0.74470 0.32953 -0.05600
H 	H 	0.12100 0.75460 0.32190 0.05600
H 	H 	0.19370 0.70530 0.32490 0.04800
C 	C 	0.19450 0.75560 0.36978 -0.10600
H 	H 	0.14680 0.73410 0.38250 0.06300
H 	H 	0.18220 0.79470 0.37440 0.06700
C 	C 	0.29060 0.74100 0.38457 -0.08000
H 	H 	0.30070 0.70130 0.38150 0.04400
H 	H 	0.33840 0.76020 0.37050 0.05200
C 	C 	0.30510 0.75530 0.42403 -0.06300
H 	H 	0.29470 0.79490 0.42750 0.04900
H 	H 	0.37020 0.74720 0.43070 0.04900
C 	C 	0.16190 0.74350 0.46336 0.08300
H 	H 	0.14010 0.78000 0.46150 -0.00100
C 	C 	0.17490 0.65680 0.47817 -0.00000
H 	H 	0.16300 0.62220 0.48850 0.02700
C 	C 	0.24930 0.66930 0.45710 -0.00900
H 	H 	0.29760 0.64510 0.45030 0.03700
N 	N 	0.38090 0.79737 0.27703 -0.26700
N 	N 	0.25410 0.77691 0.30856 -0.11900
N 	N 	0.24100 0.72416 0.44750 -0.11600
N 	N 	0.11890 0.70374 0.48197 -0.26500
C 	C 	0.05800 0.97920 0.54660 0.39400
C 	C 	0.05600 0.93410 0.52450 0.34700
C 	C 	-0.00000 0.02370 0.67572 0.12500
H 	H 	-0.00000 0.00580 0.69790 -0.00600
C 	C 	-0.00000 0.08180 0.67433 -0.15000
C 	C 	0.00000 0.10770 0.64035 0.08000
H 	H 	-0.00000 0.14640 0.63920 0.02100
C 	C 	-0.00000 0.07780 0.60900 -0.15400
H 	H 	-0.00000 0.09570 0.58680 0.09600
C 	C 	-0.00000 0.98360 0.54540 -0.65900
C 	C 	0.00000 0.93380 0.52540 -0.56000
C 	C 	-0.00000 0.88100 0.54070 -0.05700
C 	C 	0.00000 0.87670 0.57831 0.05100
H 	H 	-0.00000 0.84180 0.58920 0.01800
C 	C 	-0.00000 0.92920 0.64006 0.60800
C 	C 	-0.00000 0.99270 0.64472 -0.23700
C 	C 	-0.00000 0.01960 0.61120 0.08300
C 	C 	0.00000 0.97660 0.58310 0.06000
C 	C 	0.00000 0.92420 0.59930 -0.22500
C 	C 	-0.00000 0.11590 0.70817 0.36100
C 	C 	-0.00000 0.83070 0.51660 0.31800
C 	C 	0.00000 0.32870 0.73993 0.35500
C 	C 	-0.00000 0.38020 0.71784 -0.10500
C 	C 	0.00000 0.43240 0.73347 0.04400
H 	H 	-0.00000 0.43490 0.75840 0.01300
C 	C 	-0.00000 0.48080 0.71368 -0.11700
H 	H 	-0.00000 0.51540 0.72500 0.09400
C 	C 	-0.00000 0.37670 0.68090 -0.01600
H 	H 	0.00000 0.34190 0.66980 0.05800
C 	C 	-0.00000 0.42470 0.65990 0.00700
C 	C 	0.00000 0.47680 0.67634 0.03300
C 	C 	0.00000 0.52030 0.64840 -0.00600
C 	C 	-0.00000 0.57780 0.65030 -0.05600
H 	H 	-0.00000 0.59580 0.67250 0.05300
C 	C 	-0.00000 0.60810 0.61857 -0.01300
H 	H 	-0.00000 0.64680 0.61960 0.05100
C 	C 	-0.00000 0.58240 0.58556 -0.04800
C 	C 	0.00000 0.52430 0.58380 -0.05600
H 	H 	0.00000 0.50650 0.56160 0.07800
C 	C 	0.00000 0.49350 0.61470 0.03800
C 	C 	-0.00000 0.61580 0.55140 0.30900
O 	O 	-0.00000 0.16836 0.70356 -0.44800
O 	O 	-0.00000 0.09260 0.73746 -0.33000
O 	O 	0.00000 0.78444 0.53406 -0.44400
O 	O 	-0.00000 0.83520 0.48371 -0.29700
O 	O 	0.00000 0.28301 0.72247 -0.45500
O 	O 	-0.00000 0.33190 0.77267 -0.33800
O 	O 	0.00000 0.66888 0.55500 -0.43900
O 	O 	0.00000 0.59260 0.52149 -0.29500
Zn	Zn	-0.00000 0.21230 0.74814 1.21500
Zn	Zn	0.00000 0.71190 0.51032 1.21600
C 	C 	0.50000 0.97630 0.17572 0.11600
H 	H 	0.50000 0.99420 0.19790 -0.00800
C 	C 	0.50000 0.91820 0.17433 -0.15600
C 	C 	0.50000 0.89230 0.14035 0.08200
H 	H 	0.50000 0.85360 0.13920 0.01300
C 	C 	0.50000 0.92220 0.10900 -0.16500
H 	H 	0.50000 0.90430 0.08680 0.09800
C 	C 	0.50000 0.01640 0.04540 -0.10100
C 	C 	0.50000 0.06620 0.02540 -0.07800
C 	C 	0.50000 0.11900 0.04070 -0.11400
C 	C 	0.50000 0.12330 0.07831 0.07600
H 	H 	0.50000 0.15820 0.08920 0.00400
C 	C 	0.50000 0.07080 0.14006 0.54800
C 	C 	0.50000 0.00730 0.14472 -0.22800
C 	C 	0.50000 0.98040 0.11120 0.09800
C 	C 	0.50000 0.02340 0.08310 0.02800
C 	C 	0.50000 0.07580 0.09930 -0.19900
C 	C 	0.50000 0.88410 0.20817 0.35900
C 	C 	0.50000 0.16930 0.01660 0.34400
C 	C 	0.50000 0.67130 0.23993 0.35900
C 	C 	0.50000 0.61980 0.21784 -0.12300
C 	C 	0.50000 0.56760 0.23347 0.05100
H 	H 	0.50000 0.56510 0.25840 0.00500
C 	C 	0.50000 0.51920 0.21368 -0.13100
H 	H 	0.50000 0.48460 0.22500 0.09300
C 	C 	0.50000 0.62330 0.18090 -0.00100
H 	H 	0.50000 0.65810 0.16980 0.04300
C 	C 	0.50000 0.57530 0.15990 -0.02600
C 	C 	0.50000 0.52320 0.17634 0.03600
C 	C 	0.50000 0.47970 0.14840 -0.00300
C 	C 	0.50000 0.42220 0.15030 -0.07100
H 	H 	0.50000 0.40420 0.17250 0.05000
C 	C 	0.50000 0.39190 0.11857 -0.00600
H 	H 	0.50000 0.35320 0.11960 0.04000
C 	C 	0.50000 0.41760 0.08556 -0.06800
C 	C 	0.50000 0.47570 0.08380 -0.04300
H 	H 	0.50000 0.49350 0.06160 0.06100
C 	C 	0.50000 0.50650 0.11470 0.00300
C 	C 	0.50000 0.38420 0.05140 0.31000
O 	O 	0.50000 0.83164 0.20356 -0.45900
O 	O 	0.50000 0.90740 0.23746 -0.34000
O 	O 	0.50000 0.21556 0.03406 -0.46000
O 	O 	0.50000 0.16480 0.98371 -0.31100
O 	O 	0.50000 0.71699 0.22247 -0.46800
O 	O 	0.50000 0.66810 0.27267 -0.35200
O 	O 	0.50000 0.33112 0.05500 -0.45200
O 	O 	0.50000 0.40740 0.02149 -0.31300
Zn	Zn	0.50000 0.78770 0.24814 1.20800
Zn	Zn	0.50000 0.28810 0.01032 1.20900
C 	C 	0.58940 0.40250 0.65627 -1.04700
H 	H 	0.58780 0.40610 0.68200 0.34700
H 	H 	0.64480 0.42090 0.64700 0.33700
H 	H 	0.59150 0.36370 0.64990 0.34000
C 	C 	0.52900 0.93050 0.61940 0.01300
C 	C 	0.54160 0.89650 0.59800 -0.01200
C 	C 	0.62500 0.91080 0.60790 -0.04000
C 	C 	0.17080 0.25680 0.29114 0.08700
H 	H 	0.15640 0.21910 0.28910 -0.01200
C 	C 	0.16520 0.34580 0.28628 0.00600
H 	H 	0.14590 0.38160 0.28010 0.02500
C 	C 	0.24290 0.33310 0.30580 -0.00900
H 	H 	0.28620 0.35820 0.31550 0.03900
C 	C 	0.31530 0.24470 0.32953 -0.05100
H 	H 	0.37900 0.25460 0.32190 0.05300
H 	H 	0.30630 0.20530 0.32490 0.04500
C 	C 	0.30550 0.25560 0.36978 -0.11200
H 	H 	0.35320 0.23410 0.38250 0.06600
H 	H 	0.31780 0.29470 0.37440 0.06900
C 	C 	0.20940 0.24100 0.38457 -0.07500
H 	H 	0.19930 0.20130 0.38150 0.04200
H 	H 	0.16160 0.26020 0.37050 0.05300
C 	C 	0.19490 0.25530 0.42403 -0.06600
H 	H 	0.20530 0.29490 0.42750 0.05200
H 	H 	0.12980 0.24720 0.43070 0.05000
C 	C 	0.33810 0.24350 0.46336 0.08300
H 	H 	0.35990 0.28000 0.46150 -0.00000
C 	C 	0.32510 0.15680 0.47817 -0.00200
H 	H 	0.33700 0.12220 0.48850 0.02200
C 	C 	0.25070 0.16930 0.45710 -0.00300
H 	H 	0.20240 0.14510 0.45030 0.02100
N 	N 	0.11910 0.29737 0.27703 -0.26500
N 	N 	0.24590 0.27691 0.30856 -0.12000
N 	N 	0.25900 0.22416 0.44750 -0.11600
N 	N 	0.38110 0.20374 0.48197 -0.26600
C 	C 	0.44200 0.47920 0.54660 0.04600
C 	C 	0.44400 0.43410 0.52450 0.06700
C 	C 	0.91060 0.59750 0.15627 -1.15000
H 	H 	0.91220 0.59390 0.18200 0.36300
H 	H 	0.85520 0.57910 0.14700 0.36100
H 	H 	0.90850 0.63630 0.14990 0.35800
C 	C 	0.97100 0.06950 0.11940 0.82300
C 	C 	0.95840 0.10350 0.09800 -0.55700
C 	C 	0.87500 0.08920 0.10790 -0.04800
C 	C 	0.32920 0.74320 0.79114 0.08500
H 	H 	0.34360 0.78090 0.78910 -0.01200
C 	C 	0.33480 0.65420 0.78628 0.00400
H 	H 	0.35410 0.61840 0.78010 0.02300
C 	C 	0.25710 0.66690 0.80580 -0.01000
H 	H 	0.21380 0.64180 0.81550 0.03700
C 	C 	0.18470 0.75530 0.82953 -0.05600
H 	H 	0.12100 0.74540 0.82190 0.05600
H 	H 	0.19370 0.79470 0.82490 0.04800
C 	C 	0.19450 0.74440 0.86978 -0.10600
H 	H 	0.14680 0.76590 0.88250 0.06300
H 	H 	0.18220 0.70530 0.87440 0.06700
C 	C 	0.29060 0.75900 0.88457 -0.08000
H 	H 	0.30070 0.79870 0.88150 0.04400
H 	H 	0.33840 0.73980 0.87050 0.05200
C 	C 	0.30510 0.74470 0.92403 -0.06300
H 	H 	0.29470 0.70510 0.92750 0.04900
H 	H 	0.37020 0.75280 0.93070 0.04900
C 	C 	0.16190 0.75650 0.96336 0.08300
H 	H 	0.14010 0.72000 0.96150 -0.00100
C 	C 	0.17490 0.84320 0.97817 -0.00000
H 	H 	0.16300 0.87780 0.98850 0.02700
C 	C 	0.24930 0.83070 0.95710 -0.00900
H 	H 	0.29760 0.85490 0.95030 0.03700
N 	N 	0.38090 0.70263 0.77703 -0.26700
N 	N 	0.25410 0.72309 0.80856 -0.11900
N 	N 	0.24100 0.77584 0.94750 -0.11600
N 	N 	0.11890 0.79626 0.98197 -0.26500
C 	C 	0.05800 0.52080 0.04660 0.39800
C 	C 	0.05600 0.56590 0.02450 0.34900
C 	C 	0.08940 0.59750 0.15627 -1.11200
H 	H 	0.08780 0.59390 0.18200 0.37300
H 	H 	0.14480 0.57910 0.14700 0.35800
H 	H 	0.09150 0.63630 0.14990 0.36400
C 	C 	0.02900 0.06950 0.11940 -0.85600
C 	C 	0.04160 0.10350 0.09800 0.54900
C 	C 	0.12500 0.08920 0.10790 -0.02300
C 	C 	0.67080 0.74320 0.79114 0.08500
H 	H 	0.65640 0.78090 0.78910 -0.01500
C 	C 	0.66520 0.65420 0.78628 0.00200
H 	H 	0.64590 0.61840 0.78010 0.02100
C 	C 	0.74290 0.66690 0.80580 -0.01000
H 	H 	0.78620 0.64180 0.81550 0.02800
C 	C 	0.81530 0.75530 0.82953 -0.04400
H 	H 	0.87900 0.74540 0.82190 0.03600
H 	H 	0.80630 0.79470 0.82490 0.03500
C 	C 	0.80550 0.74440 0.86978 -0.11200
H 	H 	0.85320 0.76590 0.88250 0.06100
H 	H 	0.81780 0.70530 0.87440 0.06100
C 	C 	0.70940 0.75900 0.88457 -0.07700
H 	H 	0.69930 0.79870 0.88150 0.04400
H 	H 	0.66160 0.73980 0.87050 0.05000
C 	C 	0.69490 0.74470 0.92403 -0.06300
H 	H 	0.70530 0.70510 0.92750 0.04700
H 	H 	0.62980 0.75280 0.93070 0.04900
C 	C 	0.83810 0.75650 0.96336 0.08400
H 	H 	0.85990 0.72000 0.96150 -0.01400
C 	C 	0.82510 0.84320 0.97817 0.00600
H 	H 	0.83700 0.87780 0.98850 0.01900
C 	C 	0.75070 0.83070 0.95710 -0.00400
H 	H 	0.70240 0.85490 0.95030 0.03700
N 	N 	0.61910 0.70263 0.77703 -0.26700
N 	N 	0.74590 0.72309 0.80856 -0.12300
N 	N 	0.75900 0.77584 0.94750 -0.11500
N 	N 	0.88110 0.79626 0.98197 -0.27900
C 	C 	0.94200 0.52080 0.04660 0.34900
C 	C 	0.94400 0.56590 0.02450 0.29600
C 	C 	0.41060 0.40250 0.65627 -1.06100
H 	H 	0.41220 0.40610 0.68200 0.35500
H 	H 	0.35520 0.42090 0.64700 0.35000
H 	H 	0.40850 0.36370 0.64990 0.34500
C 	C 	0.47100 0.93050 0.61940 -0.00600
C 	C 	0.45840 0.89650 0.59800 -0.00500
C 	C 	0.37500 0.91080 0.60790 -0.03500
C 	C 	0.82920 0.25680 0.29114 0.08200
H 	H 	0.84360 0.21910 0.28910 -0.02300
C 	C 	0.83480 0.34580 0.28628 0.00100
H 	H 	0.85410 0.38160 0.28010 0.00900
C 	C 	0.75710 0.33310 0.30580 -0.01400
H 	H 	0.71380 0.35820 0.31550 0.03600
C 	C 	0.68470 0.24470 0.32953 -0.05200
H 	H 	0.62100 0.25460 0.32190 0.05300
H 	H 	0.69370 0.20530 0.32490 0.04400
C 	C 	0.69450 0.25560 0.36978 -0.11100
H 	H 	0.64680 0.23410 0.38250 0.06500
H 	H 	0.68220 0.29470 0.37440 0.06700
C 	C 	0.79060 0.24100 0.38457 -0.07500
H 	H 	0.80070 0.20130 0.38150 0.03700
H 	H 	0.83840 0.26020 0.37050 0.04200
C 	C 	0.80510 0.25530 0.42403 -0.05900
H 	H 	0.79470 0.29490 0.42750 0.04200
H 	H 	0.87020 0.24720 0.43070 0.03300
C 	C 	0.66190 0.24350 0.46336 0.08300
H 	H 	0.64010 0.28000 0.46150 -0.00200
C 	C 	0.67490 0.15680 0.47817 -0.00300
H 	H 	0.66300 0.12220 0.48850 0.02100
C 	C 	0.74930 0.16930 0.45710 -0.00400
H 	H 	0.79760 0.14510 0.45030 0.01600
N 	N 	0.88090 0.29737 0.27703 -0.28000
N 	N 	0.75410 0.27691 0.30856 -0.12000
N 	N 	0.74100 0.22416 0.44750 -0.11800
N 	N 	0.61890 0.20374 0.48197 -0.26600
C 	C 	0.55800 0.47920 0.54660 0.04100
C 	C 	0.55600 0.43410 0.52450 0.06500
C 	C 	0.50000 0.52370 0.67572 0.11600
H 	H 	0.50000 0.50580 0.69790 -0.00800
C 	C 	0.50000 0.58180 0.67433 -0.15600
C 	C 	0.50000 0.60770 0.64035 0.08300
H 	H 	0.50000 0.64640 0.63920 0.01300
C 	C 	0.50000 0.57780 0.60900 -0.16500
H 	H 	0.50000 0.59570 0.58680 0.09800
C 	C 	0.50000 0.48360 0.54540 -0.10200
C 	C 	0.50000 0.43380 0.52540 -0.07800
C 	C 	0.50000 0.38100 0.54070 -0.11400
C 	C 	0.50000 0.37670 0.57831 0.07600
H 	H 	0.50000 0.34180 0.58920 0.00400
C 	C 	0.50000 0.42920 0.64006 0.54900
C 	C 	0.50000 0.49270 0.64472 -0.22900
C 	C 	0.50000 0.51960 0.61120 0.09800
C 	C 	0.50000 0.47660 0.58310 0.02800
C 	C 	0.50000 0.42420 0.59930 -0.19900
C 	C 	0.50000 0.61590 0.70817 0.36000
C 	C 	0.50000 0.33070 0.51660 0.34400
C 	C 	0.50000 0.82870 0.73993 0.35900
C 	C 	0.50000 0.88020 0.71784 -0.12300
C 	C 	0.50000 0.93240 0.73347 0.05100
H 	H 	0.50000 0.93490 0.75840 0.00500
C 	C 	0.50000 0.98080 0.71368 -0.13100
H 	H 	0.50000 0.01540 0.72500 0.09300
C 	C 	0.50000 0.87670 0.68090 -0.00100
H 	H 	0.50000 0.84190 0.66980 0.04300
C 	C 	0.50000 0.92470 0.65990 -0.02600
C 	C 	0.50000 0.97680 0.67634 0.03600
C 	C 	0.50000 0.02030 0.64840 -0.00300
C 	C 	0.50000 0.07780 0.65030 -0.07100
H 	H 	0.50000 0.09580 0.67250 0.05000
C 	C 	0.50000 0.10810 0.61857 -0.00700
H 	H 	0.50000 0.14680 0.61960 0.04000
C 	C 	0.50000 0.08240 0.58556 -0.06800
C 	C 	0.50000 0.02430 0.58380 -0.04300
H 	H 	0.50000 0.00650 0.56160 0.06100
C 	C 	0.50000 0.99350 0.61470 0.00300
C 	C 	0.50000 0.11580 0.55140 0.31000
O 	O 	0.50000 0.66836 0.70356 -0.45900
O 	O 	0.50000 0.59260 0.73746 -0.34000
O 	O 	0.50000 0.28444 0.53406 -0.46000
O 	O 	0.50000 0.33520 0.48371 -0.31000
O 	O 	0.50000 0.78301 0.72247 -0.46800
O 	O 	0.50000 0.83190 0.77267 -0.35200
O 	O 	0.50000 0.16888 0.55500 -0.45200
O 	O 	0.50000 0.09260 0.52149 -0.31300
Zn	Zn	0.50000 0.71230 0.74814 1.20800
Zn	Zn	0.50000 0.21190 0.51032 1.20900
C 	C 	-0.00000 0.47630 0.17572 0.12500
H 	H 	0.00000 0.49420 0.19790 -0.00600
C 	C 	-0.00000 0.41820 0.17433 -0.15000
C 	C 	-0.00000 0.39230 0.14035 0.08000
H 	H 	0.00000 0.35360 0.13920 0.02100
C 	C 	-0.00000 0.42220 0.10900 -0.15400
H 	H 	0.00000 0.40430 0.08680 0.09600
C 	C 	0.00000 0.51640 0.04540 -0.66400
C 	C 	-0.00000 0.56620 0.02540 -0.56300
C 	C 	0.00000 0.61900 0.04070 -0.05600
C 	C 	-0.00000 0.62330 0.07831 0.05100
H 	H 	-0.00000 0.65820 0.08920 0.01800
C 	C 	-0.00000 0.57080 0.14006 0.60900
C 	C 	0.00000 0.50730 0.14472 -0.23700
C 	C 	-0.00000 0.48040 0.11120 0.08300
C 	C 	0.00000 0.52340 0.08310 0.06000
C 	C 	-0.00000 0.57580 0.09930 -0.22500
C 	C 	0.00000 0.38410 0.20817 0.36100
C 	C 	-0.00000 0.66930 0.01660 0.31700
C 	C 	0.00000 0.17130 0.23993 0.35500
C 	C 	-0.00000 0.11980 0.21784 -0.10500
C 	C 	0.00000 0.06760 0.23347 0.04400
H 	H 	0.00000 0.06510 0.25840 0.01300
C 	C 	0.00000 0.01920 0.21368 -0.11700
H 	H 	-0.00000 0.98460 0.22500 0.09400
C 	C 	-0.00000 0.12330 0.18090 -0.01600
H 	H 	-0.00000 0.15810 0.16980 0.05800
C 	C 	0.00000 0.07530 0.15990 0.00700
C 	C 	0.00000 0.02320 0.17634 0.03300
C 	C 	0.00000 0.97970 0.14840 -0.00600
C 	C 	0.00000 0.92220 0.15030 -0.05600
H 	H 	-0.00000 0.90420 0.17250 0.05300
C 	C 	0.00000 0.89190 0.11857 -0.01300
H 	H 	0.00000 0.85320 0.11960 0.05100
C 	C 	-0.00000 0.91760 0.08556 -0.04800
C 	C 	0.00000 0.97570 0.08380 -0.05600
H 	H 	0.00000 0.99350 0.06160 0.07800
C 	C 	0.00000 0.00650 0.11470 0.03800
C 	C 	-0.00000 0.88420 0.05140 0.30900
O 	O 	-0.00000 0.33164 0.20356 -0.44800
O 	O 	0.00000 0.40740 0.23746 -0.33000
O 	O 	0.00000 0.71556 0.03406 -0.44400
O 	O 	0.00000 0.66480 0.98371 -0.29700
O 	O 	-0.00000 0.21699 0.22247 -0.45500
O 	O 	0.00000 0.16810 0.27267 -0.33800
O 	O 	0.00000 0.83112 0.05500 -0.43900
O 	O 	-0.00000 0.90740 0.02149 -0.29500
Zn	Zn	0.00000 0.28770 0.24814 1.21500
Zn	Zn	0.00000 0.78810 0.01032 1.21600
