data_crystal

_cell_length_a 24.53770
_cell_length_b 24.53770
_cell_length_c 72.08730
_cell_angle_alpha 90.00000
_cell_angle_beta  90.00000
_cell_angle_gamma 90.00000

_symmetry_space_group_name_	'P 1'
_symmetry_space_group_name_H-M	'P 1'

loop_
_symmetry_equiv_pos_as_xyz
  x,y,z

loop_
_atom_site_label
_atom_site_type_symbol
_atom_site_fract_x
_atom_site_fract_y
_atom_site_fract_z
_atom_site_charge
O 	O 	0.92983 0.01080 0.11761 -0.41700
O 	O 	0.99497 0.07244 0.11870 -0.41000
O 	O 	0.92683 0.48595 0.09400 -0.42100
C 	C 	0.95140 0.05320 0.11178 0.38900
C 	C 	0.87551 0.14043 0.06770 0.05800
C 	C 	0.85072 0.09310 0.07490 -0.11700
H 	H 	0.81790 0.08080 0.07000 0.07400
C 	C 	0.87570 0.06440 0.08956 0.05200
H 	H 	0.85930 0.03320 0.09430 0.02900
C 	C 	0.92539 0.08304 0.09703 -0.13400
C 	C 	0.95018 0.13037 0.08984 0.05100
H 	H 	0.98300 0.14270 0.09480 0.02900
C 	C 	0.92524 0.15907 0.07517 -0.11600
H 	H 	0.94160 0.19030 0.07040 0.07200
Cu	Cu	0.04058 0.46451 0.11259 0.90300
C 	C 	0.82988 0.25589 0.03601 0.00700
C 	C 	0.83401 0.31312 0.03500 0.01200
C 	C 	0.80887 0.34154 0.02031 -0.14700
H 	H 	0.81160 0.37930 0.01960 0.09100
C 	C 	0.77960 0.31270 0.00663 0.16300
C 	C 	0.77548 0.25550 0.00764 -0.03500
C 	C 	0.80062 0.22707 0.02233 0.02600
C 	C 	0.85240 0.22750 0.05094 -0.07900
H 	H 	0.87010 0.24680 0.06030 0.06300
C 	C 	0.84920 0.17160 0.05226 0.01100
C 	C 	0.82050 0.14210 0.03827 -0.04900
H 	H 	0.81810 0.10430 0.03890 0.04900
C 	C 	0.79620 0.16970 0.02392 -0.05600
H 	H 	0.77650 0.15040 0.01510 0.05900
C 	C 	0.86528 0.34742 0.04815 0.05900
C 	C 	0.83879 0.39126 0.05701 -0.11700
H 	H 	0.80260 0.39900 0.05430 0.07700
C 	C 	0.86720 0.42339 0.07003 0.04800
H 	H 	0.84970 0.45230 0.07590 0.03100
C 	C 	0.92212 0.41168 0.07418 -0.12700
C 	C 	0.94862 0.36784 0.06532 0.05000
H 	H 	0.98480 0.36010 0.06810 0.02900
C 	C 	0.92020 0.33571 0.05230 -0.12000
H 	H 	0.93770 0.30680 0.04650 0.07400
O 	O 	0.99720 0.42953 0.09265 -0.40500
C 	C 	0.94930 0.44530 0.08807 0.38900
O 	O 	0.75300 0.33740 0.99233 -0.21100
C 	C 	0.68700 0.40060 0.98000 0.00500
C 	C 	0.73380 0.39480 0.99380 0.05900
C 	C 	0.76600 0.39590 0.99160 0.02200
C 	C 	0.73500 0.42440 0.97650 -0.02000
O 	O 	0.42983 0.51080 0.61761 -0.41700
O 	O 	0.49497 0.57244 0.61870 -0.41000
O 	O 	0.42683 0.98595 0.59400 -0.42100
C 	C 	0.45140 0.55320 0.61178 0.38900
C 	C 	0.37551 0.64043 0.56770 0.05800
C 	C 	0.35072 0.59310 0.57490 -0.11700
H 	H 	0.31790 0.58080 0.57000 0.07400
C 	C 	0.37570 0.56440 0.58956 0.05200
H 	H 	0.35930 0.53320 0.59430 0.02900
C 	C 	0.42539 0.58304 0.59703 -0.13400
C 	C 	0.45018 0.63037 0.58984 0.05100
H 	H 	0.48300 0.64270 0.59480 0.02900
C 	C 	0.42524 0.65907 0.57517 -0.11600
H 	H 	0.44160 0.69030 0.57040 0.07200
Cu	Cu	0.54058 0.96451 0.61259 0.90300
C 	C 	0.32988 0.75589 0.53601 0.00700
C 	C 	0.33401 0.81312 0.53500 0.01200
C 	C 	0.30887 0.84154 0.52031 -0.14700
H 	H 	0.31160 0.87930 0.51960 0.09100
C 	C 	0.27960 0.81270 0.50663 0.16300
C 	C 	0.27548 0.75550 0.50764 -0.03500
C 	C 	0.30062 0.72707 0.52233 0.02600
C 	C 	0.35240 0.72750 0.55094 -0.07900
H 	H 	0.37010 0.74680 0.56030 0.06300
C 	C 	0.34920 0.67160 0.55226 0.01100
C 	C 	0.32050 0.64210 0.53827 -0.04900
H 	H 	0.31810 0.60430 0.53890 0.04900
C 	C 	0.29620 0.66970 0.52392 -0.05600
H 	H 	0.27650 0.65040 0.51510 0.05900
C 	C 	0.36528 0.84742 0.54815 0.05900
C 	C 	0.33879 0.89126 0.55701 -0.11700
H 	H 	0.30260 0.89900 0.55430 0.07700
C 	C 	0.36720 0.92339 0.57003 0.04800
H 	H 	0.34970 0.95230 0.57590 0.03100
C 	C 	0.42212 0.91168 0.57418 -0.12700
C 	C 	0.44862 0.86784 0.56532 0.05000
H 	H 	0.48480 0.86010 0.56810 0.02900
C 	C 	0.42020 0.83571 0.55230 -0.12000
H 	H 	0.43770 0.80680 0.54650 0.07400
O 	O 	0.49720 0.92953 0.59265 -0.40600
C 	C 	0.44930 0.94530 0.58807 0.38900
O 	O 	0.25300 0.83740 0.49233 -0.21100
C 	C 	0.18700 0.90060 0.48000 0.00600
C 	C 	0.23380 0.89480 0.49380 0.05900
C 	C 	0.26600 0.89590 0.49160 0.02200
C 	C 	0.23500 0.92440 0.47650 -0.02000
O 	O 	0.57017 0.48920 0.61761 -0.41700
O 	O 	0.50503 0.42756 0.61870 -0.41000
O 	O 	0.57317 0.01405 0.59400 -0.42100
C 	C 	0.54860 0.44680 0.61178 0.38900
C 	C 	0.62449 0.35957 0.56770 0.05800
C 	C 	0.64928 0.40690 0.57490 -0.11700
H 	H 	0.68210 0.41920 0.57000 0.07400
C 	C 	0.62430 0.43560 0.58956 0.05200
H 	H 	0.64070 0.46680 0.59430 0.02900
C 	C 	0.57461 0.41696 0.59703 -0.13400
C 	C 	0.54982 0.36963 0.58984 0.05100
H 	H 	0.51700 0.35730 0.59480 0.02900
C 	C 	0.57476 0.34093 0.57517 -0.11600
H 	H 	0.55840 0.30970 0.57040 0.07200
Cu	Cu	0.45942 0.03549 0.61259 0.90300
C 	C 	0.67012 0.24411 0.53601 0.00700
C 	C 	0.66599 0.18688 0.53500 0.01200
C 	C 	0.69113 0.15846 0.52031 -0.14700
H 	H 	0.68840 0.12070 0.51960 0.09100
C 	C 	0.72040 0.18730 0.50663 0.16300
C 	C 	0.72452 0.24450 0.50764 -0.03500
C 	C 	0.69938 0.27293 0.52233 0.02600
C 	C 	0.64760 0.27250 0.55094 -0.07900
H 	H 	0.62990 0.25320 0.56030 0.06300
C 	C 	0.65080 0.32840 0.55226 0.01100
C 	C 	0.67950 0.35790 0.53827 -0.04900
H 	H 	0.68190 0.39570 0.53890 0.04900
C 	C 	0.70380 0.33030 0.52392 -0.05600
H 	H 	0.72350 0.34960 0.51510 0.05900
C 	C 	0.63472 0.15258 0.54815 0.05900
C 	C 	0.66121 0.10874 0.55701 -0.11700
H 	H 	0.69740 0.10100 0.55430 0.07700
C 	C 	0.63280 0.07661 0.57003 0.04800
H 	H 	0.65030 0.04770 0.57590 0.03100
C 	C 	0.57788 0.08832 0.57418 -0.12700
C 	C 	0.55138 0.13216 0.56532 0.05000
H 	H 	0.51520 0.13990 0.56810 0.02900
C 	C 	0.57980 0.16429 0.55230 -0.12000
H 	H 	0.56230 0.19320 0.54650 0.07400
O 	O 	0.50280 0.07047 0.59265 -0.40600
C 	C 	0.55070 0.05470 0.58807 0.38900
O 	O 	0.74700 0.16260 0.49233 -0.21100
C 	C 	0.81300 0.09940 0.48000 0.00600
C 	C 	0.76620 0.10520 0.49380 0.05900
C 	C 	0.73400 0.10410 0.49160 0.02200
C 	C 	0.76500 0.07560 0.47650 -0.02000
O 	O 	0.07017 0.98920 0.11761 -0.41700
O 	O 	0.00503 0.92756 0.11870 -0.41000
O 	O 	0.07317 0.51405 0.09400 -0.42100
C 	C 	0.04860 0.94680 0.11178 0.38900
C 	C 	0.12449 0.85957 0.06770 0.05800
C 	C 	0.14928 0.90690 0.07490 -0.11700
H 	H 	0.18210 0.91920 0.07000 0.07400
C 	C 	0.12430 0.93560 0.08956 0.05200
H 	H 	0.14070 0.96680 0.09430 0.02900
C 	C 	0.07461 0.91696 0.09703 -0.13400
C 	C 	0.04982 0.86963 0.08984 0.05100
H 	H 	0.01700 0.85730 0.09480 0.02900
C 	C 	0.07476 0.84093 0.07517 -0.11600
H 	H 	0.05840 0.80970 0.07040 0.07200
Cu	Cu	0.95942 0.53549 0.11259 0.90300
C 	C 	0.17012 0.74411 0.03601 0.00700
C 	C 	0.16599 0.68688 0.03500 0.01200
C 	C 	0.19113 0.65846 0.02031 -0.14700
H 	H 	0.18840 0.62070 0.01960 0.09100
C 	C 	0.22040 0.68730 0.00663 0.16300
C 	C 	0.22452 0.74450 0.00764 -0.03500
C 	C 	0.19938 0.77293 0.02233 0.02600
C 	C 	0.14760 0.77250 0.05094 -0.07900
H 	H 	0.12990 0.75320 0.06030 0.06300
C 	C 	0.15080 0.82840 0.05226 0.01100
C 	C 	0.17950 0.85790 0.03827 -0.04900
H 	H 	0.18190 0.89570 0.03890 0.04900
C 	C 	0.20380 0.83030 0.02392 -0.05600
H 	H 	0.22350 0.84960 0.01510 0.05900
C 	C 	0.13472 0.65258 0.04815 0.05900
C 	C 	0.16121 0.60874 0.05701 -0.11700
H 	H 	0.19740 0.60100 0.05430 0.07700
C 	C 	0.13280 0.57661 0.07003 0.04800
H 	H 	0.15030 0.54770 0.07590 0.03100
C 	C 	0.07788 0.58832 0.07418 -0.12700
C 	C 	0.05138 0.63216 0.06532 0.05000
H 	H 	0.01520 0.63990 0.06810 0.02900
C 	C 	0.07980 0.66429 0.05230 -0.12000
H 	H 	0.06230 0.69320 0.04650 0.07400
O 	O 	0.00280 0.57047 0.09265 -0.40500
C 	C 	0.05070 0.55470 0.08807 0.38900
O 	O 	0.24700 0.66260 0.99233 -0.21100
C 	C 	0.31300 0.59940 0.98000 0.00500
C 	C 	0.26620 0.60520 0.99380 0.05900
C 	C 	0.23400 0.60410 0.99160 0.02200
C 	C 	0.26500 0.57560 0.97650 -0.02000
O 	O 	0.98920 0.42983 0.36761 -0.41700
O 	O 	0.92756 0.49497 0.36870 -0.41000
O 	O 	0.51405 0.42683 0.34400 -0.42100
C 	C 	0.94680 0.45140 0.36178 0.38900
C 	C 	0.85957 0.37551 0.31770 0.05800
C 	C 	0.90690 0.35072 0.32490 -0.11700
H 	H 	0.91920 0.31790 0.32000 0.07400
C 	C 	0.93560 0.37570 0.33956 0.05200
H 	H 	0.96680 0.35930 0.34430 0.02900
C 	C 	0.91696 0.42539 0.34703 -0.13400
C 	C 	0.86963 0.45018 0.33984 0.05100
H 	H 	0.85730 0.48300 0.34480 0.02900
C 	C 	0.84093 0.42524 0.32517 -0.11600
H 	H 	0.80970 0.44160 0.32040 0.07200
Cu	Cu	0.53549 0.54058 0.36259 0.90300
C 	C 	0.74411 0.32988 0.28601 0.00700
C 	C 	0.68688 0.33401 0.28500 0.01200
C 	C 	0.65846 0.30887 0.27031 -0.14700
H 	H 	0.62070 0.31160 0.26960 0.09100
C 	C 	0.68730 0.27960 0.25663 0.16300
C 	C 	0.74450 0.27548 0.25764 -0.03500
C 	C 	0.77293 0.30062 0.27233 0.02600
C 	C 	0.77250 0.35240 0.30094 -0.07900
H 	H 	0.75320 0.37010 0.31030 0.06300
C 	C 	0.82840 0.34920 0.30226 0.01100
C 	C 	0.85790 0.32050 0.28827 -0.04900
H 	H 	0.89570 0.31810 0.28890 0.04900
C 	C 	0.83030 0.29620 0.27392 -0.05600
H 	H 	0.84960 0.27650 0.26510 0.05900
C 	C 	0.65258 0.36528 0.29815 0.05900
C 	C 	0.60874 0.33879 0.30701 -0.11700
H 	H 	0.60100 0.30260 0.30430 0.07700
C 	C 	0.57661 0.36720 0.32003 0.04800
H 	H 	0.54770 0.34970 0.32590 0.03100
C 	C 	0.58832 0.42212 0.32418 -0.12700
C 	C 	0.63216 0.44862 0.31532 0.05000
H 	H 	0.63990 0.48480 0.31810 0.02900
C 	C 	0.66429 0.42020 0.30230 -0.12000
H 	H 	0.69320 0.43770 0.29650 0.07400
O 	O 	0.57047 0.49720 0.34265 -0.40500
C 	C 	0.55470 0.44930 0.33807 0.38900
O 	O 	0.66260 0.25300 0.24233 -0.21100
C 	C 	0.59940 0.18700 0.23000 0.00500
C 	C 	0.60520 0.23380 0.24380 0.05900
C 	C 	0.60410 0.26600 0.24160 0.02200
C 	C 	0.57560 0.23500 0.22650 -0.02000
O 	O 	0.48920 0.92983 0.86761 -0.41700
O 	O 	0.42756 0.99497 0.86870 -0.41000
O 	O 	0.01405 0.92683 0.84400 -0.42100
C 	C 	0.44680 0.95140 0.86178 0.38900
C 	C 	0.35957 0.87551 0.81770 0.05800
C 	C 	0.40690 0.85072 0.82490 -0.11700
H 	H 	0.41920 0.81790 0.82000 0.07400
C 	C 	0.43560 0.87570 0.83956 0.05200
H 	H 	0.46680 0.85930 0.84430 0.02900
C 	C 	0.41696 0.92539 0.84703 -0.13400
C 	C 	0.36963 0.95018 0.83984 0.05100
H 	H 	0.35730 0.98300 0.84480 0.02900
C 	C 	0.34093 0.92524 0.82517 -0.11600
H 	H 	0.30970 0.94160 0.82040 0.07200
Cu	Cu	0.03549 0.04058 0.86259 0.90200
C 	C 	0.24411 0.82988 0.78601 0.00700
C 	C 	0.18688 0.83401 0.78500 0.01200
C 	C 	0.15846 0.80887 0.77031 -0.14700
H 	H 	0.12070 0.81160 0.76960 0.09100
C 	C 	0.18730 0.77960 0.75663 0.16300
C 	C 	0.24450 0.77548 0.75764 -0.03500
C 	C 	0.27293 0.80062 0.77233 0.02600
C 	C 	0.27250 0.85240 0.80094 -0.07900
H 	H 	0.25320 0.87010 0.81030 0.06300
C 	C 	0.32840 0.84920 0.80226 0.01100
C 	C 	0.35790 0.82050 0.78827 -0.04900
H 	H 	0.39570 0.81810 0.78890 0.04900
C 	C 	0.33030 0.79620 0.77392 -0.05600
H 	H 	0.34960 0.77650 0.76510 0.05900
C 	C 	0.15258 0.86528 0.79815 0.05900
C 	C 	0.10874 0.83879 0.80701 -0.11700
H 	H 	0.10100 0.80260 0.80430 0.07700
C 	C 	0.07661 0.86720 0.82003 0.04800
H 	H 	0.04770 0.84970 0.82590 0.03100
C 	C 	0.08832 0.92212 0.82418 -0.12700
C 	C 	0.13216 0.94862 0.81532 0.05000
H 	H 	0.13990 0.98480 0.81810 0.02900
C 	C 	0.16429 0.92020 0.80230 -0.12000
H 	H 	0.19320 0.93770 0.79650 0.07400
O 	O 	0.07047 0.99720 0.84265 -0.40500
C 	C 	0.05470 0.94930 0.83807 0.38900
O 	O 	0.16260 0.75300 0.74233 -0.21100
C 	C 	0.09940 0.68700 0.73000 0.00600
C 	C 	0.10520 0.73380 0.74380 0.05900
C 	C 	0.10410 0.76600 0.74160 0.02200
C 	C 	0.07560 0.73500 0.72650 -0.02000
O 	O 	0.51080 0.07017 0.86761 -0.41700
O 	O 	0.57244 0.00503 0.86870 -0.41000
O 	O 	0.98595 0.07317 0.84400 -0.42100
C 	C 	0.55320 0.04860 0.86178 0.38900
C 	C 	0.64043 0.12449 0.81770 0.05800
C 	C 	0.59310 0.14928 0.82490 -0.11700
H 	H 	0.58080 0.18210 0.82000 0.07400
C 	C 	0.56440 0.12430 0.83956 0.05200
H 	H 	0.53320 0.14070 0.84430 0.02900
C 	C 	0.58304 0.07461 0.84703 -0.13400
C 	C 	0.63037 0.04982 0.83984 0.05100
H 	H 	0.64270 0.01700 0.84480 0.02900
C 	C 	0.65907 0.07476 0.82517 -0.11600
H 	H 	0.69030 0.05840 0.82040 0.07200
Cu	Cu	0.96451 0.95942 0.86259 0.90200
C 	C 	0.75589 0.17012 0.78601 0.00700
C 	C 	0.81312 0.16599 0.78500 0.01200
C 	C 	0.84154 0.19113 0.77031 -0.14700
H 	H 	0.87930 0.18840 0.76960 0.09100
C 	C 	0.81270 0.22040 0.75663 0.16300
C 	C 	0.75550 0.22452 0.75764 -0.03500
C 	C 	0.72707 0.19938 0.77233 0.02600
C 	C 	0.72750 0.14760 0.80094 -0.07900
H 	H 	0.74680 0.12990 0.81030 0.06300
C 	C 	0.67160 0.15080 0.80226 0.01100
C 	C 	0.64210 0.17950 0.78827 -0.04900
H 	H 	0.60430 0.18190 0.78890 0.04900
C 	C 	0.66970 0.20380 0.77392 -0.05600
H 	H 	0.65040 0.22350 0.76510 0.05900
C 	C 	0.84742 0.13472 0.79815 0.05900
C 	C 	0.89126 0.16121 0.80701 -0.11700
H 	H 	0.89900 0.19740 0.80430 0.07700
C 	C 	0.92339 0.13280 0.82003 0.04800
H 	H 	0.95230 0.15030 0.82590 0.03100
C 	C 	0.91168 0.07788 0.82418 -0.12700
C 	C 	0.86784 0.05138 0.81532 0.05000
H 	H 	0.86010 0.01520 0.81810 0.02900
C 	C 	0.83571 0.07980 0.80230 -0.12000
H 	H 	0.80680 0.06230 0.79650 0.07400
O 	O 	0.92953 0.00280 0.84265 -0.40500
C 	C 	0.94530 0.05070 0.83807 0.38900
O 	O 	0.83740 0.24700 0.74233 -0.21100
C 	C 	0.90060 0.31300 0.73000 0.00600
C 	C 	0.89480 0.26620 0.74380 0.05900
C 	C 	0.89590 0.23400 0.74160 0.02200
C 	C 	0.92440 0.26500 0.72650 -0.02000
O 	O 	0.01080 0.57017 0.36761 -0.41700
O 	O 	0.07244 0.50503 0.36870 -0.41000
O 	O 	0.48595 0.57317 0.34400 -0.42100
C 	C 	0.05320 0.54860 0.36178 0.38900
C 	C 	0.14043 0.62449 0.31770 0.05800
C 	C 	0.09310 0.64928 0.32490 -0.11700
H 	H 	0.08080 0.68210 0.32000 0.07400
C 	C 	0.06440 0.62430 0.33956 0.05200
H 	H 	0.03320 0.64070 0.34430 0.02900
C 	C 	0.08304 0.57461 0.34703 -0.13400
C 	C 	0.13037 0.54982 0.33984 0.05100
H 	H 	0.14270 0.51700 0.34480 0.02900
C 	C 	0.15907 0.57476 0.32517 -0.11600
H 	H 	0.19030 0.55840 0.32040 0.07200
Cu	Cu	0.46451 0.45942 0.36259 0.90300
C 	C 	0.25589 0.67012 0.28601 0.00700
C 	C 	0.31312 0.66599 0.28500 0.01200
C 	C 	0.34154 0.69113 0.27031 -0.14700
H 	H 	0.37930 0.68840 0.26960 0.09100
C 	C 	0.31270 0.72040 0.25663 0.16300
C 	C 	0.25550 0.72452 0.25764 -0.03500
C 	C 	0.22707 0.69938 0.27233 0.02600
C 	C 	0.22750 0.64760 0.30094 -0.07900
H 	H 	0.24680 0.62990 0.31030 0.06300
C 	C 	0.17160 0.65080 0.30226 0.01100
C 	C 	0.14210 0.67950 0.28827 -0.04900
H 	H 	0.10430 0.68190 0.28890 0.04900
C 	C 	0.16970 0.70380 0.27392 -0.05600
H 	H 	0.15040 0.72350 0.26510 0.05900
C 	C 	0.34742 0.63472 0.29815 0.05900
C 	C 	0.39126 0.66121 0.30701 -0.11700
H 	H 	0.39900 0.69740 0.30430 0.07700
C 	C 	0.42339 0.63280 0.32003 0.04800
H 	H 	0.45230 0.65030 0.32590 0.03100
C 	C 	0.41168 0.57788 0.32418 -0.12700
C 	C 	0.36784 0.55138 0.31532 0.05000
H 	H 	0.36010 0.51520 0.31810 0.02900
C 	C 	0.33571 0.57980 0.30230 -0.12000
H 	H 	0.30680 0.56230 0.29650 0.07400
O 	O 	0.42953 0.50280 0.34265 -0.40500
C 	C 	0.44530 0.55070 0.33807 0.38900
O 	O 	0.33740 0.74700 0.24233 -0.21100
C 	C 	0.40060 0.81300 0.23000 0.00500
C 	C 	0.39480 0.76620 0.24380 0.05900
C 	C 	0.39590 0.73400 0.24160 0.02200
C 	C 	0.42440 0.76500 0.22650 -0.02000
O 	O 	0.57017 0.01080 0.63239 -0.41700
O 	O 	0.50503 0.07244 0.63130 -0.41000
O 	O 	0.57317 0.48595 0.65600 -0.42100
C 	C 	0.54860 0.05320 0.63822 0.38900
C 	C 	0.62449 0.14043 0.68230 0.05800
C 	C 	0.64928 0.09310 0.67510 -0.11700
H 	H 	0.68210 0.08080 0.68000 0.07400
C 	C 	0.62430 0.06440 0.66044 0.05200
H 	H 	0.64070 0.03320 0.65570 0.02900
C 	C 	0.57461 0.08304 0.65297 -0.13400
C 	C 	0.54982 0.13037 0.66016 0.05100
H 	H 	0.51700 0.14270 0.65520 0.02900
C 	C 	0.57476 0.15907 0.67483 -0.11600
H 	H 	0.55840 0.19030 0.67960 0.07200
Cu	Cu	0.45942 0.46451 0.63741 0.90300
C 	C 	0.67012 0.25589 0.71399 0.00700
C 	C 	0.66599 0.31312 0.71500 0.01200
C 	C 	0.69113 0.34154 0.72969 -0.14700
H 	H 	0.68840 0.37930 0.73040 0.09100
C 	C 	0.72040 0.31270 0.74337 0.16300
C 	C 	0.72452 0.25550 0.74236 -0.03500
C 	C 	0.69938 0.22707 0.72767 0.02600
C 	C 	0.64760 0.22750 0.69906 -0.07900
H 	H 	0.62990 0.24680 0.68970 0.06300
C 	C 	0.65080 0.17160 0.69774 0.01100
C 	C 	0.67950 0.14210 0.71173 -0.04900
H 	H 	0.68190 0.10430 0.71110 0.04900
C 	C 	0.70380 0.16970 0.72608 -0.05600
H 	H 	0.72350 0.15040 0.73490 0.05900
C 	C 	0.63472 0.34742 0.70185 0.05900
C 	C 	0.66121 0.39126 0.69299 -0.11700
H 	H 	0.69740 0.39900 0.69570 0.07700
C 	C 	0.63280 0.42339 0.67997 0.04800
H 	H 	0.65030 0.45230 0.67410 0.03100
C 	C 	0.57788 0.41168 0.67582 -0.12700
C 	C 	0.55138 0.36784 0.68468 0.05000
H 	H 	0.51520 0.36010 0.68190 0.02900
C 	C 	0.57980 0.33571 0.69770 -0.12000
H 	H 	0.56230 0.30680 0.70350 0.07400
O 	O 	0.50280 0.42953 0.65735 -0.40500
C 	C 	0.55070 0.44530 0.66193 0.38900
O 	O 	0.74700 0.33740 0.75767 -0.21100
C 	C 	0.81300 0.40060 0.77000 0.00500
C 	C 	0.76620 0.39480 0.75620 0.05900
C 	C 	0.73400 0.39590 0.75840 0.02200
C 	C 	0.76500 0.42440 0.77350 -0.02000
O 	O 	0.07017 0.51080 0.13239 -0.41700
O 	O 	0.00503 0.57244 0.13130 -0.41000
O 	O 	0.07317 0.98595 0.15600 -0.42100
C 	C 	0.04860 0.55320 0.13822 0.38900
C 	C 	0.12449 0.64043 0.18230 0.05800
C 	C 	0.14928 0.59310 0.17510 -0.11700
H 	H 	0.18210 0.58080 0.18000 0.07400
C 	C 	0.12430 0.56440 0.16044 0.05200
H 	H 	0.14070 0.53320 0.15570 0.02900
C 	C 	0.07461 0.58304 0.15297 -0.13400
C 	C 	0.04982 0.63037 0.16016 0.05100
H 	H 	0.01700 0.64270 0.15520 0.02900
C 	C 	0.07476 0.65907 0.17483 -0.11600
H 	H 	0.05840 0.69030 0.17960 0.07200
Cu	Cu	0.95942 0.96451 0.13741 0.90200
C 	C 	0.17012 0.75589 0.21399 0.00700
C 	C 	0.16599 0.81312 0.21500 0.01200
C 	C 	0.19113 0.84154 0.22969 -0.14700
H 	H 	0.18840 0.87930 0.23040 0.09100
C 	C 	0.22040 0.81270 0.24337 0.16300
C 	C 	0.22452 0.75550 0.24236 -0.03500
C 	C 	0.19938 0.72707 0.22767 0.02600
C 	C 	0.14760 0.72750 0.19906 -0.07900
H 	H 	0.12990 0.74680 0.18970 0.06300
C 	C 	0.15080 0.67160 0.19774 0.01100
C 	C 	0.17950 0.64210 0.21173 -0.04900
H 	H 	0.18190 0.60430 0.21110 0.04900
C 	C 	0.20380 0.66970 0.22608 -0.05600
H 	H 	0.22350 0.65040 0.23490 0.05900
C 	C 	0.13472 0.84742 0.20185 0.05900
C 	C 	0.16121 0.89126 0.19299 -0.11700
H 	H 	0.19740 0.89900 0.19570 0.07700
C 	C 	0.13280 0.92339 0.17997 0.04800
H 	H 	0.15030 0.95230 0.17410 0.03100
C 	C 	0.07788 0.91168 0.17582 -0.12700
C 	C 	0.05138 0.86784 0.18468 0.05000
H 	H 	0.01520 0.86010 0.18190 0.02900
C 	C 	0.07980 0.83571 0.19770 -0.12000
H 	H 	0.06230 0.80680 0.20350 0.07400
O 	O 	0.00280 0.92953 0.15735 -0.40500
C 	C 	0.05070 0.94530 0.16193 0.38900
O 	O 	0.24700 0.83740 0.25767 -0.21100
C 	C 	0.31300 0.90060 0.27000 0.00600
C 	C 	0.26620 0.89480 0.25620 0.05900
C 	C 	0.23400 0.89590 0.25840 0.02200
C 	C 	0.26500 0.92440 0.27350 -0.02000
O 	O 	0.92983 0.48920 0.13239 -0.41700
O 	O 	0.99497 0.42756 0.13130 -0.41000
O 	O 	0.92683 0.01405 0.15600 -0.42100
C 	C 	0.95140 0.44680 0.13822 0.38900
C 	C 	0.87551 0.35957 0.18230 0.05800
C 	C 	0.85072 0.40690 0.17510 -0.11700
H 	H 	0.81790 0.41920 0.18000 0.07400
C 	C 	0.87570 0.43560 0.16044 0.05200
H 	H 	0.85930 0.46680 0.15570 0.02900
C 	C 	0.92539 0.41696 0.15297 -0.13400
C 	C 	0.95018 0.36963 0.16016 0.05100
H 	H 	0.98300 0.35730 0.15520 0.02900
C 	C 	0.92524 0.34093 0.17483 -0.11600
H 	H 	0.94160 0.30970 0.17960 0.07200
Cu	Cu	0.04058 0.03549 0.13741 0.90200
C 	C 	0.82988 0.24411 0.21399 0.00700
C 	C 	0.83401 0.18688 0.21500 0.01200
C 	C 	0.80887 0.15846 0.22969 -0.14700
H 	H 	0.81160 0.12070 0.23040 0.09100
C 	C 	0.77960 0.18730 0.24337 0.16300
C 	C 	0.77548 0.24450 0.24236 -0.03500
C 	C 	0.80062 0.27293 0.22767 0.02600
C 	C 	0.85240 0.27250 0.19906 -0.07900
H 	H 	0.87010 0.25320 0.18970 0.06300
C 	C 	0.84920 0.32840 0.19774 0.01100
C 	C 	0.82050 0.35790 0.21173 -0.04900
H 	H 	0.81810 0.39570 0.21110 0.04900
C 	C 	0.79620 0.33030 0.22608 -0.05600
H 	H 	0.77650 0.34960 0.23490 0.05900
C 	C 	0.86528 0.15258 0.20185 0.05900
C 	C 	0.83879 0.10874 0.19299 -0.11700
H 	H 	0.80260 0.10100 0.19570 0.07700
C 	C 	0.86720 0.07661 0.17997 0.04800
H 	H 	0.84970 0.04770 0.17410 0.03100
C 	C 	0.92212 0.08832 0.17582 -0.12700
C 	C 	0.94862 0.13216 0.18468 0.05000
H 	H 	0.98480 0.13990 0.18190 0.02900
C 	C 	0.92020 0.16429 0.19770 -0.12000
H 	H 	0.93770 0.19320 0.20350 0.07400
O 	O 	0.99720 0.07047 0.15735 -0.40500
C 	C 	0.94930 0.05470 0.16193 0.38900
O 	O 	0.75300 0.16260 0.25767 -0.21100
C 	C 	0.68700 0.09940 0.27000 0.00600
C 	C 	0.73380 0.10520 0.25620 0.05900
C 	C 	0.76600 0.10410 0.25840 0.02200
C 	C 	0.73500 0.07560 0.27350 -0.02000
O 	O 	0.42983 0.98920 0.63239 -0.41700
O 	O 	0.49497 0.92756 0.63130 -0.41000
O 	O 	0.42683 0.51405 0.65600 -0.42100
C 	C 	0.45140 0.94680 0.63822 0.38900
C 	C 	0.37551 0.85957 0.68230 0.05800
C 	C 	0.35072 0.90690 0.67510 -0.11700
H 	H 	0.31790 0.91920 0.68000 0.07400
C 	C 	0.37570 0.93560 0.66044 0.05200
H 	H 	0.35930 0.96680 0.65570 0.02900
C 	C 	0.42539 0.91696 0.65297 -0.13400
C 	C 	0.45018 0.86963 0.66016 0.05100
H 	H 	0.48300 0.85730 0.65520 0.02900
C 	C 	0.42524 0.84093 0.67483 -0.11600
H 	H 	0.44160 0.80970 0.67960 0.07200
Cu	Cu	0.54058 0.53549 0.63741 0.90300
C 	C 	0.32988 0.74411 0.71399 0.00700
C 	C 	0.33401 0.68688 0.71500 0.01200
C 	C 	0.30887 0.65846 0.72969 -0.14700
H 	H 	0.31160 0.62070 0.73040 0.09100
C 	C 	0.27960 0.68730 0.74337 0.16300
C 	C 	0.27548 0.74450 0.74236 -0.03500
C 	C 	0.30062 0.77293 0.72767 0.02600
C 	C 	0.35240 0.77250 0.69906 -0.07900
H 	H 	0.37010 0.75320 0.68970 0.06300
C 	C 	0.34920 0.82840 0.69774 0.01100
C 	C 	0.32050 0.85790 0.71173 -0.04900
H 	H 	0.31810 0.89570 0.71110 0.04900
C 	C 	0.29620 0.83030 0.72608 -0.05600
H 	H 	0.27650 0.84960 0.73490 0.05900
C 	C 	0.36528 0.65258 0.70185 0.05900
C 	C 	0.33879 0.60874 0.69299 -0.11700
H 	H 	0.30260 0.60100 0.69570 0.07700
C 	C 	0.36720 0.57661 0.67997 0.04800
H 	H 	0.34970 0.54770 0.67410 0.03100
C 	C 	0.42212 0.58832 0.67582 -0.12700
C 	C 	0.44862 0.63216 0.68468 0.05000
H 	H 	0.48480 0.63990 0.68190 0.02900
C 	C 	0.42020 0.66429 0.69770 -0.12000
H 	H 	0.43770 0.69320 0.70350 0.07400
O 	O 	0.49720 0.57047 0.65735 -0.40500
C 	C 	0.44930 0.55470 0.66193 0.38900
O 	O 	0.25300 0.66260 0.75767 -0.21100
C 	C 	0.18700 0.59940 0.77000 0.00500
C 	C 	0.23380 0.60520 0.75620 0.05900
C 	C 	0.26600 0.60410 0.75840 0.02200
C 	C 	0.23500 0.57560 0.77350 -0.02000
O 	O 	0.51080 0.42983 0.38239 -0.41700
O 	O 	0.57244 0.49497 0.38130 -0.41000
O 	O 	0.98595 0.42683 0.40600 -0.42100
C 	C 	0.55320 0.45140 0.38822 0.38900
C 	C 	0.64043 0.37551 0.43230 0.05800
C 	C 	0.59310 0.35072 0.42510 -0.11700
H 	H 	0.58080 0.31790 0.43000 0.07400
C 	C 	0.56440 0.37570 0.41044 0.05200
H 	H 	0.53320 0.35930 0.40570 0.02900
C 	C 	0.58304 0.42539 0.40297 -0.13400
C 	C 	0.63037 0.45018 0.41016 0.05100
H 	H 	0.64270 0.48300 0.40520 0.02900
C 	C 	0.65907 0.42524 0.42483 -0.11600
H 	H 	0.69030 0.44160 0.42960 0.07200
Cu	Cu	0.96451 0.54058 0.38741 0.90300
C 	C 	0.75589 0.32988 0.46399 0.00700
C 	C 	0.81312 0.33401 0.46500 0.01200
C 	C 	0.84154 0.30887 0.47969 -0.14700
H 	H 	0.87930 0.31160 0.48040 0.09100
C 	C 	0.81270 0.27960 0.49337 0.16300
C 	C 	0.75550 0.27548 0.49236 -0.03500
C 	C 	0.72707 0.30062 0.47767 0.02600
C 	C 	0.72750 0.35240 0.44906 -0.07900
H 	H 	0.74680 0.37010 0.43970 0.06300
C 	C 	0.67160 0.34920 0.44774 0.01100
C 	C 	0.64210 0.32050 0.46173 -0.04900
H 	H 	0.60430 0.31810 0.46110 0.04900
C 	C 	0.66970 0.29620 0.47608 -0.05600
H 	H 	0.65040 0.27650 0.48490 0.05900
C 	C 	0.84742 0.36528 0.45185 0.05900
C 	C 	0.89126 0.33879 0.44299 -0.11700
H 	H 	0.89900 0.30260 0.44570 0.07700
C 	C 	0.92339 0.36720 0.42997 0.04800
H 	H 	0.95230 0.34970 0.42410 0.03100
C 	C 	0.91168 0.42212 0.42582 -0.12700
C 	C 	0.86784 0.44862 0.43468 0.05000
H 	H 	0.86010 0.48480 0.43190 0.02900
C 	C 	0.83571 0.42020 0.44770 -0.12000
H 	H 	0.80680 0.43770 0.45350 0.07400
O 	O 	0.92953 0.49720 0.40735 -0.40600
C 	C 	0.94530 0.44930 0.41193 0.38900
O 	O 	0.83740 0.25300 0.50767 -0.21100
C 	C 	0.90060 0.18700 0.52000 0.00600
C 	C 	0.89480 0.23380 0.50620 0.05900
C 	C 	0.89590 0.26600 0.50840 0.02200
C 	C 	0.92440 0.23500 0.52350 -0.02000
O 	O 	0.01080 0.92983 0.88239 -0.41700
O 	O 	0.07244 0.99497 0.88130 -0.41000
O 	O 	0.48595 0.92683 0.90600 -0.42100
C 	C 	0.05320 0.95140 0.88822 0.38900
C 	C 	0.14043 0.87551 0.93230 0.05800
C 	C 	0.09310 0.85072 0.92510 -0.11700
H 	H 	0.08080 0.81790 0.93000 0.07400
C 	C 	0.06440 0.87570 0.91044 0.05200
H 	H 	0.03320 0.85930 0.90570 0.02900
C 	C 	0.08304 0.92539 0.90297 -0.13400
C 	C 	0.13037 0.95018 0.91016 0.05100
H 	H 	0.14270 0.98300 0.90520 0.02900
C 	C 	0.15907 0.92524 0.92483 -0.11600
H 	H 	0.19030 0.94160 0.92960 0.07200
Cu	Cu	0.46451 0.04058 0.88741 0.90300
C 	C 	0.25589 0.82988 0.96399 0.00700
C 	C 	0.31312 0.83401 0.96500 0.01200
C 	C 	0.34154 0.80887 0.97969 -0.14700
H 	H 	0.37930 0.81160 0.98040 0.09100
C 	C 	0.31270 0.77960 0.99337 0.16300
C 	C 	0.25550 0.77548 0.99236 -0.03500
C 	C 	0.22707 0.80062 0.97767 0.02600
C 	C 	0.22750 0.85240 0.94906 -0.07900
H 	H 	0.24680 0.87010 0.93970 0.06300
C 	C 	0.17160 0.84920 0.94774 0.01100
C 	C 	0.14210 0.82050 0.96173 -0.04900
H 	H 	0.10430 0.81810 0.96110 0.04900
C 	C 	0.16970 0.79620 0.97608 -0.05600
H 	H 	0.15040 0.77650 0.98490 0.05900
C 	C 	0.34742 0.86528 0.95185 0.05900
C 	C 	0.39126 0.83879 0.94299 -0.11700
H 	H 	0.39900 0.80260 0.94570 0.07700
C 	C 	0.42339 0.86720 0.92997 0.04800
H 	H 	0.45230 0.84970 0.92410 0.03100
C 	C 	0.41168 0.92212 0.92582 -0.12700
C 	C 	0.36784 0.94862 0.93468 0.05000
H 	H 	0.36010 0.98480 0.93190 0.02900
C 	C 	0.33571 0.92020 0.94770 -0.12000
H 	H 	0.30680 0.93770 0.95350 0.07400
O 	O 	0.42953 0.99720 0.90735 -0.40500
C 	C 	0.44530 0.94930 0.91193 0.38900
O 	O 	0.33740 0.75300 0.00767 -0.21100
C 	C 	0.40060 0.68700 0.02000 0.00500
C 	C 	0.39480 0.73380 0.00620 0.05900
C 	C 	0.39590 0.76600 0.00840 0.02200
C 	C 	0.42440 0.73500 0.02350 -0.02000
O 	O 	0.98920 0.07017 0.88239 -0.41700
O 	O 	0.92756 0.00503 0.88130 -0.41000
O 	O 	0.51405 0.07317 0.90600 -0.42100
C 	C 	0.94680 0.04860 0.88822 0.38900
C 	C 	0.85957 0.12449 0.93230 0.05800
C 	C 	0.90690 0.14928 0.92510 -0.11700
H 	H 	0.91920 0.18210 0.93000 0.07400
C 	C 	0.93560 0.12430 0.91044 0.05200
H 	H 	0.96680 0.14070 0.90570 0.02900
C 	C 	0.91696 0.07461 0.90297 -0.13400
C 	C 	0.86963 0.04982 0.91016 0.05100
H 	H 	0.85730 0.01700 0.90520 0.02900
C 	C 	0.84093 0.07476 0.92483 -0.11600
H 	H 	0.80970 0.05840 0.92960 0.07200
Cu	Cu	0.53549 0.95942 0.88741 0.90300
C 	C 	0.74411 0.17012 0.96399 0.00700
C 	C 	0.68688 0.16599 0.96500 0.01200
C 	C 	0.65846 0.19113 0.97969 -0.14700
H 	H 	0.62070 0.18840 0.98040 0.09100
C 	C 	0.68730 0.22040 0.99337 0.16300
C 	C 	0.74450 0.22452 0.99236 -0.03500
C 	C 	0.77293 0.19938 0.97767 0.02600
C 	C 	0.77250 0.14760 0.94906 -0.07900
H 	H 	0.75320 0.12990 0.93970 0.06300
C 	C 	0.82840 0.15080 0.94774 0.01100
C 	C 	0.85790 0.17950 0.96173 -0.04900
H 	H 	0.89570 0.18190 0.96110 0.04900
C 	C 	0.83030 0.20380 0.97608 -0.05600
H 	H 	0.84960 0.22350 0.98490 0.05900
C 	C 	0.65258 0.13472 0.95185 0.05900
C 	C 	0.60874 0.16121 0.94299 -0.11700
H 	H 	0.60100 0.19740 0.94570 0.07700
C 	C 	0.57661 0.13280 0.92997 0.04800
H 	H 	0.54770 0.15030 0.92410 0.03100
C 	C 	0.58832 0.07788 0.92582 -0.12700
C 	C 	0.63216 0.05138 0.93468 0.05000
H 	H 	0.63990 0.01520 0.93190 0.02900
C 	C 	0.66429 0.07980 0.94770 -0.12000
H 	H 	0.69320 0.06230 0.95350 0.07400
O 	O 	0.57047 0.00280 0.90735 -0.40500
C 	C 	0.55470 0.05070 0.91193 0.38900
O 	O 	0.66260 0.24700 0.00767 -0.21100
C 	C 	0.59940 0.31300 0.02000 0.00500
C 	C 	0.60520 0.26620 0.00620 0.05900
C 	C 	0.60410 0.23400 0.00840 0.02200
C 	C 	0.57560 0.26500 0.02350 -0.02000
O 	O 	0.48920 0.57017 0.38239 -0.41700
O 	O 	0.42756 0.50503 0.38130 -0.41000
O 	O 	0.01405 0.57317 0.40600 -0.42100
C 	C 	0.44680 0.54860 0.38822 0.38900
C 	C 	0.35957 0.62449 0.43230 0.05800
C 	C 	0.40690 0.64928 0.42510 -0.11700
H 	H 	0.41920 0.68210 0.43000 0.07400
C 	C 	0.43560 0.62430 0.41044 0.05200
H 	H 	0.46680 0.64070 0.40570 0.02900
C 	C 	0.41696 0.57461 0.40297 -0.13400
C 	C 	0.36963 0.54982 0.41016 0.05100
H 	H 	0.35730 0.51700 0.40520 0.02900
C 	C 	0.34093 0.57476 0.42483 -0.11600
H 	H 	0.30970 0.55840 0.42960 0.07200
Cu	Cu	0.03549 0.45942 0.38741 0.90300
C 	C 	0.24411 0.67012 0.46399 0.00700
C 	C 	0.18688 0.66599 0.46500 0.01200
C 	C 	0.15846 0.69113 0.47969 -0.14700
H 	H 	0.12070 0.68840 0.48040 0.09100
C 	C 	0.18730 0.72040 0.49337 0.16300
C 	C 	0.24450 0.72452 0.49236 -0.03500
C 	C 	0.27293 0.69938 0.47767 0.02600
C 	C 	0.27250 0.64760 0.44906 -0.07900
H 	H 	0.25320 0.62990 0.43970 0.06300
C 	C 	0.32840 0.65080 0.44774 0.01100
C 	C 	0.35790 0.67950 0.46173 -0.04900
H 	H 	0.39570 0.68190 0.46110 0.04900
C 	C 	0.33030 0.70380 0.47608 -0.05600
H 	H 	0.34960 0.72350 0.48490 0.05900
C 	C 	0.15258 0.63472 0.45185 0.05900
C 	C 	0.10874 0.66121 0.44299 -0.11700
H 	H 	0.10100 0.69740 0.44570 0.07700
C 	C 	0.07661 0.63280 0.42997 0.04800
H 	H 	0.04770 0.65030 0.42410 0.03100
C 	C 	0.08832 0.57788 0.42582 -0.12700
C 	C 	0.13216 0.55138 0.43468 0.05000
H 	H 	0.13990 0.51520 0.43190 0.02900
C 	C 	0.16429 0.57980 0.44770 -0.12000
H 	H 	0.19320 0.56230 0.45350 0.07400
O 	O 	0.07047 0.50280 0.40735 -0.40600
C 	C 	0.05470 0.55070 0.41193 0.38900
O 	O 	0.16260 0.74700 0.50767 -0.21100
C 	C 	0.09940 0.81300 0.52000 0.00600
C 	C 	0.10520 0.76620 0.50620 0.05900
C 	C 	0.10410 0.73400 0.50840 0.02200
C 	C 	0.07560 0.76500 0.52350 -0.02000
