data_crystal

_cell_length_a 24.50210
_cell_length_b 24.50210
_cell_length_c 71.80880
_cell_angle_alpha 90.00000
_cell_angle_beta  90.00000
_cell_angle_gamma 90.00000

_symmetry_space_group_name_	'P 1'
_symmetry_space_group_name_H-M	'P 1'

loop_
_symmetry_equiv_pos_as_xyz
  x,y,z

loop_
_atom_site_label
_atom_site_type_symbol
_atom_site_fract_x
_atom_site_fract_y
_atom_site_fract_z
_atom_site_charge
O 	O 	0.92980 0.00754 0.11681 -0.41600
O 	O 	0.99569 0.07268 0.11814 -0.39400
O 	O 	0.92610 0.48831 0.09470 -0.40400
C 	C 	0.94960 0.05110 0.11210 0.34200
C 	C 	0.87378 0.14139 0.06756 0.05200
C 	C 	0.85030 0.09401 0.07449 -0.10500
H 	H 	0.81720 0.08130 0.06960 0.06800
C 	C 	0.87580 0.06538 0.08867 0.02700
H 	H 	0.86000 0.03330 0.09340 0.03700
C 	C 	0.92487 0.08412 0.09593 -0.09100
C 	C 	0.94834 0.13149 0.08901 0.03000
H 	H 	0.98150 0.14420 0.09390 0.03600
C 	C 	0.92280 0.16012 0.07483 -0.10500
H 	H 	0.93870 0.19220 0.07010 0.06800
Cu	Cu	0.96026 0.96411 0.13667 0.90400
C 	C 	0.82640 0.25900 0.03581 -0.00500
C 	C 	0.82923 0.31554 0.03508 0.02600
C 	C 	0.80300 0.34364 0.02091 -0.16000
H 	H 	0.80500 0.38190 0.02040 0.09400
C 	C 	0.77405 0.31522 0.00747 0.17500
C 	C 	0.77123 0.25868 0.00820 -0.04200
C 	C 	0.79740 0.23057 0.02237 0.03400
C 	C 	0.84960 0.22900 0.05080 -0.07200
H 	H 	0.86720 0.24810 0.06040 0.06000
C 	C 	0.84710 0.17310 0.05175 0.00900
C 	C 	0.81710 0.14380 0.03777 -0.04500
H 	H 	0.81470 0.10550 0.03810 0.04800
C 	C 	0.79160 0.17320 0.02376 -0.05900
H 	H 	0.77010 0.15470 0.01500 0.06000
C 	C 	0.86268 0.35081 0.04905 0.04800
C 	C 	0.83758 0.39425 0.05800 -0.10300
H 	H 	0.80090 0.40240 0.05550 0.07100
C 	C 	0.86675 0.42557 0.07063 0.02600
H 	H 	0.84980 0.45490 0.07670 0.04000
C 	C 	0.92103 0.41345 0.07431 -0.08500
C 	C 	0.94613 0.37001 0.06535 0.02700
H 	H 	0.98280 0.36180 0.06780 0.03700
C 	C 	0.91696 0.33869 0.05272 -0.10500
H 	H 	0.93390 0.30930 0.04670 0.06800
O 	O 	0.99820 0.42929 0.09338 -0.40900
C 	C 	0.95190 0.44670 0.08928 0.34700
O 	O 	0.74850 0.34080 0.99313 -0.21800
C 	C 	0.76830 0.39880 0.98960 0.03000
C 	C 	0.73150 0.42730 0.97470 -0.01300
C 	C 	0.72650 0.39520 0.99690 0.06300
C 	C 	0.67600 0.39220 0.00940 -0.00600
O 	O 	0.42980 0.50754 0.61681 -0.41600
O 	O 	0.49569 0.57268 0.61814 -0.39300
O 	O 	0.42610 0.98831 0.59470 -0.40300
C 	C 	0.44960 0.55110 0.61210 0.34300
C 	C 	0.37378 0.64139 0.56756 0.05300
C 	C 	0.35030 0.59401 0.57449 -0.10500
H 	H 	0.31720 0.58130 0.56960 0.06900
C 	C 	0.37580 0.56538 0.58867 0.02800
H 	H 	0.36000 0.53330 0.59340 0.03700
C 	C 	0.42487 0.58412 0.59593 -0.09000
C 	C 	0.44834 0.63149 0.58901 0.03100
H 	H 	0.48150 0.64420 0.59390 0.03700
C 	C 	0.42280 0.66012 0.57483 -0.10500
H 	H 	0.43870 0.69220 0.57010 0.06800
Cu	Cu	0.46026 0.46411 0.63667 0.90500
C 	C 	0.32640 0.75900 0.53581 -0.00500
C 	C 	0.32923 0.81554 0.53508 0.02600
C 	C 	0.30300 0.84364 0.52091 -0.16000
H 	H 	0.30500 0.88190 0.52040 0.09400
C 	C 	0.27405 0.81522 0.50747 0.17500
C 	C 	0.27123 0.75868 0.50820 -0.04200
C 	C 	0.29740 0.73057 0.52237 0.03400
C 	C 	0.34960 0.72900 0.55080 -0.07200
H 	H 	0.36720 0.74810 0.56040 0.06000
C 	C 	0.34710 0.67310 0.55175 0.00900
C 	C 	0.31710 0.64380 0.53777 -0.04500
H 	H 	0.31470 0.60550 0.53810 0.04800
C 	C 	0.29160 0.67320 0.52376 -0.05900
H 	H 	0.27010 0.65470 0.51500 0.06000
C 	C 	0.36268 0.85081 0.54905 0.04800
C 	C 	0.33758 0.89425 0.55800 -0.10300
H 	H 	0.30090 0.90240 0.55550 0.07100
C 	C 	0.36675 0.92557 0.57063 0.02600
H 	H 	0.34980 0.95490 0.57670 0.04000
C 	C 	0.42103 0.91345 0.57431 -0.08500
C 	C 	0.44613 0.87001 0.56535 0.02700
H 	H 	0.48280 0.86180 0.56780 0.03700
C 	C 	0.41696 0.83869 0.55272 -0.10500
H 	H 	0.43390 0.80930 0.54670 0.06800
O 	O 	0.49820 0.92929 0.59338 -0.40900
C 	C 	0.45190 0.94670 0.58928 0.34700
O 	O 	0.24850 0.84080 0.49313 -0.21800
C 	C 	0.26830 0.89880 0.48960 0.03000
C 	C 	0.23150 0.92730 0.47470 -0.01300
C 	C 	0.22650 0.89520 0.49690 0.06300
C 	C 	0.17600 0.89220 0.50940 -0.00600
O 	O 	0.57020 0.49246 0.61681 -0.41600
O 	O 	0.50431 0.42732 0.61814 -0.39300
O 	O 	0.57390 0.01169 0.59470 -0.40300
C 	C 	0.55040 0.44890 0.61210 0.34300
C 	C 	0.62622 0.35861 0.56756 0.05300
C 	C 	0.64970 0.40599 0.57449 -0.10500
H 	H 	0.68280 0.41870 0.56960 0.06900
C 	C 	0.62420 0.43462 0.58867 0.02800
H 	H 	0.64000 0.46670 0.59340 0.03700
C 	C 	0.57513 0.41588 0.59593 -0.09000
C 	C 	0.55166 0.36851 0.58901 0.03100
H 	H 	0.51850 0.35580 0.59390 0.03700
C 	C 	0.57720 0.33988 0.57483 -0.10500
H 	H 	0.56130 0.30780 0.57010 0.06800
Cu	Cu	0.53974 0.53589 0.63667 0.90500
C 	C 	0.67360 0.24100 0.53581 -0.00500
C 	C 	0.67077 0.18446 0.53508 0.02600
C 	C 	0.69700 0.15636 0.52091 -0.16000
H 	H 	0.69500 0.11810 0.52040 0.09400
C 	C 	0.72595 0.18478 0.50747 0.17500
C 	C 	0.72877 0.24132 0.50820 -0.04200
C 	C 	0.70260 0.26943 0.52237 0.03400
C 	C 	0.65040 0.27100 0.55080 -0.07200
H 	H 	0.63280 0.25190 0.56040 0.06000
C 	C 	0.65290 0.32690 0.55175 0.00900
C 	C 	0.68290 0.35620 0.53777 -0.04500
H 	H 	0.68530 0.39450 0.53810 0.04800
C 	C 	0.70840 0.32680 0.52376 -0.05900
H 	H 	0.72990 0.34530 0.51500 0.06000
C 	C 	0.63732 0.14919 0.54905 0.04800
C 	C 	0.66242 0.10575 0.55800 -0.10300
H 	H 	0.69910 0.09760 0.55550 0.07100
C 	C 	0.63325 0.07443 0.57063 0.02600
H 	H 	0.65020 0.04510 0.57670 0.04000
C 	C 	0.57897 0.08655 0.57431 -0.08500
C 	C 	0.55387 0.12999 0.56535 0.02700
H 	H 	0.51720 0.13820 0.56780 0.03700
C 	C 	0.58304 0.16131 0.55272 -0.10500
H 	H 	0.56610 0.19070 0.54670 0.06800
O 	O 	0.50180 0.07071 0.59338 -0.40900
C 	C 	0.54810 0.05330 0.58928 0.34700
O 	O 	0.75150 0.15920 0.49313 -0.21800
C 	C 	0.73170 0.10120 0.48960 0.03000
C 	C 	0.76850 0.07270 0.47470 -0.01300
C 	C 	0.77350 0.10480 0.49690 0.06300
C 	C 	0.82400 0.10780 0.50940 -0.00600
O 	O 	0.07020 0.99246 0.11681 -0.41500
O 	O 	0.00431 0.92732 0.11814 -0.39300
O 	O 	0.07390 0.51169 0.09470 -0.40300
C 	C 	0.05040 0.94890 0.11210 0.34300
C 	C 	0.12622 0.85861 0.06756 0.05300
C 	C 	0.14970 0.90599 0.07449 -0.10400
H 	H 	0.18280 0.91870 0.06960 0.06900
C 	C 	0.12420 0.93462 0.08867 0.02800
H 	H 	0.14000 0.96670 0.09340 0.03800
C 	C 	0.07513 0.91588 0.09593 -0.09000
C 	C 	0.05166 0.86851 0.08901 0.03100
H 	H 	0.01850 0.85580 0.09390 0.03700
C 	C 	0.07720 0.83988 0.07483 -0.10500
H 	H 	0.06130 0.80780 0.07010 0.06800
Cu	Cu	0.03974 0.03589 0.13667 0.90400
C 	C 	0.17360 0.74100 0.03581 -0.00500
C 	C 	0.17077 0.68446 0.03508 0.02600
C 	C 	0.19700 0.65636 0.02091 -0.16000
H 	H 	0.19500 0.61810 0.02040 0.09400
C 	C 	0.22595 0.68478 0.00747 0.17500
C 	C 	0.22877 0.74132 0.00820 -0.04200
C 	C 	0.20260 0.76943 0.02237 0.03400
C 	C 	0.15040 0.77100 0.05080 -0.07200
H 	H 	0.13280 0.75190 0.06040 0.06000
C 	C 	0.15290 0.82690 0.05175 0.00900
C 	C 	0.18290 0.85620 0.03777 -0.04500
H 	H 	0.18530 0.89450 0.03810 0.04800
C 	C 	0.20840 0.82680 0.02376 -0.05900
H 	H 	0.22990 0.84530 0.01500 0.06000
C 	C 	0.13732 0.64919 0.04905 0.04800
C 	C 	0.16242 0.60575 0.05800 -0.10300
H 	H 	0.19910 0.59760 0.05550 0.07100
C 	C 	0.13325 0.57443 0.07063 0.02600
H 	H 	0.15020 0.54510 0.07670 0.04000
C 	C 	0.07897 0.58655 0.07431 -0.08500
C 	C 	0.05387 0.62999 0.06535 0.02700
H 	H 	0.01720 0.63820 0.06780 0.03700
C 	C 	0.08304 0.66131 0.05272 -0.10500
H 	H 	0.06610 0.69070 0.04670 0.06800
O 	O 	0.00180 0.57071 0.09338 -0.40900
C 	C 	0.04810 0.55330 0.08928 0.34700
O 	O 	0.25150 0.65920 0.99313 -0.21800
C 	C 	0.23170 0.60120 0.98960 0.03000
C 	C 	0.26850 0.57270 0.97470 -0.01300
C 	C 	0.27350 0.60480 0.99690 0.06300
C 	C 	0.32400 0.60780 0.00940 -0.00600
O 	O 	0.99246 0.42980 0.36681 -0.41500
O 	O 	0.92732 0.49569 0.36814 -0.39300
O 	O 	0.51169 0.42610 0.34470 -0.40300
C 	C 	0.94890 0.44960 0.36210 0.34300
C 	C 	0.85861 0.37378 0.31756 0.05300
C 	C 	0.90599 0.35030 0.32449 -0.10500
H 	H 	0.91870 0.31720 0.31960 0.06900
C 	C 	0.93462 0.37580 0.33867 0.02800
H 	H 	0.96670 0.36000 0.34340 0.03700
C 	C 	0.91588 0.42487 0.34593 -0.09000
C 	C 	0.86851 0.44834 0.33901 0.03100
H 	H 	0.85580 0.48150 0.34390 0.03700
C 	C 	0.83988 0.42280 0.32483 -0.10500
H 	H 	0.80780 0.43870 0.32010 0.06800
Cu	Cu	0.03589 0.46026 0.38667 0.90500
C 	C 	0.74100 0.32640 0.28581 -0.00500
C 	C 	0.68446 0.32923 0.28508 0.02600
C 	C 	0.65636 0.30300 0.27091 -0.16000
H 	H 	0.61810 0.30500 0.27040 0.09400
C 	C 	0.68478 0.27405 0.25747 0.17500
C 	C 	0.74132 0.27123 0.25820 -0.04200
C 	C 	0.76943 0.29740 0.27237 0.03400
C 	C 	0.77100 0.34960 0.30080 -0.07200
H 	H 	0.75190 0.36720 0.31040 0.06000
C 	C 	0.82690 0.34710 0.30175 0.00900
C 	C 	0.85620 0.31710 0.28777 -0.04500
H 	H 	0.89450 0.31470 0.28810 0.04800
C 	C 	0.82680 0.29160 0.27376 -0.05900
H 	H 	0.84530 0.27010 0.26500 0.06000
C 	C 	0.64919 0.36268 0.29905 0.04800
C 	C 	0.60575 0.33758 0.30800 -0.10300
H 	H 	0.59760 0.30090 0.30550 0.07100
C 	C 	0.57443 0.36675 0.32063 0.02600
H 	H 	0.54510 0.34980 0.32670 0.04000
C 	C 	0.58655 0.42103 0.32431 -0.08500
C 	C 	0.62999 0.44613 0.31535 0.02700
H 	H 	0.63820 0.48280 0.31780 0.03700
C 	C 	0.66131 0.41696 0.30272 -0.10500
H 	H 	0.69070 0.43390 0.29670 0.06800
O 	O 	0.57071 0.49820 0.34338 -0.40900
C 	C 	0.55330 0.45190 0.33928 0.34700
O 	O 	0.65920 0.24850 0.24313 -0.21800
C 	C 	0.60120 0.26830 0.23960 0.03000
C 	C 	0.57270 0.23150 0.22470 -0.01300
C 	C 	0.60480 0.22650 0.24690 0.06300
C 	C 	0.60780 0.17600 0.25940 -0.00600
O 	O 	0.49246 0.92980 0.86681 -0.41600
O 	O 	0.42732 0.99569 0.86814 -0.39300
O 	O 	0.01169 0.92610 0.84470 -0.40300
C 	C 	0.44890 0.94960 0.86210 0.34300
C 	C 	0.35861 0.87378 0.81756 0.05300
C 	C 	0.40599 0.85030 0.82449 -0.10500
H 	H 	0.41870 0.81720 0.81960 0.06900
C 	C 	0.43462 0.87580 0.83867 0.02800
H 	H 	0.46670 0.86000 0.84340 0.03700
C 	C 	0.41588 0.92487 0.84593 -0.09000
C 	C 	0.36851 0.94834 0.83901 0.03100
H 	H 	0.35580 0.98150 0.84390 0.03700
C 	C 	0.33988 0.92280 0.82483 -0.10500
H 	H 	0.30780 0.93870 0.82010 0.06800
Cu	Cu	0.53589 0.96026 0.88667 0.90500
C 	C 	0.24100 0.82640 0.78581 -0.00500
C 	C 	0.18446 0.82923 0.78508 0.02600
C 	C 	0.15636 0.80300 0.77091 -0.16000
H 	H 	0.11810 0.80500 0.77040 0.09400
C 	C 	0.18478 0.77405 0.75747 0.17500
C 	C 	0.24132 0.77123 0.75820 -0.04200
C 	C 	0.26943 0.79740 0.77237 0.03400
C 	C 	0.27100 0.84960 0.80080 -0.07200
H 	H 	0.25190 0.86720 0.81040 0.06000
C 	C 	0.32690 0.84710 0.80175 0.00900
C 	C 	0.35620 0.81710 0.78777 -0.04500
H 	H 	0.39450 0.81470 0.78810 0.04800
C 	C 	0.32680 0.79160 0.77376 -0.05900
H 	H 	0.34530 0.77010 0.76500 0.06000
C 	C 	0.14919 0.86268 0.79905 0.04800
C 	C 	0.10575 0.83758 0.80800 -0.10300
H 	H 	0.09760 0.80090 0.80550 0.07100
C 	C 	0.07443 0.86675 0.82063 0.02600
H 	H 	0.04510 0.84980 0.82670 0.04000
C 	C 	0.08655 0.92103 0.82431 -0.08500
C 	C 	0.12999 0.94613 0.81535 0.02700
H 	H 	0.13820 0.98280 0.81780 0.03700
C 	C 	0.16131 0.91696 0.80272 -0.10500
H 	H 	0.19070 0.93390 0.79670 0.06800
O 	O 	0.07071 0.99820 0.84338 -0.40900
C 	C 	0.05330 0.95190 0.83928 0.34700
O 	O 	0.15920 0.74850 0.74313 -0.21800
C 	C 	0.10120 0.76830 0.73960 0.03000
C 	C 	0.07270 0.73150 0.72470 -0.01300
C 	C 	0.10480 0.72650 0.74690 0.06300
C 	C 	0.10780 0.67600 0.75940 -0.00600
O 	O 	0.50754 0.07020 0.86681 -0.41600
O 	O 	0.57268 0.00431 0.86814 -0.39300
O 	O 	0.98831 0.07390 0.84470 -0.40300
C 	C 	0.55110 0.05040 0.86210 0.34300
C 	C 	0.64139 0.12622 0.81756 0.05300
C 	C 	0.59401 0.14970 0.82449 -0.10500
H 	H 	0.58130 0.18280 0.81960 0.06900
C 	C 	0.56538 0.12420 0.83867 0.02800
H 	H 	0.53330 0.14000 0.84340 0.03700
C 	C 	0.58412 0.07513 0.84593 -0.09000
C 	C 	0.63149 0.05166 0.83901 0.03100
H 	H 	0.64420 0.01850 0.84390 0.03700
C 	C 	0.66012 0.07720 0.82483 -0.10500
H 	H 	0.69220 0.06130 0.82010 0.06800
Cu	Cu	0.46411 0.03974 0.88667 0.90500
C 	C 	0.75900 0.17360 0.78581 -0.00500
C 	C 	0.81554 0.17077 0.78508 0.02600
C 	C 	0.84364 0.19700 0.77091 -0.16000
H 	H 	0.88190 0.19500 0.77040 0.09400
C 	C 	0.81522 0.22595 0.75747 0.17500
C 	C 	0.75868 0.22877 0.75820 -0.04200
C 	C 	0.73057 0.20260 0.77237 0.03400
C 	C 	0.72900 0.15040 0.80080 -0.07200
H 	H 	0.74810 0.13280 0.81040 0.06000
C 	C 	0.67310 0.15290 0.80175 0.00900
C 	C 	0.64380 0.18290 0.78777 -0.04500
H 	H 	0.60550 0.18530 0.78810 0.04800
C 	C 	0.67320 0.20840 0.77376 -0.05900
H 	H 	0.65470 0.22990 0.76500 0.06000
C 	C 	0.85081 0.13732 0.79905 0.04800
C 	C 	0.89425 0.16242 0.80800 -0.10300
H 	H 	0.90240 0.19910 0.80550 0.07100
C 	C 	0.92557 0.13325 0.82063 0.02600
H 	H 	0.95490 0.15020 0.82670 0.04000
C 	C 	0.91345 0.07897 0.82431 -0.08500
C 	C 	0.87001 0.05387 0.81535 0.02700
H 	H 	0.86180 0.01720 0.81780 0.03700
C 	C 	0.83869 0.08304 0.80272 -0.10500
H 	H 	0.80930 0.06610 0.79670 0.06800
O 	O 	0.92929 0.00180 0.84338 -0.40900
C 	C 	0.94670 0.04810 0.83928 0.34700
O 	O 	0.84080 0.25150 0.74313 -0.21800
C 	C 	0.89880 0.23170 0.73960 0.03000
C 	C 	0.92730 0.26850 0.72470 -0.01300
C 	C 	0.89520 0.27350 0.74690 0.06300
C 	C 	0.89220 0.32400 0.75940 -0.00600
O 	O 	0.00754 0.57020 0.36681 -0.41500
O 	O 	0.07268 0.50431 0.36814 -0.39300
O 	O 	0.48831 0.57390 0.34470 -0.40300
C 	C 	0.05110 0.55040 0.36210 0.34300
C 	C 	0.14139 0.62622 0.31756 0.05300
C 	C 	0.09401 0.64970 0.32449 -0.10500
H 	H 	0.08130 0.68280 0.31960 0.06900
C 	C 	0.06538 0.62420 0.33867 0.02800
H 	H 	0.03330 0.64000 0.34340 0.03700
C 	C 	0.08412 0.57513 0.34593 -0.09000
C 	C 	0.13149 0.55166 0.33901 0.03100
H 	H 	0.14420 0.51850 0.34390 0.03700
C 	C 	0.16012 0.57720 0.32483 -0.10500
H 	H 	0.19220 0.56130 0.32010 0.06800
Cu	Cu	0.96411 0.53974 0.38667 0.90500
C 	C 	0.25900 0.67360 0.28581 -0.00500
C 	C 	0.31554 0.67077 0.28508 0.02600
C 	C 	0.34364 0.69700 0.27091 -0.16000
H 	H 	0.38190 0.69500 0.27040 0.09400
C 	C 	0.31522 0.72595 0.25747 0.17500
C 	C 	0.25868 0.72877 0.25820 -0.04200
C 	C 	0.23057 0.70260 0.27237 0.03400
C 	C 	0.22900 0.65040 0.30080 -0.07200
H 	H 	0.24810 0.63280 0.31040 0.06000
C 	C 	0.17310 0.65290 0.30175 0.00900
C 	C 	0.14380 0.68290 0.28777 -0.04500
H 	H 	0.10550 0.68530 0.28810 0.04800
C 	C 	0.17320 0.70840 0.27376 -0.05900
H 	H 	0.15470 0.72990 0.26500 0.06000
C 	C 	0.35081 0.63732 0.29905 0.04800
C 	C 	0.39425 0.66242 0.30800 -0.10300
H 	H 	0.40240 0.69910 0.30550 0.07100
C 	C 	0.42557 0.63325 0.32063 0.02600
H 	H 	0.45490 0.65020 0.32670 0.04000
C 	C 	0.41345 0.57897 0.32431 -0.08500
C 	C 	0.37001 0.55387 0.31535 0.02700
H 	H 	0.36180 0.51720 0.31780 0.03700
C 	C 	0.33869 0.58304 0.30272 -0.10500
H 	H 	0.30930 0.56610 0.29670 0.06800
O 	O 	0.42929 0.50180 0.34338 -0.40900
C 	C 	0.44670 0.54810 0.33928 0.34700
O 	O 	0.34080 0.75150 0.24313 -0.21800
C 	C 	0.39880 0.73170 0.23960 0.03000
C 	C 	0.42730 0.76850 0.22470 -0.01300
C 	C 	0.39520 0.77350 0.24690 0.06300
C 	C 	0.39220 0.82400 0.25940 -0.00600
O 	O 	0.57020 0.00754 0.63319 -0.41500
O 	O 	0.50431 0.07268 0.63186 -0.39300
O 	O 	0.57390 0.48831 0.65530 -0.40300
C 	C 	0.55040 0.05110 0.63790 0.34300
C 	C 	0.62622 0.14139 0.68244 0.05300
C 	C 	0.64970 0.09401 0.67551 -0.10500
H 	H 	0.68280 0.08130 0.68040 0.06900
C 	C 	0.62420 0.06538 0.66133 0.02800
H 	H 	0.64000 0.03330 0.65660 0.03700
C 	C 	0.57513 0.08412 0.65407 -0.09000
C 	C 	0.55166 0.13149 0.66099 0.03100
H 	H 	0.51850 0.14420 0.65610 0.03700
C 	C 	0.57720 0.16012 0.67517 -0.10500
H 	H 	0.56130 0.19220 0.67990 0.06800
Cu	Cu	0.53974 0.96411 0.61333 0.90500
C 	C 	0.67360 0.25900 0.71419 -0.00500
C 	C 	0.67077 0.31554 0.71492 0.02600
C 	C 	0.69700 0.34364 0.72909 -0.16000
H 	H 	0.69500 0.38190 0.72960 0.09400
C 	C 	0.72595 0.31522 0.74253 0.17500
C 	C 	0.72877 0.25868 0.74180 -0.04200
C 	C 	0.70260 0.23057 0.72763 0.03400
C 	C 	0.65040 0.22900 0.69920 -0.07200
H 	H 	0.63280 0.24810 0.68960 0.06000
C 	C 	0.65290 0.17310 0.69825 0.00900
C 	C 	0.68290 0.14380 0.71223 -0.04500
H 	H 	0.68530 0.10550 0.71190 0.04800
C 	C 	0.70840 0.17320 0.72624 -0.05900
H 	H 	0.72990 0.15470 0.73500 0.06000
C 	C 	0.63732 0.35081 0.70095 0.04800
C 	C 	0.66242 0.39425 0.69200 -0.10300
H 	H 	0.69910 0.40240 0.69450 0.07100
C 	C 	0.63325 0.42557 0.67937 0.02600
H 	H 	0.65020 0.45490 0.67330 0.04000
C 	C 	0.57897 0.41345 0.67569 -0.08500
C 	C 	0.55387 0.37001 0.68465 0.02700
H 	H 	0.51720 0.36180 0.68220 0.03700
C 	C 	0.58304 0.33869 0.69728 -0.10500
H 	H 	0.56610 0.30930 0.70330 0.06800
O 	O 	0.50180 0.42929 0.65662 -0.40900
C 	C 	0.54810 0.44670 0.66072 0.34700
O 	O 	0.75150 0.34080 0.75687 -0.21800
C 	C 	0.73170 0.39880 0.76040 0.03000
C 	C 	0.76850 0.42730 0.77530 -0.01300
C 	C 	0.77350 0.39520 0.75310 0.06300
C 	C 	0.82400 0.39220 0.74060 -0.00600
O 	O 	0.07020 0.50754 0.13319 -0.41600
O 	O 	0.00431 0.57268 0.13186 -0.39300
O 	O 	0.07390 0.98831 0.15530 -0.40300
C 	C 	0.05040 0.55110 0.13790 0.34300
C 	C 	0.12622 0.64139 0.18244 0.05300
C 	C 	0.14970 0.59401 0.17551 -0.10500
H 	H 	0.18280 0.58130 0.18040 0.06900
C 	C 	0.12420 0.56538 0.16133 0.02800
H 	H 	0.14000 0.53330 0.15660 0.03700
C 	C 	0.07513 0.58412 0.15407 -0.09000
C 	C 	0.05166 0.63149 0.16099 0.03100
H 	H 	0.01850 0.64420 0.15610 0.03700
C 	C 	0.07720 0.66012 0.17517 -0.10500
H 	H 	0.06130 0.69220 0.17990 0.06800
Cu	Cu	0.03974 0.46411 0.11333 0.90500
C 	C 	0.17360 0.75900 0.21419 -0.00500
C 	C 	0.17077 0.81554 0.21492 0.02600
C 	C 	0.19700 0.84364 0.22909 -0.16000
H 	H 	0.19500 0.88190 0.22960 0.09400
C 	C 	0.22595 0.81522 0.24253 0.17500
C 	C 	0.22877 0.75868 0.24180 -0.04200
C 	C 	0.20260 0.73057 0.22763 0.03400
C 	C 	0.15040 0.72900 0.19920 -0.07200
H 	H 	0.13280 0.74810 0.18960 0.06000
C 	C 	0.15290 0.67310 0.19825 0.00900
C 	C 	0.18290 0.64380 0.21223 -0.04500
H 	H 	0.18530 0.60550 0.21190 0.04800
C 	C 	0.20840 0.67320 0.22624 -0.05900
H 	H 	0.22990 0.65470 0.23500 0.06000
C 	C 	0.13732 0.85081 0.20095 0.04800
C 	C 	0.16242 0.89425 0.19200 -0.10300
H 	H 	0.19910 0.90240 0.19450 0.07100
C 	C 	0.13325 0.92557 0.17937 0.02600
H 	H 	0.15020 0.95490 0.17330 0.04000
C 	C 	0.07897 0.91345 0.17569 -0.08500
C 	C 	0.05387 0.87001 0.18465 0.02700
H 	H 	0.01720 0.86180 0.18220 0.03700
C 	C 	0.08304 0.83869 0.19728 -0.10500
H 	H 	0.06610 0.80930 0.20330 0.06800
O 	O 	0.00180 0.92929 0.15662 -0.40900
C 	C 	0.04810 0.94670 0.16072 0.34700
O 	O 	0.25150 0.84080 0.25687 -0.21800
C 	C 	0.23170 0.89880 0.26040 0.03000
C 	C 	0.26850 0.92730 0.27530 -0.01300
C 	C 	0.27350 0.89520 0.25310 0.06300
C 	C 	0.32400 0.89220 0.24060 -0.00600
O 	O 	0.92980 0.49246 0.13319 -0.41600
O 	O 	0.99569 0.42732 0.13186 -0.39300
O 	O 	0.92610 0.01169 0.15530 -0.40300
C 	C 	0.94960 0.44890 0.13790 0.34300
C 	C 	0.87378 0.35861 0.18244 0.05300
C 	C 	0.85030 0.40599 0.17551 -0.10500
H 	H 	0.81720 0.41870 0.18040 0.06900
C 	C 	0.87580 0.43462 0.16133 0.02800
H 	H 	0.86000 0.46670 0.15660 0.03700
C 	C 	0.92487 0.41588 0.15407 -0.09000
C 	C 	0.94834 0.36851 0.16099 0.03100
H 	H 	0.98150 0.35580 0.15610 0.03700
C 	C 	0.92280 0.33988 0.17517 -0.10500
H 	H 	0.93870 0.30780 0.17990 0.06800
Cu	Cu	0.96026 0.53589 0.11333 0.90500
C 	C 	0.82640 0.24100 0.21419 -0.00500
C 	C 	0.82923 0.18446 0.21492 0.02600
C 	C 	0.80300 0.15636 0.22909 -0.16000
H 	H 	0.80500 0.11810 0.22960 0.09400
C 	C 	0.77405 0.18478 0.24253 0.17500
C 	C 	0.77123 0.24132 0.24180 -0.04200
C 	C 	0.79740 0.26943 0.22763 0.03400
C 	C 	0.84960 0.27100 0.19920 -0.07200
H 	H 	0.86720 0.25190 0.18960 0.06000
C 	C 	0.84710 0.32690 0.19825 0.00900
C 	C 	0.81710 0.35620 0.21223 -0.04500
H 	H 	0.81470 0.39450 0.21190 0.04800
C 	C 	0.79160 0.32680 0.22624 -0.05900
H 	H 	0.77010 0.34530 0.23500 0.06000
C 	C 	0.86268 0.14919 0.20095 0.04800
C 	C 	0.83758 0.10575 0.19200 -0.10300
H 	H 	0.80090 0.09760 0.19450 0.07100
C 	C 	0.86675 0.07443 0.17937 0.02600
H 	H 	0.84980 0.04510 0.17330 0.04000
C 	C 	0.92103 0.08655 0.17569 -0.08500
C 	C 	0.94613 0.12999 0.18465 0.02700
H 	H 	0.98280 0.13820 0.18220 0.03700
C 	C 	0.91696 0.16131 0.19728 -0.10500
H 	H 	0.93390 0.19070 0.20330 0.06800
O 	O 	0.99820 0.07071 0.15662 -0.40900
C 	C 	0.95190 0.05330 0.16072 0.34700
O 	O 	0.74850 0.15920 0.25687 -0.21800
C 	C 	0.76830 0.10120 0.26040 0.03000
C 	C 	0.73150 0.07270 0.27530 -0.01300
C 	C 	0.72650 0.10480 0.25310 0.06300
C 	C 	0.67600 0.10780 0.24060 -0.00600
O 	O 	0.42980 0.99246 0.63319 -0.41500
O 	O 	0.49569 0.92732 0.63186 -0.39300
O 	O 	0.42610 0.51169 0.65530 -0.40300
C 	C 	0.44960 0.94890 0.63790 0.34300
C 	C 	0.37378 0.85861 0.68244 0.05300
C 	C 	0.35030 0.90599 0.67551 -0.10500
H 	H 	0.31720 0.91870 0.68040 0.06900
C 	C 	0.37580 0.93462 0.66133 0.02800
H 	H 	0.36000 0.96670 0.65660 0.03700
C 	C 	0.42487 0.91588 0.65407 -0.09000
C 	C 	0.44834 0.86851 0.66099 0.03100
H 	H 	0.48150 0.85580 0.65610 0.03700
C 	C 	0.42280 0.83988 0.67517 -0.10500
H 	H 	0.43870 0.80780 0.67990 0.06800
Cu	Cu	0.46026 0.03589 0.61333 0.90500
C 	C 	0.32640 0.74100 0.71419 -0.00500
C 	C 	0.32923 0.68446 0.71492 0.02600
C 	C 	0.30300 0.65636 0.72909 -0.16000
H 	H 	0.30500 0.61810 0.72960 0.09400
C 	C 	0.27405 0.68478 0.74253 0.17500
C 	C 	0.27123 0.74132 0.74180 -0.04200
C 	C 	0.29740 0.76943 0.72763 0.03400
C 	C 	0.34960 0.77100 0.69920 -0.07200
H 	H 	0.36720 0.75190 0.68960 0.06000
C 	C 	0.34710 0.82690 0.69825 0.00900
C 	C 	0.31710 0.85620 0.71223 -0.04500
H 	H 	0.31470 0.89450 0.71190 0.04800
C 	C 	0.29160 0.82680 0.72624 -0.05900
H 	H 	0.27010 0.84530 0.73500 0.06000
C 	C 	0.36268 0.64919 0.70095 0.04800
C 	C 	0.33758 0.60575 0.69200 -0.10300
H 	H 	0.30090 0.59760 0.69450 0.07100
C 	C 	0.36675 0.57443 0.67937 0.02600
H 	H 	0.34980 0.54510 0.67330 0.04000
C 	C 	0.42103 0.58655 0.67569 -0.08500
C 	C 	0.44613 0.62999 0.68465 0.02700
H 	H 	0.48280 0.63820 0.68220 0.03700
C 	C 	0.41696 0.66131 0.69728 -0.10500
H 	H 	0.43390 0.69070 0.70330 0.06800
O 	O 	0.49820 0.57071 0.65662 -0.40900
C 	C 	0.45190 0.55330 0.66072 0.34700
O 	O 	0.24850 0.65920 0.75687 -0.21800
C 	C 	0.26830 0.60120 0.76040 0.03000
C 	C 	0.23150 0.57270 0.77530 -0.01300
C 	C 	0.22650 0.60480 0.75310 0.06300
C 	C 	0.17600 0.60780 0.74060 -0.00600
O 	O 	0.50754 0.42980 0.38319 -0.41600
O 	O 	0.57268 0.49569 0.38186 -0.39300
O 	O 	0.98831 0.42610 0.40530 -0.40300
C 	C 	0.55110 0.44960 0.38790 0.34300
C 	C 	0.64139 0.37378 0.43244 0.05300
C 	C 	0.59401 0.35030 0.42551 -0.10500
H 	H 	0.58130 0.31720 0.43040 0.06900
C 	C 	0.56538 0.37580 0.41133 0.02800
H 	H 	0.53330 0.36000 0.40660 0.03700
C 	C 	0.58412 0.42487 0.40407 -0.09000
C 	C 	0.63149 0.44834 0.41099 0.03100
H 	H 	0.64420 0.48150 0.40610 0.03700
C 	C 	0.66012 0.42280 0.42517 -0.10500
H 	H 	0.69220 0.43870 0.42990 0.06800
Cu	Cu	0.46411 0.46026 0.36333 0.90500
C 	C 	0.75900 0.32640 0.46419 -0.00500
C 	C 	0.81554 0.32923 0.46492 0.02600
C 	C 	0.84364 0.30300 0.47909 -0.16000
H 	H 	0.88190 0.30500 0.47960 0.09400
C 	C 	0.81522 0.27405 0.49253 0.17500
C 	C 	0.75868 0.27123 0.49180 -0.04200
C 	C 	0.73057 0.29740 0.47763 0.03400
C 	C 	0.72900 0.34960 0.44920 -0.07200
H 	H 	0.74810 0.36720 0.43960 0.06000
C 	C 	0.67310 0.34710 0.44825 0.00900
C 	C 	0.64380 0.31710 0.46223 -0.04500
H 	H 	0.60550 0.31470 0.46190 0.04800
C 	C 	0.67320 0.29160 0.47624 -0.05900
H 	H 	0.65470 0.27010 0.48500 0.06000
C 	C 	0.85081 0.36268 0.45095 0.04800
C 	C 	0.89425 0.33758 0.44200 -0.10300
H 	H 	0.90240 0.30090 0.44450 0.07100
C 	C 	0.92557 0.36675 0.42937 0.02600
H 	H 	0.95490 0.34980 0.42330 0.04000
C 	C 	0.91345 0.42103 0.42569 -0.08500
C 	C 	0.87001 0.44613 0.43465 0.02700
H 	H 	0.86180 0.48280 0.43220 0.03700
C 	C 	0.83869 0.41696 0.44728 -0.10500
H 	H 	0.80930 0.43390 0.45330 0.06800
O 	O 	0.92929 0.49820 0.40662 -0.40900
C 	C 	0.94670 0.45190 0.41072 0.34700
O 	O 	0.84080 0.24850 0.50687 -0.21800
C 	C 	0.89880 0.26830 0.51040 0.03000
C 	C 	0.92730 0.23150 0.52530 -0.01300
C 	C 	0.89520 0.22650 0.50310 0.06300
C 	C 	0.89220 0.17600 0.49060 -0.00600
O 	O 	0.00754 0.92980 0.88319 -0.41500
O 	O 	0.07268 0.99569 0.88186 -0.39300
O 	O 	0.48831 0.92610 0.90530 -0.40300
C 	C 	0.05110 0.94960 0.88790 0.34300
C 	C 	0.14139 0.87378 0.93244 0.05300
C 	C 	0.09401 0.85030 0.92551 -0.10400
H 	H 	0.08130 0.81720 0.93040 0.06900
C 	C 	0.06538 0.87580 0.91133 0.02800
H 	H 	0.03330 0.86000 0.90660 0.03800
C 	C 	0.08412 0.92487 0.90407 -0.09000
C 	C 	0.13149 0.94834 0.91099 0.03100
H 	H 	0.14420 0.98150 0.90610 0.03700
C 	C 	0.16012 0.92280 0.92517 -0.10500
H 	H 	0.19220 0.93870 0.92990 0.06800
Cu	Cu	0.96411 0.96026 0.86333 0.90400
C 	C 	0.25900 0.82640 0.96419 -0.00500
C 	C 	0.31554 0.82923 0.96492 0.02600
C 	C 	0.34364 0.80300 0.97909 -0.16000
H 	H 	0.38190 0.80500 0.97960 0.09400
C 	C 	0.31522 0.77405 0.99253 0.17500
C 	C 	0.25868 0.77123 0.99180 -0.04200
C 	C 	0.23057 0.79740 0.97763 0.03400
C 	C 	0.22900 0.84960 0.94920 -0.07200
H 	H 	0.24810 0.86720 0.93960 0.06000
C 	C 	0.17310 0.84710 0.94825 0.00900
C 	C 	0.14380 0.81710 0.96223 -0.04500
H 	H 	0.10550 0.81470 0.96190 0.04800
C 	C 	0.17320 0.79160 0.97624 -0.05900
H 	H 	0.15470 0.77010 0.98500 0.06000
C 	C 	0.35081 0.86268 0.95095 0.04800
C 	C 	0.39425 0.83758 0.94200 -0.10300
H 	H 	0.40240 0.80090 0.94450 0.07100
C 	C 	0.42557 0.86675 0.92937 0.02600
H 	H 	0.45490 0.84980 0.92330 0.04000
C 	C 	0.41345 0.92103 0.92569 -0.08500
C 	C 	0.37001 0.94613 0.93465 0.02700
H 	H 	0.36180 0.98280 0.93220 0.03700
C 	C 	0.33869 0.91696 0.94728 -0.10500
H 	H 	0.30930 0.93390 0.95330 0.06800
O 	O 	0.42929 0.99820 0.90662 -0.40900
C 	C 	0.44670 0.95190 0.91072 0.34700
O 	O 	0.34080 0.74850 0.00687 -0.21800
C 	C 	0.39880 0.76830 0.01040 0.03000
C 	C 	0.42730 0.73150 0.02530 -0.01300
C 	C 	0.39520 0.72650 0.00310 0.06300
C 	C 	0.39220 0.67600 0.99060 -0.00600
O 	O 	0.99246 0.07020 0.88319 -0.41500
O 	O 	0.92732 0.00431 0.88186 -0.39300
O 	O 	0.51169 0.07390 0.90530 -0.40300
C 	C 	0.94890 0.05040 0.88790 0.34300
C 	C 	0.85861 0.12622 0.93244 0.05300
C 	C 	0.90599 0.14970 0.92551 -0.10400
H 	H 	0.91870 0.18280 0.93040 0.06900
C 	C 	0.93462 0.12420 0.91133 0.02800
H 	H 	0.96670 0.14000 0.90660 0.03800
C 	C 	0.91588 0.07513 0.90407 -0.09000
C 	C 	0.86851 0.05166 0.91099 0.03100
H 	H 	0.85580 0.01850 0.90610 0.03700
C 	C 	0.83988 0.07720 0.92517 -0.10500
H 	H 	0.80780 0.06130 0.92990 0.06800
Cu	Cu	0.03589 0.03974 0.86333 0.90400
C 	C 	0.74100 0.17360 0.96419 -0.00500
C 	C 	0.68446 0.17077 0.96492 0.02600
C 	C 	0.65636 0.19700 0.97909 -0.16000
H 	H 	0.61810 0.19500 0.97960 0.09400
C 	C 	0.68478 0.22595 0.99253 0.17500
C 	C 	0.74132 0.22877 0.99180 -0.04200
C 	C 	0.76943 0.20260 0.97763 0.03400
C 	C 	0.77100 0.15040 0.94920 -0.07200
H 	H 	0.75190 0.13280 0.93960 0.06000
C 	C 	0.82690 0.15290 0.94825 0.00900
C 	C 	0.85620 0.18290 0.96223 -0.04500
H 	H 	0.89450 0.18530 0.96190 0.04800
C 	C 	0.82680 0.20840 0.97624 -0.05900
H 	H 	0.84530 0.22990 0.98500 0.06000
C 	C 	0.64919 0.13732 0.95095 0.04800
C 	C 	0.60575 0.16242 0.94200 -0.10300
H 	H 	0.59760 0.19910 0.94450 0.07100
C 	C 	0.57443 0.13325 0.92937 0.02600
H 	H 	0.54510 0.15020 0.92330 0.04000
C 	C 	0.58655 0.07897 0.92569 -0.08500
C 	C 	0.62999 0.05387 0.93465 0.02700
H 	H 	0.63820 0.01720 0.93220 0.03700
C 	C 	0.66131 0.08304 0.94728 -0.10500
H 	H 	0.69070 0.06610 0.95330 0.06800
O 	O 	0.57071 0.00180 0.90662 -0.40900
C 	C 	0.55330 0.04810 0.91072 0.34700
O 	O 	0.65920 0.25150 0.00687 -0.21800
C 	C 	0.60120 0.23170 0.01040 0.03000
C 	C 	0.57270 0.26850 0.02530 -0.01300
C 	C 	0.60480 0.27350 0.00310 0.06300
C 	C 	0.60780 0.32400 0.99060 -0.00600
O 	O 	0.49246 0.57020 0.38319 -0.41600
O 	O 	0.42732 0.50431 0.38186 -0.39300
O 	O 	0.01169 0.57390 0.40530 -0.40300
C 	C 	0.44890 0.55040 0.38790 0.34300
C 	C 	0.35861 0.62622 0.43244 0.05300
C 	C 	0.40599 0.64970 0.42551 -0.10500
H 	H 	0.41870 0.68280 0.43040 0.06900
C 	C 	0.43462 0.62420 0.41133 0.02800
H 	H 	0.46670 0.64000 0.40660 0.03700
C 	C 	0.41588 0.57513 0.40407 -0.09000
C 	C 	0.36851 0.55166 0.41099 0.03100
H 	H 	0.35580 0.51850 0.40610 0.03700
C 	C 	0.33988 0.57720 0.42517 -0.10500
H 	H 	0.30780 0.56130 0.42990 0.06800
Cu	Cu	0.53589 0.53974 0.36333 0.90500
C 	C 	0.24100 0.67360 0.46419 -0.00500
C 	C 	0.18446 0.67077 0.46492 0.02600
C 	C 	0.15636 0.69700 0.47909 -0.16000
H 	H 	0.11810 0.69500 0.47960 0.09400
C 	C 	0.18478 0.72595 0.49253 0.17500
C 	C 	0.24132 0.72877 0.49180 -0.04200
C 	C 	0.26943 0.70260 0.47763 0.03400
C 	C 	0.27100 0.65040 0.44920 -0.07200
H 	H 	0.25190 0.63280 0.43960 0.06000
C 	C 	0.32690 0.65290 0.44825 0.00900
C 	C 	0.35620 0.68290 0.46223 -0.04500
H 	H 	0.39450 0.68530 0.46190 0.04800
C 	C 	0.32680 0.70840 0.47624 -0.05900
H 	H 	0.34530 0.72990 0.48500 0.06000
C 	C 	0.14919 0.63732 0.45095 0.04800
C 	C 	0.10575 0.66242 0.44200 -0.10300
H 	H 	0.09760 0.69910 0.44450 0.07100
C 	C 	0.07443 0.63325 0.42937 0.02600
H 	H 	0.04510 0.65020 0.42330 0.04000
C 	C 	0.08655 0.57897 0.42569 -0.08500
C 	C 	0.12999 0.55387 0.43465 0.02700
H 	H 	0.13820 0.51720 0.43220 0.03700
C 	C 	0.16131 0.58304 0.44728 -0.10500
H 	H 	0.19070 0.56610 0.45330 0.06800
O 	O 	0.07071 0.50180 0.40662 -0.40900
C 	C 	0.05330 0.54810 0.41072 0.34700
O 	O 	0.15920 0.75150 0.50687 -0.21800
C 	C 	0.10120 0.73170 0.51040 0.03000
C 	C 	0.07270 0.76850 0.52530 -0.01300
C 	C 	0.10480 0.77350 0.50310 0.06300
C 	C 	0.10780 0.82400 0.49060 -0.00600
