data_crystal

_cell_length_a 9.07200
_cell_length_b 13.14000
_cell_length_c 30.70000
_cell_angle_alpha 92.72000
_cell_angle_beta  90.20000
_cell_angle_gamma 90.01000

_symmetry_space_group_name_	'P 1'
_symmetry_space_group_name_H-M	'P 1'

loop_
_symmetry_equiv_pos_as_xyz
  x,y,z

loop_
_atom_site_label
_atom_site_type_symbol
_atom_site_fract_x
_atom_site_fract_y
_atom_site_fract_z
_atom_site_charge
Cd	Cd	0.13557 0.42152 0.03696 1.22600
Cd	Cd	0.36497 0.42146 0.53711 1.22600
Cd	Cd	0.63503 0.57854 0.46289 1.22600
Cd	Cd	0.86443 0.57848 0.96304 1.22600
H 	H 	0.69610 0.84270 0.15920 0.12700
H 	H 	0.93760 0.78450 0.36330 0.00600
H 	H 	0.99240 0.43390 0.87230 0.00300
H 	H 	0.75010 0.37950 0.41100 -0.00100
H 	H 	0.64100 0.07770 0.49710 0.09500
H 	H 	0.49230 0.21820 0.48810 0.00100
H 	H 	0.56210 0.78590 0.86270 0.00300
H 	H 	0.13530 0.97040 0.40930 0.05600
H 	H 	0.24990 0.62050 0.58900 -0.00100
H 	H 	0.70530 0.76940 0.08810 0.01200
H 	H 	0.19610 0.15530 0.34130 0.12800
H 	H 	0.10730 0.17260 0.51260 0.07000
H 	H 	0.15620 0.52480 0.46850 -0.00500
H 	H 	0.79510 0.76880 0.58800 0.01000
H 	H 	0.49420 0.56570 0.62780 0.00500
H 	H 	0.20490 0.23120 0.41200 0.01000
H 	H 	0.51270 0.33050 0.04160 0.09700
H 	H 	0.99440 0.35570 0.80240 0.12000
H 	H 	0.01200 0.14750 0.70450 0.12400
H 	H 	0.48510 0.14700 0.20490 0.12500
H 	H 	0.29470 0.23060 0.91190 0.01200
H 	H 	0.26070 0.80000 0.88550 0.08300
H 	H 	0.50770 0.78180 0.51190 0.00100
H 	H 	0.75990 0.19840 0.61500 0.08200
H 	H 	0.30870 0.34550 0.76090 0.12000
H 	H 	0.50580 0.43430 0.37220 0.00500
H 	H 	0.80390 0.84470 0.65870 0.12800
H 	H 	0.65570 0.47480 0.03170 -0.00500
H 	H 	0.13990 0.92250 0.00350 0.09300
H 	H 	0.18990 0.34450 0.26060 0.12100
H 	H 	0.73930 0.20000 0.11450 0.08300
H 	H 	0.01040 0.21710 0.98870 0.00200
H 	H 	0.63570 0.59320 0.30750 0.00500
H 	H 	0.30390 0.15730 0.84080 0.12700
H 	H 	0.24010 0.80160 0.38500 0.08200
H 	H 	0.49320 0.64680 0.69740 0.12200
H 	H 	0.86010 0.07750 0.99650 0.09300
H 	H 	0.60800 0.82600 0.98730 0.07000
H 	H 	0.25320 0.61960 0.08870 -0.00300
H 	H 	0.06240 0.21550 0.63670 0.00600
H 	H 	0.74680 0.38040 0.91130 -0.00300
H 	H 	0.98800 0.85250 0.29550 0.12400
H 	H 	0.60450 0.23410 0.91730 0.09200
H 	H 	0.99350 0.33160 0.54110 0.09600
H 	H 	0.50680 0.35320 0.30260 0.12200
H 	H 	0.88670 0.34130 0.10160 0.00100
H 	H 	0.00760 0.56610 0.12770 0.00300
H 	H 	0.00560 0.64430 0.19760 0.12000
H 	H 	0.86360 0.59340 0.80780 0.00300
H 	H 	0.36420 0.96880 0.90970 0.05600
H 	H 	0.39550 0.76590 0.08270 0.09200
H 	H 	0.81010 0.65550 0.73940 0.12100
H 	H 	0.84380 0.47520 0.53150 -0.00500
H 	H 	0.98960 0.78290 0.01130 0.00200
H 	H 	0.34430 0.52520 0.96830 -0.00500
H 	H 	0.63580 0.03120 0.09030 0.05600
H 	H 	0.13640 0.40660 0.19220 0.00300
H 	H 	0.61520 0.34320 0.60150 -0.00000
H 	H 	0.51490 0.85300 0.79510 0.12500
H 	H 	0.89270 0.82740 0.48740 0.07000
H 	H 	0.38480 0.65680 0.39850 -0.00000
H 	H 	0.69130 0.65450 0.23910 0.12000
H 	H 	0.43790 0.21410 0.13730 0.00300
H 	H 	0.10680 0.76620 0.58300 0.09100
H 	H 	0.35900 0.92230 0.50290 0.09500
H 	H 	0.00650 0.66840 0.45890 0.09600
H 	H 	0.11330 0.65870 0.89840 0.00100
H 	H 	0.48730 0.66950 0.95840 0.09700
H 	H 	0.86470 0.02960 0.59070 0.05600
H 	H 	0.36430 0.40680 0.69250 0.00500
H 	H 	0.39200 0.17400 0.01270 0.07000
H 	H 	0.89320 0.23380 0.41700 0.09100
C 	C 	0.73860 0.78960 0.65210 -0.25200
C 	C 	0.20760 0.35410 0.19470 0.12200
C 	C 	0.54850 0.21430 0.51410 0.08600
C 	C 	0.29290 0.35450 0.69500 0.11800
C 	C 	0.94520 0.66980 0.17520 -0.24500
C 	C 	0.73840 0.68250 0.26460 -0.24800
C 	C 	0.11800 0.71360 0.91960 0.08400
C 	C 	0.78110 0.12340 0.05660 0.10500
C 	C 	0.29190 0.79790 0.41180 -0.14600
C 	C 	0.63730 0.61760 0.55490 0.38800
C 	C 	0.85530 0.42580 0.50820 0.08300
C 	C 	0.44540 0.37620 0.36630 0.12700
C 	C 	0.36280 0.86950 0.48070 -0.14800
C 	C 	0.44650 0.17820 0.98650 -0.03500
C 	C 	0.31680 0.96250 0.93700 -0.03700
C 	C 	0.25710 0.35350 0.61380 0.31200
C 	C 	0.14470 0.57420 0.49180 0.08300
C 	C 	0.72030 0.12360 0.55660 0.10700
C 	C 	0.14020 0.33930 0.89920 -0.18200
C 	C 	0.36270 0.38240 0.44510 0.38800
C 	C 	0.26140 0.21040 0.34790 -0.25200
C 	C 	0.35510 0.57490 0.99160 0.08800
C 	C 	0.21890 0.87660 0.94340 0.10500
C 	C 	0.55350 0.82180 0.01350 -0.03500
C 	C 	0.61470 0.76060 0.83780 0.11800
C 	C 	0.21960 0.31500 0.65760 -0.15300
C 	C 	0.68320 0.03750 0.06300 -0.03700
C 	C 	0.35740 0.33890 0.39930 -0.18900
C 	C 	0.86730 0.61730 0.05480 0.37800
C 	C 	0.79240 0.64590 0.80530 0.12200
C 	C 	0.75590 0.64600 0.88630 0.31300
C 	C 	0.66240 0.76090 0.76150 0.27500
C 	C 	0.86430 0.13010 0.01880 -0.14400
C 	C 	0.94710 0.82240 0.51370 -0.03200
C 	C 	0.24410 0.35400 0.11370 0.31300
C 	C 	0.44100 0.66050 0.98570 -0.16500
C 	C 	0.23770 0.21160 0.84770 -0.24600
C 	C 	0.64490 0.42510 0.00840 0.08800
C 	C 	0.05290 0.17760 0.48630 -0.03200
C 	C 	0.83850 0.76030 0.26190 0.26900
C 	C 	0.91670 0.80020 0.29810 -0.23200
C 	C 	0.85500 0.75330 0.18380 0.27600
C 	C 	0.30250 0.63030 0.06200 0.08200
C 	C 	0.33760 0.23910 0.23850 0.27500
C 	C 	0.76230 0.78840 0.15230 -0.24600
C 	C 	0.73440 0.74350 0.61020 0.13400
C 	C 	0.11450 0.71780 0.55910 -0.14700
C 	C 	0.23390 0.25630 0.88970 0.12700
C 	C 	0.95260 0.21400 0.01430 0.08400
C 	C 	0.80060 0.36910 0.43760 0.07800
C 	C 	0.74290 0.64650 0.38620 0.31200
C 	C 	0.78040 0.68500 0.34240 -0.15300
C 	C 	0.55460 0.62380 0.63370 0.12700
C 	C 	0.14500 0.24670 0.81620 0.27600
C 	C 	0.95920 0.26720 0.47990 0.11500
C 	C 	0.45150 0.78570 0.48590 0.08600
C 	C 	0.88550 0.28220 0.44090 -0.14700
C 	C 	0.79240 0.20260 0.08800 -0.14800
C 	C 	0.04740 0.78600 0.98570 0.08400
C 	C 	0.05480 0.33020 0.82480 -0.24500
C 	C 	0.28060 0.31570 0.15760 -0.15600
C 	C 	0.71940 0.68430 0.84240 -0.15600
C 	C 	0.38160 0.71250 0.41940 0.08200
C 	C 	0.19940 0.63090 0.56240 0.07800
C 	C 	0.23790 0.31670 0.23530 -0.25300
C 	C 	0.94650 0.62380 0.13370 0.13100
C 	C 	0.18220 0.96320 0.43670 -0.03700
C 	C 	0.94430 0.33990 0.51420 -0.16100
C 	C 	0.64260 0.66110 0.60070 -0.18900
C 	C 	0.11480 0.24020 0.66190 0.11400
C 	C 	0.55490 0.67090 0.67510 -0.24500
C 	C 	0.63720 0.13050 0.51930 -0.14800
C 	C 	0.45890 0.73330 0.01990 0.11900
C 	C 	0.70810 0.20210 0.58820 -0.14600
C 	C 	0.16150 0.23970 0.73810 0.26900
C 	C 	0.38530 0.23940 0.16220 0.11800
C 	C 	0.20760 0.79740 0.91200 -0.14800
C 	C 	0.38710 0.71780 0.05880 -0.15200
C 	C 	0.08330 0.19980 0.70190 -0.23200
C 	C 	0.88520 0.75980 0.33810 0.11400
C 	C 	0.35230 0.24550 0.31660 0.27600
C 	C 	0.26560 0.25650 0.38980 0.13400
C 	C 	0.55900 0.33950 0.01430 -0.16500
C 	C 	0.13570 0.86990 0.98120 -0.14400
C 	C 	0.64770 0.75450 0.68340 0.27600
C 	C 	0.61290 0.28220 0.94120 -0.15200
C 	C 	0.61840 0.28750 0.58060 0.08200
C 	C 	0.13270 0.38270 0.94520 0.37800
C 	C 	0.41450 0.19980 0.20220 -0.23800
C 	C 	0.76610 0.74370 0.11030 0.12700
C 	C 	0.69750 0.36970 0.93800 0.08200
C 	C 	0.81780 0.03680 0.56330 -0.03700
C 	C 	0.44510 0.32910 0.32490 -0.24500
C 	C 	0.05570 0.66010 0.48580 -0.16100
C 	C 	0.88200 0.28640 0.08040 0.08400
C 	C 	0.26160 0.31750 0.73540 -0.24800
C 	C 	0.85980 0.66070 0.10080 -0.18200
C 	C 	0.70710 0.64550 0.30500 0.11800
C 	C 	0.27970 0.87640 0.44340 0.10700
C 	C 	0.58550 0.80020 0.79780 -0.23800
C 	C 	0.76210 0.68330 0.76470 -0.25300
C 	C 	0.54110 0.26670 0.98010 0.11900
C 	C 	0.05350 0.37620 0.86630 0.13100
C 	C 	0.04080 0.73280 0.52010 0.11500
N 	N 	0.16040 0.02970 0.46820 -0.06900
N 	N 	0.28780 0.56080 0.02910 -0.23800
N 	N 	0.53880 0.29020 0.54440 -0.22600
N 	N 	0.96130 0.29120 0.04400 -0.22600
N 	N 	0.93870 0.89420 0.54380 -0.07200
N 	N 	0.43670 0.10600 0.95660 -0.07100
N 	N 	0.33960 0.03000 0.96830 -0.06900
N 	N 	0.71220 0.43920 0.97090 -0.23800
N 	N 	0.78710 0.43930 0.47070 -0.23500
N 	N 	0.03870 0.70880 0.95600 -0.22600
N 	N 	0.56330 0.89400 0.04340 -0.07100
N 	N 	0.21290 0.56070 0.52930 -0.23500
N 	N 	0.06130 0.10580 0.45620 -0.07200
N 	N 	0.66040 0.97000 0.03170 -0.06900
N 	N 	0.46120 0.70980 0.45560 -0.22600
N 	N 	0.83960 0.97030 0.53180 -0.06900
O 	O 	0.63730 0.80940 0.72310 -0.29700
O 	O 	0.70280 0.69020 0.91999 -0.35800
O 	O 	0.05290 0.45930 0.95410 -0.48000
O 	O 	0.79600 0.69040 0.42009 -0.35700
O 	O 	0.13500 0.19160 0.77670 -0.29500
O 	O 	0.65530 0.56990 0.38812 -0.37900
O 	O 	0.34470 0.43010 0.61188 -0.37900
O 	O 	0.21260 0.34190 0.97350 -0.40900
O 	O 	0.28870 0.34160 0.47354 -0.41700
O 	O 	0.44490 0.45910 0.45440 -0.47900
O 	O 	0.94710 0.54070 0.04590 -0.48000
O 	O 	0.29720 0.30980 0.08001 -0.35800
O 	O 	0.86500 0.80840 0.22330 -0.29500
O 	O 	0.20400 0.30960 0.57991 -0.35700
O 	O 	0.71130 0.65840 0.52646 -0.41700
O 	O 	0.36270 0.19060 0.27690 -0.29700
O 	O 	0.84360 0.56960 0.88832 -0.38000
O 	O 	0.78740 0.65810 0.02650 -0.40900
O 	O 	0.15640 0.43040 0.11168 -0.38000
O 	O 	0.55510 0.54090 0.54560 -0.47900
