data_crystal

_cell_length_a 9.02790
_cell_length_b 18.13620
_cell_length_c 8.56310
_cell_angle_alpha 90.00000
_cell_angle_beta  102.73500
_cell_angle_gamma 90.00000

_symmetry_space_group_name_	'P 1'
_symmetry_space_group_name_H-M	'P 1'

loop_
_symmetry_equiv_pos_as_xyz
  x,y,z

loop_
_atom_site_label
_atom_site_type_symbol
_atom_site_fract_x
_atom_site_fract_y
_atom_site_fract_z
_atom_site_charge
Nd	Nd	0.26854 0.11924 0.06426 2.22600
O 	O 	0.48790 0.04090 0.18060 -0.42700
O 	O 	0.41640 0.18660 0.30270 -0.41500
O 	O 	0.14760 0.32550 0.30280 -0.41000
O 	O 	0.14330 0.23240 0.13460 -0.42900
O 	O 	0.42070 0.28140 0.47120 -0.39800
O 	O 	0.18990 0.98710 0.99590 -0.41300
O 	O 	0.00990 0.90400 0.99620 -0.40800
O 	O 	0.59690 0.93530 0.13570 -0.39900
C 	C 	0.20360 0.26900 0.25360 0.27500
C 	C 	0.36210 0.24300 0.35120 0.26600
C 	C 	0.52490 0.99300 0.09130 0.27700
C 	C 	0.05740 0.96870 0.99730 0.24900
Nd	Nd	0.73146 0.61924 0.43574 2.24400
O 	O 	0.51210 0.54090 0.31940 -0.42800
O 	O 	0.58360 0.68660 0.19730 -0.41600
O 	O 	0.85240 0.82550 0.19720 -0.40600
O 	O 	0.85670 0.73240 0.36540 -0.42700
O 	O 	0.57930 0.78140 0.02880 -0.39400
O 	O 	0.81010 0.48710 0.50410 -0.41600
O 	O 	0.99010 0.40400 0.50380 -0.41300
O 	O 	0.40310 0.43530 0.36430 -0.40100
C 	C 	0.79640 0.76900 0.24640 0.27500
C 	C 	0.63790 0.74300 0.14880 0.26700
C 	C 	0.47510 0.49300 0.40870 0.27500
C 	C 	0.94260 0.46870 0.50270 0.24700
Nd	Nd	0.73146 0.88077 0.93574 2.22500
O 	O 	0.51210 0.95910 0.81940 -0.42800
O 	O 	0.58360 0.81340 0.69730 -0.41500
O 	O 	0.85240 0.67450 0.69720 -0.41000
O 	O 	0.85670 0.76760 0.86540 -0.42900
O 	O 	0.57930 0.71860 0.52880 -0.39800
O 	O 	0.81010 0.01290 0.00410 -0.41300
O 	O 	0.99010 0.09600 0.00380 -0.40800
O 	O 	0.40310 0.06470 0.86430 -0.39900
C 	C 	0.79640 0.73100 0.74640 0.27500
C 	C 	0.63790 0.75700 0.64880 0.26600
C 	C 	0.47510 0.00700 0.90870 0.27700
C 	C 	0.94260 0.03130 0.00270 0.24900
Nd	Nd	0.26854 0.38077 0.56426 2.24400
O 	O 	0.48790 0.45910 0.68060 -0.42800
O 	O 	0.41640 0.31340 0.80270 -0.41600
O 	O 	0.14760 0.17450 0.80280 -0.40600
O 	O 	0.14330 0.26760 0.63460 -0.42700
O 	O 	0.42070 0.21860 0.97120 -0.39400
O 	O 	0.18990 0.51290 0.49590 -0.41600
O 	O 	0.00990 0.59600 0.49620 -0.41300
O 	O 	0.59690 0.56470 0.63570 -0.40100
C 	C 	0.20360 0.23100 0.75360 0.27500
C 	C 	0.36210 0.25700 0.85120 0.26700
C 	C 	0.52490 0.50700 0.59130 0.27500
C 	C 	0.05740 0.53130 0.49730 0.24700
