data_crystal

_cell_length_a 13.96900
_cell_length_b 42.43900
_cell_length_c 33.47000
_cell_angle_alpha 90.00000
_cell_angle_beta  90.00000
_cell_angle_gamma 90.00000

_symmetry_space_group_name_	'P 1'
_symmetry_space_group_name_H-M	'P 1'

loop_
_symmetry_equiv_pos_as_xyz
  x,y,z

loop_
_atom_site_label
_atom_site_type_symbol
_atom_site_fract_x
_atom_site_fract_y
_atom_site_fract_z
_atom_site_charge
Cd	Cd	0.46485 0.81723 0.80580 1.22700
Cd	Cd	0.19399 0.63744 0.30034 1.23500
Cd	Cd	0.96485 0.68277 0.30580 1.22800
Cd	Cd	0.69399 0.86256 0.80034 1.23700
Cd	Cd	0.53515 0.18277 0.30580 1.22800
Cd	Cd	0.91583 0.83897 0.75334 1.16300
Cd	Cd	0.30601 0.13744 0.30034 1.23700
Cd	Cd	0.08417 0.16103 0.25334 1.16300
Cd	Cd	0.58417 0.33897 0.75334 1.16300
Cd	Cd	0.41583 0.66103 0.25334 1.16300
Cd	Cd	0.80601 0.36256 0.80034 1.23600
Cd	Cd	0.03515 0.31723 0.80580 1.22900
H 	H 	0.71890 0.24950 0.21410 -0.02800
H 	H 	0.35020 0.36470 0.92630 0.11300
H 	H 	0.42420 0.45840 0.07060 0.28700
H 	H 	0.73720 0.05970 0.21070 0.08300
H 	H 	0.39300 0.43780 0.03400 0.28500
H 	H 	0.34480 0.03680 0.55890 0.25700
H 	H 	0.26280 0.94030 0.71070 0.08300
H 	H 	0.20300 0.65020 0.60010 0.25900
H 	H 	0.59200 0.85130 0.10670 0.25900
H 	H 	0.76280 0.55970 0.21070 0.08300
H 	H 	0.83080 0.60950 0.23090 0.00300
H 	H 	0.75700 0.92490 0.23800 0.29500
H 	H 	0.62090 0.29540 0.31260 0.00600
H 	H 	0.87910 0.79540 0.31260 0.00600
H 	H 	0.32380 0.32650 0.05570 0.29200
H 	H 	0.42120 0.24800 0.27710 -0.03600
H 	H 	0.10700 0.93780 0.03400 0.28400
H 	H 	0.57880 0.75200 0.77710 -0.03600
H 	H 	0.33850 0.10040 0.39760 -0.00000
H 	H 	0.59130 0.92280 0.71860 0.02200
H 	H 	0.33080 0.89050 0.73090 0.00200
H 	H 	0.41110 0.01750 0.58760 0.26700
H 	H 	0.51090 0.16940 0.44290 0.01300
H 	H 	0.16740 0.81300 0.09910 0.28700
H 	H 	0.79980 0.48720 0.08920 0.26800
H 	H 	0.82030 0.86380 0.92450 -0.01400
H 	H 	0.15520 0.53680 0.55890 0.25700
H 	H 	0.14980 0.86470 0.92630 0.11100
H 	H 	0.96910 0.47090 0.68780 0.08800
H 	H 	0.91110 0.48250 0.08760 0.26700
H 	H 	0.79540 0.29210 0.19720 0.09700
H 	H 	0.57520 0.67700 0.57560 0.28400
H 	H 	0.74090 0.51310 0.73570 0.13000
H 	H 	0.08890 0.51750 0.58760 0.26700
H 	H 	0.75910 0.01310 0.73570 0.13000
H 	H 	0.40800 0.14870 0.60670 0.25900
H 	H 	0.25910 0.48690 0.23570 0.13100
H 	H 	0.21890 0.25050 0.71410 -0.02800
H 	H 	0.78040 0.46700 0.76350 -0.05000
H 	H 	0.70300 0.84980 0.10010 0.25900
H 	H 	0.24480 0.91390 0.20360 0.25600
H 	H 	0.70460 0.79210 0.19720 0.09700
H 	H 	0.08620 0.03150 0.15580 0.15600
H 	H 	0.85020 0.13530 0.42630 0.11100
H 	H 	0.09130 0.57720 0.21860 0.02200
H 	H 	0.92120 0.25200 0.77710 -0.03700
H 	H 	0.80130 0.83930 0.28670 0.12500
H 	H 	0.63430 0.58930 0.71050 0.25600
H 	H 	0.23720 0.44030 0.71070 0.08300
H 	H 	0.09200 0.64870 0.60670 0.25800
H 	H 	0.58620 0.46850 0.65580 0.15600
H 	H 	0.14650 0.57030 0.74350 0.29000
H 	H 	0.18410 0.95640 0.05860 0.27900
H 	H 	0.53200 0.84840 0.00710 0.08600
H 	H 	0.36570 0.41070 0.21050 0.25700
H 	H 	0.37910 0.70460 0.81260 0.00600
H 	H 	0.24090 0.98690 0.23570 0.13000
H 	H 	0.29700 0.15020 0.60010 0.25900
H 	H 	0.13430 0.91070 0.21050 0.25600
H 	H 	0.57580 0.54160 0.57060 0.28600
H 	H 	0.10350 0.13180 0.48080 0.11200
H 	H 	0.16150 0.60040 0.39760 0.00000
H 	H 	0.82000 0.41880 0.96120 0.08900
H 	H 	0.41860 0.29620 0.24600 0.11900
H 	H 	0.17620 0.82650 0.05570 0.29100
H 	H 	0.58140 0.70380 0.74600 0.11900
H 	H 	0.79700 0.34980 0.10010 0.25900
H 	H 	0.16920 0.39050 0.73090 0.00300
H 	H 	0.33260 0.31300 0.09910 0.28800
H 	H 	0.69870 0.33930 0.28670 0.12500
H 	H 	0.28110 0.75050 0.71410 -0.02800
H 	H 	0.57550 0.64420 0.36790 -0.03100
H 	H 	0.64980 0.63530 0.42630 0.11200
H 	H 	0.01090 0.33060 0.94290 0.01400
H 	H 	0.98910 0.66940 0.44290 0.01500
H 	H 	0.71200 0.95840 0.23240 0.28700
H 	H 	0.81590 0.04360 0.55860 0.27700
H 	H 	0.66920 0.10950 0.23090 0.00200
H 	H 	0.20460 0.70790 0.69720 0.09700
H 	H 	0.29540 0.20790 0.69720 0.09700
H 	H 	0.60700 0.56220 0.53400 0.28300
H 	H 	0.34050 0.15860 0.64200 0.24700
H 	H 	0.85350 0.42970 0.24350 0.29000
H 	H 	0.67970 0.36380 0.92450 -0.01600
H 	H 	0.40870 0.07720 0.21860 0.02200
H 	H 	0.20020 0.51280 0.58920 0.26800
H 	H 	0.28040 0.03300 0.26350 -0.05000
H 	H 	0.65950 0.84140 0.14200 0.24700
H 	H 	0.11180 0.07760 0.19080 -0.07000
H 	H 	0.82380 0.17350 0.55570 0.29000
H 	H 	0.91860 0.20380 0.74600 0.11900
H 	H 	0.18480 0.26760 0.18420 0.11700
H 	H 	0.30000 0.38070 0.21240 0.25600
H 	H 	0.21200 0.54160 0.73240 0.28700
H 	H 	0.75520 0.08610 0.70360 0.25500
H 	H 	0.90870 0.42280 0.71860 0.02200
H 	H 	0.83260 0.18700 0.59910 0.28600
H 	H 	0.65520 0.96320 0.05890 0.25800
H 	H 	0.89300 0.06220 0.53400 0.28300
H 	H 	0.32000 0.08120 0.46120 0.09000
H 	H 	0.20000 0.88070 0.21240 0.25600
H 	H 	0.66740 0.68700 0.59910 0.28700
H 	H 	0.53090 0.97090 0.68780 0.08800
H 	H 	0.24300 0.07510 0.73800 0.29500
H 	H 	0.91380 0.96850 0.65580 0.15600
H 	H 	0.74300 0.42490 0.23800 0.29500
H 	H 	0.81530 0.77700 0.72020 -0.11300
H 	H 	0.48910 0.83060 0.94290 0.01100
H 	H 	0.70000 0.61930 0.71240 0.25600
H 	H 	0.08140 0.79620 0.24600 0.11900
H 	H 	0.39650 0.63180 0.48080 0.11400
H 	H 	0.15950 0.65860 0.64200 0.24700
H 	H 	0.46800 0.15160 0.50710 0.08200
H 	H 	0.90800 0.35130 0.10670 0.25800
H 	H 	0.31530 0.72300 0.22020 -0.11400
H 	H 	0.66150 0.89960 0.89760 -0.00000
H 	H 	0.28800 0.04160 0.73240 0.28700
H 	H 	0.67620 0.67350 0.55570 0.29000
H 	H 	0.92480 0.17700 0.57560 0.28300
H 	H 	0.68470 0.27700 0.72020 -0.11400
H 	H 	0.31590 0.45640 0.05860 0.27900
H 	H 	0.92420 0.04160 0.57060 0.28600
H 	H 	0.84050 0.34140 0.14200 0.24700
H 	H 	0.78800 0.45840 0.23240 0.28700
H 	H 	0.35350 0.07030 0.74350 0.29100
H 	H 	0.41380 0.53150 0.15580 0.15600
H 	H 	0.78110 0.74950 0.21410 -0.02800
H 	H 	0.19870 0.16070 0.78670 0.12500
H 	H 	0.81520 0.73240 0.68420 0.11700
H 	H 	0.71960 0.96700 0.76350 -0.05000
H 	H 	0.61180 0.42240 0.69080 -0.07000
H 	H 	0.18000 0.58120 0.46120 0.09000
H 	H 	0.84480 0.46320 0.05890 0.25800
H 	H 	0.68410 0.54360 0.55860 0.27800
H 	H 	0.42480 0.32300 0.07560 0.28500
H 	H 	0.70020 0.98720 0.08920 0.26800
H 	H 	0.31520 0.76760 0.18420 0.11700
H 	H 	0.64650 0.92970 0.24350 0.29100
H 	H 	0.74480 0.58610 0.70360 0.25500
H 	H 	0.80000 0.11930 0.71240 0.25500
H 	H 	0.07880 0.74800 0.27710 -0.03700
H 	H 	0.07550 0.85580 0.86790 -0.03000
H 	H 	0.96800 0.34840 0.00710 0.08500
H 	H 	0.46910 0.02910 0.18780 0.08800
H 	H 	0.07580 0.95840 0.07060 0.28700
H 	H 	0.60350 0.36820 0.98080 0.11400
H 	H 	0.38820 0.57760 0.19080 -0.07000
H 	H 	0.03200 0.65160 0.50710 0.08100
H 	H 	0.88820 0.92240 0.69080 -0.07000
H 	H 	0.25700 0.57510 0.73800 0.29400
H 	H 	0.25520 0.41390 0.20360 0.25600
H 	H 	0.29980 0.01280 0.58920 0.26800
H 	H 	0.07520 0.82300 0.07560 0.28400
H 	H 	0.12090 0.20460 0.81260 0.00600
H 	H 	0.42450 0.35580 0.86790 -0.03100
H 	H 	0.03090 0.52910 0.18780 0.08800
H 	H 	0.30130 0.66070 0.78670 0.12500
H 	H 	0.89650 0.86820 0.98080 0.11200
H 	H 	0.17970 0.13620 0.42450 -0.01300
H 	H 	0.21960 0.53300 0.26350 -0.05000
H 	H 	0.58890 0.98250 0.08760 0.26700
H 	H 	0.32030 0.63620 0.42450 -0.01500
H 	H 	0.18470 0.22300 0.22020 -0.11300
H 	H 	0.92450 0.14420 0.36790 -0.02900
H 	H 	0.68480 0.23240 0.68420 0.11700
H 	H 	0.68000 0.91880 0.96120 0.08900
H 	H 	0.86570 0.08930 0.71050 0.25600
H 	H 	0.83850 0.39960 0.89760 0.00000
C 	C 	0.74480 0.79270 0.21930 -0.27200
C 	C 	0.16230 0.60970 0.63200 0.31600
C 	C 	0.55220 0.85940 0.98460 -0.19000
C 	C 	0.14970 0.52780 0.58510 -0.80100
C 	C 	0.75520 0.29270 0.21930 -0.27200
C 	C 	0.26720 0.73770 0.22440 0.25600
C 	C 	0.41940 0.37590 0.99750 -0.19200
C 	C 	0.30970 0.55980 0.23240 -0.32000
C 	C 	0.72130 0.49420 0.72440 -0.34300
C 	C 	0.30160 0.23160 0.25170 -0.31800
C 	C 	0.50810 0.87470 0.74980 0.36900
C 	C 	0.18350 0.60320 0.67360 -0.30000
C 	C 	0.85700 0.40080 0.95730 -0.19900
C 	C 	0.19030 0.05980 0.23240 -0.32000
C 	C 	0.19440 0.70090 0.27090 0.44600
C 	C 	0.14060 0.48760 0.68140 -0.15700
C 	C 	0.53600 0.09740 0.22860 -0.15100
C 	C 	0.65800 0.98570 0.17060 0.09700
C 	C 	0.97430 0.42580 0.71580 0.06100
C 	C 	0.38680 0.63700 0.42480 0.16500
C 	C 	0.63770 0.58360 0.58790 0.38900
C 	C 	0.25520 0.20730 0.71930 -0.27200
C 	C 	0.83770 0.39030 0.13200 0.31600
C 	C 	0.32510 0.39530 0.15380 0.32100
C 	C 	0.10380 0.61300 0.48950 0.14700
C 	C 	0.69030 0.44020 0.73240 -0.32000
C 	C 	0.33240 0.47570 0.16130 -0.20500
C 	C 	0.69440 0.79910 0.77090 0.44600
C 	C 	0.16230 0.95190 0.14450 0.16500
C 	C 	0.69840 0.76840 0.75170 -0.31800
C 	C 	0.73210 0.23550 0.70330 -0.32200
C 	C 	0.70520 0.41170 0.75810 0.45900
C 	C 	0.80970 0.94020 0.73240 -0.32000
C 	C 	0.54840 0.85120 0.87240 0.38100
C 	C 	0.69680 0.87370 0.20000 0.14300
C 	C 	0.79960 0.82080 0.27180 -0.26100
C 	C 	0.82510 0.10470 0.65380 0.31900
C 	C 	0.81000 0.09930 0.69940 -0.77600
C 	C 	0.32630 0.50640 0.18670 0.26600
C 	C 	0.31330 0.07050 0.68520 0.39100
C 	C 	0.57220 0.86370 0.91350 -0.15300
C 	C 	0.12830 0.40700 0.72450 0.07600
C 	C 	0.36880 0.11010 0.41900 0.10000
C 	C 	0.58320 0.63590 0.42570 -0.25800
C 	C 	0.28720 0.73260 0.73000 0.15200
C 	C 	0.86880 0.38990 0.91900 0.09900
C 	C 	0.30560 0.20090 0.27090 0.44600
C 	C 	0.84700 0.79450 0.28830 0.11200
C 	C 	0.85030 0.47220 0.08510 -0.80200
C 	C 	0.23280 0.23770 0.22440 0.25600
C 	C 	0.96720 0.13140 0.46030 0.19300
C 	C 	0.33770 0.45190 0.14450 0.16600
C 	C 	0.79480 0.91170 0.75810 0.45900
C 	C 	0.49190 0.12530 0.24980 0.36900
C 	C 	0.34240 0.73430 0.76460 -0.16900
C 	C 	0.76790 0.73550 0.70330 -0.32200
C 	C 	0.82770 0.13600 0.63850 -0.30200
C 	C 	0.94780 0.35940 0.98460 -0.18700
C 	C 	0.82630 0.99360 0.68670 0.26600
C 	C 	0.05220 0.64060 0.48460 -0.18100
C 	C 	0.66760 0.52430 0.66130 -0.20500
C 	C 	0.86480 0.40680 0.06340 0.10000
C 	C 	0.41680 0.36410 0.92570 -0.26100
C 	C 	0.66230 0.89030 0.13200 0.31600
C 	C 	0.52960 0.84780 0.94650 0.08000
C 	C 	0.71280 0.26740 0.23000 0.15200
C 	C 	0.97040 0.34780 0.94650 0.07600
C 	C 	0.18370 0.83940 0.16380 0.13000
C 	C 	0.19940 0.78790 0.20940 0.20600
C 	C 	0.84240 0.76570 0.26460 -0.16900
C 	C 	0.99190 0.37470 0.74980 0.36700
C 	C 	0.87280 0.24720 0.75900 0.21100
C 	C 	0.18670 0.57050 0.68520 0.39000
C 	C 	0.39080 0.64820 0.34670 0.46400
C 	C 	0.23210 0.26450 0.20330 -0.32200
C 	C 	0.80320 0.37370 0.20000 0.14300
C 	C 	0.96400 0.59740 0.22860 -0.14800
C 	C 	0.30320 0.12630 0.70000 0.14300
C 	C 	0.56000 0.35750 0.88730 -0.21100
C 	C 	0.89080 0.53970 0.19550 0.14800
C 	C 	0.35940 0.98760 0.68140 -0.15800
C 	C 	0.17230 0.86400 0.13850 -0.30400
C 	C 	0.36230 0.41640 0.08790 0.39200
C 	C 	0.37860 0.10130 0.52990 -0.16500
C 	C 	0.68350 0.89680 0.17360 -0.30000
C 	C 	0.11320 0.13700 0.42480 0.16000
C 	C 	0.83210 0.45170 0.15790 -0.31700
C 	C 	0.12720 0.75280 0.25900 0.21100
C 	C 	0.43200 0.63330 0.45740 -0.26400
C 	C 	0.23640 0.03250 0.24260 0.26200
C 	C 	0.73280 0.26230 0.72440 0.25600
C 	C 	0.10920 0.14820 0.34670 0.46300
C 	C 	0.29480 0.58830 0.25810 0.45900
C 	C 	0.76360 0.96750 0.74260 0.26200
C 	C 	0.83240 0.02430 0.66130 -0.20400
C 	C 	0.71880 0.85030 0.22090 -0.19000
C 	C 	0.87170 0.59300 0.22450 0.07600
C 	C 	0.35960 0.55900 0.19970 0.27600
C 	C 	0.37170 0.90700 0.72450 0.07800
C 	C 	0.69000 0.59930 0.69940 -0.77700
C 	C 	0.32860 0.93710 0.71010 -0.18000
C 	C 	0.67230 0.63600 0.63850 -0.30300
C 	C 	0.94000 0.85750 0.88730 -0.20700
C 	C 	0.13770 0.91640 0.08790 0.39100
C 	C 	0.29960 0.67920 0.77180 -0.26200
C 	C 	0.87860 0.39870 0.02990 -0.16200
C 	C 	0.42780 0.13630 0.41350 -0.15200
C 	C 	0.34510 0.42180 0.12710 -0.32600
C 	C 	0.85940 0.51240 0.18140 -0.15700
C 	C 	0.14140 0.82780 0.08030 -0.88800
C 	C 	0.31630 0.33940 0.16380 0.13000
C 	C 	0.34260 0.05470 0.61720 0.32600
C 	C 	0.86700 0.11310 0.57230 -0.34100
C 	C 	0.62720 0.74720 0.75900 0.21100
C 	C 	0.68370 0.66060 0.66380 0.12900
C 	C 	0.62490 0.55500 0.56010 -0.88400
C 	C 	0.52570 0.92580 0.71580 0.06300
C 	C 	0.84510 0.07820 0.62710 -0.32400
C 	C 	0.81630 0.16060 0.66380 0.12900
C 	C 	0.64990 0.63920 0.59710 0.37400
C 	C 	0.14990 0.86080 0.09710 0.37500
C 	C 	0.45160 0.14880 0.37240 0.38000
C 	C 	0.93200 0.86670 0.95740 -0.26200
C 	C 	0.37510 0.44500 0.06010 -0.88800
C 	C 	0.24390 0.17810 0.73970 0.21500
C 	C 	0.36480 0.09320 0.56340 0.10200
C 	C 	0.53280 0.63140 0.46030 0.19800
C 	C 	0.44000 0.64250 0.38730 -0.21000
C 	C 	0.13300 0.88690 0.07230 -0.34500
C 	C 	0.61320 0.36300 0.92480 0.16700
C 	C 	0.74390 0.32190 0.23970 0.21500
C 	C 	0.39080 0.96030 0.69550 0.15000
C 	C 	0.03280 0.86860 0.96030 0.19700
C 	C 	0.70190 0.93620 0.22870 -0.91400
C 	C 	0.79810 0.43620 0.22870 -0.91300
C 	C 	0.46140 0.35870 0.89070 0.16000
C 	C 	0.08060 0.87590 0.99750 -0.19000
C 	C 	0.70040 0.32080 0.27180 -0.26100
C 	C 	0.26360 0.53250 0.24260 0.26200
C 	C 	0.39220 0.38050 0.03030 0.13400
C 	C 	0.29810 0.06380 0.72870 -0.91400
C 	C 	0.67370 0.49360 0.68670 0.26600
C 	C 	0.13520 0.59320 0.56340 0.10100
C 	C 	0.34500 0.08660 0.60380 -0.29000
C 	C 	0.65760 0.26570 0.26460 -0.16900
C 	C 	0.86230 0.08360 0.58790 0.38800
C 	C 	0.37270 0.28120 0.23970 -0.26800
C 	C 	0.31650 0.10320 0.67360 -0.30000
C 	C 	0.15740 0.55470 0.61720 0.32500
C 	C 	0.15300 0.20550 0.78830 0.11200
C 	C 	0.85960 0.94100 0.69970 0.27600
C 	C 	0.20520 0.08830 0.25810 0.45900
C 	C 	0.87210 0.96840 0.67740 -0.36800
C 	C 	0.13120 0.61010 0.41900 0.09800
C 	C 	0.35010 0.36080 0.09710 0.37600
C 	C 	0.63300 0.61310 0.57230 -0.34200
C 	C 	0.98880 0.54420 0.19750 -0.17300
C 	C 	0.95160 0.35120 0.87240 0.38000
C 	C 	0.19680 0.62630 0.70000 0.14300
C 	C 	0.34200 0.01430 0.67060 0.09700
C 	C 	0.84500 0.41340 0.10380 -0.28900
C 	C 	0.56800 0.36670 0.95740 -0.26800
C 	C 	0.28120 0.14970 0.72090 -0.19000
C 	C 	0.83770 0.04810 0.64450 0.16500
C 	C 	0.64040 0.44100 0.69970 0.27600
C 	C 	0.12490 0.94500 0.06010 -0.88700
C 	C 	0.63520 0.90680 0.06340 0.10100
C 	C 	0.69290 0.68450 0.68590 -0.19000
C 	C 	0.26790 0.76450 0.20330 -0.32200
C 	C 	0.47040 0.15220 0.44650 0.07700
C 	C 	0.76720 0.76230 0.72440 0.25600
C 	C 	0.25610 0.67810 0.73970 0.21600
C 	C 	0.35700 0.09920 0.45730 -0.20100
C 	C 	0.04840 0.64880 0.37240 0.38000
C 	C 	0.65490 0.57820 0.62710 -0.32500
C 	C 	0.65330 0.85470 0.11890 -0.77200
C 	C 	0.35860 0.32780 0.08030 -0.88900
C 	C 	0.30060 0.28790 0.20940 0.20600
C 	C 	0.16760 0.97570 0.16130 -0.20500
C 	C 	0.02570 0.57420 0.21580 0.06000
C 	C 	0.24480 0.70730 0.71930 -0.27300
C 	C 	0.68670 0.92950 0.18520 0.39100
C 	C 	0.92780 0.36370 0.91350 -0.15100
C 	C 	0.60380 0.88700 0.98950 0.14800
C 	C 	0.66790 0.95170 0.15790 -0.31800
C 	C 	0.06800 0.13330 0.45740 -0.25800
C 	C 	0.36700 0.38690 0.07230 -0.34600
C 	C 	0.64060 0.01240 0.18140 -0.15800
C 	C 	0.20190 0.56380 0.72870 -0.91300
C 	C 	0.19000 0.90070 0.19940 -0.77700
C 	C 	0.80060 0.21210 0.70940 0.20600
C 	C 	0.67140 0.06290 0.21010 -0.18000
C 	C 	0.44780 0.14060 0.48460 -0.18400
C 	C 	0.91940 0.12410 0.49750 -0.18200
C 	C 	0.15490 0.92180 0.12710 -0.32600
C 	C 	0.48880 0.95580 0.69750 -0.17500
C 	C 	0.12140 0.60130 0.52990 -0.16500
C 	C 	0.60920 0.35180 0.84670 0.46500
C 	C 	0.07220 0.63630 0.41350 -0.15000
C 	C 	0.12730 0.78120 0.23970 -0.26800
C 	C 	0.39010 0.76320 0.77920 0.30700
C 	C 	0.27870 0.50580 0.22440 -0.34300
C 	C 	0.15800 0.51430 0.67060 0.09600
C 	C 	0.03600 0.40260 0.72860 -0.14800
C 	C 	0.01120 0.45580 0.69750 -0.17300
C 	C 	0.14300 0.59920 0.45730 -0.19900
C 	C 	0.46400 0.90260 0.72860 -0.15100
C 	C 	0.66230 0.54810 0.64450 0.16500
C 	C 	0.35030 0.02780 0.58510 -0.80200
C 	C 	0.16790 0.54830 0.65790 -0.31700
C 	C 	0.21280 0.23260 0.73000 0.15200
C 	C 	0.14040 0.05900 0.19970 0.27600
C 	C 	0.87270 0.21880 0.73970 -0.26800
C 	C 	0.20040 0.17920 0.77180 -0.26100
C 	C 	0.17370 0.00640 0.18670 0.26600
C 	C 	0.65500 0.91340 0.10380 -0.28900
C 	C 	0.84200 0.48570 0.17060 0.09600
C 	C 	0.33210 0.04830 0.65790 -0.31800
C 	C 	0.67490 0.60470 0.65380 0.32000
C 	C 	0.10780 0.88050 0.03030 0.13300
C 	C 	0.39620 0.11300 0.48950 0.14900
C 	C 	0.22130 0.00580 0.22440 -0.34300
C 	C 	0.37280 0.25280 0.25900 0.21100
C 	C 	0.96140 0.14130 0.39070 0.15200
C 	C 	0.03860 0.85870 0.89070 0.15400
C 	C 	0.15330 0.64530 0.61890 -0.77100
C 	C 	0.19290 0.81550 0.18590 -0.19100
C 	C 	0.17490 0.89530 0.15380 0.32000
C 	C 	0.60780 0.61950 0.53030 0.12700
C 	C 	0.62790 0.46840 0.67740 -0.36800
C 	C 	0.77870 0.99420 0.72440 -0.34200
C 	C 	0.60920 0.03970 0.19550 0.15000
C 	C 	0.53860 0.64130 0.39070 0.15800
C 	C 	0.21880 0.64970 0.72090 -0.19000
C 	C 	0.88680 0.86300 0.92480 0.16200
C 	C 	0.69940 0.71210 0.70940 0.20600
C 	C 	0.62830 0.09300 0.22450 0.07800
C 	C 	0.64140 0.67220 0.58030 -0.88600
C 	C 	0.02960 0.65220 0.44650 0.07300
C 	C 	0.46720 0.36860 0.96030 0.20200
C 	C 	0.89010 0.73680 0.27920 0.30700
C 	C 	0.63120 0.88990 0.91900 0.10000
C 	C 	0.85860 0.17220 0.58030 -0.88500
C 	C 	0.31000 0.40070 0.19940 -0.77800
C 	C 	0.89620 0.38700 0.98950 0.14600
C 	C 	0.84670 0.35470 0.11890 -0.77100
C 	C 	0.64970 0.97220 0.08510 -0.80200
C 	C 	0.30710 0.31550 0.18590 -0.19000
C 	C 	0.00810 0.62530 0.24980 0.36600
C 	C 	0.65300 0.29450 0.28830 0.11200
C 	C 	0.34670 0.14530 0.61890 -0.77200
C 	C 	0.65740 0.94530 0.11720 0.32600
C 	C 	0.10990 0.26320 0.77920 0.30700
C 	C 	0.78720 0.76740 0.23000 0.15200
C 	C 	0.80710 0.18450 0.68590 -0.19000
C 	C 	0.81650 0.39680 0.17360 -0.30000
C 	C 	0.80160 0.26840 0.75170 -0.31900
C 	C 	0.80560 0.29910 0.77090 0.44600
C 	C 	0.62730 0.71880 0.73970 -0.26800
C 	C 	0.34700 0.70550 0.78830 0.11200
C 	C 	0.73640 0.46750 0.74260 0.26200
C 	C 	0.87510 0.05500 0.56010 -0.88400
C 	C 	0.08320 0.86410 0.92570 -0.25600
C 	C 	0.06000 0.14250 0.38730 -0.20500
C 	C 	0.82860 0.56290 0.21010 -0.17900
C 	C 	0.12790 0.03160 0.17740 -0.36800
C 	C 	0.37210 0.53160 0.17740 -0.36800
C 	C 	0.91680 0.13590 0.42570 -0.25300
C 	C 	0.78120 0.35030 0.22090 -0.19000
C 	C 	0.32770 0.36400 0.13850 -0.30400
C 	C 	0.51120 0.04420 0.19750 -0.17500
C 	C 	0.85010 0.13920 0.59710 0.37300
C 	C 	0.84260 0.44530 0.11720 0.32500
C 	C 	0.89220 0.11950 0.53030 0.12600
C 	C 	0.60990 0.23680 0.27920 0.30700
C 	C 	0.47430 0.07420 0.21580 0.06300
C 	C 	0.17140 0.43710 0.71010 -0.17900
C 	C 	0.19840 0.73160 0.25170 -0.31900
C 	C 	0.15760 0.23430 0.76460 -0.16900
C 	C 	0.62140 0.89870 0.02990 -0.16200
C 	C 	0.75610 0.82190 0.23970 0.21500
C 	C 	0.89080 0.85180 0.84670 0.46300
C 	C 	0.58060 0.62410 0.49750 -0.18400
C 	C 	0.33770 0.10970 0.63200 0.31700
C 	C 	0.15500 0.58660 0.60380 -0.29000
C 	C 	0.10920 0.46030 0.69550 0.14800
C 	C 	0.81330 0.42950 0.18520 0.39000
C 	C 	0.64300 0.90080 0.95730 -0.20100
O 	O 	0.94160 0.64400 0.26830 -0.44700
O 	O 	0.69790 0.35390 0.84910 -0.45900
O 	O 	0.60250 0.21440 0.25430 -0.37900
O 	O 	0.93990 0.84710 0.81780 -0.52800
O 	O 	0.56010 0.34710 0.81780 -0.52800
O 	O 	0.39750 0.78560 0.75430 -0.37900
O 	O 	0.75840 0.81980 0.76480 -0.55900
O 	O 	0.74160 0.31980 0.76480 -0.55900
O 	O 	0.05840 0.35600 0.76830 -0.44700
O 	O 	0.12990 0.69393 0.29690 -0.48500
O 	O 	0.92560 0.36820 0.84390 -0.46600
O 	O 	0.44160 0.85600 0.76830 -0.44800
O 	O 	0.59230 0.87020 0.74820 -0.44500
O 	O 	0.09230 0.62980 0.24820 -0.44400
O 	O 	0.00440 0.67420 0.36860 -0.43700
O 	O 	0.19790 0.14610 0.34910 -0.45800
O 	O 	0.43990 0.65290 0.31780 -0.52800
O 	O 	0.37010 0.19393 0.29690 -0.48400
O 	O 	0.49560 0.17420 0.36860 -0.43700
O 	O 	0.57440 0.86820 0.84390 -0.46600
O 	O 	0.24110 0.58760 0.28600 -0.45400
O 	O 	0.24160 0.18020 0.26480 -0.55900
O 	O 	0.42560 0.13180 0.34390 -0.46600
O 	O 	0.65600 0.38790 0.74540 -0.49900
O 	O 	0.89750 0.71440 0.25430 -0.37800
O 	O 	0.42410 0.76455 0.81440 -0.37600
O 	O 	0.06010 0.15290 0.31780 -0.52700
O 	O 	0.84400 0.88790 0.74540 -0.49900
O 	O 	0.75890 0.41240 0.78600 -0.45400
O 	O 	0.90770 0.37020 0.74820 -0.44400
O 	O 	0.25840 0.68020 0.26480 -0.55900
O 	O 	0.15600 0.11210 0.24540 -0.49900
O 	O 	0.10250 0.28560 0.75430 -0.37800
O 	O 	0.40770 0.12980 0.24820 -0.44500
O 	O 	0.80210 0.85390 0.84910 -0.45800
O 	O 	0.34400 0.61210 0.24540 -0.49900
O 	O 	0.87010 0.30607 0.79690 -0.48500
O 	O 	0.55840 0.14400 0.26830 -0.44800
O 	O 	0.57590 0.23545 0.31440 -0.37600
O 	O 	0.30210 0.64610 0.34910 -0.45900
O 	O 	0.07440 0.63180 0.34390 -0.46600
O 	O 	0.25890 0.08760 0.28600 -0.45400
O 	O 	0.07590 0.26455 0.81440 -0.37600
O 	O 	0.62990 0.80607 0.79690 -0.48400
O 	O 	0.74110 0.91240 0.78600 -0.45400
O 	O 	0.99560 0.32580 0.86860 -0.43700
O 	O 	0.50440 0.82580 0.86860 -0.43700
O 	O 	0.92410 0.73545 0.31440 -0.37500
Cd	Cd	0.92399 0.17917 0.99629 1.22300
Cd	Cd	0.35119 0.63521 0.98903 1.23400
Cd	Cd	0.57601 0.67917 0.99629 1.22300
Cd	Cd	0.12124 0.67100 0.02263 1.17200
Cd	Cd	0.14881 0.13521 0.98903 1.23400
Cd	Cd	0.37876 0.17100 0.02263 1.17200
Cd	Cd	0.87876 0.32900 0.52263 1.17200
Cd	Cd	0.64881 0.36479 0.48903 1.23500
Cd	Cd	0.07601 0.82083 0.49629 1.22400
Cd	Cd	0.42399 0.32083 0.49629 1.22400
Cd	Cd	0.62124 0.82900 0.52263 1.17200
Cd	Cd	0.85119 0.86479 0.48903 1.23500
H 	H 	0.58370 0.40670 0.04070 0.32100
H 	H 	0.81560 0.92060 0.05140 0.31800
H 	H 	0.59540 0.66930 0.85700 0.01700
H 	H 	0.42600 0.57560 0.04880 0.02300
H 	H 	0.61600 0.04300 0.71940 0.27600
H 	H 	0.57120 0.15330 0.84020 0.09700
H 	H 	0.05840 0.41360 0.06530 0.29000
H 	H 	0.74080 0.00230 0.57280 0.10400
H 	H 	0.55770 0.27870 0.05160 0.07000
H 	H 	0.44230 0.72130 0.55160 0.06900
H 	H 	0.02420 0.44310 0.23980 0.27300
H 	H 	0.43940 0.55080 0.72810 0.26400
H 	H 	0.90620 0.94240 0.05210 0.30900
H 	H 	0.49710 0.96530 0.61100 0.13100
H 	H 	0.03720 0.29590 0.02500 0.10600
H 	H 	0.46280 0.79590 0.02500 0.10500
H 	H 	0.80170 0.09420 0.07570 0.04000
H 	H 	0.25920 0.99770 0.07280 0.10400
H 	H 	0.21740 0.04720 0.04810 -0.02800
H 	H 	0.61150 0.40990 0.32050 0.08800
H 	H 	0.33130 0.91140 0.07360 0.28900
H 	H 	0.02210 0.67250 0.69740 0.32900
H 	H 	0.44340 0.52630 0.07680 0.06200
H 	H 	0.63640 0.23440 0.02300 -0.01100
H 	H 	0.47790 0.17250 0.69740 0.33300
H 	H 	0.16700 0.60850 0.80500 0.07900
H 	H 	0.38070 0.52860 0.69980 0.26800
H 	H 	0.52210 0.82750 0.19740 0.33300
H 	H 	0.16220 0.70990 0.48490 0.01500
H 	H 	0.38850 0.59010 0.82050 0.08800
H 	H 	0.95220 0.82850 0.14270 0.27200
H 	H 	0.78260 0.95280 0.54810 -0.02800
H 	H 	0.30170 0.40580 0.57570 0.04000
H 	H 	0.40460 0.33070 0.35700 0.01700
H 	H 	0.41610 0.59990 0.88760 0.00000
H 	H 	0.16870 0.41140 0.07360 0.28900
H 	H 	0.45220 0.67150 0.64270 0.27100
H 	H 	0.51610 0.33870 0.18570 0.27900
H 	H 	0.26300 0.72170 0.08200 -0.06300
H 	H 	0.37520 0.66670 0.67620 0.27800
H 	H 	0.97040 0.42050 0.57450 -0.05400
H 	H 	0.09540 0.83070 0.35700 0.01600
H 	H 	0.12480 0.16670 0.67620 0.27800
H 	H 	0.99480 0.33390 0.39930 -0.00100
H 	H 	0.38400 0.95700 0.21940 0.27600
H 	H 	0.52960 0.92050 0.57450 -0.05400
H 	H 	0.83300 0.39150 0.30500 0.07900
H 	H 	0.83130 0.58860 0.57360 0.28900
H 	H 	0.41630 0.59330 0.54070 0.31900
H 	H 	0.33300 0.10850 0.80500 0.08000
H 	H 	0.11150 0.09010 0.82050 0.08900
H 	H 	0.09380 0.05760 0.55210 0.30800
H 	H 	0.00760 0.03020 0.69620 0.27400
H 	H 	0.96280 0.70410 0.52500 0.10200
H 	H 	0.11930 0.02860 0.69980 0.26800
H 	H 	0.86360 0.73440 0.02300 -0.01000
H 	H 	0.28260 0.54720 0.04810 -0.02800
H 	H 	0.66870 0.08860 0.57360 0.28900
H 	H 	0.18440 0.07940 0.55140 0.31700
H 	H 	0.97790 0.32750 0.19740 0.32900
H 	H 	0.53720 0.20410 0.52500 0.10200
H 	H 	0.57410 0.18320 0.67750 0.33500
H 	H 	0.58680 0.65330 0.79000 0.08800
H 	H 	0.98390 0.83870 0.18570 0.28000
H 	H 	0.00290 0.46530 0.61100 0.13100
H 	H 	0.77010 0.33330 0.01580 0.10100
H 	H 	0.08370 0.09330 0.54070 0.32000
H 	H 	0.55370 0.25100 0.49450 -0.00300
H 	H 	0.44160 0.91360 0.06530 0.29000
H 	H 	0.92600 0.92440 0.54880 0.02200
H 	H 	0.07410 0.31680 0.17750 0.33300
H 	H 	0.91610 0.90010 0.38760 -0.00000
H 	H 	0.44630 0.74900 0.99450 -0.00900
H 	H 	0.89060 0.61940 0.56620 0.29200
H 	H 	0.36360 0.76560 0.52300 -0.01100
H 	H 	0.42880 0.84670 0.34020 0.09700
H 	H 	0.04780 0.17150 0.64270 0.27200
H 	H 	0.08390 0.09990 0.88760 -0.00100
H 	H 	0.49240 0.53020 0.69620 0.27400
H 	H 	0.49480 0.16610 0.89930 -0.00200
H 	H 	0.69830 0.59420 0.07570 0.04000
H 	H 	0.13640 0.26560 0.52300 -0.01100
H 	H 	0.47580 0.94310 0.23980 0.27300
H 	H 	0.10940 0.38060 0.06620 0.29300
H 	H 	0.08680 0.84670 0.29000 0.08800
H 	H 	0.92590 0.68320 0.67750 0.33200
H 	H 	0.55660 0.47370 0.57680 0.06200
H 	H 	0.61930 0.47140 0.19980 0.26800
H 	H 	0.31560 0.57940 0.55140 0.31700
H 	H 	0.56060 0.44920 0.22810 0.26400
H 	H 	0.24290 0.61830 0.86870 0.00900
H 	H 	0.94630 0.75100 0.49450 -0.00200
H 	H 	0.83780 0.29010 0.98490 0.01100
H 	H 	0.48390 0.66130 0.68570 0.27900
H 	H 	0.88850 0.90990 0.32050 0.08900
H 	H 	0.01440 0.46510 0.20240 0.28700
H 	H 	0.71740 0.45280 0.54810 -0.02800
H 	H 	0.73700 0.27830 0.58200 -0.06200
H 	H 	0.05660 0.02630 0.07680 0.06200
H 	H 	0.25710 0.11830 0.86870 0.00800
H 	H 	0.57400 0.42440 0.54880 0.02300
H 	H 	0.06060 0.05080 0.72810 0.26400
H 	H 	0.93940 0.94920 0.22810 0.26400
H 	H 	0.88400 0.54300 0.71940 0.27600
H 	H 	0.07430 0.33010 0.22120 0.33700
H 	H 	0.01610 0.16130 0.68570 0.28000
H 	H 	0.42570 0.83010 0.22120 0.34000
H 	H 	0.02960 0.57950 0.07450 -0.05400
H 	H 	0.57430 0.16990 0.72120 0.33900
H 	H 	0.76300 0.77830 0.58200 -0.06100
H 	H 	0.78200 0.72980 0.61030 0.09900
H 	H 	0.92880 0.65330 0.84020 0.09500
H 	H 	0.75710 0.38170 0.36870 0.00900
H 	H 	0.39060 0.88060 0.06620 0.29300
H 	H 	0.33780 0.20990 0.48490 0.01500
H 	H 	0.68440 0.42060 0.05140 0.31800
H 	H 	0.28200 0.77020 0.11030 0.10100
H 	H 	0.74290 0.88170 0.36870 0.00900
H 	H 	0.58390 0.40010 0.38760 0.00100
H 	H 	0.50760 0.46980 0.19620 0.27500
H 	H 	0.92570 0.66990 0.72120 0.33700
H 	H 	0.94340 0.97370 0.57680 0.06200
H 	H 	0.52420 0.05690 0.73980 0.27200
H 	H 	0.21800 0.27020 0.11030 0.10100
H 	H 	0.00520 0.66610 0.89930 -0.00100
H 	H 	0.27010 0.16670 0.51580 0.09900
H 	H 	0.55840 0.08640 0.56530 0.28900
H 	H 	0.50520 0.83390 0.39930 -0.00200
H 	H 	0.91320 0.15330 0.79000 0.08800
H 	H 	0.07400 0.07560 0.04880 0.02300
H 	H 	0.88070 0.97140 0.19980 0.26800
H 	H 	0.54780 0.32850 0.14270 0.27100
H 	H 	0.50290 0.03470 0.11100 0.13100
H 	H 	0.47040 0.07950 0.07450 -0.05300
H 	H 	0.59380 0.44240 0.05210 0.30900
H 	H 	0.51440 0.03490 0.70240 0.28700
H 	H 	0.24080 0.49770 0.07280 0.10400
H 	H 	0.99710 0.53470 0.11100 0.13100
H 	H 	0.94160 0.58640 0.56530 0.28900
H 	H 	0.98560 0.53490 0.70240 0.28700
H 	H 	0.66220 0.79010 0.98490 0.01100
H 	H 	0.94230 0.77870 0.05160 0.07000
H 	H 	0.41320 0.34670 0.29000 0.08700
H 	H 	0.05370 0.24900 0.99450 -0.00800
H 	H 	0.11600 0.45700 0.21940 0.27600
H 	H 	0.07120 0.34670 0.34020 0.09500
H 	H 	0.05770 0.22130 0.55160 0.06900
H 	H 	0.97580 0.55690 0.73980 0.27300
H 	H 	0.72990 0.83330 0.01580 0.10100
H 	H 	0.42590 0.81680 0.17750 0.33500
H 	H 	0.66700 0.89150 0.30500 0.08000
H 	H 	0.22990 0.66670 0.51580 0.09900
H 	H 	0.90460 0.16930 0.85700 0.01600
H 	H 	0.87520 0.83330 0.17620 0.27800
H 	H 	0.23700 0.22170 0.08200 -0.06300
H 	H 	0.75920 0.50230 0.57280 0.10400
H 	H 	0.40620 0.55760 0.55210 0.30700
H 	H 	0.62480 0.33330 0.17620 0.27800
H 	H 	0.48560 0.96510 0.20240 0.28700
H 	H 	0.60940 0.11940 0.56620 0.29200
H 	H 	0.19830 0.90580 0.57570 0.04000
H 	H 	0.99240 0.96980 0.19620 0.27500
H 	H 	0.71800 0.22980 0.61030 0.09900
H 	H 	0.91630 0.90670 0.04070 0.32100
C 	C 	0.92470 0.87600 0.15340 0.34900
C 	C 	0.44730 0.94910 0.21480 -0.86100
C 	C 	0.75060 0.75770 0.00510 -0.14200
C 	C 	0.11780 0.21880 0.54010 -0.19000
C 	C 	0.08310 0.42460 0.14720 -0.35300
C 	C 	0.35290 0.72730 0.03620 -0.26200
C 	C 	0.99090 0.64640 0.84520 -0.19300
C 	C 	0.71620 0.78720 0.00070 0.09700
C 	C 	0.27730 0.04390 0.05950 0.17900
C 	C 	0.55270 0.05090 0.71480 -0.86100
C 	C 	0.91690 0.57540 0.64720 -0.35200
C 	C 	0.68120 0.87470 0.36320 0.08400
C 	C 	0.85010 0.80250 0.51660 0.41400
C 	C 	0.50020 0.87800 0.27870 -0.16300
C 	C 	0.93500 0.84070 0.16570 -0.83200
C 	C 	0.98510 0.93120 0.55830 0.02100
C 	C 	0.43240 0.60040 0.68230 -0.31800
C 	C 	0.49090 0.85360 0.34520 -0.19900
C 	C 	0.81880 0.37470 0.36320 0.08200
C 	C 	0.96330 0.34660 0.38080 0.09900
C 	C 	0.00500 0.86430 0.37940 -0.15600
C 	C 	0.33060 0.14920 0.92930 0.39700
C 	C 	0.43500 0.65930 0.66570 -0.83100
C 	C 	0.66940 0.85080 0.42930 0.39700
C 	C 	0.41180 0.61670 0.61160 -0.32500
C 	C 	0.41830 0.47070 0.58840 0.05400
C 	C 	0.40560 0.84010 0.11370 0.11900
C 	C 	0.28380 0.21280 0.50070 0.09000
C 	C 	0.11600 0.51060 0.09630 0.22600
C 	C 	0.93450 0.08770 0.05630 -0.08900
C 	C 	0.54120 0.87140 0.31710 0.15300
C 	C 	0.58990 0.47050 0.11720 0.09100
C 	C 	0.05950 0.36360 0.17960 0.48700
C 	C 	0.69910 0.98540 0.57590 -0.26700
C 	C 	0.40350 0.98170 0.11770 -0.19600
C 	C 	0.43560 0.54220 0.70170 -0.83100
C 	C 	0.03670 0.65340 0.88080 0.09900
C 	C 	0.87210 0.35770 0.39030 -0.17500
C 	C 	0.91830 0.02930 0.08840 0.05400
C 	C 	0.55660 0.65250 0.84970 0.08400
C 	C 	0.68180 0.23470 0.58780 -0.26300
C 	C 	0.41690 0.92460 0.14720 -0.35300
C 	C 	0.62790 0.85770 0.39030 -0.17800
C 	C 	0.91180 0.88330 0.11160 -0.32600
C 	C 	0.05410 0.53610 0.09680 -0.30400
C 	C 	0.62690 0.33650 0.06170 -0.17800
C 	C 	0.58820 0.38330 0.11160 -0.32600
C 	C 	0.60800 0.09870 0.57780 -0.89000
C 	C 	0.31820 0.76530 0.08780 -0.26800
C 	C 	0.57530 0.37600 0.15340 0.34900
C 	C 	0.48350 0.62060 0.80040 0.14100
C 	C 	0.74940 0.25770 0.00510 -0.14200
C 	C 	0.94050 0.63640 0.67960 0.48700
C 	C 	0.42500 0.78040 0.03690 -0.23200
C 	C 	0.90970 0.93830 0.12930 -0.28900
C 	C 	0.38220 0.71880 0.54010 -0.19000
C 	C 	0.38400 0.01060 0.09630 0.22500
C 	C 	0.07360 0.06910 0.67110 0.34100
C 	C 	0.96120 0.88460 0.25430 -0.16000
C 	C 	0.83060 0.35080 0.42930 0.39600
C 	C 	0.90990 0.54460 0.63110 0.15900
C 	C 	0.65470 0.93130 0.56030 -0.29900
C 	C 	0.66060 0.31070 0.04030 0.16300
C 	C 	0.92380 0.43610 0.57620 0.25400
C 	C 	0.17950 0.59860 0.03810 0.50400
C 	C 	0.82050 0.40140 0.53810 0.50400
C 	C 	0.00910 0.35360 0.34520 -0.19300
C 	C 	0.44050 0.86360 0.17960 0.49000
C 	C 	0.44970 0.60740 0.72140 0.12900
C 	C 	0.32050 0.09860 0.03810 0.50400
C 	C 	0.90910 0.99700 0.10700 -0.12200
C 	C 	0.53670 0.84660 0.38080 0.10400
C 	C 	0.04930 0.85610 0.30960 -0.18600
C 	C 	0.85290 0.77270 0.53620 -0.25600
C 	C 	0.91010 0.97050 0.11720 0.09100
C 	C 	0.55030 0.39260 0.22140 0.12900
C 	C 	0.59010 0.04460 0.63110 0.15900
C 	C 	0.72270 0.95610 0.55950 0.17900
C 	C 	0.80520 0.76410 0.57030 0.15500
C 	C 	0.93560 0.95780 0.20170 -0.83200
C 	C 	0.34530 0.06870 0.06030 -0.29800
C 	C 	0.08840 0.39880 0.12230 0.39700
C 	C 	0.69480 0.26410 0.57030 0.15500
C 	C 	0.13340 0.61920 0.82480 -0.17900
C 	C 	0.69440 0.72930 0.99680 0.27000
C 	C 	0.58520 0.24730 0.51850 0.11300
C 	C 	0.33460 0.74580 0.52230 0.07500
C 	C 	0.39100 0.64180 0.58520 0.11900
C 	C 	0.57860 0.13250 0.63940 -0.36100
C 	C 	0.94190 0.58000 0.68700 0.37600
C 	C 	0.38010 0.78720 0.07410 0.18400
C 	C 	0.19440 0.77070 0.49680 0.27200
C 	C 	0.58310 0.07540 0.64720 -0.35200
C 	C 	0.83940 0.81070 0.04030 0.16300
C 	C 	0.94590 0.46390 0.59680 -0.30500
C 	C 	0.09030 0.06170 0.62930 -0.28900
C 	C 	0.40990 0.95540 0.13110 0.15900
C 	C 	0.92140 0.63250 0.63940 -0.35900
C 	C 	0.19910 0.51460 0.07590 -0.26700
C 	C 	0.80560 0.22930 0.99680 0.27000
C 	C 	0.06550 0.91230 0.55630 -0.08900
C 	C 	0.21620 0.71280 0.50070 0.09000
C 	C 	0.54930 0.64390 0.80960 -0.18300
C 	C 	0.07620 0.56390 0.07620 0.25300
C 	C 	0.94340 0.15250 0.84970 0.08600
C 	C 	0.95170 0.61080 0.70350 -0.37200
C 	C 	0.81820 0.73470 0.58780 -0.26300
C 	C 	0.47480 0.88580 0.24560 0.12600
C 	C 	0.42470 0.62400 0.65340 0.34800
C 	C 	0.41480 0.75270 0.01850 0.12400
C 	C 	0.07500 0.28040 0.03690 -0.23200
C 	C 	0.16940 0.64920 0.92930 0.39600
C 	C 	0.64840 0.57970 0.07620 -0.01400
C 	C 	0.88890 0.68370 0.59430 -0.18400
C 	C 	0.84530 0.43130 0.56030 -0.29900
C 	C 	0.05660 0.84750 0.34970 0.08600
C 	C 	0.42380 0.06390 0.07620 0.25300
C 	C 	0.04120 0.62860 0.81710 0.14900
C 	C 	0.41010 0.52950 0.61720 0.09100
C 	C 	0.55300 0.38810 0.36820 0.10100
C 	C 	0.61720 0.42150 0.05720 -0.98100
C 	C 	0.55410 0.96390 0.59680 -0.30400
C 	C 	0.61600 0.98940 0.59630 0.22600
C 	C 	0.44190 0.92000 0.18700 0.37600
C 	C 	0.89850 0.91360 0.09960 0.41500
C 	C 	0.50910 0.14640 0.84520 -0.19900
C 	C 	0.95480 0.66820 0.69530 -1.04700
C 	C 	0.14840 0.92030 0.57620 -0.01300
C 	C 	0.59030 0.43830 0.12930 -0.28900
C 	C 	0.58170 0.52930 0.08840 0.05400
C 	C 	0.00370 0.03950 0.07480 -0.12100
C 	C 	0.49980 0.12200 0.77870 -0.16300
C 	C 	0.56550 0.58770 0.05630 -0.08800
C 	C 	0.40910 0.50300 0.60700 -0.12200
C 	C 	0.63340 0.88080 0.32480 -0.18100
C 	C 	0.61990 0.21280 0.57410 0.18000
C 	C 	0.61110 0.18370 0.59430 -0.18400
C 	C 	0.55650 0.62250 0.03550 0.36600
C 	C 	0.42140 0.86750 0.13940 -0.36200
C 	C 	0.83660 0.05240 0.09650 -0.04500
C 	C 	0.66540 0.25420 0.02230 0.07600
C 	C 	0.30560 0.27070 0.49680 0.27200
C 	C 	0.05270 0.44910 0.21480 -0.86100
C 	C 	0.56500 0.34070 0.16570 -0.83100
C 	C 	0.44350 0.37750 0.53550 0.36600
C 	C 	0.60150 0.41360 0.09960 0.41400
C 	C 	0.90560 0.65990 0.61370 0.11700
C 	C 	0.54830 0.11080 0.70350 -0.37300
C 	C 	0.54520 0.16820 0.69530 -1.05700
C 	C 	0.51280 0.64480 0.92680 0.49200
C 	C 	0.49630 0.53950 0.07480 -0.12200
C 	C 	0.18180 0.26530 0.08780 -0.26700
C 	C 	0.51490 0.43120 0.55830 0.01900
C 	C 	0.75830 0.81360 0.01870 -0.20900
C 	C 	0.08820 0.11670 0.61160 -0.32500
C 	C 	0.22270 0.54390 0.05950 0.18000
C 	C 	0.83460 0.75420 0.02230 0.07600
C 	C 	0.56700 0.39480 0.32810 -0.20100
C 	C 	0.46330 0.15340 0.88080 0.10400
C 	C 	0.94730 0.55090 0.71480 -0.86100
C 	C 	0.88280 0.92150 0.05720 -0.98100
C 	C 	0.16340 0.94760 0.59650 -0.04500
C 	C 	0.01650 0.12060 0.80040 0.14400
C 	C 	0.98350 0.87940 0.30040 0.14400
C 	C 	0.14710 0.22730 0.03620 -0.26200
C 	C 	0.80090 0.48540 0.57590 -0.26700
C 	C 	0.35160 0.42030 0.57620 -0.01400
C 	C 	0.50370 0.46050 0.57480 -0.12200
C 	C 	0.25830 0.68640 0.51870 -0.20500
C 	C 	0.11720 0.07850 0.55720 -0.97800
C 	C 	0.03880 0.11540 0.75430 -0.16000
C 	C 	0.04830 0.38920 0.20350 -0.37200
C 	C 	0.24170 0.18640 0.51870 -0.20400
C 	C 	0.64990 0.30250 0.51660 0.41400
C 	C 	0.05810 0.42000 0.18700 0.37600
C 	C 	0.33660 0.44760 0.59650 -0.04500
C 	C 	0.00020 0.62200 0.77870 -0.16400
C 	C 	0.11110 0.31630 0.09430 -0.18600
C 	C 	0.55810 0.08000 0.68700 0.37600
C 	C 	0.46120 0.61540 0.75430 -0.15900
C 	C 	0.98720 0.14480 0.92680 0.49100
C 	C 	0.39850 0.58640 0.59960 0.41300
C 	C 	0.89100 0.85820 0.08520 0.12000
C 	C 	0.60900 0.35820 0.08520 0.12000
C 	C 	0.04520 0.33180 0.19530 -1.04800
C 	C 	0.45880 0.12860 0.81710 0.15300
C 	C 	0.57500 0.21960 0.53690 -0.22500
C 	C 	0.45480 0.83180 0.19530 -1.05700
C 	C 	0.45170 0.88920 0.20350 -0.37300
C 	C 	0.57360 0.43090 0.17110 0.34100
C 	C 	0.09440 0.34010 0.11370 0.11800
C 	C 	0.42640 0.56910 0.67110 0.34100
C 	C 	0.12690 0.16350 0.56170 -0.17700
C 	C 	0.74170 0.31360 0.01870 -0.20900
C 	C 	0.92500 0.71960 0.53690 -0.22400
C 	C 	0.52520 0.11420 0.74560 0.12500
C 	C 	0.55950 0.13640 0.67960 0.48900
C 	C 	0.08170 0.97070 0.58840 0.05300
C 	C 	0.56760 0.39960 0.18230 -0.31800
C 	C 	0.16540 0.24580 0.52230 0.07500
C 	C 	0.06500 0.15930 0.66570 -0.83200
C 	C 	0.85160 0.07970 0.07620 -0.01300
C 	C 	0.35010 0.69750 0.01660 0.42000
C 	C 	0.44590 0.03610 0.09680 -0.30400
C 	C 	0.90350 0.51830 0.61770 -0.19600
C 	C 	0.07530 0.12400 0.65340 0.34900
C 	C 	0.51650 0.37940 0.30040 0.14000
C 	C 	0.08520 0.25270 0.01850 0.12400
C 	C 	0.10900 0.14180 0.58520 0.11900
C 	C 	0.43300 0.60520 0.82810 -0.20100
C 	C 	0.01490 0.06880 0.05830 0.02100
C 	C 	0.02520 0.38580 0.24560 0.12700
C 	C 	0.93300 0.89480 0.32810 -0.20400
C 	C 	0.01280 0.85520 0.42680 0.49000
C 	C 	0.09650 0.48170 0.11770 -0.19600
C 	C 	0.05650 0.87750 0.53550 0.36400
C 	C 	0.88010 0.71280 0.57410 0.18000
C 	C 	0.48510 0.56880 0.05830 0.01900
C 	C 	0.44700 0.61190 0.86820 0.10100
C 	C 	0.09090 0.00300 0.60700 -0.12200
C 	C 	0.66340 0.55240 0.09650 -0.04500
C 	C 	0.40970 0.56170 0.62930 -0.28900
C 	C 	0.31880 0.12530 0.86320 0.08400
C 	C 	0.11990 0.28720 0.07410 0.18400
C 	C 	0.30090 0.01460 0.07590 -0.26600
C 	C 	0.56440 0.45780 0.20170 -0.83200
C 	C 	0.94350 0.12250 0.03550 0.36400
C 	C 	0.53880 0.38460 0.25430 -0.15900
C 	C 	0.88220 0.78120 0.04010 -0.19100
C 	C 	0.05030 0.10740 0.72140 0.13000
C 	C 	0.94700 0.88810 0.36820 0.10500
C 	C 	0.38890 0.81630 0.09430 -0.18600
C 	C 	0.89200 0.59870 0.57780 -0.89000
C 	C 	0.38280 0.57850 0.55720 -0.97800
C 	C 	0.33940 0.68930 0.54030 0.16100
C 	C 	0.87310 0.83650 0.06170 -0.17700
C 	C 	0.37210 0.14230 0.89030 -0.17800
C 	C 	0.77730 0.45610 0.55950 0.18000
C 	C 	0.30520 0.73590 0.07030 0.16000
C 	C 	0.92640 0.93090 0.17110 0.34200
C 	C 	0.06700 0.10520 0.82810 -0.20400
C 	C 	0.19480 0.23590 0.07030 0.16000
C 	C 	0.44340 0.34750 0.34970 0.08400
C 	C 	0.64710 0.27270 0.53620 -0.25700
C 	C 	0.15470 0.56870 0.06030 -0.29800
C 	C 	0.59650 0.01830 0.61770 -0.19600
C 	C 	0.99980 0.37800 0.27870 -0.16400
C 	C 	0.95880 0.37140 0.31710 0.15000
C 	C 	0.09010 0.45540 0.13110 0.15900
C 	C 	0.49500 0.36430 0.37940 -0.15300
C 	C 	0.97480 0.61420 0.74560 0.12700
C 	C 	0.86660 0.38080 0.32480 -0.17900
C 	C 	0.39200 0.90130 0.07780 -0.89100
C 	C 	0.91480 0.74730 0.51850 0.11300
C 	C 	0.37310 0.66350 0.56170 -0.17700
C 	C 	0.58840 0.10120 0.62230 0.39600
C 	C 	0.67950 0.90140 0.53810 0.50400
C 	C 	0.94970 0.89260 0.22140 0.13000
C 	C 	0.16060 0.18930 0.54030 0.16100
C 	C 	0.24940 0.24230 0.50510 -0.14200
C 	C 	0.57620 0.93610 0.57620 0.25300
C 	C 	0.48720 0.35520 0.42680 0.49100
C 	C 	0.88400 0.48940 0.59630 0.22600
C 	C 	0.10150 0.08640 0.59960 0.41400
C 	C 	0.95070 0.14390 0.80960 -0.18600
C 	C 	0.91160 0.60120 0.62230 0.39600
C 	C 	0.12790 0.64230 0.89030 -0.17600
C 	C 	0.45070 0.35610 0.30960 -0.18200
C 	C 	0.93240 0.89960 0.18230 -0.31900
C 	C 	0.99500 0.13570 0.87940 -0.15600
C 	C 	0.99630 0.96050 0.57480 -0.12100
C 	C 	0.14990 0.19750 0.01660 0.42000
C 	C 	0.06440 0.04220 0.70170 -0.83100
C 	C 	0.18120 0.62530 0.86320 0.08200
C 	C 	0.59440 0.15990 0.61370 0.11700
C 	C 	0.25060 0.74230 0.50510 -0.14200
C 	C 	0.10800 0.40130 0.07780 -0.89100
C 	C 	0.61780 0.28120 0.04010 -0.19100
C 	C 	0.59090 0.49700 0.10700 -0.12200
C 	C 	0.50500 0.63570 0.87940 -0.15300
C 	C 	0.05300 0.11190 0.86820 0.10500
C 	C 	0.07860 0.36750 0.13940 -0.36000
C 	C 	0.08990 0.02950 0.61720 0.09100
C 	C 	0.41160 0.89880 0.12230 0.39700
C 	C 	0.06760 0.10040 0.68230 -0.31900
C 	C 	0.43450 0.41230 0.55630 -0.08800
C 	C 	0.36660 0.11920 0.82480 -0.18100
C 	C 	0.78380 0.28720 0.00070 0.09700
O 	O 	0.25290 0.63940 0.93550 -0.44200
O 	O 	0.93260 0.16410 0.93330 -0.49300
O 	O 	0.56740 0.66410 0.93330 -0.49300
O 	O 	0.75290 0.86060 0.43550 -0.44100
O 	O 	0.37070 0.36450 0.52550 -0.44300
O 	O 	0.73230 0.70170 0.99920 -0.36800
O 	O 	0.62930 0.63550 0.02550 -0.44100
O 	O 	0.24070 0.09980 0.02230 -0.48300
O 	O 	0.12930 0.86450 0.52550 -0.44200
O 	O 	0.61900 0.83620 0.45590 -0.47000
O 	O 	0.97130 0.87350 0.44800 -0.50500
O 	O 	0.61510 0.73380 0.97880 -0.34200
O 	O 	0.88490 0.23380 0.97880 -0.34300
O 	O 	0.59120 0.31055 0.49140 -0.52300
O 	O 	0.74710 0.36060 0.43550 -0.44100
O 	O 	0.62460 0.87940 0.54180 -0.52100
O 	O 	0.26770 0.29830 0.49920 -0.36700
O 	O 	0.47460 0.63380 0.03440 -0.48100
O 	O 	0.43260 0.33590 0.43330 -0.49200
O 	O 	0.21510 0.17782 0.02920 -0.54600
O 	O 	0.90880 0.81055 0.49140 -0.52200
O 	O 	0.76770 0.20170 0.99920 -0.36800
O 	O 	0.88100 0.33620 0.45590 -0.47000
O 	O 	0.38490 0.26620 0.47880 -0.34200
O 	O 	0.87540 0.37940 0.54180 -0.52100
O 	O 	0.02540 0.13380 0.03440 -0.48000
O 	O 	0.87070 0.13550 0.02550 -0.44100
O 	O 	0.71510 0.32218 0.52920 -0.54500
O 	O 	0.24710 0.13940 0.93550 -0.44200
O 	O 	0.28490 0.67782 0.02920 -0.54600
O 	O 	0.06740 0.83590 0.43330 -0.49200
O 	O 	0.02870 0.12650 0.94800 -0.50600
O 	O 	0.12460 0.62060 0.04180 -0.52000
O 	O 	0.25930 0.59980 0.02230 -0.48300
O 	O 	0.78490 0.82218 0.52920 -0.54500
O 	O 	0.11510 0.76620 0.47880 -0.34300
O 	O 	0.52540 0.36620 0.53440 -0.48200
O 	O 	0.75930 0.90020 0.52230 -0.48400
O 	O 	0.74070 0.40020 0.52230 -0.48400
O 	O 	0.97460 0.86620 0.53440 -0.48100
O 	O 	0.47130 0.62650 0.94800 -0.50800
O 	O 	0.52870 0.37350 0.44800 -0.50700
O 	O 	0.11900 0.66380 0.95590 -0.47100
O 	O 	0.38100 0.16380 0.95590 -0.47100
O 	O 	0.09120 0.18945 0.99140 -0.52600
O 	O 	0.40880 0.68945 0.99140 -0.52700
O 	O 	0.37540 0.12060 0.04180 -0.52000
O 	O 	0.23230 0.79830 0.49920 -0.36700
