data_crystal

_cell_length_a 28.83300
_cell_length_b 41.68700
_cell_length_c 30.56100
_cell_angle_alpha 90.00000
_cell_angle_beta  90.00000
_cell_angle_gamma 90.00000

_symmetry_space_group_name_	'P 1'
_symmetry_space_group_name_H-M	'P 1'

loop_
_symmetry_equiv_pos_as_xyz
  x,y,z

loop_
_atom_site_label
_atom_site_type_symbol
_atom_site_fract_x
_atom_site_fract_y
_atom_site_fract_z
_atom_site_charge
Zn	Zn	0.56934 0.85402 0.83102 1.22500
Zn	Zn	0.48159 0.85205 0.88989 1.21300
Zn	Zn	0.51554 0.63621 0.32286 1.23500
Zn	Zn	0.50380 0.91241 0.83133 1.22800
Zn	Zn	0.47853 0.59247 0.23439 1.23700
Zn	Zn	0.46905 0.84815 0.78641 1.20600
H 	H 	0.68560 0.90270 0.77410 0.04100
H 	H 	0.73860 0.93630 0.73990 0.07900
H 	H 	0.63410 0.98130 0.67830 0.08600
H 	H 	0.58110 0.94780 0.71250 0.04000
H 	H 	0.75770 0.99990 0.72840 0.04600
H 	H 	0.74430 0.00340 0.43710 0.05000
H 	H 	0.66750 0.00710 0.41860 0.06300
H 	H 	0.60750 0.03440 0.38420 0.05000
H 	H 	0.61260 0.10260 0.47690 0.05300
H 	H 	0.67250 0.07540 0.51130 0.06300
H 	H 	0.54750 0.64750 0.14760 0.02000
H 	H 	0.59540 0.67230 0.09690 0.09100
H 	H 	0.66960 0.71120 0.19480 0.09700
H 	H 	0.62160 0.68640 0.24550 0.02600
H 	H 	0.61080 0.72830 0.07600 0.04400
H 	H 	0.41700 0.76550 0.91560 0.04600
H 	H 	0.38430 0.71500 0.92400 0.06900
H 	H 	0.33830 0.71820 0.80000 0.07000
H 	H 	0.37100 0.76870 0.79160 0.04400
H 	H 	0.27450 0.69010 0.83950 0.04600
H 	H 	0.43620 0.53180 0.95960 0.05000
H 	H 	0.81740 0.07640 0.66070 0.06800
H 	H 	0.87390 0.10550 0.69750 0.04500
H 	H 	0.89580 0.03060 0.77770 0.04300
H 	H 	0.83930 0.00150 0.74090 0.06900
H 	H 	0.85470 0.01400 0.44150 0.07500
H 	H 	0.91240 0.98940 0.40050 0.04100
H 	H 	0.85630 0.90320 0.42640 0.04300
H 	H 	0.79870 0.92780 0.46740 0.08100
H 	H 	0.97460 0.80340 0.16450 0.04100
H 	H 	0.93540 0.77530 0.11040 0.07000
H 	H 	0.83700 0.75100 0.19740 0.07100
H 	H 	0.87620 0.77910 0.25150 0.04100
H 	H 	0.91490 0.73430 0.07690 0.04200
H 	H 	0.68920 0.76080 0.96130 0.07100
H 	H 	0.64830 0.79070 0.91020 0.04100
H 	H 	0.54730 0.80560 0.99850 0.04300
H 	H 	0.58820 0.77570 0.04960 0.06900
H 	H 	0.19540 0.67830 0.87150 0.08700
H 	H 	0.11980 0.67100 0.84750 0.02600
H 	H 	0.15890 0.59150 0.78300 0.02700
H 	H 	0.23450 0.59880 0.80710 0.09800
H 	H 	0.46530 0.49750 0.78370 0.03500
H 	H 	0.43690 0.54190 0.82090 0.08100
H 	H 	0.41240 0.48690 0.92630 0.08600
H 	H 	0.44080 0.44250 0.88920 0.03000
H 	H 	0.85800 0.72150 0.96330 0.08500
H 	H 	0.90640 0.69760 0.91210 0.01900
H 	H 	0.96710 0.64640 0.00770 0.02600
H 	H 	0.91870 0.67030 0.05880 0.09600
H 	H 	0.00950 0.62060 0.91150 0.23500
H 	H 	0.36510 0.59410 0.04480 0.06700
H 	H 	0.39640 0.59080 0.11560 0.05100
H 	H 	0.52020 0.55170 0.07500 0.05400
H 	H 	0.48870 0.56000 0.00470 0.06300
H 	H 	0.53170 0.57800 0.17430 0.20800
C 	C 	0.62810 0.92190 0.74670 -0.06800
C 	C 	0.67530 0.91850 0.75490 0.03100
C 	C 	0.70700 0.93860 0.73440 -0.12300
C 	C 	0.69160 0.96220 0.70570 0.09800
C 	C 	0.64440 0.96560 0.69750 -0.11700
C 	C 	0.61270 0.94550 0.71800 0.03000
C 	C 	0.72300 0.98100 0.67690 -0.06700
C 	C 	0.72010 0.98120 0.63150 0.14900
C 	C 	0.75000 0.00040 0.60720 -0.03000
C 	C 	0.78270 0.01940 0.62830 -0.02000
C 	C 	0.78560 0.01920 0.67370 -0.01300
C 	C 	0.75580 0.00000 0.69800 -0.03600
C 	C 	0.75120 0.00190 0.55830 -0.02300
C 	C 	0.78440 0.98600 0.53350 0.13500
C 	C 	0.78180 0.98660 0.48810 -0.06000
C 	C 	0.74600 0.00300 0.46750 -0.04700
C 	C 	0.71280 0.01890 0.49230 -0.00200
C 	C 	0.71540 0.01840 0.53770 -0.04000
C 	C 	0.67590 0.03860 0.46840 0.04300
C 	C 	0.65650 0.02629 0.43030 -0.08700
C 	C 	0.62060 0.04260 0.40970 -0.00500
C 	C 	0.60410 0.07120 0.42710 -0.04200
C 	C 	0.62360 0.08350 0.46520 -0.00600
C 	C 	0.65950 0.06720 0.48580 -0.08700
C 	C 	0.57980 0.66450 0.20160 -0.11800
C 	C 	0.57190 0.66020 0.15710 0.06500
C 	C 	0.60070 0.67510 0.12670 -0.15300
C 	C 	0.63720 0.69420 0.14080 0.12400
C 	C 	0.64510 0.69842 0.18530 -0.14500
C 	C 	0.61640 0.68350 0.21570 0.06100
C 	C 	0.66590 0.71100 0.10930 -0.07300
C 	C 	0.64300 0.72840 0.07710 -0.03300
C 	C 	0.66830 0.74600 0.04670 -0.01100
C 	C 	0.71640 0.74610 0.04840 -0.01900
C 	C 	0.73940 0.72860 0.08050 -0.02900
C 	C 	0.71410 0.71110 0.11100 0.14700
C 	C 	0.39720 0.77206 0.85280 -0.06500
C 	C 	0.40120 0.75600 0.89240 0.01300
C 	C 	0.38170 0.72570 0.89750 -0.10200
C 	C 	0.35810 0.71157 0.86280 0.05600
C 	C 	0.35410 0.72770 0.82320 -0.10200
C 	C 	0.37360 0.75790 0.81810 0.01400
C 	C 	0.33670 0.67898 0.86600 -0.01200
C 	C 	0.36220 0.65420 0.88470 -0.02900
C 	C 	0.34240 0.62400 0.88950 -0.02500
C 	C 	0.29720 0.61854 0.87550 0.14700
C 	C 	0.27180 0.64330 0.85680 -0.07400
C 	C 	0.29150 0.67353 0.85200 -0.03400
C 	C 	0.38200 0.59989 0.95390 -0.03400
C 	C 	0.40710 0.57489 0.97240 -0.00100
C 	C 	0.41940 0.54849 0.94720 -0.04400
C 	C 	0.40650 0.54709 0.90340 -0.05900
C 	C 	0.38140 0.57210 0.88490 0.13100
C 	C 	0.36910 0.59849 0.91010 -0.01500
C 	C 	0.82280 0.03610 0.69720 0.05800
C 	C 	0.83310 0.06720 0.68410 -0.10100
C 	C 	0.86700 0.08462 0.70620 0.01200
C 	C 	0.89040 0.07090 0.74120 -0.06000
C 	C 	0.88010 0.03980 0.75420 0.01300
C 	C 	0.84620 0.02235 0.73220 -0.10100
C 	C 	0.82100 0.97330 0.45850 0.08100
C 	C 	0.85500 0.99180 0.43850 -0.11800
C 	C 	0.88960 0.97710 0.41390 0.01800
C 	C 	0.89010 0.94390 0.40940 -0.06000
C 	C 	0.85600 0.92545 0.42940 0.02000
C 	C 	0.82150 0.94020 0.45400 -0.11200
C 	C 	0.92930 0.79400 0.21330 -0.06600
C 	C 	0.94700 0.79290 0.17110 0.01400
C 	C 	0.92350 0.77600 0.13870 -0.10400
C 	C 	0.88230 0.76033 0.14850 0.06400
C 	C 	0.86460 0.76147 0.19080 -0.10600
C 	C 	0.88810 0.77830 0.22320 0.01700
C 	C 	0.78650 0.72910 0.08140 -0.03000
C 	C 	0.81040 0.71561 0.04640 0.13900
C 	C 	0.85850 0.71756 0.04480 -0.09000
C 	C 	0.88270 0.73300 0.07800 -0.02400
C 	C 	0.85880 0.74643 0.11300 -0.02000
C 	C 	0.81070 0.74448 0.11470 -0.02900
C 	C 	0.64280 0.76530 0.01050 0.05800
C 	C 	0.66080 0.76979 0.96880 -0.10400
C 	C 	0.63630 0.78770 0.93810 0.01900
C 	C 	0.59370 0.80110 0.94930 -0.07100
C 	C 	0.57570 0.79660 0.99100 0.01700
C 	C 	0.60030 0.77870 0.02160 -0.10300
C 	C 	0.22240 0.63930 0.84170 0.10700
C 	C 	0.18810 0.66090 0.85380 -0.14800
C 	C 	0.14280 0.65652 0.83940 0.06000
C 	C 	0.13190 0.63050 0.81290 -0.11800
C 	C 	0.16620 0.60886 0.80080 0.06500
C 	C 	0.21150 0.61324 0.81520 -0.15900
C 	C 	0.45590 0.46564 0.83270 -0.10200
C 	C 	0.45470 0.49540 0.81227 0.04400
C 	C 	0.43760 0.52199 0.83460 -0.12500
C 	C 	0.42180 0.51880 0.87730 0.10300
C 	C 	0.42300 0.48900 0.89770 -0.13500
C 	C 	0.44000 0.46245 0.87550 0.05000
C 	C 	0.88360 0.69830 0.01610 0.13300
C 	C 	0.87990 0.70650 0.97220 -0.15400
C 	C 	0.90890 0.69210 0.94150 0.06900
C 	C 	0.94160 0.66970 0.95480 -0.13400
C 	C 	0.94530 0.66150 0.99880 0.08100
C 	C 	0.91630 0.67580 0.02940 -0.16500
C 	C 	0.92170 0.09030 0.76640 0.22500
C 	C 	0.59430 0.90350 0.77050 0.22400
C 	C 	0.94750 0.81860 0.24190 0.23100
C 	C 	0.55320 0.64880 0.23430 0.26800
C 	C 	0.93150 0.92870 0.39230 0.21800
C 	C 	0.08450 0.62520 0.80030 0.28500
C 	C 	0.47250 0.43850 0.80860 0.26900
C 	C 	0.42070 0.80200 0.84730 0.22700
C 	C 	0.56510 0.08870 0.40700 0.20500
C 	C 	0.56400 0.81510 0.91670 0.24500
C 	C 	0.96370 0.65290 0.92050 0.30500
C 	C 	0.45910 0.57110 0.10290 -0.05800
C 	C 	0.42420 0.57570 0.01580 0.04000
C 	C 	0.39480 0.58620 0.04980 -0.08600
C 	C 	0.41450 0.58360 0.09230 -0.00000
C 	C 	0.49090 0.56030 0.07010 -0.00200
C 	C 	0.46950 0.56490 0.02820 -0.07900
C 	C 	0.47370 0.57420 0.14780 0.25200
O 	O 	0.50840 0.86523 0.83460 -0.94800
O 	O 	0.82120 0.97200 0.55320 -0.24700
O 	O 	0.93400 0.81720 0.28660 -0.39800
O 	O 	0.68910 0.96430 0.60870 -0.25400
O 	O 	0.99520 0.82490 0.24210 -0.40800
O 	O 	0.73360 0.69210 0.14160 -0.25500
O 	O 	0.58620 0.82340 0.87700 -0.41500
O 	O 	0.78830 0.70130 0.01130 -0.24500
O 	O 	0.52490 0.83336 0.92890 -0.42800
O 	O 	0.27280 0.59100 0.88280 -0.24300
O 	O 	0.51870 0.62520 0.22200 -0.47600
O 	O 	0.37050 0.57020 0.84060 -0.23600
O 	O 	0.55250 0.65740 0.27900 -0.42000
O 	O 	0.47550 0.40818 0.82960 -0.45500
O 	O 	0.49050 0.44126 0.76570 -0.42200
O 	O 	0.44040 0.81470 0.88560 -0.42000
O 	O 	0.42710 0.81379 0.80420 -0.42300
O 	O 	0.04880 0.64327 0.81990 -0.45000
O 	O 	0.07350 0.60224 0.76930 -0.44200
O 	O 	0.95520 0.94210 0.35640 -0.39000
O 	O 	0.92660 0.89550 0.38610 -0.37300
O 	O 	0.54810 0.07610 0.36670 -0.42800
O 	O 	0.55760 0.12010 0.42310 -0.42300
O 	O 	0.55130 0.91750 0.78040 -0.37800
O 	O 	0.61350 0.87980 0.79840 -0.40700
O 	O 	0.95950 0.07286 0.78400 -0.37500
O 	O 	0.92900 0.12252 0.75530 -0.42800
O 	O 	0.96060 0.65440 0.87600 -0.43000
O 	O 	0.99860 0.62910 0.93340 -0.40800
O 	O 	0.44570 0.58400 0.18120 -0.41000
O 	O 	0.52070 0.56570 0.15610 -0.41000
H 	H 	0.85377 0.98210 0.53959 0.11700
H 	H 	0.68028 0.97737 0.57816 0.11900
H 	H 	0.77192 0.69431 0.13987 0.12100
H 	H 	0.79934 0.71317 0.98050 0.10900
H 	H 	0.23681 0.59396 0.87056 0.12100
H 	H 	0.40188 0.57554 0.82085 0.10800
H 	H 	0.39930 0.65867 0.89607 0.03900
H 	H 	0.12802 0.62155 0.47463 0.04100
H 	H 	0.80716 0.03516 0.60837 0.04000
H 	H 	0.68820 0.03151 0.55804 0.03800
H 	H 	0.73711 0.76054 0.02346 0.04000
H 	H 	0.79109 0.75549 0.14340 0.03800
Zn	Zn	0.43066 0.14598 0.33102 1.22500
Zn	Zn	0.51841 0.14795 0.38989 1.21300
Zn	Zn	0.48446 0.36379 0.82286 1.23500
Zn	Zn	0.49620 0.08759 0.33133 1.22800
Zn	Zn	0.52147 0.40753 0.73439 1.23700
Zn	Zn	0.53095 0.15185 0.28641 1.20600
H 	H 	0.31440 0.09730 0.27410 0.04100
H 	H 	0.26140 0.06370 0.23990 0.07900
H 	H 	0.36590 0.01870 0.17830 0.08600
H 	H 	0.41890 0.05220 0.21250 0.04100
H 	H 	0.24230 0.00010 0.22840 0.04600
H 	H 	0.25570 0.99660 0.93710 0.05100
H 	H 	0.33250 0.99290 0.91860 0.06300
H 	H 	0.39250 0.96560 0.88420 0.05000
H 	H 	0.38740 0.89740 0.97690 0.05300
H 	H 	0.32750 0.92460 0.01130 0.06300
H 	H 	0.45250 0.35250 0.64760 0.02000
H 	H 	0.40460 0.32770 0.59690 0.09100
H 	H 	0.33040 0.28880 0.69480 0.09700
H 	H 	0.37840 0.31360 0.74550 0.02600
H 	H 	0.38920 0.27170 0.57600 0.04400
H 	H 	0.58300 0.23450 0.41560 0.04600
H 	H 	0.61570 0.28500 0.42400 0.06900
H 	H 	0.66170 0.28180 0.30000 0.07000
H 	H 	0.62900 0.23130 0.29160 0.04400
H 	H 	0.72550 0.30990 0.33950 0.04600
H 	H 	0.56380 0.46820 0.45960 0.05000
H 	H 	0.18260 0.92360 0.16070 0.06800
H 	H 	0.12610 0.89450 0.19750 0.04500
H 	H 	0.10420 0.96940 0.27770 0.04300
H 	H 	0.16070 0.99850 0.24090 0.06900
H 	H 	0.14530 0.98600 0.94150 0.07500
H 	H 	0.08760 0.01060 0.90050 0.04200
H 	H 	0.14370 0.09680 0.92640 0.04300
H 	H 	0.20130 0.07220 0.96740 0.08100
H 	H 	0.02540 0.19660 0.66450 0.04100
H 	H 	0.06460 0.22470 0.61040 0.07000
H 	H 	0.16300 0.24900 0.69740 0.07100
H 	H 	0.12380 0.22090 0.75150 0.04100
H 	H 	0.08510 0.26570 0.57690 0.04200
H 	H 	0.31080 0.23920 0.46130 0.07100
H 	H 	0.35170 0.20930 0.41020 0.04100
H 	H 	0.45270 0.19440 0.49850 0.04300
H 	H 	0.41180 0.22430 0.54960 0.06900
H 	H 	0.80460 0.32170 0.37150 0.08700
H 	H 	0.88020 0.32900 0.34750 0.02600
H 	H 	0.84110 0.40850 0.28300 0.02700
H 	H 	0.76550 0.40120 0.30710 0.09800
H 	H 	0.53470 0.50250 0.28370 0.03500
H 	H 	0.56310 0.45810 0.32090 0.08100
H 	H 	0.58760 0.51310 0.42630 0.08600
H 	H 	0.55920 0.55750 0.38920 0.03000
H 	H 	0.14200 0.27850 0.46330 0.08500
H 	H 	0.09360 0.30240 0.41210 0.01900
H 	H 	0.03290 0.35360 0.50770 0.02700
H 	H 	0.08130 0.32970 0.55880 0.09600
H 	H 	0.99050 0.37940 0.41150 0.23500
H 	H 	0.63490 0.40590 0.54480 0.06700
H 	H 	0.60360 0.40920 0.61560 0.05100
H 	H 	0.47980 0.44830 0.57500 0.05400
H 	H 	0.51130 0.44000 0.50470 0.06300
H 	H 	0.46830 0.42200 0.67430 0.20800
C 	C 	0.37190 0.07810 0.24670 -0.06800
C 	C 	0.32470 0.08150 0.25490 0.03100
C 	C 	0.29300 0.06140 0.23440 -0.12400
C 	C 	0.30840 0.03780 0.20570 0.09800
C 	C 	0.35560 0.03440 0.19750 -0.11700
C 	C 	0.38730 0.05450 0.21800 0.03000
C 	C 	0.27700 0.01900 0.17690 -0.06700
C 	C 	0.27990 0.01880 0.13150 0.15000
C 	C 	0.25000 0.99960 0.10720 -0.03100
C 	C 	0.21730 0.98060 0.12830 -0.02000
C 	C 	0.21440 0.98080 0.17370 -0.01400
C 	C 	0.24420 0.00000 0.19800 -0.03600
C 	C 	0.24880 0.99810 0.05830 -0.02300
C 	C 	0.21560 0.01400 0.03350 0.13500
C 	C 	0.21820 0.01340 0.98810 -0.05900
C 	C 	0.25400 0.99700 0.96750 -0.04800
C 	C 	0.28720 0.98110 0.99230 -0.00200
C 	C 	0.28460 0.98160 0.03770 -0.04000
C 	C 	0.32410 0.96140 0.96840 0.04200
C 	C 	0.34350 0.97371 0.93030 -0.08700
C 	C 	0.37940 0.95740 0.90970 -0.00500
C 	C 	0.39590 0.92880 0.92710 -0.04200
C 	C 	0.37640 0.91650 0.96520 -0.00700
C 	C 	0.34050 0.93280 0.98580 -0.08600
C 	C 	0.42020 0.33550 0.70160 -0.11800
C 	C 	0.42810 0.33980 0.65710 0.06500
C 	C 	0.39930 0.32490 0.62670 -0.15300
C 	C 	0.36280 0.30580 0.64080 0.12400
C 	C 	0.35490 0.30158 0.68530 -0.14500
C 	C 	0.38360 0.31650 0.71570 0.06100
C 	C 	0.33410 0.28900 0.60930 -0.07300
C 	C 	0.35700 0.27160 0.57710 -0.03300
C 	C 	0.33170 0.25400 0.54670 -0.01100
C 	C 	0.28360 0.25390 0.54840 -0.01900
C 	C 	0.26060 0.27140 0.58050 -0.02900
C 	C 	0.28590 0.28890 0.61100 0.14700
C 	C 	0.60280 0.22794 0.35280 -0.06500
C 	C 	0.59880 0.24400 0.39240 0.01300
C 	C 	0.61830 0.27430 0.39750 -0.10200
C 	C 	0.64190 0.28843 0.36280 0.05600
C 	C 	0.64590 0.27230 0.32320 -0.10200
C 	C 	0.62640 0.24210 0.31810 0.01400
C 	C 	0.66330 0.32102 0.36600 -0.01200
C 	C 	0.63780 0.34580 0.38470 -0.02900
C 	C 	0.65760 0.37600 0.38950 -0.02400
C 	C 	0.70280 0.38146 0.37550 0.14700
C 	C 	0.72820 0.35670 0.35680 -0.07400
C 	C 	0.70850 0.32647 0.35200 -0.03400
C 	C 	0.61800 0.40011 0.45390 -0.03300
C 	C 	0.59290 0.42511 0.47240 -0.00100
C 	C 	0.58060 0.45151 0.44720 -0.04400
C 	C 	0.59350 0.45291 0.40340 -0.05900
C 	C 	0.61860 0.42790 0.38490 0.13100
C 	C 	0.63090 0.40151 0.41010 -0.01500
C 	C 	0.17720 0.96390 0.19720 0.05800
C 	C 	0.16690 0.93280 0.18410 -0.10100
C 	C 	0.13300 0.91538 0.20620 0.01200
C 	C 	0.10960 0.92910 0.24120 -0.06000
C 	C 	0.11990 0.96020 0.25420 0.01300
C 	C 	0.15380 0.97765 0.23220 -0.10200
C 	C 	0.17900 0.02670 0.95850 0.08100
C 	C 	0.14500 0.00820 0.93850 -0.11700
C 	C 	0.11040 0.02290 0.91390 0.01800
C 	C 	0.10990 0.05610 0.90940 -0.06000
C 	C 	0.14400 0.07455 0.92940 0.01900
C 	C 	0.17850 0.05980 0.95400 -0.11100
C 	C 	0.07070 0.20600 0.71330 -0.06600
C 	C 	0.05300 0.20710 0.67110 0.01400
C 	C 	0.07650 0.22400 0.63870 -0.10400
C 	C 	0.11770 0.23967 0.64850 0.06300
C 	C 	0.13540 0.23853 0.69080 -0.10600
C 	C 	0.11190 0.22170 0.72320 0.01700
C 	C 	0.21350 0.27090 0.58140 -0.03000
C 	C 	0.18960 0.28439 0.54640 0.13900
C 	C 	0.14150 0.28244 0.54480 -0.09000
C 	C 	0.11730 0.26700 0.57800 -0.02400
C 	C 	0.14120 0.25357 0.61300 -0.02000
C 	C 	0.18930 0.25552 0.61470 -0.02900
C 	C 	0.35720 0.23470 0.51050 0.05800
C 	C 	0.33920 0.23021 0.46880 -0.10500
C 	C 	0.36370 0.21230 0.43810 0.01900
C 	C 	0.40630 0.19890 0.44930 -0.07100
C 	C 	0.42430 0.20340 0.49100 0.01600
C 	C 	0.39970 0.22130 0.52160 -0.10200
C 	C 	0.77760 0.36070 0.34170 0.10700
C 	C 	0.81190 0.33910 0.35380 -0.14800
C 	C 	0.85720 0.34348 0.33940 0.06000
C 	C 	0.86810 0.36950 0.31290 -0.11800
C 	C 	0.83380 0.39114 0.30080 0.06500
C 	C 	0.78850 0.38676 0.31520 -0.15900
C 	C 	0.54410 0.53436 0.33270 -0.10200
C 	C 	0.54530 0.50460 0.31227 0.04400
C 	C 	0.56240 0.47801 0.33460 -0.12500
C 	C 	0.57820 0.48120 0.37730 0.10300
C 	C 	0.57700 0.51100 0.39770 -0.13500
C 	C 	0.56000 0.53755 0.37550 0.05000
C 	C 	0.11640 0.30170 0.51610 0.13300
C 	C 	0.12010 0.29350 0.47220 -0.15400
C 	C 	0.09110 0.30790 0.44150 0.06800
C 	C 	0.05840 0.33030 0.45480 -0.13400
C 	C 	0.05470 0.33850 0.49880 0.08000
C 	C 	0.08370 0.32420 0.52940 -0.16500
C 	C 	0.07830 0.90970 0.26640 0.22500
C 	C 	0.40570 0.09650 0.27050 0.22400
C 	C 	0.05250 0.18140 0.74190 0.23100
C 	C 	0.44680 0.35120 0.73430 0.26800
C 	C 	0.06850 0.07130 0.89230 0.21800
C 	C 	0.91550 0.37480 0.30030 0.28500
C 	C 	0.52750 0.56150 0.30860 0.26900
C 	C 	0.57930 0.19800 0.34730 0.22700
C 	C 	0.43490 0.91130 0.90700 0.20500
C 	C 	0.43600 0.18490 0.41670 0.24500
C 	C 	0.03630 0.34710 0.42050 0.30500
C 	C 	0.54090 0.42890 0.60290 -0.05800
C 	C 	0.57580 0.42430 0.51580 0.04000
C 	C 	0.60520 0.41380 0.54980 -0.08600
C 	C 	0.58550 0.41640 0.59230 -0.00000
C 	C 	0.50910 0.43970 0.57010 -0.00100
C 	C 	0.53050 0.43510 0.52820 -0.08000
C 	C 	0.52630 0.42580 0.64780 0.25200
O 	O 	0.49160 0.13477 0.33460 -0.94800
O 	O 	0.17880 0.02800 0.05320 -0.24700
O 	O 	0.06600 0.18280 0.78660 -0.39800
O 	O 	0.31090 0.03570 0.10870 -0.25400
O 	O 	0.00480 0.17510 0.74210 -0.40800
O 	O 	0.26640 0.30790 0.64160 -0.25500
O 	O 	0.41380 0.17660 0.37700 -0.41500
O 	O 	0.21170 0.29870 0.51130 -0.24500
O 	O 	0.47510 0.16664 0.42890 -0.42800
O 	O 	0.72720 0.40900 0.38280 -0.24300
O 	O 	0.48130 0.37480 0.72200 -0.47600
O 	O 	0.62950 0.42980 0.34060 -0.23600
O 	O 	0.44750 0.34260 0.77900 -0.42000
O 	O 	0.52450 0.59182 0.32960 -0.45500
O 	O 	0.50950 0.55874 0.26570 -0.42200
O 	O 	0.55960 0.18530 0.38560 -0.42000
O 	O 	0.57290 0.18621 0.30420 -0.42300
O 	O 	0.95120 0.35673 0.31990 -0.44900
O 	O 	0.92650 0.39776 0.26930 -0.44200
O 	O 	0.04480 0.05790 0.85640 -0.39000
O 	O 	0.07340 0.10450 0.88610 -0.37300
O 	O 	0.45190 0.92390 0.86670 -0.42800
O 	O 	0.44240 0.87990 0.92310 -0.42300
O 	O 	0.44870 0.08250 0.28040 -0.37800
O 	O 	0.38650 0.12020 0.29840 -0.40700
O 	O 	0.04050 0.92714 0.28400 -0.37500
O 	O 	0.07100 0.87748 0.25530 -0.42800
O 	O 	0.03940 0.34560 0.37600 -0.43000
O 	O 	0.00140 0.37090 0.43340 -0.40800
O 	O 	0.55430 0.41600 0.68120 -0.41000
O 	O 	0.47930 0.43430 0.65610 -0.41000
H 	H 	0.14623 0.01790 0.03959 0.11700
H 	H 	0.31972 0.02263 0.07816 0.11900
H 	H 	0.22808 0.30569 0.63987 0.12100
H 	H 	0.20066 0.28683 0.48050 0.10900
H 	H 	0.76319 0.40604 0.37056 0.12100
H 	H 	0.59812 0.42446 0.32085 0.10800
H 	H 	0.60070 0.34133 0.39607 0.03900
H 	H 	0.87198 0.37845 0.97463 0.04100
H 	H 	0.19284 0.96484 0.10837 0.04000
H 	H 	0.31180 0.96849 0.05804 0.03800
H 	H 	0.26289 0.23946 0.52346 0.04000
H 	H 	0.20891 0.24451 0.64340 0.03800
Zn	Zn	0.06934 0.14598 0.83102 1.22500
Zn	Zn	0.98159 0.14795 0.88989 1.21300
Zn	Zn	0.01554 0.36379 0.32286 1.23500
Zn	Zn	0.00380 0.08759 0.83133 1.22800
Zn	Zn	0.97853 0.40753 0.23439 1.23700
Zn	Zn	0.96905 0.15185 0.78641 1.20600
H 	H 	0.18560 0.09730 0.77410 0.04100
H 	H 	0.23860 0.06370 0.73990 0.07900
H 	H 	0.13410 0.01870 0.67830 0.08600
H 	H 	0.08110 0.05220 0.71250 0.04100
H 	H 	0.25770 0.00010 0.72840 0.04600
H 	H 	0.24430 0.99660 0.43710 0.05100
H 	H 	0.16750 0.99290 0.41860 0.06300
H 	H 	0.10750 0.96560 0.38420 0.05000
H 	H 	0.11260 0.89740 0.47690 0.05300
H 	H 	0.17250 0.92460 0.51130 0.06300
H 	H 	0.04750 0.35250 0.14760 0.02000
H 	H 	0.09540 0.32770 0.09690 0.09100
H 	H 	0.16960 0.28880 0.19480 0.09700
H 	H 	0.12160 0.31360 0.24550 0.02600
H 	H 	0.11080 0.27170 0.07600 0.04400
H 	H 	0.91700 0.23450 0.91560 0.04600
H 	H 	0.88430 0.28500 0.92400 0.06900
H 	H 	0.83830 0.28180 0.80000 0.07000
H 	H 	0.87100 0.23130 0.79160 0.04400
H 	H 	0.77450 0.30990 0.83950 0.04600
H 	H 	0.93620 0.46820 0.95960 0.05000
H 	H 	0.31740 0.92360 0.66070 0.06800
H 	H 	0.37390 0.89450 0.69750 0.04500
H 	H 	0.39580 0.96940 0.77770 0.04300
H 	H 	0.33930 0.99850 0.74090 0.06900
H 	H 	0.35470 0.98600 0.44150 0.07500
H 	H 	0.41240 0.01060 0.40050 0.04100
H 	H 	0.35630 0.09680 0.42640 0.04300
H 	H 	0.29870 0.07220 0.46740 0.08100
H 	H 	0.47460 0.19660 0.16450 0.04100
H 	H 	0.43540 0.22470 0.11040 0.07000
H 	H 	0.33700 0.24900 0.19740 0.07100
H 	H 	0.37620 0.22090 0.25150 0.04100
H 	H 	0.41490 0.26570 0.07690 0.04200
H 	H 	0.18920 0.23920 0.96130 0.07100
H 	H 	0.14830 0.20930 0.91020 0.04100
H 	H 	0.04730 0.19440 0.99850 0.04300
H 	H 	0.08820 0.22430 0.04960 0.06900
H 	H 	0.69540 0.32170 0.87150 0.08700
H 	H 	0.61980 0.32900 0.84750 0.02600
H 	H 	0.65890 0.40850 0.78300 0.02700
H 	H 	0.73450 0.40120 0.80710 0.09800
H 	H 	0.96530 0.50250 0.78370 0.03500
H 	H 	0.93690 0.45810 0.82090 0.08100
H 	H 	0.91240 0.51310 0.92630 0.08600
H 	H 	0.94080 0.55750 0.88920 0.03000
H 	H 	0.35800 0.27850 0.96330 0.08500
H 	H 	0.40640 0.30240 0.91210 0.01900
H 	H 	0.46710 0.35360 0.00770 0.02600
H 	H 	0.41870 0.32970 0.05880 0.09600
H 	H 	0.50950 0.37940 0.91150 0.23500
H 	H 	0.86510 0.40590 0.04480 0.06700
H 	H 	0.89640 0.40920 0.11560 0.05100
H 	H 	0.02020 0.44830 0.07500 0.05400
H 	H 	0.98870 0.44000 0.00470 0.06300
H 	H 	0.03170 0.42200 0.17430 0.20800
C 	C 	0.12810 0.07810 0.74670 -0.06800
C 	C 	0.17530 0.08150 0.75490 0.03100
C 	C 	0.20700 0.06140 0.73440 -0.12300
C 	C 	0.19160 0.03780 0.70570 0.09800
C 	C 	0.14440 0.03440 0.69750 -0.11700
C 	C 	0.11270 0.05450 0.71800 0.03000
C 	C 	0.22300 0.01900 0.67690 -0.06700
C 	C 	0.22010 0.01880 0.63150 0.15000
C 	C 	0.25000 0.99960 0.60720 -0.03000
C 	C 	0.28270 0.98060 0.62830 -0.02000
C 	C 	0.28560 0.98080 0.67370 -0.01400
C 	C 	0.25580 0.00000 0.69800 -0.03600
C 	C 	0.25120 0.99810 0.55830 -0.02300
C 	C 	0.28440 0.01400 0.53350 0.13600
C 	C 	0.28180 0.01340 0.48810 -0.05900
C 	C 	0.24600 0.99700 0.46750 -0.04800
C 	C 	0.21280 0.98110 0.49230 -0.00200
C 	C 	0.21540 0.98160 0.53770 -0.04000
C 	C 	0.17590 0.96140 0.46840 0.04300
C 	C 	0.15650 0.97371 0.43030 -0.08700
C 	C 	0.12060 0.95740 0.40970 -0.00500
C 	C 	0.10410 0.92880 0.42710 -0.04200
C 	C 	0.12360 0.91650 0.46520 -0.00600
C 	C 	0.15950 0.93280 0.48580 -0.08600
C 	C 	0.07980 0.33550 0.20160 -0.11800
C 	C 	0.07190 0.33980 0.15710 0.06500
C 	C 	0.10070 0.32490 0.12670 -0.15300
C 	C 	0.13720 0.30580 0.14080 0.12400
C 	C 	0.14510 0.30158 0.18530 -0.14500
C 	C 	0.11640 0.31650 0.21570 0.06100
C 	C 	0.16590 0.28900 0.10930 -0.07300
C 	C 	0.14300 0.27160 0.07710 -0.03300
C 	C 	0.16830 0.25400 0.04670 -0.01100
C 	C 	0.21640 0.25390 0.04840 -0.01900
C 	C 	0.23940 0.27140 0.08050 -0.02900
C 	C 	0.21410 0.28890 0.11100 0.14700
C 	C 	0.89720 0.22794 0.85280 -0.06500
C 	C 	0.90120 0.24400 0.89240 0.01300
C 	C 	0.88170 0.27430 0.89750 -0.10200
C 	C 	0.85810 0.28843 0.86280 0.05600
C 	C 	0.85410 0.27230 0.82320 -0.10200
C 	C 	0.87360 0.24210 0.81810 0.01400
C 	C 	0.83670 0.32102 0.86600 -0.01200
C 	C 	0.86220 0.34580 0.88470 -0.02900
C 	C 	0.84240 0.37600 0.88950 -0.02500
C 	C 	0.79720 0.38146 0.87550 0.14700
C 	C 	0.77180 0.35670 0.85680 -0.07400
C 	C 	0.79150 0.32647 0.85200 -0.03400
C 	C 	0.88200 0.40011 0.95390 -0.03400
C 	C 	0.90710 0.42511 0.97240 -0.00100
C 	C 	0.91940 0.45151 0.94720 -0.04400
C 	C 	0.90650 0.45291 0.90340 -0.05900
C 	C 	0.88140 0.42790 0.88490 0.13100
C 	C 	0.86910 0.40151 0.91010 -0.01500
C 	C 	0.32280 0.96390 0.69720 0.05800
C 	C 	0.33310 0.93280 0.68410 -0.10100
C 	C 	0.36700 0.91538 0.70620 0.01200
C 	C 	0.39040 0.92910 0.74120 -0.06000
C 	C 	0.38010 0.96020 0.75420 0.01300
C 	C 	0.34620 0.97765 0.73220 -0.10200
C 	C 	0.32100 0.02670 0.45850 0.08100
C 	C 	0.35500 0.00820 0.43850 -0.11700
C 	C 	0.38960 0.02290 0.41390 0.01800
C 	C 	0.39010 0.05610 0.40940 -0.06000
C 	C 	0.35600 0.07455 0.42940 0.01900
C 	C 	0.32150 0.05980 0.45400 -0.11100
C 	C 	0.42930 0.20600 0.21330 -0.06600
C 	C 	0.44700 0.20710 0.17110 0.01400
C 	C 	0.42350 0.22400 0.13870 -0.10400
C 	C 	0.38230 0.23967 0.14850 0.06400
C 	C 	0.36460 0.23853 0.19080 -0.10600
C 	C 	0.38810 0.22170 0.22320 0.01700
C 	C 	0.28650 0.27090 0.08140 -0.03000
C 	C 	0.31040 0.28439 0.04640 0.13900
C 	C 	0.35850 0.28244 0.04480 -0.09000
C 	C 	0.38270 0.26700 0.07800 -0.02400
C 	C 	0.35880 0.25357 0.11300 -0.02000
C 	C 	0.31070 0.25552 0.11470 -0.02900
C 	C 	0.14280 0.23470 0.01050 0.05800
C 	C 	0.16080 0.23021 0.96880 -0.10400
C 	C 	0.13630 0.21230 0.93810 0.01900
C 	C 	0.09370 0.19890 0.94930 -0.07100
C 	C 	0.07570 0.20340 0.99100 0.01700
C 	C 	0.10030 0.22130 0.02160 -0.10300
C 	C 	0.72240 0.36070 0.84170 0.10700
C 	C 	0.68810 0.33910 0.85380 -0.14800
C 	C 	0.64280 0.34348 0.83940 0.06000
C 	C 	0.63190 0.36950 0.81290 -0.11800
C 	C 	0.66620 0.39114 0.80080 0.06500
C 	C 	0.71150 0.38676 0.81520 -0.15900
C 	C 	0.95590 0.53436 0.83270 -0.10200
C 	C 	0.95470 0.50460 0.81227 0.04400
C 	C 	0.93760 0.47801 0.83460 -0.12500
C 	C 	0.92180 0.48120 0.87730 0.10300
C 	C 	0.92300 0.51100 0.89770 -0.13500
C 	C 	0.94000 0.53755 0.87550 0.05000
C 	C 	0.38360 0.30170 0.01610 0.13300
C 	C 	0.37990 0.29350 0.97220 -0.15400
C 	C 	0.40890 0.30790 0.94150 0.06900
C 	C 	0.44160 0.33030 0.95480 -0.13400
C 	C 	0.44530 0.33850 0.99880 0.08100
C 	C 	0.41630 0.32420 0.02940 -0.16500
C 	C 	0.42170 0.90970 0.76640 0.22500
C 	C 	0.09430 0.09650 0.77050 0.22400
C 	C 	0.44750 0.18140 0.24190 0.23100
C 	C 	0.05320 0.35120 0.23430 0.26800
C 	C 	0.43150 0.07130 0.39230 0.21800
C 	C 	0.58450 0.37480 0.80030 0.28500
C 	C 	0.97250 0.56150 0.80860 0.26900
C 	C 	0.92070 0.19800 0.84730 0.22700
C 	C 	0.06510 0.91130 0.40700 0.20500
C 	C 	0.06400 0.18490 0.91670 0.24500
C 	C 	0.46370 0.34710 0.92050 0.30500
C 	C 	0.95910 0.42890 0.10290 -0.05800
C 	C 	0.92420 0.42430 0.01580 0.04000
C 	C 	0.89480 0.41380 0.04980 -0.08600
C 	C 	0.91450 0.41640 0.09230 -0.00000
C 	C 	0.99090 0.43970 0.07010 -0.00100
C 	C 	0.96950 0.43510 0.02820 -0.08000
C 	C 	0.97370 0.42580 0.14780 0.25200
O 	O 	0.00840 0.13477 0.83460 -0.94800
O 	O 	0.32120 0.02800 0.55320 -0.24700
O 	O 	0.43400 0.18280 0.28660 -0.39800
O 	O 	0.18910 0.03570 0.60870 -0.25400
O 	O 	0.49520 0.17510 0.24210 -0.40800
O 	O 	0.23360 0.30790 0.14160 -0.25500
O 	O 	0.08620 0.17660 0.87700 -0.41500
O 	O 	0.28830 0.29870 0.01130 -0.24500
O 	O 	0.02490 0.16664 0.92890 -0.42800
O 	O 	0.77280 0.40900 0.88280 -0.24300
O 	O 	0.01870 0.37480 0.22200 -0.47600
O 	O 	0.87050 0.42980 0.84060 -0.23600
O 	O 	0.05250 0.34260 0.27900 -0.42000
O 	O 	0.97550 0.59182 0.82960 -0.45500
O 	O 	0.99050 0.55874 0.76570 -0.42200
O 	O 	0.94040 0.18530 0.88560 -0.42000
O 	O 	0.92710 0.18621 0.80420 -0.42300
O 	O 	0.54880 0.35673 0.81990 -0.45000
O 	O 	0.57350 0.39776 0.76930 -0.44200
O 	O 	0.45520 0.05790 0.35640 -0.39000
O 	O 	0.42660 0.10450 0.38610 -0.37300
O 	O 	0.04810 0.92390 0.36670 -0.42800
O 	O 	0.05760 0.87990 0.42310 -0.42300
O 	O 	0.05130 0.08250 0.78040 -0.37800
O 	O 	0.11350 0.12020 0.79840 -0.40700
O 	O 	0.45950 0.92714 0.78400 -0.37500
O 	O 	0.42900 0.87748 0.75530 -0.42800
O 	O 	0.46060 0.34560 0.87600 -0.43000
O 	O 	0.49860 0.37090 0.93340 -0.40800
O 	O 	0.94570 0.41600 0.18120 -0.41000
O 	O 	0.02070 0.43430 0.15610 -0.41000
H 	H 	0.35377 0.01790 0.53959 0.11700
H 	H 	0.18028 0.02263 0.57816 0.11900
H 	H 	0.27192 0.30569 0.13987 0.12100
H 	H 	0.29934 0.28683 0.98050 0.10900
H 	H 	0.73681 0.40604 0.87056 0.12100
H 	H 	0.90188 0.42446 0.82085 0.10800
H 	H 	0.89930 0.34133 0.89607 0.03900
H 	H 	0.62802 0.37845 0.47463 0.04100
H 	H 	0.30716 0.96484 0.60837 0.04000
H 	H 	0.18820 0.96849 0.55804 0.03800
H 	H 	0.23711 0.23946 0.02346 0.04000
H 	H 	0.29109 0.24451 0.14340 0.03800
Zn	Zn	0.93066 0.85402 0.33102 1.22500
Zn	Zn	0.01841 0.85205 0.38989 1.21300
Zn	Zn	0.98446 0.63621 0.82286 1.23500
Zn	Zn	0.99620 0.91241 0.33133 1.22800
Zn	Zn	0.02147 0.59247 0.73439 1.23700
Zn	Zn	0.03095 0.84815 0.28641 1.20600
H 	H 	0.81440 0.90270 0.27410 0.04100
H 	H 	0.76140 0.93630 0.23990 0.07900
H 	H 	0.86590 0.98130 0.17830 0.08600
H 	H 	0.91890 0.94780 0.21250 0.04100
H 	H 	0.74230 0.99990 0.22840 0.04600
H 	H 	0.75570 0.00340 0.93710 0.05100
H 	H 	0.83250 0.00710 0.91860 0.06300
H 	H 	0.89250 0.03440 0.88420 0.05000
H 	H 	0.88740 0.10260 0.97690 0.05300
H 	H 	0.82750 0.07540 0.01130 0.06300
H 	H 	0.95250 0.64750 0.64760 0.02000
H 	H 	0.90460 0.67230 0.59690 0.09100
H 	H 	0.83040 0.71120 0.69480 0.09700
H 	H 	0.87840 0.68640 0.74550 0.02700
H 	H 	0.88920 0.72830 0.57600 0.04400
H 	H 	0.08300 0.76550 0.41560 0.04600
H 	H 	0.11570 0.71500 0.42400 0.06900
H 	H 	0.16170 0.71820 0.30000 0.07000
H 	H 	0.12900 0.76870 0.29160 0.04400
H 	H 	0.22550 0.69010 0.33950 0.04600
H 	H 	0.06380 0.53180 0.45960 0.05000
H 	H 	0.68260 0.07640 0.16070 0.06800
H 	H 	0.62610 0.10550 0.19750 0.04500
H 	H 	0.60420 0.03060 0.27770 0.04300
H 	H 	0.66070 0.00150 0.24090 0.06900
H 	H 	0.64530 0.01400 0.94150 0.07500
H 	H 	0.58760 0.98940 0.90050 0.04100
H 	H 	0.64370 0.90320 0.92640 0.04300
H 	H 	0.70130 0.92780 0.96740 0.08100
H 	H 	0.52540 0.80340 0.66450 0.04100
H 	H 	0.56460 0.77530 0.61040 0.07000
H 	H 	0.66300 0.75100 0.69740 0.07100
H 	H 	0.62380 0.77910 0.75150 0.04100
H 	H 	0.58510 0.73430 0.57690 0.04200
H 	H 	0.81080 0.76080 0.46130 0.07100
H 	H 	0.85170 0.79070 0.41020 0.04100
H 	H 	0.95270 0.80560 0.49850 0.04300
H 	H 	0.91180 0.77570 0.54960 0.06900
H 	H 	0.30460 0.67830 0.37150 0.08700
H 	H 	0.38020 0.67100 0.34750 0.02600
H 	H 	0.34110 0.59150 0.28300 0.02700
H 	H 	0.26550 0.59880 0.30710 0.09800
H 	H 	0.03470 0.49750 0.28370 0.03500
H 	H 	0.06310 0.54190 0.32090 0.08100
H 	H 	0.08760 0.48690 0.42630 0.08600
H 	H 	0.05920 0.44250 0.38920 0.03000
H 	H 	0.64200 0.72150 0.46330 0.08500
H 	H 	0.59360 0.69760 0.41210 0.01900
H 	H 	0.53290 0.64640 0.50770 0.02700
H 	H 	0.58130 0.67030 0.55880 0.09600
H 	H 	0.49050 0.62060 0.41150 0.23500
H 	H 	0.13490 0.59410 0.54480 0.06700
H 	H 	0.10360 0.59080 0.61560 0.05100
H 	H 	0.97980 0.55170 0.57500 0.05400
H 	H 	0.01130 0.56000 0.50470 0.06300
H 	H 	0.96830 0.57800 0.67430 0.20800
C 	C 	0.87190 0.92190 0.24670 -0.06800
C 	C 	0.82470 0.91850 0.25490 0.03100
C 	C 	0.79300 0.93860 0.23440 -0.12300
C 	C 	0.80840 0.96220 0.20570 0.09800
C 	C 	0.85560 0.96560 0.19750 -0.11700
C 	C 	0.88730 0.94550 0.21800 0.03000
C 	C 	0.77700 0.98100 0.17690 -0.06700
C 	C 	0.77990 0.98120 0.13150 0.14900
C 	C 	0.75000 0.00040 0.10720 -0.03000
C 	C 	0.71730 0.01940 0.12830 -0.02000
C 	C 	0.71440 0.01920 0.17370 -0.01300
C 	C 	0.74420 0.00000 0.19800 -0.03600
C 	C 	0.74880 0.00190 0.05830 -0.02300
C 	C 	0.71560 0.98600 0.03350 0.13500
C 	C 	0.71820 0.98660 0.98810 -0.05900
C 	C 	0.75400 0.00300 0.96750 -0.04700
C 	C 	0.78720 0.01890 0.99230 -0.00200
C 	C 	0.78460 0.01840 0.03770 -0.04000
C 	C 	0.82410 0.03860 0.96840 0.04200
C 	C 	0.84350 0.02629 0.93030 -0.08700
C 	C 	0.87940 0.04260 0.90970 -0.00500
C 	C 	0.89590 0.07120 0.92710 -0.04200
C 	C 	0.87640 0.08350 0.96520 -0.00700
C 	C 	0.84050 0.06720 0.98580 -0.08600
C 	C 	0.92020 0.66450 0.70160 -0.11800
C 	C 	0.92810 0.66020 0.65710 0.06500
C 	C 	0.89930 0.67510 0.62670 -0.15300
C 	C 	0.86280 0.69420 0.64080 0.12400
C 	C 	0.85490 0.69842 0.68530 -0.14500
C 	C 	0.88360 0.68350 0.71570 0.06100
C 	C 	0.83410 0.71100 0.60930 -0.07300
C 	C 	0.85700 0.72840 0.57710 -0.03300
C 	C 	0.83170 0.74600 0.54670 -0.01100
C 	C 	0.78360 0.74610 0.54840 -0.01900
C 	C 	0.76060 0.72860 0.58050 -0.02900
C 	C 	0.78590 0.71110 0.61100 0.14700
C 	C 	0.10280 0.77206 0.35280 -0.06500
C 	C 	0.09880 0.75600 0.39240 0.01300
C 	C 	0.11830 0.72570 0.39750 -0.10200
C 	C 	0.14190 0.71157 0.36280 0.05600
C 	C 	0.14590 0.72770 0.32320 -0.10200
C 	C 	0.12640 0.75790 0.31810 0.01400
C 	C 	0.16330 0.67898 0.36600 -0.01200
C 	C 	0.13780 0.65420 0.38470 -0.02900
C 	C 	0.15760 0.62400 0.38950 -0.02400
C 	C 	0.20280 0.61854 0.37550 0.14700
C 	C 	0.22820 0.64330 0.35680 -0.07400
C 	C 	0.20850 0.67353 0.35200 -0.03400
C 	C 	0.11800 0.59989 0.45390 -0.03300
C 	C 	0.09290 0.57489 0.47240 -0.00100
C 	C 	0.08060 0.54849 0.44720 -0.04400
C 	C 	0.09350 0.54709 0.40340 -0.05900
C 	C 	0.11860 0.57210 0.38490 0.13100
C 	C 	0.13090 0.59849 0.41010 -0.01500
C 	C 	0.67720 0.03610 0.19720 0.05800
C 	C 	0.66690 0.06720 0.18410 -0.10100
C 	C 	0.63300 0.08462 0.20620 0.01200
C 	C 	0.60960 0.07090 0.24120 -0.06000
C 	C 	0.61990 0.03980 0.25420 0.01300
C 	C 	0.65380 0.02235 0.23220 -0.10100
C 	C 	0.67900 0.97330 0.95850 0.08100
C 	C 	0.64500 0.99180 0.93850 -0.11800
C 	C 	0.61040 0.97710 0.91390 0.01800
C 	C 	0.60990 0.94390 0.90940 -0.06000
C 	C 	0.64400 0.92545 0.92940 0.02000
C 	C 	0.67850 0.94020 0.95400 -0.11200
C 	C 	0.57070 0.79400 0.71330 -0.06600
C 	C 	0.55300 0.79290 0.67110 0.01400
C 	C 	0.57650 0.77600 0.63870 -0.10400
C 	C 	0.61770 0.76033 0.64850 0.06400
C 	C 	0.63540 0.76147 0.69080 -0.10600
C 	C 	0.61190 0.77830 0.72320 0.01700
C 	C 	0.71350 0.72910 0.58140 -0.03000
C 	C 	0.68960 0.71561 0.54640 0.13900
C 	C 	0.64150 0.71756 0.54480 -0.09000
C 	C 	0.61730 0.73300 0.57800 -0.02400
C 	C 	0.64120 0.74643 0.61300 -0.02000
C 	C 	0.68930 0.74448 0.61470 -0.02900
C 	C 	0.85720 0.76530 0.51050 0.05800
C 	C 	0.83920 0.76979 0.46880 -0.10500
C 	C 	0.86370 0.78770 0.43810 0.01900
C 	C 	0.90630 0.80110 0.44930 -0.07100
C 	C 	0.92430 0.79660 0.49100 0.01600
C 	C 	0.89970 0.77870 0.52160 -0.10200
C 	C 	0.27760 0.63930 0.34170 0.10700
C 	C 	0.31190 0.66090 0.35380 -0.14800
C 	C 	0.35720 0.65652 0.33940 0.06000
C 	C 	0.36810 0.63050 0.31290 -0.11800
C 	C 	0.33380 0.60886 0.30080 0.06500
C 	C 	0.28850 0.61324 0.31520 -0.15900
C 	C 	0.04410 0.46564 0.33270 -0.10200
C 	C 	0.04530 0.49540 0.31227 0.04400
C 	C 	0.06240 0.52199 0.33460 -0.12500
C 	C 	0.07820 0.51880 0.37730 0.10300
C 	C 	0.07700 0.48900 0.39770 -0.13500
C 	C 	0.06000 0.46245 0.37550 0.05000
C 	C 	0.61640 0.69830 0.51610 0.13300
C 	C 	0.62010 0.70650 0.47220 -0.15400
C 	C 	0.59110 0.69210 0.44150 0.06800
C 	C 	0.55840 0.66970 0.45480 -0.13400
C 	C 	0.55470 0.66150 0.49880 0.08000
C 	C 	0.58370 0.67580 0.52940 -0.16500
C 	C 	0.57830 0.09030 0.26640 0.22500
C 	C 	0.90570 0.90350 0.27050 0.22400
C 	C 	0.55250 0.81860 0.74190 0.23100
C 	C 	0.94680 0.64880 0.73430 0.26800
C 	C 	0.56850 0.92870 0.89230 0.21800
C 	C 	0.41550 0.62520 0.30030 0.28500
C 	C 	0.02750 0.43850 0.30860 0.26900
C 	C 	0.07930 0.80200 0.34730 0.22700
C 	C 	0.93490 0.08870 0.90700 0.20500
C 	C 	0.93600 0.81510 0.41670 0.24500
C 	C 	0.53630 0.65290 0.42050 0.30500
C 	C 	0.04090 0.57110 0.60290 -0.05800
C 	C 	0.07580 0.57570 0.51580 0.04000
C 	C 	0.10520 0.58620 0.54980 -0.08600
C 	C 	0.08550 0.58360 0.59230 -0.00000
C 	C 	0.00910 0.56030 0.57010 -0.00100
C 	C 	0.03050 0.56490 0.52820 -0.08000
C 	C 	0.02630 0.57420 0.64780 0.25200
O 	O 	0.99160 0.86523 0.33460 -0.94800
O 	O 	0.67880 0.97200 0.05320 -0.24700
O 	O 	0.56600 0.81720 0.78660 -0.39800
O 	O 	0.81090 0.96430 0.10870 -0.25400
O 	O 	0.50480 0.82490 0.74210 -0.40800
O 	O 	0.76640 0.69210 0.64160 -0.25500
O 	O 	0.91380 0.82340 0.37700 -0.41500
O 	O 	0.71170 0.70130 0.51130 -0.24500
O 	O 	0.97510 0.83336 0.42890 -0.42700
O 	O 	0.22720 0.59100 0.38280 -0.24300
O 	O 	0.98130 0.62520 0.72200 -0.47600
O 	O 	0.12950 0.57020 0.34060 -0.23600
O 	O 	0.94750 0.65740 0.77900 -0.42000
O 	O 	0.02450 0.40818 0.32960 -0.45500
O 	O 	0.00950 0.44126 0.26570 -0.42200
O 	O 	0.05960 0.81470 0.38560 -0.42000
O 	O 	0.07290 0.81379 0.30420 -0.42300
O 	O 	0.45120 0.64327 0.31990 -0.45000
O 	O 	0.42650 0.60224 0.26930 -0.44200
O 	O 	0.54480 0.94210 0.85640 -0.39000
O 	O 	0.57340 0.89550 0.88610 -0.37300
O 	O 	0.95190 0.07610 0.86670 -0.42800
O 	O 	0.94240 0.12010 0.92310 -0.42300
O 	O 	0.94870 0.91750 0.28040 -0.37800
O 	O 	0.88650 0.87980 0.29840 -0.40700
O 	O 	0.54050 0.07286 0.28400 -0.37500
O 	O 	0.57100 0.12252 0.25530 -0.42800
O 	O 	0.53940 0.65440 0.37600 -0.43000
O 	O 	0.50140 0.62910 0.43340 -0.40800
O 	O 	0.05430 0.58400 0.68120 -0.41000
O 	O 	0.97930 0.56570 0.65610 -0.41000
H 	H 	0.64623 0.98210 0.03959 0.11700
H 	H 	0.81972 0.97737 0.07816 0.11900
H 	H 	0.72808 0.69431 0.63987 0.12100
H 	H 	0.70066 0.71317 0.48050 0.10900
H 	H 	0.26319 0.59396 0.37056 0.12100
H 	H 	0.09812 0.57554 0.32085 0.10800
H 	H 	0.10070 0.65867 0.39607 0.03900
H 	H 	0.37198 0.62155 0.97463 0.04100
H 	H 	0.69284 0.03516 0.10837 0.04000
H 	H 	0.81180 0.03151 0.05804 0.03800
H 	H 	0.76289 0.76054 0.52346 0.04000
H 	H 	0.70891 0.75549 0.64340 0.03800
