data_crystal

_cell_length_a 41.51120
_cell_length_b 41.45560
_cell_length_c 31.16770
_cell_angle_alpha 90.00000
_cell_angle_beta  109.40800
_cell_angle_gamma 90.00000

_symmetry_space_group_name_	'P 1'
_symmetry_space_group_name_H-M	'P 1'

loop_
_symmetry_equiv_pos_as_xyz
  x,y,z

loop_
_atom_site_label
_atom_site_type_symbol
_atom_site_fract_x
_atom_site_fract_y
_atom_site_fract_z
_atom_site_charge
Cu	Cu	0.98836 0.98185 0.52629 0.90600
Cu	Cu	0.73847 0.26819 0.02631 0.90600
Cu	Cu	0.64982 0.85682 0.02637 0.90600
Cu	Cu	0.60028 0.89317 0.97376 0.90900
C 	C 	0.00677 0.81251 0.27559 -0.04800
C 	C 	0.00059 0.83898 0.29910 0.14000
C 	C 	0.01227 0.83906 0.34638 -0.08200
C 	C 	0.03014 0.81266 0.37016 0.00500
H 	H 	0.03800 0.81270 0.40210 0.03300
C 	C 	0.03632 0.78618 0.34666 -0.08300
C 	C 	0.02463 0.78610 0.29937 0.13800
C 	C 	0.00100 0.95140 0.45230 0.36200
C 	C 	0.05272 0.75626 0.37300 0.11900
C 	C 	0.03951 0.72566 0.35962 -0.14700
H 	H 	0.02010 0.72310 0.33360 0.11000
C 	C 	0.05499 0.69879 0.38470 0.07100
H 	H 	0.04610 0.67810 0.37570 0.03100
C 	C 	0.08369 0.70251 0.42320 -0.12300
C 	C 	0.09691 0.73311 0.43659 0.06900
H 	H 	0.11630 0.73560 0.46260 0.02700
C 	C 	0.08142 0.75999 0.41150 -0.14900
H 	H 	0.09040 0.78070 0.42060 0.08800
C 	C 	0.09900 0.67330 0.45130 0.36500
C 	C 	0.00874 0.86837 0.37300 0.12000
C 	C 	0.01542 0.89890 0.35952 -0.14800
H 	H 	0.02170 0.90130 0.33340 0.11700
C 	C 	0.01283 0.92584 0.38470 0.06900
H 	H 	0.01730 0.94650 0.37560 0.03400
C 	C 	0.00356 0.92225 0.42340 -0.11500
C 	C 	0.99688 0.89172 0.43689 0.06300
H 	H 	0.99060 0.88930 0.46310 0.02900
C 	C 	0.99947 0.86478 0.41170 -0.14800
H 	H 	0.99500 0.84410 0.42080 0.08800
C 	C 	0.65050 0.92270 0.04810 0.37600
C 	C 	0.73695 0.08919 0.15300 -0.09200
C 	C 	0.72000 0.06228 0.12957 0.01200
H 	H 	0.71200 0.06220 0.09760 0.03000
C 	C 	0.71494 0.03549 0.15340 -0.09000
C 	C 	0.72682 0.03562 0.20070 0.15400
C 	C 	0.74377 0.06253 0.22414 -0.05800
C 	C 	0.74884 0.08932 0.20030 0.15100
C 	C 	0.74900 0.20100 0.04780 0.37900
C 	C 	0.74077 0.11898 0.12658 0.12100
C 	C 	0.75006 0.11529 0.08790 -0.15300
H 	H 	0.75430 0.09460 0.07870 0.09000
C 	C 	0.75311 0.14221 0.06297 0.07300
H 	H 	0.75940 0.13970 0.03680 0.02500
C 	C 	0.74688 0.17282 0.07670 -0.13300
C 	C 	0.73759 0.17650 0.11530 0.07500
H 	H 	0.73340 0.19720 0.12460 0.02900
C 	C 	0.73454 0.14958 0.14028 -0.14900
H 	H 	0.72830 0.15210 0.16640 0.10000
C 	C 	0.66100 0.11120 0.45130 0.34600
C 	C 	0.69766 0.00627 0.12650 0.11900
C 	C 	0.66906 0.00994 0.08790 -0.14700
H 	H 	0.66010 0.03060 0.07870 0.08800
C 	C 	0.65363 0.98302 0.06286 0.06500
H 	H 	0.63430 0.98550 0.03670 0.03000
C 	C 	0.66681 0.95243 0.07640 -0.11500
C 	C 	0.69542 0.94877 0.11510 0.06600
H 	H 	0.70430 0.92810 0.12430 0.03500
C 	C 	0.71085 0.97569 0.14009 -0.13800
H 	H 	0.73020 0.97320 0.16620 0.10100
C 	C 	0.41140 0.13800 0.95090 0.38700
C 	C 	0.75645 0.06290 0.27580 -0.05800
C 	C 	0.73564 0.07410 0.29952 0.15300
C 	C 	0.74734 0.07371 0.34680 -0.09000
C 	C 	0.77985 0.06213 0.37036 0.01000
H 	H 	0.78780 0.06190 0.40230 0.03200
C 	C 	0.80065 0.05093 0.34664 -0.08800
C 	C 	0.78895 0.05131 0.29936 0.15100
C 	C 	0.93970 0.01310 0.45180 0.34500
C 	C 	0.83720 0.04085 0.37285 0.11100
C 	C 	0.84296 0.02189 0.41150 -0.14000
H 	H 	0.82450 0.01530 0.42040 0.08600
C 	C 	0.87603 0.01274 0.43683 0.05600
H 	H 	0.87990 0.99990 0.46290 0.03200
C 	C 	0.90334 0.02255 0.42357 -0.10500
C 	C 	0.89758 0.04151 0.38500 0.05400
H 	H 	0.91600 0.04810 0.37600 0.03600
C 	C 	0.86451 0.05066 0.35960 -0.13100
H 	H 	0.86060 0.06350 0.33350 0.09000
C 	C 	0.68910 0.23670 0.95170 0.36200
C 	C 	0.58721 0.20941 0.87360 0.12100
C 	C 	0.59328 0.22838 0.91230 -0.15000
H 	H 	0.57500 0.23510 0.92150 0.09100
C 	C 	0.62645 0.23749 0.93725 0.07100
H 	H 	0.63060 0.25030 0.96340 0.02700
C 	C 	0.65354 0.22762 0.92360 -0.12600
C 	C 	0.64747 0.20865 0.88490 0.07300
H 	H 	0.66580 0.20200 0.87570 0.02900
C 	C 	0.61431 0.19954 0.85994 -0.14800
H 	H 	0.61020 0.18670 0.83380 0.10700
O 	O 	0.66520 0.89666 0.06000 -0.41400
C 	C 	0.50642 0.18777 0.77574 -0.05200
C 	C 	0.48597 0.17550 0.79930 0.14600
C 	C 	0.49776 0.17534 0.84660 -0.08600
C 	C 	0.53000 0.18744 0.87031 0.00800
H 	H 	0.53800 0.18730 0.90230 0.03300
C 	C 	0.55045 0.19971 0.84680 -0.08300
C 	C 	0.53866 0.19987 0.79950 0.14500
O 	O 	0.62355 0.92765 0.01500 -0.40700
C 	C 	0.72450 0.08424 0.37301 0.11500
C 	C 	0.73787 0.10310 0.41170 -0.14100
H 	H 	0.76080 0.10980 0.42090 0.08700
C 	C 	0.71733 0.11211 0.43700 0.06000
H 	H 	0.72640 0.12490 0.46320 0.03100
C 	C 	0.68342 0.10226 0.42351 -0.10800
C 	C 	0.67004 0.08340 0.38480 0.06000
H 	H 	0.64710 0.07670 0.37560 0.03700
C 	C 	0.69059 0.07439 0.35952 -0.12800
H 	H 	0.68150 0.06160 0.33330 0.09400
O 	O 	0.08434 0.64652 0.44000 -0.40300
C 	C 	0.47434 0.16571 0.87302 0.12500
C 	C 	0.44046 0.17566 0.85974 -0.15200
H 	H 	0.43140 0.18860 0.83370 0.10800
C 	C 	0.41995 0.16654 0.88500 0.08100
H 	H 	0.39700 0.17330 0.87600 0.02700
C 	C 	0.43331 0.14746 0.92351 -0.13700
C 	C 	0.46719 0.13751 0.93679 0.07900
H 	H 	0.47620 0.12460 0.96280 0.02400
C 	C 	0.48770 0.14663 0.91160 -0.15500
H 	H 	0.51060 0.13990 0.92050 0.09100
O 	O 	0.12655 0.67762 0.48400 -0.40000
O 	O 	0.63082 0.09977 0.43940 -0.39600
O 	O 	0.67389 0.13044 0.48460 -0.39400
O 	O 	0.42361 0.11946 0.98400 -0.40900
O 	O 	0.38205 0.15003 0.94010 -0.41000
O 	O 	0.69334 0.25559 0.98430 -0.40400
O 	O 	0.71340 0.22460 0.93970 -0.39700
O 	O 	0.74013 0.22818 0.06040 -0.40000
O 	O 	0.75948 0.19747 0.01570 -0.41700
O 	O 	0.94355 0.99453 0.48500 -0.40000
O 	O 	0.96394 0.02511 0.43940 -0.39400
O 	O 	0.99036 0.94726 0.48430 -0.41000
O 	O 	0.01014 0.97834 0.43931 -0.39400
O 	O 	0.80910 0.03810 0.27620 -0.24000
O 	O 	0.76740 0.11560 0.22520 -0.24700
O 	O 	0.70350 0.08570 0.27530 -0.24100
O 	O 	0.71940 0.00960 0.22420 -0.23900
O 	O 	0.98290 0.86600 0.27620 -0.18400
O 	O 	0.02660 0.75830 0.27480 -0.19500
O 	O 	0.56000 0.21060 0.77570 -0.19800
O 	O 	0.04690 0.33560 0.22410 -0.20400
O 	O 	0.07600 0.41530 0.24200 -0.17000
O 	O 	0.03680 0.48280 0.23140 -0.16100
O 	O 	0.55930 0.28940 0.70510 -0.17600
O 	O 	0.54900 0.37360 0.75530 -0.16300
O 	O 	0.09320 0.73330 0.25590 -0.14200
O 	O 	0.93840 0.91520 0.23900 -0.14200
O 	O 	0.84840 0.00860 0.23590 -0.15500
O 	O 	0.87530 0.10310 0.25160 -0.18500
O 	O 	0.71460 0.18400 0.24470 -0.17900
O 	O 	0.65030 0.11820 0.28190 -0.16500
O 	O 	0.63470 0.02100 0.26170 -0.17700
O 	O 	0.69540 0.94940 0.24060 -0.17100
O 	O 	0.78360 0.93560 0.24310 -0.19600
C 	C 	0.80890 0.00490 0.27920 0.09600
C 	C 	0.80130 0.11700 0.22750 0.11900
C 	C 	0.70250 0.11910 0.27380 0.09800
C 	C 	0.68660 0.00970 0.22800 0.08300
C 	C 	0.94880 0.86190 0.27470 0.06700
C 	C 	0.06040 0.75760 0.27540 0.11400
C 	C 	0.55930 0.24400 0.76480 0.07800
C 	C 	0.04860 0.36910 0.22040 0.08300
C 	C 	0.08020 0.37940 0.25090 0.06800
C 	C 	0.04380 0.42730 0.24820 0.06200
C 	C 	0.03340 0.45040 0.20860 0.07100
C 	C 	0.99930 0.47770 0.22580 0.06300
C 	C 	0.55540 0.25530 0.71970 0.06400
C 	C 	0.55600 0.31720 0.73360 0.08100
C 	C 	0.53420 0.34700 0.72030 0.05900
C 	C 	0.51730 0.39350 0.74720 0.06300
C 	C 	0.09490 0.76480 0.28130 0.03900
C 	C 	0.93170 0.89160 0.26700 0.08400
C 	C 	0.82360 0.98910 0.25060 0.03700
C 	C 	0.87230 0.03940 0.25190 0.04800
C 	C 	0.89210 0.07020 0.26450 0.06500
C 	C 	0.85720 0.13230 0.25970 0.09200
C 	C 	0.82080 0.14470 0.24280 -0.04700
C 	C 	0.67660 0.17090 0.24190 0.06000
C 	C 	0.67010 0.13290 0.25650 0.05200
C 	C 	0.62670 0.08730 0.27350 0.07000
C 	C 	0.64290 0.05360 0.28390 0.03900
C 	C 	0.65320 0.99100 0.26200 0.07600
C 	C 	0.67800 0.97910 0.24080 0.05300
C 	C 	0.72660 0.92860 0.25070 0.04600
C 	C 	0.75570 0.92850 0.25790 0.06800
C 	C 	0.80400 0.95960 0.22940 0.07800
C 	C 	0.75870 0.14350 0.24940 0.07000
C 	C 	0.72530 0.15610 0.23450 0.06700
C 	C 	0.67630 0.06080 0.25900 0.08200
C 	C 	0.66990 0.03010 0.27530 0.01600
C 	C 	0.76590 0.96590 0.24000 0.02400
C 	C 	0.73760 0.98080 0.24990 0.08800
C 	C 	0.83290 0.05810 0.26070 0.08600
C 	C 	0.85320 0.08720 0.27280 0.01800
Cu	Cu	0.48836 0.48185 0.52629 0.90700
Cu	Cu	0.23847 0.76819 0.02631 0.90700
Cu	Cu	0.14982 0.35682 0.02637 0.90700
Cu	Cu	0.10028 0.39317 0.97376 0.91000
C 	C 	0.50677 0.31251 0.27559 -0.04700
C 	C 	0.50059 0.33898 0.29910 0.14100
C 	C 	0.51227 0.33906 0.34638 -0.08100
C 	C 	0.53014 0.31266 0.37016 0.00600
H 	H 	0.53800 0.31270 0.40210 0.03400
C 	C 	0.53632 0.28618 0.34666 -0.08200
C 	C 	0.52463 0.28610 0.29937 0.13900
C 	C 	0.50100 0.45140 0.45230 0.36300
C 	C 	0.55272 0.25626 0.37300 0.12000
C 	C 	0.53951 0.22566 0.35962 -0.14600
H 	H 	0.52010 0.22310 0.33360 0.11100
C 	C 	0.55499 0.19879 0.38470 0.07200
H 	H 	0.54610 0.17810 0.37570 0.03200
C 	C 	0.58369 0.20251 0.42320 -0.12200
C 	C 	0.59691 0.23311 0.43659 0.07000
H 	H 	0.61630 0.23560 0.46260 0.02800
C 	C 	0.58142 0.25999 0.41150 -0.14800
H 	H 	0.59040 0.28070 0.42060 0.08900
C 	C 	0.59900 0.17330 0.45130 0.36600
C 	C 	0.50874 0.36837 0.37300 0.12100
C 	C 	0.51542 0.39890 0.35952 -0.14700
H 	H 	0.52170 0.40130 0.33340 0.11800
C 	C 	0.51283 0.42584 0.38470 0.07000
H 	H 	0.51730 0.44650 0.37560 0.03500
C 	C 	0.50356 0.42225 0.42340 -0.11400
C 	C 	0.49688 0.39172 0.43689 0.06400
H 	H 	0.49060 0.38930 0.46310 0.02900
C 	C 	0.49947 0.36478 0.41170 -0.14700
H 	H 	0.49500 0.34410 0.42080 0.08900
C 	C 	0.15050 0.42270 0.04810 0.37700
C 	C 	0.23695 0.58919 0.15300 -0.09100
C 	C 	0.22000 0.56228 0.12957 0.01300
H 	H 	0.21200 0.56220 0.09760 0.03100
C 	C 	0.21494 0.53549 0.15340 -0.08900
C 	C 	0.22682 0.53562 0.20070 0.15500
C 	C 	0.24377 0.56253 0.22414 -0.05700
C 	C 	0.24884 0.58932 0.20030 0.15200
C 	C 	0.24900 0.70100 0.04780 0.38000
C 	C 	0.24077 0.61898 0.12658 0.12200
C 	C 	0.25006 0.61529 0.08790 -0.15200
H 	H 	0.25430 0.59460 0.07870 0.09100
C 	C 	0.25311 0.64221 0.06297 0.07400
H 	H 	0.25940 0.63970 0.03680 0.02600
C 	C 	0.24688 0.67282 0.07670 -0.13200
C 	C 	0.23759 0.67650 0.11530 0.07600
H 	H 	0.23340 0.69720 0.12460 0.03000
C 	C 	0.23454 0.64958 0.14028 -0.14800
H 	H 	0.22830 0.65210 0.16640 0.10100
C 	C 	0.16100 0.61120 0.45130 0.34700
C 	C 	0.19766 0.50627 0.12650 0.12000
C 	C 	0.16906 0.50994 0.08790 -0.14600
H 	H 	0.16010 0.53060 0.07870 0.08900
C 	C 	0.15363 0.48302 0.06286 0.06500
H 	H 	0.13430 0.48550 0.03670 0.03000
C 	C 	0.16681 0.45243 0.07640 -0.11500
C 	C 	0.19542 0.44877 0.11510 0.06600
H 	H 	0.20430 0.42810 0.12430 0.03500
C 	C 	0.21085 0.47569 0.14009 -0.13800
H 	H 	0.23020 0.47320 0.16620 0.10100
C 	C 	0.91140 0.63800 0.95090 0.38700
C 	C 	0.25645 0.56290 0.27580 -0.05800
C 	C 	0.23564 0.57410 0.29952 0.15300
C 	C 	0.24734 0.57371 0.34680 -0.09000
C 	C 	0.27985 0.56213 0.37036 0.01000
H 	H 	0.28780 0.56190 0.40230 0.03200
C 	C 	0.30065 0.55093 0.34664 -0.08800
C 	C 	0.28895 0.55131 0.29936 0.15100
C 	C 	0.43970 0.51310 0.45180 0.34500
C 	C 	0.33720 0.54085 0.37285 0.11100
C 	C 	0.34296 0.52189 0.41150 -0.14000
H 	H 	0.32450 0.51530 0.42040 0.08600
C 	C 	0.37603 0.51274 0.43683 0.05600
H 	H 	0.37990 0.49990 0.46290 0.03200
C 	C 	0.40334 0.52255 0.42357 -0.10500
C 	C 	0.39758 0.54151 0.38500 0.05400
H 	H 	0.41600 0.54810 0.37600 0.03600
C 	C 	0.36451 0.55066 0.35960 -0.13100
H 	H 	0.36060 0.56350 0.33350 0.09000
C 	C 	0.18910 0.73670 0.95170 0.36200
C 	C 	0.08721 0.70941 0.87360 0.12100
C 	C 	0.09328 0.72838 0.91230 -0.15000
H 	H 	0.07500 0.73510 0.92150 0.09100
C 	C 	0.12645 0.73749 0.93725 0.07100
H 	H 	0.13060 0.75030 0.96340 0.02700
C 	C 	0.15354 0.72762 0.92360 -0.12600
C 	C 	0.14747 0.70865 0.88490 0.07300
H 	H 	0.16580 0.70200 0.87570 0.02900
C 	C 	0.11431 0.69954 0.85994 -0.14800
H 	H 	0.11020 0.68670 0.83380 0.10700
O 	O 	0.16520 0.39666 0.06000 -0.41400
C 	C 	0.00642 0.68777 0.77574 -0.05200
C 	C 	0.98597 0.67550 0.79930 0.14600
C 	C 	0.99776 0.67534 0.84660 -0.08600
C 	C 	0.03000 0.68744 0.87031 0.00800
H 	H 	0.03800 0.68730 0.90230 0.03300
C 	C 	0.05045 0.69971 0.84680 -0.08300
C 	C 	0.03866 0.69987 0.79950 0.14500
O 	O 	0.12355 0.42765 0.01500 -0.40700
C 	C 	0.22450 0.58424 0.37301 0.11500
C 	C 	0.23787 0.60310 0.41170 -0.14100
H 	H 	0.26080 0.60980 0.42090 0.08700
C 	C 	0.21733 0.61211 0.43700 0.06000
H 	H 	0.22640 0.62490 0.46320 0.03100
C 	C 	0.18342 0.60226 0.42351 -0.10800
C 	C 	0.17004 0.58340 0.38480 0.06000
H 	H 	0.14710 0.57670 0.37560 0.03700
C 	C 	0.19059 0.57439 0.35952 -0.12800
H 	H 	0.18150 0.56160 0.33330 0.09400
O 	O 	0.58434 0.14652 0.44000 -0.40300
C 	C 	0.97434 0.66571 0.87302 0.12400
C 	C 	0.94046 0.67566 0.85974 -0.15200
H 	H 	0.93140 0.68860 0.83370 0.10800
C 	C 	0.91995 0.66654 0.88500 0.08100
H 	H 	0.89700 0.67330 0.87600 0.02700
C 	C 	0.93331 0.64746 0.92351 -0.13700
C 	C 	0.96719 0.63751 0.93679 0.07900
H 	H 	0.97620 0.62460 0.96280 0.02500
C 	C 	0.98770 0.64663 0.91160 -0.15500
H 	H 	0.01060 0.63990 0.92050 0.09100
O 	O 	0.62655 0.17762 0.48400 -0.40000
O 	O 	0.13082 0.59977 0.43940 -0.39600
O 	O 	0.17389 0.63044 0.48460 -0.39400
O 	O 	0.92361 0.61946 0.98400 -0.40900
O 	O 	0.88205 0.65003 0.94010 -0.40900
O 	O 	0.19334 0.75559 0.98430 -0.40400
O 	O 	0.21340 0.72460 0.93970 -0.39700
O 	O 	0.24013 0.72818 0.06040 -0.40000
O 	O 	0.25948 0.69747 0.01570 -0.41700
O 	O 	0.44355 0.49453 0.48500 -0.40000
O 	O 	0.46394 0.52511 0.43940 -0.39500
O 	O 	0.49036 0.44726 0.48430 -0.41000
O 	O 	0.51014 0.47834 0.43931 -0.39400
O 	O 	0.30910 0.53810 0.27620 -0.24000
O 	O 	0.26740 0.61560 0.22520 -0.24700
O 	O 	0.20350 0.58570 0.27530 -0.24100
O 	O 	0.21940 0.50960 0.22420 -0.23900
O 	O 	0.48290 0.36600 0.27620 -0.18400
O 	O 	0.52660 0.25830 0.27480 -0.19500
O 	O 	0.06000 0.71060 0.77570 -0.19800
O 	O 	0.54690 0.83560 0.22410 -0.20400
O 	O 	0.57600 0.91530 0.24200 -0.17000
O 	O 	0.53680 0.98280 0.23140 -0.16100
O 	O 	0.05930 0.78940 0.70510 -0.17600
O 	O 	0.04900 0.87360 0.75530 -0.16300
O 	O 	0.59320 0.23330 0.25590 -0.14200
O 	O 	0.43840 0.41520 0.23900 -0.14200
O 	O 	0.34840 0.50860 0.23590 -0.15500
O 	O 	0.37530 0.60310 0.25160 -0.18500
O 	O 	0.21460 0.68400 0.24470 -0.17900
O 	O 	0.15030 0.61820 0.28190 -0.16500
O 	O 	0.13470 0.52100 0.26170 -0.17700
O 	O 	0.19540 0.44940 0.24060 -0.17100
O 	O 	0.28360 0.43560 0.24310 -0.19600
C 	C 	0.30890 0.50490 0.27920 0.09600
C 	C 	0.30130 0.61700 0.22750 0.11900
C 	C 	0.20250 0.61910 0.27380 0.09800
C 	C 	0.18660 0.50970 0.22800 0.08300
C 	C 	0.44880 0.36190 0.27470 0.06700
C 	C 	0.56040 0.25760 0.27540 0.11400
C 	C 	0.05930 0.74400 0.76480 0.07800
C 	C 	0.54860 0.86910 0.22040 0.08300
C 	C 	0.58020 0.87940 0.25090 0.06800
C 	C 	0.54380 0.92730 0.24820 0.06200
C 	C 	0.53340 0.95040 0.20860 0.07100
C 	C 	0.49930 0.97770 0.22580 0.06400
C 	C 	0.05540 0.75530 0.71970 0.06400
C 	C 	0.05600 0.81720 0.73360 0.08100
C 	C 	0.03420 0.84700 0.72030 0.05900
C 	C 	0.01730 0.89350 0.74720 0.06300
C 	C 	0.59490 0.26480 0.28130 0.03900
C 	C 	0.43170 0.39160 0.26700 0.08400
C 	C 	0.32360 0.48910 0.25060 0.03700
C 	C 	0.37230 0.53940 0.25190 0.04800
C 	C 	0.39210 0.57020 0.26450 0.06500
C 	C 	0.35720 0.63230 0.25970 0.09200
C 	C 	0.32080 0.64470 0.24280 -0.04700
C 	C 	0.17660 0.67090 0.24190 0.06000
C 	C 	0.17010 0.63290 0.25650 0.05200
C 	C 	0.12670 0.58730 0.27350 0.07000
C 	C 	0.14290 0.55360 0.28390 0.03900
C 	C 	0.15320 0.49100 0.26200 0.07600
C 	C 	0.17800 0.47910 0.24080 0.05300
C 	C 	0.22660 0.42860 0.25070 0.04600
C 	C 	0.25570 0.42850 0.25790 0.06800
C 	C 	0.30400 0.45960 0.22940 0.07800
C 	C 	0.25870 0.64350 0.24940 0.07000
C 	C 	0.22530 0.65610 0.23450 0.06700
C 	C 	0.17630 0.56080 0.25900 0.08200
C 	C 	0.16990 0.53010 0.27530 0.01600
C 	C 	0.26590 0.46590 0.24000 0.02400
C 	C 	0.23760 0.48080 0.24990 0.08800
C 	C 	0.33290 0.55810 0.26070 0.08600
C 	C 	0.35320 0.58720 0.27280 0.01800
Cu	Cu	0.01164 0.98185 0.97371 0.90700
Cu	Cu	0.26153 0.26819 0.47369 0.90700
Cu	Cu	0.35018 0.85682 0.47363 0.90700
Cu	Cu	0.39972 0.89317 0.52624 0.91000
C 	C 	0.99323 0.81251 0.22441 -0.04700
C 	C 	0.99941 0.83898 0.20090 0.14100
C 	C 	0.98773 0.83906 0.15362 -0.08100
C 	C 	0.96986 0.81266 0.12984 0.00600
H 	H 	0.96200 0.81270 0.09790 0.03400
C 	C 	0.96368 0.78618 0.15334 -0.08200
C 	C 	0.97537 0.78610 0.20063 0.13900
C 	C 	0.99900 0.95140 0.04770 0.36300
C 	C 	0.94728 0.75626 0.12700 0.12000
C 	C 	0.96049 0.72566 0.14038 -0.14600
H 	H 	0.97990 0.72310 0.16640 0.11100
C 	C 	0.94501 0.69879 0.11530 0.07200
H 	H 	0.95390 0.67810 0.12430 0.03200
C 	C 	0.91631 0.70251 0.07680 -0.12200
C 	C 	0.90309 0.73311 0.06341 0.07000
H 	H 	0.88370 0.73560 0.03740 0.02800
C 	C 	0.91858 0.75999 0.08850 -0.14800
H 	H 	0.90960 0.78070 0.07940 0.08900
C 	C 	0.90100 0.67330 0.04870 0.36600
C 	C 	0.99126 0.86837 0.12700 0.12100
C 	C 	0.98458 0.89890 0.14048 -0.14700
H 	H 	0.97830 0.90130 0.16660 0.11800
C 	C 	0.98717 0.92584 0.11530 0.07000
H 	H 	0.98270 0.94650 0.12440 0.03500
C 	C 	0.99644 0.92225 0.07660 -0.11400
C 	C 	0.00312 0.89172 0.06311 0.06400
H 	H 	0.00940 0.88930 0.03690 0.03000
C 	C 	0.00053 0.86478 0.08830 -0.14700
H 	H 	0.00500 0.84410 0.07920 0.08900
C 	C 	0.34950 0.92270 0.45190 0.37700
C 	C 	0.26305 0.08919 0.34700 -0.09100
C 	C 	0.28000 0.06228 0.37043 0.01300
H 	H 	0.28800 0.06220 0.40240 0.03100
C 	C 	0.28506 0.03549 0.34660 -0.08900
C 	C 	0.27318 0.03562 0.29930 0.15500
C 	C 	0.25623 0.06253 0.27586 -0.05700
C 	C 	0.25116 0.08932 0.29970 0.15200
C 	C 	0.25100 0.20100 0.45220 0.38000
C 	C 	0.25923 0.11898 0.37342 0.12200
C 	C 	0.24994 0.11529 0.41210 -0.15200
H 	H 	0.24570 0.09460 0.42130 0.09100
C 	C 	0.24689 0.14221 0.43703 0.07400
H 	H 	0.24060 0.13970 0.46320 0.02600
C 	C 	0.25312 0.17282 0.42330 -0.13200
C 	C 	0.26241 0.17650 0.38470 0.07600
H 	H 	0.26660 0.19720 0.37540 0.03000
C 	C 	0.26546 0.14958 0.35972 -0.14800
H 	H 	0.27170 0.15210 0.33360 0.10100
C 	C 	0.33900 0.11120 0.04870 0.34700
C 	C 	0.30234 0.00627 0.37350 0.12000
C 	C 	0.33094 0.00994 0.41210 -0.14600
H 	H 	0.33990 0.03060 0.42130 0.08900
C 	C 	0.34637 0.98302 0.43714 0.06500
H 	H 	0.36570 0.98550 0.46330 0.03000
C 	C 	0.33319 0.95243 0.42360 -0.11500
C 	C 	0.30458 0.94877 0.38490 0.06600
H 	H 	0.29570 0.92810 0.37570 0.03500
C 	C 	0.28915 0.97569 0.35991 -0.13800
H 	H 	0.26980 0.97320 0.33380 0.10100
C 	C 	0.58860 0.13800 0.54910 0.38700
C 	C 	0.24355 0.06290 0.22420 -0.05800
C 	C 	0.26436 0.07410 0.20048 0.15300
C 	C 	0.25266 0.07371 0.15320 -0.09000
C 	C 	0.22015 0.06213 0.12964 0.01000
H 	H 	0.21220 0.06190 0.09770 0.03200
C 	C 	0.19935 0.05093 0.15336 -0.08800
C 	C 	0.21105 0.05131 0.20064 0.15100
C 	C 	0.06030 0.01310 0.04820 0.34500
C 	C 	0.16280 0.04085 0.12715 0.11000
C 	C 	0.15704 0.02189 0.08850 -0.13900
H 	H 	0.17550 0.01530 0.07960 0.08600
C 	C 	0.12397 0.01274 0.06317 0.05600
H 	H 	0.12010 0.99990 0.03710 0.03200
C 	C 	0.09666 0.02255 0.07643 -0.10500
C 	C 	0.10242 0.04151 0.11500 0.05400
H 	H 	0.08400 0.04810 0.12400 0.03600
C 	C 	0.13549 0.05066 0.14040 -0.13100
H 	H 	0.13940 0.06350 0.16650 0.09000
C 	C 	0.31090 0.23670 0.54830 0.36200
C 	C 	0.41279 0.20941 0.62640 0.12100
C 	C 	0.40672 0.22838 0.58770 -0.15000
H 	H 	0.42500 0.23510 0.57850 0.09100
C 	C 	0.37355 0.23749 0.56275 0.07100
H 	H 	0.36940 0.25030 0.53660 0.02700
C 	C 	0.34646 0.22762 0.57640 -0.12600
C 	C 	0.35253 0.20865 0.61510 0.07300
H 	H 	0.33420 0.20200 0.62430 0.02900
C 	C 	0.38569 0.19954 0.64006 -0.14800
H 	H 	0.38980 0.18670 0.66620 0.10700
O 	O 	0.33480 0.89666 0.44000 -0.41400
C 	C 	0.49358 0.18777 0.72426 -0.05200
C 	C 	0.51403 0.17550 0.70070 0.14600
C 	C 	0.50224 0.17534 0.65340 -0.08600
C 	C 	0.47000 0.18744 0.62969 0.00800
H 	H 	0.46200 0.18730 0.59770 0.03300
C 	C 	0.44955 0.19971 0.65320 -0.08300
C 	C 	0.46134 0.19987 0.70050 0.14500
O 	O 	0.37645 0.92765 0.48500 -0.40700
C 	C 	0.27550 0.08424 0.12699 0.11500
C 	C 	0.26213 0.10310 0.08830 -0.14100
H 	H 	0.23920 0.10980 0.07910 0.08700
C 	C 	0.28267 0.11211 0.06300 0.06000
H 	H 	0.27360 0.12490 0.03680 0.03100
C 	C 	0.31658 0.10226 0.07649 -0.10800
C 	C 	0.32996 0.08340 0.11520 0.06000
H 	H 	0.35290 0.07670 0.12440 0.03700
C 	C 	0.30941 0.07439 0.14048 -0.12800
H 	H 	0.31850 0.06160 0.16670 0.09400
O 	O 	0.91566 0.64652 0.06000 -0.40300
C 	C 	0.52566 0.16571 0.62698 0.12500
C 	C 	0.55954 0.17566 0.64026 -0.15200
H 	H 	0.56860 0.18860 0.66630 0.10800
C 	C 	0.58005 0.16654 0.61500 0.08100
H 	H 	0.60300 0.17330 0.62400 0.02700
C 	C 	0.56669 0.14746 0.57649 -0.13700
C 	C 	0.53281 0.13751 0.56321 0.07900
H 	H 	0.52380 0.12460 0.53720 0.02400
C 	C 	0.51230 0.14663 0.58840 -0.15500
H 	H 	0.48940 0.13990 0.57950 0.09100
O 	O 	0.87345 0.67762 0.01600 -0.40000
O 	O 	0.36918 0.09977 0.06060 -0.39600
O 	O 	0.32611 0.13044 0.01540 -0.39400
O 	O 	0.57639 0.11946 0.51600 -0.40900
O 	O 	0.61795 0.15003 0.55990 -0.41000
O 	O 	0.30666 0.25559 0.51570 -0.40400
O 	O 	0.28660 0.22460 0.56030 -0.39700
O 	O 	0.25987 0.22818 0.43960 -0.40000
O 	O 	0.24052 0.19747 0.48430 -0.41700
O 	O 	0.05645 0.99453 0.01500 -0.40000
O 	O 	0.03606 0.02511 0.06060 -0.39400
O 	O 	0.00964 0.94726 0.01570 -0.41000
O 	O 	0.98986 0.97834 0.06069 -0.39400
O 	O 	0.19090 0.03810 0.22380 -0.24000
O 	O 	0.23260 0.11560 0.27480 -0.24700
O 	O 	0.29650 0.08570 0.22470 -0.24100
O 	O 	0.28060 0.00960 0.27580 -0.23900
O 	O 	0.01710 0.86600 0.22380 -0.18400
O 	O 	0.97340 0.75830 0.22520 -0.19500
O 	O 	0.44000 0.21060 0.72430 -0.19800
O 	O 	0.95310 0.33560 0.27590 -0.20300
O 	O 	0.92400 0.41530 0.25800 -0.17000
O 	O 	0.96320 0.48280 0.26860 -0.16100
O 	O 	0.44070 0.28940 0.79490 -0.17600
O 	O 	0.45100 0.37360 0.74470 -0.16300
O 	O 	0.90680 0.73330 0.24410 -0.14200
O 	O 	0.06160 0.91520 0.26100 -0.14200
O 	O 	0.15160 0.00860 0.26410 -0.15500
O 	O 	0.12470 0.10310 0.24840 -0.18500
O 	O 	0.28540 0.18400 0.25530 -0.17900
O 	O 	0.34970 0.11820 0.21810 -0.16500
O 	O 	0.36530 0.02100 0.23830 -0.17700
O 	O 	0.30460 0.94940 0.25940 -0.17100
O 	O 	0.21640 0.93560 0.25690 -0.19600
C 	C 	0.19110 0.00490 0.22080 0.09600
C 	C 	0.19870 0.11700 0.27250 0.11900
C 	C 	0.29750 0.11910 0.22620 0.09800
C 	C 	0.31340 0.00970 0.27200 0.08300
C 	C 	0.05120 0.86190 0.22530 0.06700
C 	C 	0.93960 0.75760 0.22460 0.11400
C 	C 	0.44070 0.24400 0.73520 0.07800
C 	C 	0.95140 0.36910 0.27960 0.08300
C 	C 	0.91980 0.37940 0.24910 0.06800
C 	C 	0.95620 0.42730 0.25180 0.06200
C 	C 	0.96660 0.45040 0.29140 0.07100
C 	C 	0.00070 0.47770 0.27420 0.06400
C 	C 	0.44460 0.25530 0.78030 0.06400
C 	C 	0.44400 0.31720 0.76640 0.08100
C 	C 	0.46580 0.34700 0.77970 0.05900
C 	C 	0.48270 0.39350 0.75280 0.06300
C 	C 	0.90510 0.76480 0.21870 0.03900
C 	C 	0.06830 0.89160 0.23300 0.08400
C 	C 	0.17640 0.98910 0.24940 0.03700
C 	C 	0.12770 0.03940 0.24810 0.04800
C 	C 	0.10790 0.07020 0.23550 0.06500
C 	C 	0.14280 0.13230 0.24030 0.09200
C 	C 	0.17920 0.14470 0.25720 -0.04700
C 	C 	0.32340 0.17090 0.25810 0.06000
C 	C 	0.32990 0.13290 0.24350 0.05200
C 	C 	0.37330 0.08730 0.22650 0.07000
C 	C 	0.35710 0.05360 0.21610 0.03900
C 	C 	0.34680 0.99100 0.23800 0.07600
C 	C 	0.32200 0.97910 0.25920 0.05300
C 	C 	0.27340 0.92860 0.24930 0.04600
C 	C 	0.24430 0.92850 0.24210 0.06800
C 	C 	0.19600 0.95960 0.27060 0.07800
C 	C 	0.24130 0.14350 0.25060 0.07000
C 	C 	0.27470 0.15610 0.26550 0.06700
C 	C 	0.32370 0.06080 0.24100 0.08200
C 	C 	0.33010 0.03010 0.22470 0.01600
C 	C 	0.23410 0.96590 0.26000 0.02400
C 	C 	0.26240 0.98080 0.25010 0.08800
C 	C 	0.16710 0.05810 0.23930 0.08600
C 	C 	0.14680 0.08720 0.22720 0.01800
Cu	Cu	0.51164 0.48185 0.97371 0.90700
Cu	Cu	0.76153 0.76819 0.47369 0.90700
Cu	Cu	0.85018 0.35682 0.47363 0.90700
Cu	Cu	0.89972 0.39317 0.52624 0.91000
C 	C 	0.49323 0.31251 0.22441 -0.04700
C 	C 	0.49941 0.33898 0.20090 0.14100
C 	C 	0.48773 0.33906 0.15362 -0.08100
C 	C 	0.46986 0.31266 0.12984 0.00600
H 	H 	0.46200 0.31270 0.09790 0.03400
C 	C 	0.46368 0.28618 0.15334 -0.08200
C 	C 	0.47537 0.28610 0.20063 0.13900
C 	C 	0.49900 0.45140 0.04770 0.36300
C 	C 	0.44728 0.25626 0.12700 0.12000
C 	C 	0.46049 0.22566 0.14038 -0.14600
H 	H 	0.47990 0.22310 0.16640 0.11100
C 	C 	0.44501 0.19879 0.11530 0.07200
H 	H 	0.45390 0.17810 0.12430 0.03200
C 	C 	0.41631 0.20251 0.07680 -0.12200
C 	C 	0.40309 0.23311 0.06341 0.07000
H 	H 	0.38370 0.23560 0.03740 0.02800
C 	C 	0.41858 0.25999 0.08850 -0.14800
H 	H 	0.40960 0.28070 0.07940 0.08900
C 	C 	0.40100 0.17330 0.04870 0.36600
C 	C 	0.49126 0.36837 0.12700 0.12100
C 	C 	0.48458 0.39890 0.14048 -0.14700
H 	H 	0.47830 0.40130 0.16660 0.11800
C 	C 	0.48717 0.42584 0.11530 0.07000
H 	H 	0.48270 0.44650 0.12440 0.03500
C 	C 	0.49644 0.42225 0.07660 -0.11400
C 	C 	0.50312 0.39172 0.06311 0.06400
H 	H 	0.50940 0.38930 0.03690 0.03000
C 	C 	0.50053 0.36478 0.08830 -0.14700
H 	H 	0.50500 0.34410 0.07920 0.08900
C 	C 	0.84950 0.42270 0.45190 0.37700
C 	C 	0.76305 0.58919 0.34700 -0.09100
C 	C 	0.78000 0.56228 0.37043 0.01300
H 	H 	0.78800 0.56220 0.40240 0.03100
C 	C 	0.78506 0.53549 0.34660 -0.08900
C 	C 	0.77318 0.53562 0.29930 0.15500
C 	C 	0.75623 0.56253 0.27586 -0.05700
C 	C 	0.75116 0.58932 0.29970 0.15200
C 	C 	0.75100 0.70100 0.45220 0.38000
C 	C 	0.75923 0.61898 0.37342 0.12200
C 	C 	0.74994 0.61529 0.41210 -0.15200
H 	H 	0.74570 0.59460 0.42130 0.09100
C 	C 	0.74689 0.64221 0.43703 0.07400
H 	H 	0.74060 0.63970 0.46320 0.02600
C 	C 	0.75312 0.67282 0.42330 -0.13200
C 	C 	0.76241 0.67650 0.38470 0.07600
H 	H 	0.76660 0.69720 0.37540 0.03000
C 	C 	0.76546 0.64958 0.35972 -0.14800
H 	H 	0.77170 0.65210 0.33360 0.10100
C 	C 	0.83900 0.61120 0.04870 0.34700
C 	C 	0.80234 0.50627 0.37350 0.12000
C 	C 	0.83094 0.50994 0.41210 -0.14600
H 	H 	0.83990 0.53060 0.42130 0.08900
C 	C 	0.84637 0.48302 0.43714 0.06500
H 	H 	0.86570 0.48550 0.46330 0.03000
C 	C 	0.83319 0.45243 0.42360 -0.11500
C 	C 	0.80458 0.44877 0.38490 0.06600
H 	H 	0.79570 0.42810 0.37570 0.03500
C 	C 	0.78915 0.47569 0.35991 -0.13800
H 	H 	0.76980 0.47320 0.33380 0.10100
C 	C 	0.08860 0.63800 0.54910 0.38700
C 	C 	0.74355 0.56290 0.22420 -0.05800
C 	C 	0.76436 0.57410 0.20048 0.15300
C 	C 	0.75266 0.57371 0.15320 -0.09000
C 	C 	0.72015 0.56213 0.12964 0.01000
H 	H 	0.71220 0.56190 0.09770 0.03200
C 	C 	0.69935 0.55093 0.15336 -0.08800
C 	C 	0.71105 0.55131 0.20064 0.15100
C 	C 	0.56030 0.51310 0.04820 0.34500
C 	C 	0.66280 0.54085 0.12715 0.11100
C 	C 	0.65704 0.52189 0.08850 -0.14000
H 	H 	0.67550 0.51530 0.07960 0.08600
C 	C 	0.62397 0.51274 0.06317 0.05600
H 	H 	0.62010 0.49990 0.03710 0.03200
C 	C 	0.59666 0.52255 0.07643 -0.10500
C 	C 	0.60242 0.54151 0.11500 0.05400
H 	H 	0.58400 0.54810 0.12400 0.03600
C 	C 	0.63549 0.55066 0.14040 -0.13100
H 	H 	0.63940 0.56350 0.16650 0.09000
C 	C 	0.81090 0.73670 0.54830 0.36200
C 	C 	0.91279 0.70941 0.62640 0.12100
C 	C 	0.90672 0.72838 0.58770 -0.15000
H 	H 	0.92500 0.73510 0.57850 0.09100
C 	C 	0.87355 0.73749 0.56275 0.07100
H 	H 	0.86940 0.75030 0.53660 0.02700
C 	C 	0.84646 0.72762 0.57640 -0.12600
C 	C 	0.85253 0.70865 0.61510 0.07300
H 	H 	0.83420 0.70200 0.62430 0.02900
C 	C 	0.88569 0.69954 0.64006 -0.14800
H 	H 	0.88980 0.68670 0.66620 0.10700
O 	O 	0.83480 0.39666 0.44000 -0.41400
C 	C 	0.99358 0.68777 0.72426 -0.05100
C 	C 	0.01403 0.67550 0.70070 0.14600
C 	C 	0.00224 0.67534 0.65340 -0.08600
C 	C 	0.97000 0.68744 0.62969 0.00800
H 	H 	0.96200 0.68730 0.59770 0.03300
C 	C 	0.94955 0.69971 0.65320 -0.08300
C 	C 	0.96134 0.69987 0.70050 0.14500
O 	O 	0.87645 0.42765 0.48500 -0.40700
C 	C 	0.77550 0.58424 0.12699 0.11500
C 	C 	0.76213 0.60310 0.08830 -0.14100
H 	H 	0.73920 0.60980 0.07910 0.08700
C 	C 	0.78267 0.61211 0.06300 0.06000
H 	H 	0.77360 0.62490 0.03680 0.03100
C 	C 	0.81658 0.60226 0.07649 -0.10800
C 	C 	0.82996 0.58340 0.11520 0.06000
H 	H 	0.85290 0.57670 0.12440 0.03700
C 	C 	0.80941 0.57439 0.14048 -0.12800
H 	H 	0.81850 0.56160 0.16670 0.09400
O 	O 	0.41566 0.14652 0.06000 -0.40300
C 	C 	0.02566 0.66571 0.62698 0.12500
C 	C 	0.05954 0.67566 0.64026 -0.15200
H 	H 	0.06860 0.68860 0.66630 0.10800
C 	C 	0.08005 0.66654 0.61500 0.08100
H 	H 	0.10300 0.67330 0.62400 0.02700
C 	C 	0.06669 0.64746 0.57649 -0.13700
C 	C 	0.03281 0.63751 0.56321 0.07900
H 	H 	0.02380 0.62460 0.53720 0.02400
C 	C 	0.01230 0.64663 0.58840 -0.15500
H 	H 	0.98940 0.63990 0.57950 0.09100
O 	O 	0.37345 0.17762 0.01600 -0.40000
O 	O 	0.86918 0.59977 0.06060 -0.39600
O 	O 	0.82611 0.63044 0.01540 -0.39400
O 	O 	0.07639 0.61946 0.51600 -0.40900
O 	O 	0.11795 0.65003 0.55990 -0.41000
O 	O 	0.80666 0.75559 0.51570 -0.40400
O 	O 	0.78660 0.72460 0.56030 -0.39700
O 	O 	0.75987 0.72818 0.43960 -0.40000
O 	O 	0.74052 0.69747 0.48430 -0.41700
O 	O 	0.55645 0.49453 0.01500 -0.40000
O 	O 	0.53606 0.52511 0.06060 -0.39400
O 	O 	0.50964 0.44726 0.01570 -0.41000
O 	O 	0.48986 0.47834 0.06069 -0.39400
O 	O 	0.69090 0.53810 0.22380 -0.24000
O 	O 	0.73260 0.61560 0.27480 -0.24700
O 	O 	0.79650 0.58570 0.22470 -0.24100
O 	O 	0.78060 0.50960 0.27580 -0.23900
O 	O 	0.51710 0.36600 0.22380 -0.18400
O 	O 	0.47340 0.25830 0.22520 -0.19500
O 	O 	0.94000 0.71060 0.72430 -0.19800
O 	O 	0.45310 0.83560 0.27590 -0.20400
O 	O 	0.42400 0.91530 0.25800 -0.17000
O 	O 	0.46320 0.98280 0.26860 -0.16100
O 	O 	0.94070 0.78940 0.79490 -0.17600
O 	O 	0.95100 0.87360 0.74470 -0.16300
O 	O 	0.40680 0.23330 0.24410 -0.14200
O 	O 	0.56160 0.41520 0.26100 -0.14200
O 	O 	0.65160 0.50860 0.26410 -0.15500
O 	O 	0.62470 0.60310 0.24840 -0.18500
O 	O 	0.78540 0.68400 0.25530 -0.17900
O 	O 	0.84970 0.61820 0.21810 -0.16500
O 	O 	0.86530 0.52100 0.23830 -0.17700
O 	O 	0.80460 0.44940 0.25940 -0.17100
O 	O 	0.71640 0.43560 0.25690 -0.19600
C 	C 	0.69110 0.50490 0.22080 0.09600
C 	C 	0.69870 0.61700 0.27250 0.11900
C 	C 	0.79750 0.61910 0.22620 0.09800
C 	C 	0.81340 0.50970 0.27200 0.08300
C 	C 	0.55120 0.36190 0.22530 0.06700
C 	C 	0.43960 0.25760 0.22460 0.11400
C 	C 	0.94070 0.74400 0.73520 0.07800
C 	C 	0.45140 0.86910 0.27960 0.08300
C 	C 	0.41980 0.87940 0.24910 0.06800
C 	C 	0.45620 0.92730 0.25180 0.06200
C 	C 	0.46660 0.95040 0.29140 0.07100
C 	C 	0.50070 0.97770 0.27420 0.06400
C 	C 	0.94460 0.75530 0.78030 0.06400
C 	C 	0.94400 0.81720 0.76640 0.08100
C 	C 	0.96580 0.84700 0.77970 0.05900
C 	C 	0.98270 0.89350 0.75280 0.06300
C 	C 	0.40510 0.26480 0.21870 0.03900
C 	C 	0.56830 0.39160 0.23300 0.08400
C 	C 	0.67640 0.48910 0.24940 0.03700
C 	C 	0.62770 0.53940 0.24810 0.04800
C 	C 	0.60790 0.57020 0.23550 0.06500
C 	C 	0.64280 0.63230 0.24030 0.09200
C 	C 	0.67920 0.64470 0.25720 -0.04700
C 	C 	0.82340 0.67090 0.25810 0.06000
C 	C 	0.82990 0.63290 0.24350 0.05200
C 	C 	0.87330 0.58730 0.22650 0.07000
C 	C 	0.85710 0.55360 0.21610 0.03900
C 	C 	0.84680 0.49100 0.23800 0.07600
C 	C 	0.82200 0.47910 0.25920 0.05300
C 	C 	0.77340 0.42860 0.24930 0.04600
C 	C 	0.74430 0.42850 0.24210 0.06800
C 	C 	0.69600 0.45960 0.27060 0.07800
C 	C 	0.74130 0.64350 0.25060 0.07000
C 	C 	0.77470 0.65610 0.26550 0.06700
C 	C 	0.82370 0.56080 0.24100 0.08200
C 	C 	0.83010 0.53010 0.22470 0.01600
C 	C 	0.73410 0.46590 0.26000 0.02400
C 	C 	0.76240 0.48080 0.25010 0.08800
C 	C 	0.66710 0.55810 0.23930 0.08600
C 	C 	0.64680 0.58720 0.22720 0.01800
Cu	Cu	0.01164 0.01815 0.47371 0.90700
Cu	Cu	0.26153 0.73181 0.97369 0.90700
Cu	Cu	0.35018 0.14318 0.97363 0.90700
Cu	Cu	0.39972 0.10683 0.02624 0.91000
C 	C 	0.99323 0.18749 0.72441 -0.04700
C 	C 	0.99941 0.16102 0.70090 0.14100
C 	C 	0.98773 0.16094 0.65362 -0.08100
C 	C 	0.96986 0.18734 0.62984 0.00600
H 	H 	0.96200 0.18730 0.59790 0.03400
C 	C 	0.96368 0.21382 0.65334 -0.08200
C 	C 	0.97537 0.21390 0.70063 0.13900
C 	C 	0.99900 0.04860 0.54770 0.36300
C 	C 	0.94728 0.24374 0.62700 0.12000
C 	C 	0.96049 0.27434 0.64038 -0.14600
H 	H 	0.97990 0.27690 0.66640 0.11100
C 	C 	0.94501 0.30121 0.61530 0.07200
H 	H 	0.95390 0.32190 0.62430 0.03200
C 	C 	0.91631 0.29749 0.57680 -0.12200
C 	C 	0.90309 0.26689 0.56341 0.07000
H 	H 	0.88370 0.26440 0.53740 0.02800
C 	C 	0.91858 0.24001 0.58850 -0.14800
H 	H 	0.90960 0.21930 0.57940 0.08900
C 	C 	0.90100 0.32670 0.54870 0.36600
C 	C 	0.99126 0.13163 0.62700 0.12100
C 	C 	0.98458 0.10110 0.64048 -0.14700
H 	H 	0.97830 0.09870 0.66660 0.11800
C 	C 	0.98717 0.07416 0.61530 0.07000
H 	H 	0.98270 0.05350 0.62440 0.03500
C 	C 	0.99644 0.07775 0.57660 -0.11400
C 	C 	0.00312 0.10828 0.56311 0.06400
H 	H 	0.00940 0.11070 0.53690 0.03000
C 	C 	0.00053 0.13522 0.58830 -0.14700
H 	H 	0.00500 0.15590 0.57920 0.08900
C 	C 	0.34950 0.07730 0.95190 0.37700
C 	C 	0.26305 0.91081 0.84700 -0.09100
C 	C 	0.28000 0.93772 0.87043 0.01300
H 	H 	0.28800 0.93780 0.90240 0.03100
C 	C 	0.28506 0.96451 0.84660 -0.08900
C 	C 	0.27318 0.96438 0.79930 0.15500
C 	C 	0.25623 0.93747 0.77586 -0.05700
C 	C 	0.25116 0.91068 0.79970 0.15200
C 	C 	0.25100 0.79900 0.95220 0.38000
C 	C 	0.25923 0.88102 0.87342 0.12200
C 	C 	0.24994 0.88471 0.91210 -0.15200
H 	H 	0.24570 0.90540 0.92130 0.09100
C 	C 	0.24689 0.85779 0.93703 0.07400
H 	H 	0.24060 0.86030 0.96320 0.02600
C 	C 	0.25312 0.82718 0.92330 -0.13200
C 	C 	0.26241 0.82350 0.88470 0.07600
H 	H 	0.26660 0.80280 0.87540 0.03000
C 	C 	0.26546 0.85042 0.85972 -0.14800
H 	H 	0.27170 0.84790 0.83360 0.10100
C 	C 	0.33900 0.88880 0.54870 0.34700
C 	C 	0.30234 0.99373 0.87350 0.12000
C 	C 	0.33094 0.99006 0.91210 -0.14600
H 	H 	0.33990 0.96940 0.92130 0.08900
C 	C 	0.34637 0.01698 0.93714 0.06500
H 	H 	0.36570 0.01450 0.96330 0.03000
C 	C 	0.33319 0.04757 0.92360 -0.11500
C 	C 	0.30458 0.05123 0.88490 0.06600
H 	H 	0.29570 0.07190 0.87570 0.03500
C 	C 	0.28915 0.02431 0.85991 -0.13800
H 	H 	0.26980 0.02680 0.83380 0.10100
C 	C 	0.58860 0.86200 0.04910 0.38700
C 	C 	0.24355 0.93710 0.72420 -0.05800
C 	C 	0.26436 0.92590 0.70048 0.15300
C 	C 	0.25266 0.92629 0.65320 -0.09000
C 	C 	0.22015 0.93787 0.62964 0.01000
H 	H 	0.21220 0.93810 0.59770 0.03200
C 	C 	0.19935 0.94907 0.65336 -0.08800
C 	C 	0.21105 0.94869 0.70064 0.15100
C 	C 	0.06030 0.98690 0.54820 0.34500
C 	C 	0.16280 0.95915 0.62715 0.11100
C 	C 	0.15704 0.97811 0.58850 -0.14000
H 	H 	0.17550 0.98470 0.57960 0.08600
C 	C 	0.12397 0.98726 0.56317 0.05600
H 	H 	0.12010 0.00010 0.53710 0.03200
C 	C 	0.09666 0.97745 0.57643 -0.10500
C 	C 	0.10242 0.95849 0.61500 0.05400
H 	H 	0.08400 0.95190 0.62400 0.03600
C 	C 	0.13549 0.94934 0.64040 -0.13100
H 	H 	0.13940 0.93650 0.66650 0.09000
C 	C 	0.31090 0.76330 0.04830 0.36200
C 	C 	0.41279 0.79059 0.12640 0.12100
C 	C 	0.40672 0.77162 0.08770 -0.15000
H 	H 	0.42500 0.76490 0.07850 0.09100
C 	C 	0.37355 0.76251 0.06275 0.07100
H 	H 	0.36940 0.74970 0.03660 0.02700
C 	C 	0.34646 0.77238 0.07640 -0.12600
C 	C 	0.35253 0.79135 0.11510 0.07300
H 	H 	0.33420 0.79800 0.12430 0.02900
C 	C 	0.38569 0.80046 0.14006 -0.14800
H 	H 	0.38980 0.81330 0.16620 0.10700
O 	O 	0.33480 0.10334 0.94000 -0.41400
C 	C 	0.49358 0.81223 0.22426 -0.05200
C 	C 	0.51403 0.82450 0.20070 0.14600
C 	C 	0.50224 0.82466 0.15340 -0.08600
C 	C 	0.47000 0.81256 0.12969 0.00800
H 	H 	0.46200 0.81270 0.09770 0.03300
C 	C 	0.44955 0.80029 0.15320 -0.08300
C 	C 	0.46134 0.80013 0.20050 0.14500
O 	O 	0.37645 0.07235 0.98500 -0.40700
C 	C 	0.27550 0.91576 0.62699 0.11500
C 	C 	0.26213 0.89690 0.58830 -0.14100
H 	H 	0.23920 0.89020 0.57910 0.08700
C 	C 	0.28267 0.88789 0.56300 0.06000
H 	H 	0.27360 0.87510 0.53680 0.03100
C 	C 	0.31658 0.89774 0.57649 -0.10800
C 	C 	0.32996 0.91660 0.61520 0.06000
H 	H 	0.35290 0.92330 0.62440 0.03700
C 	C 	0.30941 0.92561 0.64048 -0.12800
H 	H 	0.31850 0.93840 0.66670 0.09400
O 	O 	0.91566 0.35348 0.56000 -0.40300
C 	C 	0.52566 0.83429 0.12698 0.12500
C 	C 	0.55954 0.82434 0.14026 -0.15200
H 	H 	0.56860 0.81140 0.16630 0.10800
C 	C 	0.58005 0.83346 0.11500 0.08100
H 	H 	0.60300 0.82670 0.12400 0.02700
C 	C 	0.56669 0.85254 0.07649 -0.13700
C 	C 	0.53281 0.86249 0.06321 0.07900
H 	H 	0.52380 0.87540 0.03720 0.02400
C 	C 	0.51230 0.85337 0.08840 -0.15500
H 	H 	0.48940 0.86010 0.07950 0.09100
O 	O 	0.87345 0.32238 0.51600 -0.40000
O 	O 	0.36918 0.90023 0.56060 -0.39600
O 	O 	0.32611 0.86956 0.51540 -0.39400
O 	O 	0.57639 0.88054 0.01600 -0.40900
O 	O 	0.61795 0.84997 0.05990 -0.41000
O 	O 	0.30666 0.74441 0.01570 -0.40400
O 	O 	0.28660 0.77540 0.06030 -0.39700
O 	O 	0.25987 0.77182 0.93960 -0.40000
O 	O 	0.24052 0.80253 0.98430 -0.41700
O 	O 	0.05645 0.00547 0.51500 -0.40000
O 	O 	0.03606 0.97489 0.56060 -0.39400
O 	O 	0.00964 0.05274 0.51570 -0.41000
O 	O 	0.98986 0.02166 0.56069 -0.39400
O 	O 	0.19090 0.96190 0.72380 -0.24000
O 	O 	0.23260 0.88440 0.77480 -0.24700
O 	O 	0.29650 0.91430 0.72470 -0.24100
O 	O 	0.28060 0.99040 0.77580 -0.23900
O 	O 	0.01710 0.13400 0.72380 -0.18400
O 	O 	0.97340 0.24170 0.72520 -0.19500
O 	O 	0.44000 0.78940 0.22430 -0.19800
O 	O 	0.95310 0.66440 0.77590 -0.20400
O 	O 	0.92400 0.58470 0.75800 -0.17000
O 	O 	0.96320 0.51720 0.76860 -0.16100
O 	O 	0.44070 0.71060 0.29490 -0.17600
O 	O 	0.45100 0.62640 0.24470 -0.16300
O 	O 	0.90680 0.26670 0.74410 -0.14200
O 	O 	0.06160 0.08480 0.76100 -0.14200
O 	O 	0.15160 0.99140 0.76410 -0.15500
O 	O 	0.12470 0.89690 0.74840 -0.18500
O 	O 	0.28540 0.81600 0.75530 -0.17900
O 	O 	0.34970 0.88180 0.71810 -0.16500
O 	O 	0.36530 0.97900 0.73830 -0.17700
O 	O 	0.30460 0.05060 0.75940 -0.17100
O 	O 	0.21640 0.06440 0.75690 -0.19600
C 	C 	0.19110 0.99510 0.72080 0.09600
C 	C 	0.19870 0.88300 0.77250 0.11900
C 	C 	0.29750 0.88090 0.72620 0.09800
C 	C 	0.31340 0.99030 0.77200 0.08300
C 	C 	0.05120 0.13810 0.72530 0.06700
C 	C 	0.93960 0.24240 0.72460 0.11400
C 	C 	0.44070 0.75600 0.23520 0.07800
C 	C 	0.95140 0.63090 0.77960 0.08300
C 	C 	0.91980 0.62060 0.74910 0.06800
C 	C 	0.95620 0.57270 0.75180 0.06200
C 	C 	0.96660 0.54960 0.79140 0.07100
C 	C 	0.00070 0.52230 0.77420 0.06300
C 	C 	0.44460 0.74470 0.28030 0.06400
C 	C 	0.44400 0.68280 0.26640 0.08100
C 	C 	0.46580 0.65300 0.27970 0.05900
C 	C 	0.48270 0.60650 0.25280 0.06300
C 	C 	0.90510 0.23520 0.71870 0.03900
C 	C 	0.06830 0.10840 0.73300 0.08400
C 	C 	0.17640 0.01090 0.74940 0.03700
C 	C 	0.12770 0.96060 0.74810 0.04800
C 	C 	0.10790 0.92980 0.73550 0.06500
C 	C 	0.14280 0.86770 0.74030 0.09200
C 	C 	0.17920 0.85530 0.75720 -0.04700
C 	C 	0.32340 0.82910 0.75810 0.06000
C 	C 	0.32990 0.86710 0.74350 0.05200
C 	C 	0.37330 0.91270 0.72650 0.07000
C 	C 	0.35710 0.94640 0.71610 0.03900
C 	C 	0.34680 0.00900 0.73800 0.07600
C 	C 	0.32200 0.02090 0.75920 0.05300
C 	C 	0.27340 0.07140 0.74930 0.04600
C 	C 	0.24430 0.07150 0.74210 0.06800
C 	C 	0.19600 0.04040 0.77060 0.07800
C 	C 	0.24130 0.85650 0.75060 0.07000
C 	C 	0.27470 0.84390 0.76550 0.06700
C 	C 	0.32370 0.93920 0.74100 0.08200
C 	C 	0.33010 0.96990 0.72470 0.01600
C 	C 	0.23410 0.03410 0.76000 0.02400
C 	C 	0.26240 0.01920 0.75010 0.08800
C 	C 	0.16710 0.94190 0.73930 0.08600
C 	C 	0.14680 0.91280 0.72720 0.01800
Cu	Cu	0.51164 0.51815 0.47371 0.90700
Cu	Cu	0.76153 0.23181 0.97369 0.90700
Cu	Cu	0.85018 0.64318 0.97363 0.90700
Cu	Cu	0.89972 0.60683 0.02624 0.91000
C 	C 	0.49323 0.68749 0.72441 -0.04700
C 	C 	0.49941 0.66102 0.70090 0.14100
C 	C 	0.48773 0.66094 0.65362 -0.08100
C 	C 	0.46986 0.68734 0.62984 0.00600
H 	H 	0.46200 0.68730 0.59790 0.03400
C 	C 	0.46368 0.71382 0.65334 -0.08200
C 	C 	0.47537 0.71390 0.70063 0.13900
C 	C 	0.49900 0.54860 0.54770 0.36300
C 	C 	0.44728 0.74374 0.62700 0.12000
C 	C 	0.46049 0.77434 0.64038 -0.14600
H 	H 	0.47990 0.77690 0.66640 0.11100
C 	C 	0.44501 0.80121 0.61530 0.07200
H 	H 	0.45390 0.82190 0.62430 0.03200
C 	C 	0.41631 0.79749 0.57680 -0.12200
C 	C 	0.40309 0.76689 0.56341 0.07000
H 	H 	0.38370 0.76440 0.53740 0.02800
C 	C 	0.41858 0.74001 0.58850 -0.14800
H 	H 	0.40960 0.71930 0.57940 0.08900
C 	C 	0.40100 0.82670 0.54870 0.36600
C 	C 	0.49126 0.63163 0.62700 0.12100
C 	C 	0.48458 0.60110 0.64048 -0.14700
H 	H 	0.47830 0.59870 0.66660 0.11800
C 	C 	0.48717 0.57416 0.61530 0.07000
H 	H 	0.48270 0.55350 0.62440 0.03500
C 	C 	0.49644 0.57775 0.57660 -0.11400
C 	C 	0.50312 0.60828 0.56311 0.06400
H 	H 	0.50940 0.61070 0.53690 0.02900
C 	C 	0.50053 0.63522 0.58830 -0.14700
H 	H 	0.50500 0.65590 0.57920 0.08900
C 	C 	0.84950 0.57730 0.95190 0.37700
C 	C 	0.76305 0.41081 0.84700 -0.09100
C 	C 	0.78000 0.43772 0.87043 0.01300
H 	H 	0.78800 0.43780 0.90240 0.03100
C 	C 	0.78506 0.46451 0.84660 -0.08900
C 	C 	0.77318 0.46438 0.79930 0.15500
C 	C 	0.75623 0.43747 0.77586 -0.05700
C 	C 	0.75116 0.41068 0.79970 0.15200
C 	C 	0.75100 0.29900 0.95220 0.38000
C 	C 	0.75923 0.38102 0.87342 0.12200
C 	C 	0.74994 0.38471 0.91210 -0.15200
H 	H 	0.74570 0.40540 0.92130 0.09100
C 	C 	0.74689 0.35779 0.93703 0.07400
H 	H 	0.74060 0.36030 0.96320 0.02600
C 	C 	0.75312 0.32718 0.92330 -0.13200
C 	C 	0.76241 0.32350 0.88470 0.07600
H 	H 	0.76660 0.30280 0.87540 0.03000
C 	C 	0.76546 0.35042 0.85972 -0.14800
H 	H 	0.77170 0.34790 0.83360 0.10100
C 	C 	0.83900 0.38880 0.54870 0.34700
C 	C 	0.80234 0.49373 0.87350 0.12000
C 	C 	0.83094 0.49006 0.91210 -0.14600
H 	H 	0.83990 0.46940 0.92130 0.08900
C 	C 	0.84637 0.51698 0.93714 0.06500
H 	H 	0.86570 0.51450 0.96330 0.03000
C 	C 	0.83319 0.54757 0.92360 -0.11500
C 	C 	0.80458 0.55123 0.88490 0.06600
H 	H 	0.79570 0.57190 0.87570 0.03500
C 	C 	0.78915 0.52431 0.85991 -0.13800
H 	H 	0.76980 0.52680 0.83380 0.10100
C 	C 	0.08860 0.36200 0.04910 0.38700
C 	C 	0.74355 0.43710 0.72420 -0.05800
C 	C 	0.76436 0.42590 0.70048 0.15300
C 	C 	0.75266 0.42629 0.65320 -0.09000
C 	C 	0.72015 0.43787 0.62964 0.01000
H 	H 	0.71220 0.43810 0.59770 0.03200
C 	C 	0.69935 0.44907 0.65336 -0.08800
C 	C 	0.71105 0.44869 0.70064 0.15100
C 	C 	0.56030 0.48690 0.54820 0.34500
C 	C 	0.66280 0.45915 0.62715 0.11100
C 	C 	0.65704 0.47811 0.58850 -0.14000
H 	H 	0.67550 0.48470 0.57960 0.08600
C 	C 	0.62397 0.48726 0.56317 0.05600
H 	H 	0.62010 0.50010 0.53710 0.03200
C 	C 	0.59666 0.47745 0.57643 -0.10500
C 	C 	0.60242 0.45849 0.61500 0.05400
H 	H 	0.58400 0.45190 0.62400 0.03600
C 	C 	0.63549 0.44934 0.64040 -0.13100
H 	H 	0.63940 0.43650 0.66650 0.09000
C 	C 	0.81090 0.26330 0.04830 0.36200
C 	C 	0.91279 0.29059 0.12640 0.12100
C 	C 	0.90672 0.27162 0.08770 -0.15000
H 	H 	0.92500 0.26490 0.07850 0.09100
C 	C 	0.87355 0.26251 0.06275 0.07100
H 	H 	0.86940 0.24970 0.03660 0.02700
C 	C 	0.84646 0.27238 0.07640 -0.12600
C 	C 	0.85253 0.29135 0.11510 0.07300
H 	H 	0.83420 0.29800 0.12430 0.02900
C 	C 	0.88569 0.30046 0.14006 -0.14800
H 	H 	0.88980 0.31330 0.16620 0.10700
O 	O 	0.83480 0.60334 0.94000 -0.41400
C 	C 	0.99358 0.31223 0.22426 -0.05200
C 	C 	0.01403 0.32450 0.20070 0.14600
C 	C 	0.00224 0.32466 0.15340 -0.08600
C 	C 	0.97000 0.31256 0.12969 0.00800
H 	H 	0.96200 0.31270 0.09770 0.03300
C 	C 	0.94955 0.30029 0.15320 -0.08300
C 	C 	0.96134 0.30013 0.20050 0.14500
O 	O 	0.87645 0.57235 0.98500 -0.40700
C 	C 	0.77550 0.41576 0.62699 0.11500
C 	C 	0.76213 0.39690 0.58830 -0.14100
H 	H 	0.73920 0.39020 0.57910 0.08700
C 	C 	0.78267 0.38789 0.56300 0.06000
H 	H 	0.77360 0.37510 0.53680 0.03100
C 	C 	0.81658 0.39774 0.57649 -0.10800
C 	C 	0.82996 0.41660 0.61520 0.06000
H 	H 	0.85290 0.42330 0.62440 0.03700
C 	C 	0.80941 0.42561 0.64048 -0.12800
H 	H 	0.81850 0.43840 0.66670 0.09400
O 	O 	0.41566 0.85348 0.56000 -0.40300
C 	C 	0.02566 0.33429 0.12698 0.12400
C 	C 	0.05954 0.32434 0.14026 -0.15200
H 	H 	0.06860 0.31140 0.16630 0.10800
C 	C 	0.08005 0.33346 0.11500 0.08100
H 	H 	0.10300 0.32670 0.12400 0.02700
C 	C 	0.06669 0.35254 0.07649 -0.13700
C 	C 	0.03281 0.36249 0.06321 0.07900
H 	H 	0.02380 0.37540 0.03720 0.02500
C 	C 	0.01230 0.35337 0.08840 -0.15500
H 	H 	0.98940 0.36010 0.07950 0.09100
O 	O 	0.37345 0.82238 0.51600 -0.40000
O 	O 	0.86918 0.40023 0.56060 -0.39600
O 	O 	0.82611 0.36956 0.51540 -0.39400
O 	O 	0.07639 0.38054 0.01600 -0.40900
O 	O 	0.11795 0.34997 0.05990 -0.40900
O 	O 	0.80666 0.24441 0.01570 -0.40400
O 	O 	0.78660 0.27540 0.06030 -0.39700
O 	O 	0.75987 0.27182 0.93960 -0.40000
O 	O 	0.74052 0.30253 0.98430 -0.41700
O 	O 	0.55645 0.50547 0.51500 -0.40000
O 	O 	0.53606 0.47489 0.56060 -0.39500
O 	O 	0.50964 0.55274 0.51570 -0.41000
O 	O 	0.48986 0.52166 0.56069 -0.39400
O 	O 	0.69090 0.46190 0.72380 -0.24000
O 	O 	0.73260 0.38440 0.77480 -0.24700
O 	O 	0.79650 0.41430 0.72470 -0.24100
O 	O 	0.78060 0.49040 0.77580 -0.23900
O 	O 	0.51710 0.63400 0.72380 -0.18400
O 	O 	0.47340 0.74170 0.72520 -0.19500
O 	O 	0.94000 0.28940 0.22430 -0.19800
O 	O 	0.45310 0.16440 0.77590 -0.20400
O 	O 	0.42400 0.08470 0.75800 -0.17000
O 	O 	0.46320 0.01720 0.76860 -0.16100
O 	O 	0.94070 0.21060 0.29490 -0.17600
O 	O 	0.95100 0.12640 0.24470 -0.16300
O 	O 	0.40680 0.76670 0.74410 -0.14200
O 	O 	0.56160 0.58480 0.76100 -0.14200
O 	O 	0.65160 0.49140 0.76410 -0.15500
O 	O 	0.62470 0.39690 0.74840 -0.18500
O 	O 	0.78540 0.31600 0.75530 -0.17900
O 	O 	0.84970 0.38180 0.71810 -0.16500
O 	O 	0.86530 0.47900 0.73830 -0.17700
O 	O 	0.80460 0.55060 0.75940 -0.17100
O 	O 	0.71640 0.56440 0.75690 -0.19600
C 	C 	0.69110 0.49510 0.72080 0.09600
C 	C 	0.69870 0.38300 0.77250 0.11900
C 	C 	0.79750 0.38090 0.72620 0.09800
C 	C 	0.81340 0.49030 0.77200 0.08300
C 	C 	0.55120 0.63810 0.72530 0.06700
C 	C 	0.43960 0.74240 0.72460 0.11400
C 	C 	0.94070 0.25600 0.23520 0.07800
C 	C 	0.45140 0.13090 0.77960 0.08300
C 	C 	0.41980 0.12060 0.74910 0.06800
C 	C 	0.45620 0.07270 0.75180 0.06200
C 	C 	0.46660 0.04960 0.79140 0.07100
C 	C 	0.50070 0.02230 0.77420 0.06400
C 	C 	0.94460 0.24470 0.28030 0.06400
C 	C 	0.94400 0.18280 0.26640 0.08100
C 	C 	0.96580 0.15300 0.27970 0.05900
C 	C 	0.98270 0.10650 0.25280 0.06300
C 	C 	0.40510 0.73520 0.71870 0.03900
C 	C 	0.56830 0.60840 0.73300 0.08400
C 	C 	0.67640 0.51090 0.74940 0.03700
C 	C 	0.62770 0.46060 0.74810 0.04800
C 	C 	0.60790 0.42980 0.73550 0.06500
C 	C 	0.64280 0.36770 0.74030 0.09200
C 	C 	0.67920 0.35530 0.75720 -0.04700
C 	C 	0.82340 0.32910 0.75810 0.06000
C 	C 	0.82990 0.36710 0.74350 0.05200
C 	C 	0.87330 0.41270 0.72650 0.07000
C 	C 	0.85710 0.44640 0.71610 0.03900
C 	C 	0.84680 0.50900 0.73800 0.07600
C 	C 	0.82200 0.52090 0.75920 0.05300
C 	C 	0.77340 0.57140 0.74930 0.04600
C 	C 	0.74430 0.57150 0.74210 0.06800
C 	C 	0.69600 0.54040 0.77060 0.07800
C 	C 	0.74130 0.35650 0.75060 0.07000
C 	C 	0.77470 0.34390 0.76550 0.06700
C 	C 	0.82370 0.43920 0.74100 0.08200
C 	C 	0.83010 0.46990 0.72470 0.01600
C 	C 	0.73410 0.53410 0.76000 0.02400
C 	C 	0.76240 0.51920 0.75010 0.08800
C 	C 	0.66710 0.44190 0.73930 0.08600
C 	C 	0.64680 0.41280 0.72720 0.01800
Cu	Cu	0.98836 0.01815 0.02629 0.90700
Cu	Cu	0.73847 0.73181 0.52631 0.90700
Cu	Cu	0.64982 0.14318 0.52637 0.90700
Cu	Cu	0.60028 0.10683 0.47376 0.91000
C 	C 	0.00677 0.18749 0.77559 -0.04700
C 	C 	0.00059 0.16102 0.79910 0.14100
C 	C 	0.01227 0.16094 0.84638 -0.08100
C 	C 	0.03014 0.18734 0.87016 0.00600
H 	H 	0.03800 0.18730 0.90210 0.03400
C 	C 	0.03632 0.21382 0.84666 -0.08200
C 	C 	0.02463 0.21390 0.79937 0.13900
C 	C 	0.00100 0.04860 0.95230 0.36300
C 	C 	0.05272 0.24374 0.87300 0.12000
C 	C 	0.03951 0.27434 0.85962 -0.14600
H 	H 	0.02010 0.27690 0.83360 0.11100
C 	C 	0.05499 0.30121 0.88470 0.07200
H 	H 	0.04610 0.32190 0.87570 0.03200
C 	C 	0.08369 0.29749 0.92320 -0.12200
C 	C 	0.09691 0.26689 0.93659 0.07000
H 	H 	0.11630 0.26440 0.96260 0.02800
C 	C 	0.08142 0.24001 0.91150 -0.14800
H 	H 	0.09040 0.21930 0.92060 0.08900
C 	C 	0.09900 0.32670 0.95130 0.36600
C 	C 	0.00874 0.13163 0.87300 0.12100
C 	C 	0.01542 0.10110 0.85952 -0.14700
H 	H 	0.02170 0.09870 0.83340 0.11800
C 	C 	0.01283 0.07416 0.88470 0.07000
H 	H 	0.01730 0.05350 0.87560 0.03500
C 	C 	0.00356 0.07775 0.92340 -0.11400
C 	C 	0.99688 0.10828 0.93689 0.06400
H 	H 	0.99060 0.11070 0.96310 0.03000
C 	C 	0.99947 0.13522 0.91170 -0.14700
H 	H 	0.99500 0.15590 0.92080 0.08900
C 	C 	0.65050 0.07730 0.54810 0.37700
C 	C 	0.73695 0.91081 0.65300 -0.09100
C 	C 	0.72000 0.93772 0.62957 0.01300
H 	H 	0.71200 0.93780 0.59760 0.03100
C 	C 	0.71494 0.96451 0.65340 -0.08900
C 	C 	0.72682 0.96438 0.70070 0.15500
C 	C 	0.74377 0.93747 0.72414 -0.05700
C 	C 	0.74884 0.91068 0.70030 0.15200
C 	C 	0.74900 0.79900 0.54780 0.38000
C 	C 	0.74077 0.88102 0.62658 0.12200
C 	C 	0.75006 0.88471 0.58790 -0.15200
H 	H 	0.75430 0.90540 0.57870 0.09100
C 	C 	0.75311 0.85779 0.56297 0.07400
H 	H 	0.75940 0.86030 0.53680 0.02600
C 	C 	0.74688 0.82718 0.57670 -0.13200
C 	C 	0.73759 0.82350 0.61530 0.07600
H 	H 	0.73340 0.80280 0.62460 0.03000
C 	C 	0.73454 0.85042 0.64028 -0.14800
H 	H 	0.72830 0.84790 0.66640 0.10100
C 	C 	0.66100 0.88880 0.95130 0.34700
C 	C 	0.69766 0.99373 0.62650 0.12000
C 	C 	0.66906 0.99006 0.58790 -0.14600
H 	H 	0.66010 0.96940 0.57870 0.08900
C 	C 	0.65363 0.01698 0.56286 0.06500
H 	H 	0.63430 0.01450 0.53670 0.03000
C 	C 	0.66681 0.04757 0.57640 -0.11500
C 	C 	0.69542 0.05123 0.61510 0.06600
H 	H 	0.70430 0.07190 0.62430 0.03500
C 	C 	0.71085 0.02431 0.64009 -0.13800
H 	H 	0.73020 0.02680 0.66620 0.10100
C 	C 	0.41140 0.86200 0.45090 0.38700
C 	C 	0.75645 0.93710 0.77580 -0.05800
C 	C 	0.73564 0.92590 0.79952 0.15300
C 	C 	0.74734 0.92629 0.84680 -0.09000
C 	C 	0.77985 0.93787 0.87036 0.01000
H 	H 	0.78780 0.93810 0.90230 0.03200
C 	C 	0.80065 0.94907 0.84664 -0.08800
C 	C 	0.78895 0.94869 0.79936 0.15100
C 	C 	0.93970 0.98690 0.95180 0.34500
C 	C 	0.83720 0.95915 0.87285 0.11000
C 	C 	0.84296 0.97811 0.91150 -0.13900
H 	H 	0.82450 0.98470 0.92040 0.08600
C 	C 	0.87603 0.98726 0.93683 0.05600
H 	H 	0.87990 0.00010 0.96290 0.03200
C 	C 	0.90334 0.97745 0.92357 -0.10500
C 	C 	0.89758 0.95849 0.88500 0.05400
H 	H 	0.91600 0.95190 0.87600 0.03600
C 	C 	0.86451 0.94934 0.85960 -0.13100
H 	H 	0.86060 0.93650 0.83350 0.09000
C 	C 	0.68910 0.76330 0.45170 0.36200
C 	C 	0.58721 0.79059 0.37360 0.12100
C 	C 	0.59328 0.77162 0.41230 -0.15000
H 	H 	0.57500 0.76490 0.42150 0.09100
C 	C 	0.62645 0.76251 0.43725 0.07100
H 	H 	0.63060 0.74970 0.46340 0.02700
C 	C 	0.65354 0.77238 0.42360 -0.12600
C 	C 	0.64747 0.79135 0.38490 0.07300
H 	H 	0.66580 0.79800 0.37570 0.02900
C 	C 	0.61431 0.80046 0.35994 -0.14800
H 	H 	0.61020 0.81330 0.33380 0.10700
O 	O 	0.66520 0.10334 0.56000 -0.41400
C 	C 	0.50642 0.81223 0.27574 -0.05200
C 	C 	0.48597 0.82450 0.29930 0.14600
C 	C 	0.49776 0.82466 0.34660 -0.08600
C 	C 	0.53000 0.81256 0.37031 0.00800
H 	H 	0.53800 0.81270 0.40230 0.03300
C 	C 	0.55045 0.80029 0.34680 -0.08300
C 	C 	0.53866 0.80013 0.29950 0.14500
O 	O 	0.62355 0.07235 0.51500 -0.40700
C 	C 	0.72450 0.91576 0.87301 0.11500
C 	C 	0.73787 0.89690 0.91170 -0.14100
H 	H 	0.76080 0.89020 0.92090 0.08700
C 	C 	0.71733 0.88789 0.93700 0.06000
H 	H 	0.72640 0.87510 0.96320 0.03100
C 	C 	0.68342 0.89774 0.92351 -0.10800
C 	C 	0.67004 0.91660 0.88480 0.06000
H 	H 	0.64710 0.92330 0.87560 0.03700
C 	C 	0.69059 0.92561 0.85952 -0.12800
H 	H 	0.68150 0.93840 0.83330 0.09400
O 	O 	0.08434 0.35348 0.94000 -0.40300
C 	C 	0.47434 0.83429 0.37302 0.12500
C 	C 	0.44046 0.82434 0.35974 -0.15200
H 	H 	0.43140 0.81140 0.33370 0.10800
C 	C 	0.41995 0.83346 0.38500 0.08100
H 	H 	0.39700 0.82670 0.37600 0.02700
C 	C 	0.43331 0.85254 0.42351 -0.13700
C 	C 	0.46719 0.86249 0.43679 0.07900
H 	H 	0.47620 0.87540 0.46280 0.02400
C 	C 	0.48770 0.85337 0.41160 -0.15500
H 	H 	0.51060 0.86010 0.42050 0.09100
O 	O 	0.12655 0.32238 0.98400 -0.40000
O 	O 	0.63082 0.90023 0.93940 -0.39600
O 	O 	0.67389 0.86956 0.98460 -0.39400
O 	O 	0.42361 0.88054 0.48400 -0.40900
O 	O 	0.38205 0.84997 0.44010 -0.41000
O 	O 	0.69334 0.74441 0.48430 -0.40400
O 	O 	0.71340 0.77540 0.43970 -0.39700
O 	O 	0.74013 0.77182 0.56040 -0.40000
O 	O 	0.75948 0.80253 0.51570 -0.41700
O 	O 	0.94355 0.00547 0.98500 -0.40000
O 	O 	0.96394 0.97489 0.93940 -0.39400
O 	O 	0.99036 0.05274 0.98430 -0.41000
O 	O 	0.01014 0.02166 0.93931 -0.39400
O 	O 	0.80910 0.96190 0.77620 -0.24000
O 	O 	0.76740 0.88440 0.72520 -0.24700
O 	O 	0.70350 0.91430 0.77530 -0.24100
O 	O 	0.71940 0.99040 0.72420 -0.23900
O 	O 	0.98290 0.13400 0.77620 -0.18400
O 	O 	0.02660 0.24170 0.77480 -0.19500
O 	O 	0.56000 0.78940 0.27570 -0.19800
O 	O 	0.04690 0.66440 0.72410 -0.20300
O 	O 	0.07600 0.58470 0.74200 -0.17000
O 	O 	0.03680 0.51720 0.73140 -0.16100
O 	O 	0.55930 0.71060 0.20510 -0.17600
O 	O 	0.54900 0.62640 0.25530 -0.16300
O 	O 	0.09320 0.26670 0.75590 -0.14200
O 	O 	0.93840 0.08480 0.73900 -0.14200
O 	O 	0.84840 0.99140 0.73590 -0.15500
O 	O 	0.87530 0.89690 0.75160 -0.18500
O 	O 	0.71460 0.81600 0.74470 -0.17900
O 	O 	0.65030 0.88180 0.78190 -0.16500
O 	O 	0.63470 0.97900 0.76170 -0.17700
O 	O 	0.69540 0.05060 0.74060 -0.17100
O 	O 	0.78360 0.06440 0.74310 -0.19600
C 	C 	0.80890 0.99510 0.77920 0.09600
C 	C 	0.80130 0.88300 0.72750 0.11900
C 	C 	0.70250 0.88090 0.77380 0.09800
C 	C 	0.68660 0.99030 0.72800 0.08300
C 	C 	0.94880 0.13810 0.77470 0.06700
C 	C 	0.06040 0.24240 0.77540 0.11400
C 	C 	0.55930 0.75600 0.26480 0.07800
C 	C 	0.04860 0.63090 0.72040 0.08300
C 	C 	0.08020 0.62060 0.75090 0.06800
C 	C 	0.04380 0.57270 0.74820 0.06200
C 	C 	0.03340 0.54960 0.70860 0.07100
C 	C 	0.99930 0.52230 0.72580 0.06400
C 	C 	0.55540 0.74470 0.21970 0.06400
C 	C 	0.55600 0.68280 0.23360 0.08100
C 	C 	0.53420 0.65300 0.22030 0.05900
C 	C 	0.51730 0.60650 0.24720 0.06300
C 	C 	0.09490 0.23520 0.78130 0.03900
C 	C 	0.93170 0.10840 0.76700 0.08400
C 	C 	0.82360 0.01090 0.75060 0.03700
C 	C 	0.87230 0.96060 0.75190 0.04800
C 	C 	0.89210 0.92980 0.76450 0.06500
C 	C 	0.85720 0.86770 0.75970 0.09200
C 	C 	0.82080 0.85530 0.74280 -0.04700
C 	C 	0.67660 0.82910 0.74190 0.06000
C 	C 	0.67010 0.86710 0.75650 0.05200
C 	C 	0.62670 0.91270 0.77350 0.07000
C 	C 	0.64290 0.94640 0.78390 0.03900
C 	C 	0.65320 0.00900 0.76200 0.07600
C 	C 	0.67800 0.02090 0.74080 0.05300
C 	C 	0.72660 0.07140 0.75070 0.04600
C 	C 	0.75570 0.07150 0.75790 0.06800
C 	C 	0.80400 0.04040 0.72940 0.07800
C 	C 	0.75870 0.85650 0.74940 0.07000
C 	C 	0.72530 0.84390 0.73450 0.06700
C 	C 	0.67630 0.93920 0.75900 0.08200
C 	C 	0.66990 0.96990 0.77530 0.01600
C 	C 	0.76590 0.03410 0.74000 0.02400
C 	C 	0.73760 0.01920 0.74990 0.08800
C 	C 	0.83290 0.94190 0.76070 0.08600
C 	C 	0.85320 0.91280 0.77280 0.01800
Cu	Cu	0.48836 0.51815 0.02629 0.90700
Cu	Cu	0.23847 0.23181 0.52631 0.90700
Cu	Cu	0.14982 0.64318 0.52637 0.90700
Cu	Cu	0.10028 0.60683 0.47376 0.91000
C 	C 	0.50677 0.68749 0.77559 -0.04700
C 	C 	0.50059 0.66102 0.79910 0.14100
C 	C 	0.51227 0.66094 0.84638 -0.08100
C 	C 	0.53014 0.68734 0.87016 0.00600
H 	H 	0.53800 0.68730 0.90210 0.03400
C 	C 	0.53632 0.71382 0.84666 -0.08200
C 	C 	0.52463 0.71390 0.79937 0.13900
C 	C 	0.50100 0.54860 0.95230 0.36300
C 	C 	0.55272 0.74374 0.87300 0.12000
C 	C 	0.53951 0.77434 0.85962 -0.14600
H 	H 	0.52010 0.77690 0.83360 0.11100
C 	C 	0.55499 0.80121 0.88470 0.07200
H 	H 	0.54610 0.82190 0.87570 0.03200
C 	C 	0.58369 0.79749 0.92320 -0.12200
C 	C 	0.59691 0.76689 0.93659 0.07000
H 	H 	0.61630 0.76440 0.96260 0.02800
C 	C 	0.58142 0.74001 0.91150 -0.14800
H 	H 	0.59040 0.71930 0.92060 0.08900
C 	C 	0.59900 0.82670 0.95130 0.36600
C 	C 	0.50874 0.63163 0.87300 0.12100
C 	C 	0.51542 0.60110 0.85952 -0.14700
H 	H 	0.52170 0.59870 0.83340 0.11800
C 	C 	0.51283 0.57416 0.88470 0.07000
H 	H 	0.51730 0.55350 0.87560 0.03500
C 	C 	0.50356 0.57775 0.92340 -0.11400
C 	C 	0.49688 0.60828 0.93689 0.06400
H 	H 	0.49060 0.61070 0.96310 0.03000
C 	C 	0.49947 0.63522 0.91170 -0.14700
H 	H 	0.49500 0.65590 0.92080 0.08900
C 	C 	0.15050 0.57730 0.54810 0.37700
C 	C 	0.23695 0.41081 0.65300 -0.09100
C 	C 	0.22000 0.43772 0.62957 0.01300
H 	H 	0.21200 0.43780 0.59760 0.03100
C 	C 	0.21494 0.46451 0.65340 -0.08900
C 	C 	0.22682 0.46438 0.70070 0.15500
C 	C 	0.24377 0.43747 0.72414 -0.05700
C 	C 	0.24884 0.41068 0.70030 0.15200
C 	C 	0.24900 0.29900 0.54780 0.38000
C 	C 	0.24077 0.38102 0.62658 0.12200
C 	C 	0.25006 0.38471 0.58790 -0.15200
H 	H 	0.25430 0.40540 0.57870 0.09100
C 	C 	0.25311 0.35779 0.56297 0.07400
H 	H 	0.25940 0.36030 0.53680 0.02600
C 	C 	0.24688 0.32718 0.57670 -0.13200
C 	C 	0.23759 0.32350 0.61530 0.07600
H 	H 	0.23340 0.30280 0.62460 0.03000
C 	C 	0.23454 0.35042 0.64028 -0.14800
H 	H 	0.22830 0.34790 0.66640 0.10100
C 	C 	0.16100 0.38880 0.95130 0.34700
C 	C 	0.19766 0.49373 0.62650 0.12000
C 	C 	0.16906 0.49006 0.58790 -0.14600
H 	H 	0.16010 0.46940 0.57870 0.08900
C 	C 	0.15363 0.51698 0.56286 0.06500
H 	H 	0.13430 0.51450 0.53670 0.03000
C 	C 	0.16681 0.54757 0.57640 -0.11500
C 	C 	0.19542 0.55123 0.61510 0.06600
H 	H 	0.20430 0.57190 0.62430 0.03500
C 	C 	0.21085 0.52431 0.64009 -0.13800
H 	H 	0.23020 0.52680 0.66620 0.10100
C 	C 	0.91140 0.36200 0.45090 0.38700
C 	C 	0.25645 0.43710 0.77580 -0.05800
C 	C 	0.23564 0.42590 0.79952 0.15300
C 	C 	0.24734 0.42629 0.84680 -0.09000
C 	C 	0.27985 0.43787 0.87036 0.01000
H 	H 	0.28780 0.43810 0.90230 0.03200
C 	C 	0.30065 0.44907 0.84664 -0.08800
C 	C 	0.28895 0.44869 0.79936 0.15100
C 	C 	0.43970 0.48690 0.95180 0.34500
C 	C 	0.33720 0.45915 0.87285 0.11100
C 	C 	0.34296 0.47811 0.91150 -0.14000
H 	H 	0.32450 0.48470 0.92040 0.08600
C 	C 	0.37603 0.48726 0.93683 0.05600
H 	H 	0.37990 0.50010 0.96290 0.03200
C 	C 	0.40334 0.47745 0.92357 -0.10500
C 	C 	0.39758 0.45849 0.88500 0.05400
H 	H 	0.41600 0.45190 0.87600 0.03600
C 	C 	0.36451 0.44934 0.85960 -0.13100
H 	H 	0.36060 0.43650 0.83350 0.09000
C 	C 	0.18910 0.26330 0.45170 0.36200
C 	C 	0.08721 0.29059 0.37360 0.12100
C 	C 	0.09328 0.27162 0.41230 -0.15000
H 	H 	0.07500 0.26490 0.42150 0.09100
C 	C 	0.12645 0.26251 0.43725 0.07100
H 	H 	0.13060 0.24970 0.46340 0.02700
C 	C 	0.15354 0.27238 0.42360 -0.12600
C 	C 	0.14747 0.29135 0.38490 0.07300
H 	H 	0.16580 0.29800 0.37570 0.02900
C 	C 	0.11431 0.30046 0.35994 -0.14800
H 	H 	0.11020 0.31330 0.33380 0.10700
O 	O 	0.16520 0.60334 0.56000 -0.41400
C 	C 	0.00642 0.31223 0.27574 -0.05100
C 	C 	0.98597 0.32450 0.29930 0.14600
C 	C 	0.99776 0.32466 0.34660 -0.08600
C 	C 	0.03000 0.31256 0.37031 0.00800
H 	H 	0.03800 0.31270 0.40230 0.03300
C 	C 	0.05045 0.30029 0.34680 -0.08300
C 	C 	0.03866 0.30013 0.29950 0.14500
O 	O 	0.12355 0.57235 0.51500 -0.40700
C 	C 	0.22450 0.41576 0.87301 0.11500
C 	C 	0.23787 0.39690 0.91170 -0.14100
H 	H 	0.26080 0.39020 0.92090 0.08700
C 	C 	0.21733 0.38789 0.93700 0.06000
H 	H 	0.22640 0.37510 0.96320 0.03100
C 	C 	0.18342 0.39774 0.92351 -0.10800
C 	C 	0.17004 0.41660 0.88480 0.06000
H 	H 	0.14710 0.42330 0.87560 0.03700
C 	C 	0.19059 0.42561 0.85952 -0.12800
H 	H 	0.18150 0.43840 0.83330 0.09400
O 	O 	0.58434 0.85348 0.94000 -0.40300
C 	C 	0.97434 0.33429 0.37302 0.12500
C 	C 	0.94046 0.32434 0.35974 -0.15200
H 	H 	0.93140 0.31140 0.33370 0.10800
C 	C 	0.91995 0.33346 0.38500 0.08100
H 	H 	0.89700 0.32670 0.37600 0.02700
C 	C 	0.93331 0.35254 0.42351 -0.13700
C 	C 	0.96719 0.36249 0.43679 0.07900
H 	H 	0.97620 0.37540 0.46280 0.02400
C 	C 	0.98770 0.35337 0.41160 -0.15500
H 	H 	0.01060 0.36010 0.42050 0.09100
O 	O 	0.62655 0.82238 0.98400 -0.40000
O 	O 	0.13082 0.40023 0.93940 -0.39600
O 	O 	0.17389 0.36956 0.98460 -0.39400
O 	O 	0.92361 0.38054 0.48400 -0.40900
O 	O 	0.88205 0.34997 0.44010 -0.41000
O 	O 	0.19334 0.24441 0.48430 -0.40400
O 	O 	0.21340 0.27540 0.43970 -0.39700
O 	O 	0.24013 0.27182 0.56040 -0.40000
O 	O 	0.25948 0.30253 0.51570 -0.41700
O 	O 	0.44355 0.50547 0.98500 -0.40000
O 	O 	0.46394 0.47489 0.93940 -0.39400
O 	O 	0.49036 0.55274 0.98430 -0.41000
O 	O 	0.51014 0.52166 0.93931 -0.39400
O 	O 	0.30910 0.46190 0.77620 -0.24000
O 	O 	0.26740 0.38440 0.72520 -0.24700
O 	O 	0.20350 0.41430 0.77530 -0.24100
O 	O 	0.21940 0.49040 0.72420 -0.23900
O 	O 	0.48290 0.63400 0.77620 -0.18400
O 	O 	0.52660 0.74170 0.77480 -0.19500
O 	O 	0.06000 0.28940 0.27570 -0.19800
O 	O 	0.54690 0.16440 0.72410 -0.20400
O 	O 	0.57600 0.08470 0.74200 -0.17000
O 	O 	0.53680 0.01720 0.73140 -0.16100
O 	O 	0.05930 0.21060 0.20510 -0.17600
O 	O 	0.04900 0.12640 0.25530 -0.16300
O 	O 	0.59320 0.76670 0.75590 -0.14200
O 	O 	0.43840 0.58480 0.73900 -0.14200
O 	O 	0.34840 0.49140 0.73590 -0.15500
O 	O 	0.37530 0.39690 0.75160 -0.18500
O 	O 	0.21460 0.31600 0.74470 -0.17900
O 	O 	0.15030 0.38180 0.78190 -0.16500
O 	O 	0.13470 0.47900 0.76170 -0.17700
O 	O 	0.19540 0.55060 0.74060 -0.17100
O 	O 	0.28360 0.56440 0.74310 -0.19600
C 	C 	0.30890 0.49510 0.77920 0.09600
C 	C 	0.30130 0.38300 0.72750 0.11900
C 	C 	0.20250 0.38090 0.77380 0.09800
C 	C 	0.18660 0.49030 0.72800 0.08300
C 	C 	0.44880 0.63810 0.77470 0.06700
C 	C 	0.56040 0.74240 0.77540 0.11400
C 	C 	0.05930 0.25600 0.26480 0.07800
C 	C 	0.54860 0.13090 0.72040 0.08300
C 	C 	0.58020 0.12060 0.75090 0.06800
C 	C 	0.54380 0.07270 0.74820 0.06200
C 	C 	0.53340 0.04960 0.70860 0.07100
C 	C 	0.49930 0.02230 0.72580 0.06400
C 	C 	0.05540 0.24470 0.21970 0.06400
C 	C 	0.05600 0.18280 0.23360 0.08100
C 	C 	0.03420 0.15300 0.22030 0.05900
C 	C 	0.01730 0.10650 0.24720 0.06300
C 	C 	0.59490 0.73520 0.78130 0.03900
C 	C 	0.43170 0.60840 0.76700 0.08400
C 	C 	0.32360 0.51090 0.75060 0.03700
C 	C 	0.37230 0.46060 0.75190 0.04800
C 	C 	0.39210 0.42980 0.76450 0.06500
C 	C 	0.35720 0.36770 0.75970 0.09200
C 	C 	0.32080 0.35530 0.74280 -0.04700
C 	C 	0.17660 0.32910 0.74190 0.06000
C 	C 	0.17010 0.36710 0.75650 0.05200
C 	C 	0.12670 0.41270 0.77350 0.07000
C 	C 	0.14290 0.44640 0.78390 0.03900
C 	C 	0.15320 0.50900 0.76200 0.07600
C 	C 	0.17800 0.52090 0.74080 0.05300
C 	C 	0.22660 0.57140 0.75070 0.04600
C 	C 	0.25570 0.57150 0.75790 0.06800
C 	C 	0.30400 0.54040 0.72940 0.07800
C 	C 	0.25870 0.35650 0.74940 0.07000
C 	C 	0.22530 0.34390 0.73450 0.06700
C 	C 	0.17630 0.43920 0.75900 0.08200
C 	C 	0.16990 0.46990 0.77530 0.01600
C 	C 	0.26590 0.53410 0.74000 0.02400
C 	C 	0.23760 0.51920 0.74990 0.08800
C 	C 	0.33290 0.44190 0.76070 0.08600
C 	C 	0.35320 0.41280 0.77280 0.01800
