data_crystal

_cell_length_a 11.09800
_cell_length_b 11.19400
_cell_length_c 16.58700
_cell_angle_alpha 99.08500
_cell_angle_beta  109.29600
_cell_angle_gamma 91.09800

_symmetry_space_group_name_	'P 1'
_symmetry_space_group_name_H-M	'P 1'

loop_
_symmetry_equiv_pos_as_xyz
  x,y,z

loop_
_atom_site_label
_atom_site_type_symbol
_atom_site_fract_x
_atom_site_fract_y
_atom_site_fract_z
_atom_site_charge
Co	Co	0.17774 0.86659 0.25096 1.19500
Co	Co	0.20119 0.70816 0.04874 1.13800
Co	Co	0.92064 0.76726 0.03597 1.18200
Co	Co	0.24146 0.08115 0.45632 1.18400
Co	Co	0.17249 0.80943 0.46057 1.13600
Co	Co	0.82226 0.13341 0.74904 1.19600
Co	Co	0.79881 0.29184 0.95126 1.13900
Co	Co	0.07936 0.23274 0.96403 1.18300
Co	Co	0.75854 0.91885 0.54368 1.18500
Co	Co	0.82751 0.19057 0.53943 1.13600
H 	H 	0.56860 0.05510 0.35840 0.02500
H 	H 	0.49610 0.02700 0.20470 0.08900
H 	H 	0.63510 0.97240 0.13730 0.03800
H 	H 	0.89080 0.66080 0.36610 0.03300
H 	H 	0.80320 0.61930 0.21830 0.08100
H 	H 	0.59370 0.67110 0.15400 0.03400
H 	H 	0.97730 0.17410 0.14210 0.03000
H 	H 	0.00370 0.21710 0.28950 0.08200
H 	H 	0.06700 0.41540 0.36500 0.03300
H 	H 	0.36520 0.50050 0.15120 0.03200
H 	H 	0.43160 0.52290 0.30270 0.09400
H 	H 	0.38210 0.36040 0.36070 0.03600
H 	H 	0.32690 0.89550 0.40460 0.26900
H 	H 	0.12260 0.89800 0.09570 0.26400
H 	H 	0.43140 0.94490 0.64160 0.02500
H 	H 	0.50390 0.97300 0.79530 0.08900
H 	H 	0.36490 0.02760 0.86270 0.03800
H 	H 	0.10920 0.33920 0.63390 0.03300
H 	H 	0.19680 0.38070 0.78170 0.08100
H 	H 	0.40630 0.32890 0.84600 0.03400
H 	H 	0.02270 0.82590 0.85790 0.03000
H 	H 	0.99630 0.78290 0.71050 0.08200
H 	H 	0.93300 0.58460 0.63500 0.03300
H 	H 	0.63480 0.49950 0.84880 0.03200
H 	H 	0.56840 0.47710 0.69730 0.09400
H 	H 	0.61790 0.63960 0.63930 0.03600
H 	H 	0.67310 0.10450 0.59540 0.26900
H 	H 	0.87740 0.10200 0.90430 0.26400
C 	C 	0.62270 0.03250 0.32710 0.01800
C 	C 	0.58020 0.01570 0.23650 -0.09100
C 	C 	0.66450 0.98300 0.19760 0.03200
C 	C 	0.78890 0.96340 0.23620 -0.08200
C 	C 	0.83650 0.98700 0.32470 -0.01400
C 	C 	0.96750 0.97360 0.37990 0.37000
C 	C 	0.87910 0.91300 0.19080 0.36200
C 	C 	0.80590 0.67630 0.34010 0.05700
C 	C 	0.75590 0.65320 0.25200 -0.10600
C 	C 	0.62960 0.68270 0.21410 0.04300
C 	C 	0.55770 0.72820 0.26330 -0.10000
C 	C 	0.61240 0.74160 0.35340 0.01300
C 	C 	0.54550 0.77720 0.41870 0.27800
C 	C 	0.42160 0.75560 0.22060 0.38500
C 	C 	0.99470 0.25360 0.17200 0.02200
C 	C 	0.01400 0.27880 0.26030 -0.09700
C 	C 	0.04940 0.39930 0.30530 0.04700
C 	C 	0.05790 0.48850 0.26510 -0.10600
C 	C 	0.03470 0.46220 0.17130 0.00300
C 	C 	0.04130 0.55530 0.11560 0.36400
C 	C 	0.10230 0.61710 0.30520 0.39600
C 	C 	0.35580 0.43500 0.17740 0.06500
C 	C 	0.39120 0.45060 0.26720 -0.11400
C 	C 	0.36270 0.35130 0.30090 0.05000
C 	C 	0.30810 0.24210 0.25200 -0.10200
C 	C 	0.28260 0.22620 0.15980 0.00400
C 	C 	0.23980 0.11630 0.09490 0.28900
C 	C 	0.27510 0.14150 0.28970 0.38000
C 	C 	0.37730 0.96750 0.67290 0.01800
C 	C 	0.41980 0.98430 0.76350 -0.09100
C 	C 	0.33550 0.01700 0.80240 0.03200
C 	C 	0.21110 0.03660 0.76380 -0.08200
C 	C 	0.16350 0.01300 0.67530 -0.01400
C 	C 	0.03250 0.02640 0.62010 0.37000
C 	C 	0.12090 0.08700 0.80920 0.36200
C 	C 	0.19410 0.32370 0.65990 0.05700
C 	C 	0.24410 0.34680 0.74800 -0.10600
C 	C 	0.37040 0.31730 0.78590 0.04300
C 	C 	0.44230 0.27180 0.73670 -0.10000
C 	C 	0.38760 0.25840 0.64660 0.01300
C 	C 	0.45450 0.22280 0.58130 0.27800
C 	C 	0.57840 0.24440 0.77940 0.38500
C 	C 	0.00530 0.74640 0.82800 0.02200
C 	C 	0.98600 0.72120 0.73970 -0.09700
C 	C 	0.95060 0.60070 0.69470 0.04700
C 	C 	0.94210 0.51150 0.73490 -0.10600
C 	C 	0.96530 0.53780 0.82870 0.00300
C 	C 	0.95870 0.44470 0.88440 0.36400
C 	C 	0.89770 0.38290 0.69480 0.39600
C 	C 	0.64420 0.56500 0.82260 0.06500
C 	C 	0.60880 0.54940 0.73280 -0.11400
C 	C 	0.63730 0.64870 0.69910 0.05000
C 	C 	0.69190 0.75790 0.74800 -0.10200
C 	C 	0.71740 0.77380 0.84020 0.00400
C 	C 	0.76020 0.88370 0.90510 0.28900
C 	C 	0.72490 0.85850 0.71030 0.38000
N 	N 	0.74760 0.01390 0.36690 -0.04500
N 	N 	0.73780 0.72160 0.39340 -0.05900
N 	N 	0.00170 0.34520 0.13070 -0.05000
N 	N 	0.30690 0.32380 0.12710 -0.06200
N 	N 	0.25240 0.98610 0.63310 -0.04500
N 	N 	0.26220 0.27840 0.60660 -0.05900
N 	N 	0.99830 0.65480 0.86930 -0.05000
N 	N 	0.69310 0.67620 0.87290 -0.06200
O 	O 	0.79230 0.02730 0.45350 -0.40200
O 	O 	0.04010 0.06900 0.40170 -0.40700
O 	O 	0.99600 0.87240 0.39970 -0.41800
O 	O 	0.99850 0.93100 0.23500 -0.41500
O 	O 	0.83190 0.85560 0.11410 -0.41200
O 	O 	0.78580 0.74390 0.47720 -0.24100
O 	O 	0.47370 0.69380 0.42510 -0.26000
O 	O 	0.56510 0.88750 0.45870 -0.38300
O 	O 	0.36320 0.80800 0.26560 -0.42100
O 	O 	0.37790 0.72120 0.13710 -0.44900
O 	O 	0.97350 0.32070 0.04400 -0.41200
O 	O 	0.14140 0.56740 0.10250 -0.41500
O 	O 	0.93960 0.61170 0.09160 -0.40800
O 	O 	0.11720 0.69110 0.25950 -0.43100
O 	O 	0.12070 0.64130 0.38570 -0.44700
O 	O 	0.27190 0.31780 0.04150 -0.23200
O 	O 	0.12140 0.10190 0.04790 -0.38000
O 	O 	0.32310 0.04650 0.08630 -0.25900
O 	O 	0.24340 0.03920 0.24190 -0.41100
O 	O 	0.27540 0.16640 0.36780 -0.42400
O 	O 	0.24800 0.90850 0.38970 -0.75200
O 	O 	0.11070 0.83070 0.11060 -0.74800
O 	O 	0.20770 0.97270 0.54650 -0.40200
O 	O 	0.95990 0.93100 0.59830 -0.40700
O 	O 	0.00400 0.12760 0.60030 -0.41800
O 	O 	0.00150 0.06900 0.76500 -0.41500
O 	O 	0.16810 0.14440 0.88590 -0.41200
O 	O 	0.21420 0.25610 0.52280 -0.24100
O 	O 	0.52630 0.30620 0.57490 -0.26000
O 	O 	0.43490 0.11250 0.54130 -0.38300
O 	O 	0.63680 0.19200 0.73440 -0.42100
O 	O 	0.62210 0.27880 0.86290 -0.44900
O 	O 	0.02650 0.67930 0.95600 -0.41200
O 	O 	0.85860 0.43260 0.89750 -0.41500
O 	O 	0.06040 0.38830 0.90840 -0.40800
O 	O 	0.88280 0.30890 0.74050 -0.43100
O 	O 	0.87930 0.35870 0.61430 -0.44700
O 	O 	0.72810 0.68220 0.95850 -0.23200
O 	O 	0.87860 0.89810 0.95210 -0.38000
O 	O 	0.67690 0.95350 0.91370 -0.25900
O 	O 	0.75660 0.96080 0.75810 -0.41100
O 	O 	0.72460 0.83360 0.63220 -0.42400
O 	O 	0.75200 0.09150 0.61030 -0.75200
O 	O 	0.88930 0.16930 0.88940 -0.74800
