data_crystal

_cell_length_a 23.27500
_cell_length_b 25.48600
_cell_length_c 43.96450
_cell_angle_alpha 90.00000
_cell_angle_beta  90.62370
_cell_angle_gamma 90.00000

_symmetry_space_group_name_	'P 1'
_symmetry_space_group_name_H-M	'P 1'

loop_
_symmetry_equiv_pos_as_xyz
  x,y,z

loop_
_atom_site_label
_atom_site_type_symbol
_atom_site_fract_x
_atom_site_fract_y
_atom_site_fract_z
_atom_site_charge
Zn	Zn	0.68650 0.21585 0.83557 1.21300
Zn	Zn	0.76247 0.12238 0.80195 1.17000
Zn	Zn	0.82220 0.22278 0.83394 1.21000
Zn	Zn	0.76721 0.13471 0.87242 1.20800
Zn	Zn	0.18650 0.28415 0.33557 1.21400
Zn	Zn	0.26247 0.37762 0.30195 1.17100
Zn	Zn	0.32220 0.27722 0.33394 1.21100
Zn	Zn	0.26721 0.36529 0.37242 1.20900
H 	H 	0.66940 0.13760 0.95380 0.09000
H 	H 	0.63100 0.28520 0.92220 0.08100
H 	H 	0.63960 0.10690 0.99840 0.16900
H 	H 	0.57470 0.12500 0.00390 0.17900
H 	H 	0.62540 0.14750 0.02510 0.17800
H 	H 	0.52670 0.32340 0.96740 0.17400
H 	H 	0.56890 0.33960 0.94050 0.16400
H 	H 	0.58740 0.34990 0.97510 0.17300
H 	H 	0.41870 0.21140 0.04210 0.05300
H 	H 	0.38660 0.22020 0.09300 0.07000
H 	H 	0.62910 0.32540 0.13420 0.05300
H 	H 	0.65650 0.31470 0.08020 0.05700
H 	H 	0.42560 0.23390 0.25790 0.09800
H 	H 	0.36790 0.37130 0.22940 0.08300
H 	H 	0.47720 0.18630 0.18810 0.19300
H 	H 	0.47550 0.17370 0.22380 0.18200
H 	H 	0.52830 0.20580 0.21010 0.19500
H 	H 	0.45770 0.38940 0.16830 0.18700
H 	H 	0.39820 0.40930 0.18210 0.17100
H 	H 	0.39810 0.36780 0.15480 0.19000
H 	H 	0.61420 0.26380 0.75160 0.09200
H 	H 	0.62960 0.10770 0.73200 0.09600
H 	H 	0.60910 0.31530 0.68600 0.18200
H 	H 	0.56980 0.32400 0.71520 0.17200
H 	H 	0.54160 0.30350 0.68400 0.17800
H 	H 	0.54510 0.09750 0.67390 0.18400
H 	H 	0.60690 0.07350 0.68180 0.17100
H 	H 	0.59960 0.11400 0.65420 0.18200
H 	H 	0.66220 0.25090 0.58780 0.04800
H 	H 	0.63300 0.26310 0.53740 0.05500
H 	H 	0.37490 0.18220 0.57150 0.05400
H 	H 	0.40450 0.18050 0.62530 0.05500
H 	H 	0.42090 0.21680 0.40780 0.09900
H 	H 	0.38570 0.35750 0.44400 0.11100
H 	H 	0.51340 0.16770 0.46310 0.19800
H 	H 	0.47540 0.15270 0.43390 0.18500
H 	H 	0.44890 0.14760 0.46720 0.19700
H 	H 	0.43650 0.38760 0.48840 0.20200
H 	H 	0.47430 0.34770 0.50840 0.21500
H 	H 	0.40580 0.34770 0.51120 0.21300
H 	H 	0.66490 0.37850 0.83180 0.10100
H 	H 	0.82730 0.38560 0.85440 0.09400
H 	H 	0.60340 0.45530 0.83040 0.19200
H 	H 	0.63790 0.50440 0.81710 0.19700
H 	H 	0.62230 0.50240 0.85240 0.20300
H 	H 	0.85600 0.51160 0.84750 0.17700
H 	H 	0.87400 0.46360 0.86910 0.17500
H 	H 	0.83550 0.51040 0.88210 0.18900
H 	H 	0.75360 0.63160 0.77660 0.04700
H 	H 	0.74990 0.72420 0.77660 0.05500
H 	H 	0.70610 0.72170 0.92150 0.05200
H 	H 	0.71590 0.63030 0.92140 0.05100
H 	H 	0.63090 0.88930 0.80230 0.19800
H 	H 	0.60460 0.87690 0.83500 0.20300
H 	H 	0.64710 0.83570 0.81940 0.22800
H 	H 	0.66510 0.97470 0.82690 0.11000
H 	H 	0.81420 0.84290 0.89380 0.22400
H 	H 	0.85770 0.88950 0.88590 0.19900
H 	H 	0.84590 0.84380 0.86170 0.21400
H 	H 	0.81030 0.96880 0.87360 0.10900
H 	H 	0.16940 0.36240 0.45380 0.09000
H 	H 	0.13100 0.21480 0.42220 0.08100
H 	H 	0.13960 0.39310 0.49840 0.16900
H 	H 	0.07470 0.37500 0.50390 0.17900
H 	H 	0.12540 0.35250 0.52510 0.17800
H 	H 	0.02670 0.17660 0.46740 0.17400
H 	H 	0.06890 0.16040 0.44050 0.16400
H 	H 	0.08740 0.15010 0.47510 0.17300
H 	H 	0.91870 0.28860 0.54210 0.05300
H 	H 	0.88660 0.27980 0.59300 0.07000
H 	H 	0.12910 0.17460 0.63420 0.05300
H 	H 	0.15650 0.18530 0.58020 0.05700
H 	H 	0.92560 0.26610 0.75790 0.09800
H 	H 	0.86790 0.12870 0.72940 0.08300
H 	H 	0.97720 0.31370 0.68810 0.19300
H 	H 	0.97550 0.32630 0.72380 0.18200
H 	H 	0.02830 0.29420 0.71010 0.19500
H 	H 	0.95770 0.11060 0.66830 0.18700
H 	H 	0.89820 0.09070 0.68210 0.17100
H 	H 	0.89810 0.13220 0.65480 0.19000
H 	H 	0.11420 0.23620 0.25160 0.09200
H 	H 	0.12960 0.39230 0.23200 0.09600
H 	H 	0.10910 0.18470 0.18600 0.18200
H 	H 	0.06980 0.17600 0.21520 0.17200
H 	H 	0.04160 0.19650 0.18400 0.17800
H 	H 	0.04510 0.40250 0.17390 0.18400
H 	H 	0.10690 0.42650 0.18180 0.17100
H 	H 	0.09960 0.38600 0.15420 0.18200
H 	H 	0.16220 0.24910 0.08780 0.04800
H 	H 	0.13300 0.23690 0.03740 0.05500
H 	H 	0.87490 0.31780 0.07150 0.05400
H 	H 	0.90450 0.31950 0.12530 0.05500
H 	H 	0.92090 0.28320 0.90780 0.09900
H 	H 	0.88570 0.14250 0.94400 0.11100
H 	H 	0.01340 0.33230 0.96310 0.19800
H 	H 	0.97540 0.34730 0.93390 0.18500
H 	H 	0.94890 0.35240 0.96720 0.19700
H 	H 	0.93650 0.11240 0.98840 0.20200
H 	H 	0.97430 0.15230 0.00840 0.21500
H 	H 	0.90580 0.15230 0.01120 0.21300
H 	H 	0.16490 0.12150 0.33180 0.10100
H 	H 	0.32730 0.11440 0.35440 0.09400
H 	H 	0.10340 0.04470 0.33040 0.19100
H 	H 	0.13790 0.99560 0.31710 0.19600
H 	H 	0.12230 0.99760 0.35240 0.20300
H 	H 	0.35600 0.98840 0.34750 0.17700
H 	H 	0.37400 0.03640 0.36910 0.17500
H 	H 	0.33550 0.98960 0.38210 0.18900
H 	H 	0.25360 0.86840 0.27660 0.04700
H 	H 	0.24990 0.77580 0.27660 0.05400
H 	H 	0.20610 0.77830 0.42150 0.05200
H 	H 	0.21590 0.86970 0.42140 0.05100
H 	H 	0.13090 0.61070 0.30230 0.19800
H 	H 	0.10460 0.62310 0.33500 0.20300
H 	H 	0.14710 0.66430 0.31940 0.22800
H 	H 	0.16510 0.52530 0.32690 0.11000
H 	H 	0.31420 0.65710 0.39380 0.22400
H 	H 	0.35770 0.61050 0.38590 0.19900
H 	H 	0.34590 0.65620 0.36170 0.21400
H 	H 	0.31030 0.53120 0.37360 0.10900
C 	C 	0.67586 0.19060 0.90116 0.33100
C 	C 	0.64721 0.20690 0.92961 -0.00900
C 	C 	0.64975 0.17010 0.95545 -0.13700
C 	C 	0.62342 0.18360 0.98162 0.16600
C 	C 	0.59980 0.23300 0.98570 -0.04600
C 	C 	0.59721 0.26710 0.96281 0.14600
C 	C 	0.62562 0.25750 0.93632 -0.12100
C 	C 	0.61503 0.13630 0.00443 -0.49600
C 	C 	0.56697 0.32610 0.96127 -0.47200
C 	C 	0.52012 0.23330 0.02032 0.20100
C 	C 	0.49632 0.24170 0.05082 -0.06000
C 	C 	0.53507 0.26480 0.07407 0.02900
C 	C 	0.58620 0.27880 0.06550 -0.05400
C 	C 	0.61340 0.27030 0.03440 0.19400
C 	C 	0.44319 0.22610 0.05739 -0.01700
C 	C 	0.42403 0.23180 0.08773 -0.04000
C 	C 	0.45902 0.25360 0.10932 -0.04900
C 	C 	0.51436 0.27140 0.10316 0.01900
C 	C 	0.55033 0.29260 0.12543 -0.05700
C 	C 	0.60416 0.31000 0.11936 -0.02800
C 	C 	0.62010 0.30220 0.08650 -0.03200
C 	C 	0.43941 0.25850 0.14091 0.18100
C 	C 	0.52778 0.30060 0.15758 0.22200
C 	C 	0.44855 0.28892 0.19275 -0.08600
C 	C 	0.45552 0.24960 0.21382 0.20900
C 	C 	0.42284 0.25884 0.24194 -0.17400
C 	C 	0.38986 0.30062 0.24566 0.03600
C 	C 	0.38852 0.34004 0.22532 -0.16100
C 	C 	0.41991 0.33372 0.19661 0.19200
C 	C 	0.48679 0.19960 0.20849 -0.56600
C 	C 	0.41833 0.37924 0.17333 -0.53000
C 	C 	0.66072 0.17791 0.77512 0.32600
C 	C 	0.62867 0.18429 0.74487 0.01700
C 	C 	0.61074 0.23597 0.73734 -0.14300
C 	C 	0.58697 0.24510 0.70707 0.17200
C 	C 	0.58190 0.20092 0.68780 -0.05200
C 	C 	0.59838 0.15145 0.69688 0.18200
C 	C 	0.62033 0.14235 0.72563 -0.16000
C 	C 	0.57589 0.30217 0.69719 -0.51100
C 	C 	0.58643 0.10475 0.67463 -0.51600
C 	C 	0.60109 0.22730 0.63699 0.20500
C 	C 	0.58259 0.23222 0.60419 -0.06400
C 	C 	0.52598 0.21950 0.59638 0.02400
C 	C 	0.48551 0.20520 0.61771 -0.05500
C 	C 	0.50575 0.19950 0.65095 0.20300
C 	C 	0.62305 0.24620 0.58215 -0.02800
C 	C 	0.60615 0.25300 0.55245 -0.03800
C 	C 	0.55097 0.24510 0.54507 -0.04400
C 	C 	0.50740 0.22660 0.56550 0.01800
C 	C 	0.45053 0.21560 0.55803 -0.06700
C 	C 	0.41159 0.19440 0.57799 -0.02500
C 	C 	0.43043 0.19160 0.61003 -0.03200
C 	C 	0.52966 0.25230 0.51216 0.17300
C 	C 	0.43266 0.21960 0.52596 0.22500
C 	C 	0.45102 0.26300 0.47562 -0.10400
C 	C 	0.45300 0.22480 0.45230 0.21100
C 	C 	0.42458 0.24087 0.42418 -0.17600
C 	C 	0.40323 0.29065 0.42133 0.05100
C 	C 	0.40493 0.32472 0.44573 -0.21100
C 	C 	0.43396 0.31280 0.47266 0.26100
C 	C 	0.47459 0.16810 0.45429 -0.56100
C 	C 	0.43793 0.35230 0.49723 -0.62400
C 	C 	0.75233 0.31625 0.83723 0.33500
C 	C 	0.74631 0.37343 0.84241 0.03700
C 	C 	0.69717 0.39896 0.83787 -0.18700
C 	C 	0.68805 0.45441 0.84125 0.23900
C 	C 	0.73544 0.48075 0.84824 -0.09900
C 	C 	0.78869 0.45930 0.85449 0.19700
C 	C 	0.79168 0.40267 0.85078 -0.16400
C 	C 	0.63336 0.48136 0.83476 -0.59900
C 	C 	0.84360 0.48890 0.86420 -0.53200
C 	C 	0.74443 0.56448 0.82103 0.17900
C 	C 	0.74270 0.62234 0.82100 -0.05900
C 	C 	0.73529 0.64927 0.84889 0.02300
C 	C 	0.72711 0.62133 0.87661 -0.06100
C 	C 	0.72805 0.56385 0.87695 0.18700
C 	C 	0.74829 0.64979 0.79519 -0.02000
C 	C 	0.74650 0.70532 0.79510 -0.02200
C 	C 	0.74010 0.73089 0.82140 -0.04500
C 	C 	0.73098 0.70412 0.84768 0.04200
C 	C 	0.72363 0.73230 0.87633 -0.04600
C 	C 	0.71483 0.70390 0.90313 -0.02900
C 	C 	0.71894 0.64894 0.90274 -0.02500
C 	C 	0.74461 0.78824 0.82081 0.19800
C 	C 	0.72192 0.78901 0.87622 0.20600
C 	C 	0.73368 0.87244 0.85048 -0.11600
C 	C 	0.63846 0.87307 0.82216 -0.60200
C 	C 	0.69362 0.95460 0.83722 -0.22100
C 	C 	0.82866 0.86554 0.87756 -0.61900
C 	C 	0.77894 0.95125 0.86404 -0.23500
C 	C 	0.77963 0.89681 0.86413 0.25700
C 	C 	0.68972 0.90009 0.83742 0.24900
C 	C 	0.73892 0.97991 0.85192 0.07400
C 	C 	0.73847 0.03814 0.85437 0.26800
C 	C 	0.35401 0.30585 0.27401 0.30600
C 	C 	0.36757 0.30520 0.39297 0.32100
C 	C 	0.17586 0.30940 0.40116 0.33100
C 	C 	0.14721 0.29310 0.42961 -0.00900
C 	C 	0.14975 0.32990 0.45545 -0.13700
C 	C 	0.12342 0.31640 0.48162 0.16600
C 	C 	0.09980 0.26700 0.48570 -0.04600
C 	C 	0.09721 0.23290 0.46281 0.14600
C 	C 	0.12562 0.24250 0.43632 -0.12100
C 	C 	0.11503 0.36370 0.50443 -0.49600
C 	C 	0.06697 0.17390 0.46127 -0.47200
C 	C 	0.02012 0.26670 0.52032 0.20100
C 	C 	0.99632 0.25830 0.55082 -0.06000
C 	C 	0.03507 0.23520 0.57407 0.02900
C 	C 	0.08620 0.22120 0.56550 -0.05400
C 	C 	0.11340 0.22970 0.53440 0.19400
C 	C 	0.94319 0.27390 0.55739 -0.01700
C 	C 	0.92403 0.26820 0.58773 -0.04000
C 	C 	0.95902 0.24640 0.60932 -0.04900
C 	C 	0.01436 0.22860 0.60316 0.01900
C 	C 	0.05033 0.20740 0.62543 -0.05700
C 	C 	0.10416 0.19000 0.61936 -0.02800
C 	C 	0.12010 0.19780 0.58650 -0.03200
C 	C 	0.93941 0.24150 0.64091 0.18100
C 	C 	0.02778 0.19940 0.65758 0.22200
C 	C 	0.94855 0.21108 0.69275 -0.08600
C 	C 	0.95552 0.25040 0.71382 0.20900
C 	C 	0.92284 0.24116 0.74194 -0.17400
C 	C 	0.88986 0.19938 0.74566 0.03600
C 	C 	0.88852 0.15996 0.72532 -0.16100
C 	C 	0.91991 0.16628 0.69661 0.19200
C 	C 	0.98679 0.30040 0.70849 -0.56600
C 	C 	0.91833 0.12076 0.67333 -0.53000
C 	C 	0.16072 0.32209 0.27512 0.32600
C 	C 	0.12867 0.31571 0.24487 0.01700
C 	C 	0.11074 0.26403 0.23734 -0.14300
C 	C 	0.08697 0.25490 0.20707 0.17200
C 	C 	0.08190 0.29908 0.18780 -0.05200
C 	C 	0.09838 0.34855 0.19688 0.18200
C 	C 	0.12033 0.35765 0.22563 -0.16000
C 	C 	0.07589 0.19783 0.19719 -0.51100
C 	C 	0.08643 0.39525 0.17463 -0.51600
C 	C 	0.10109 0.27270 0.13699 0.20500
C 	C 	0.08259 0.26778 0.10419 -0.06400
C 	C 	0.02598 0.28050 0.09638 0.02400
C 	C 	0.98551 0.29480 0.11771 -0.05500
C 	C 	0.00575 0.30050 0.15095 0.20300
C 	C 	0.12305 0.25380 0.08215 -0.02800
C 	C 	0.10615 0.24700 0.05245 -0.03800
C 	C 	0.05097 0.25490 0.04507 -0.04400
C 	C 	0.00740 0.27340 0.06550 0.01800
C 	C 	0.95053 0.28440 0.05803 -0.06700
C 	C 	0.91159 0.30560 0.07799 -0.02500
C 	C 	0.93043 0.30840 0.11003 -0.03200
C 	C 	0.02966 0.24770 0.01216 0.17300
C 	C 	0.93266 0.28040 0.02596 0.22500
C 	C 	0.95102 0.23700 0.97562 -0.10400
C 	C 	0.95300 0.27520 0.95230 0.21100
C 	C 	0.92458 0.25913 0.92418 -0.17600
C 	C 	0.90323 0.20935 0.92133 0.05100
C 	C 	0.90493 0.17528 0.94573 -0.21100
C 	C 	0.93396 0.18720 0.97266 0.26100
C 	C 	0.97459 0.33190 0.95429 -0.56100
C 	C 	0.93793 0.14770 0.99723 -0.62400
C 	C 	0.25233 0.18375 0.33723 0.33500
C 	C 	0.24631 0.12657 0.34241 0.03600
C 	C 	0.19717 0.10104 0.33787 -0.18600
C 	C 	0.18805 0.04559 0.34125 0.23900
C 	C 	0.23544 0.01925 0.34824 -0.09900
C 	C 	0.28869 0.04070 0.35449 0.19700
C 	C 	0.29168 0.09733 0.35078 -0.16400
C 	C 	0.13336 0.01864 0.33476 -0.59800
C 	C 	0.34360 0.01110 0.36420 -0.53200
C 	C 	0.24443 0.93552 0.32103 0.17900
C 	C 	0.24270 0.87766 0.32100 -0.05900
C 	C 	0.23529 0.85073 0.34889 0.02300
C 	C 	0.22711 0.87867 0.37661 -0.06100
C 	C 	0.22805 0.93615 0.37695 0.18700
C 	C 	0.24829 0.85021 0.29519 -0.02000
C 	C 	0.24650 0.79468 0.29510 -0.02200
C 	C 	0.24010 0.76911 0.32140 -0.04500
C 	C 	0.23098 0.79588 0.34768 0.04200
C 	C 	0.22363 0.76770 0.37633 -0.04600
C 	C 	0.21483 0.79610 0.40313 -0.02900
C 	C 	0.21894 0.85106 0.40274 -0.02500
C 	C 	0.24461 0.71176 0.32081 0.19800
C 	C 	0.22192 0.71099 0.37622 0.20600
C 	C 	0.23368 0.62756 0.35048 -0.11600
C 	C 	0.13846 0.62693 0.32216 -0.60200
C 	C 	0.19362 0.54540 0.33722 -0.22100
C 	C 	0.32866 0.63446 0.37756 -0.61800
C 	C 	0.27894 0.54875 0.36404 -0.23500
C 	C 	0.27963 0.60319 0.36413 0.25700
C 	C 	0.18972 0.59991 0.33742 0.24900
C 	C 	0.23892 0.52009 0.35192 0.07400
C 	C 	0.23847 0.46186 0.35437 0.26800
C 	C 	0.85401 0.19415 0.77401 0.30600
C 	C 	0.86757 0.19480 0.89297 0.32100
N 	N 	0.57486 0.24790 0.01446 -0.15700
N 	N 	0.47527 0.28061 0.16267 -0.15600
N 	N 	0.56190 0.20970 0.65730 -0.16300
N 	N 	0.47236 0.24244 0.50526 -0.14300
N 	N 	0.73487 0.53842 0.84867 -0.14200
N 	N 	0.73150 0.81487 0.84922 -0.13500
N 	N 	0.07486 0.25210 0.51446 -0.15700
N 	N 	0.97527 0.21939 0.66267 -0.15600
N 	N 	0.06190 0.29030 0.15730 -0.16300
N 	N 	0.97236 0.25756 0.00526 -0.14400
N 	N 	0.23487 0.96158 0.34867 -0.14200
N 	N 	0.23150 0.68513 0.34922 -0.13500
O 	O 	0.75869 0.17607 0.83584 -0.95000
O 	O 	0.66342 0.22061 0.87709 -0.48500
O 	O 	0.70728 0.15160 0.90052 -0.48700
O 	O 	0.48890 0.21580 0.99960 -0.22200
O 	O 	0.66401 0.28100 0.02821 -0.21500
O 	O 	0.39017 0.24262 0.14867 -0.22100
O 	O 	0.55724 0.32060 0.17604 -0.24400
O 	O 	0.65285 0.21362 0.79513 -0.48300
O 	O 	0.68899 0.13587 0.77848 -0.47600
O 	O 	0.64982 0.23814 0.64452 -0.23600
O 	O 	0.47129 0.18621 0.66979 -0.23200
O 	O 	0.56365 0.26879 0.49225 -0.21700
O 	O 	0.38644 0.21560 0.51744 -0.23900
O 	O 	0.80133 0.29529 0.83753 -0.48300
O 	O 	0.70534 0.29146 0.83406 -0.46700
O 	O 	0.71679 0.53723 0.89929 -0.22500
O 	O 	0.75604 0.53894 0.79768 -0.23400
O 	O 	0.71061 0.81533 0.89913 -0.22600
O 	O 	0.75550 0.81479 0.79856 -0.22900
O 	O 	0.37330 0.27747 0.37015 -0.48200
O 	O 	0.33451 0.34547 0.39561 -0.49200
O 	O 	0.31254 0.33752 0.27306 -0.50500
O 	O 	0.36969 0.27875 0.29784 -0.47100
O 	O 	0.71257 0.06428 0.83308 -0.44600
O 	O 	0.76785 0.05915 0.87448 -0.47300
O 	O 	0.25869 0.32393 0.33584 -0.95000
O 	O 	0.16342 0.27939 0.37709 -0.48500
O 	O 	0.20728 0.34840 0.40052 -0.48700
O 	O 	0.98890 0.28420 0.49960 -0.22200
O 	O 	0.16401 0.21900 0.52821 -0.21400
O 	O 	0.89017 0.25738 0.64867 -0.22100
O 	O 	0.05724 0.17940 0.67604 -0.24300
O 	O 	0.15285 0.28638 0.29513 -0.48300
O 	O 	0.18899 0.36413 0.27848 -0.47600
O 	O 	0.14982 0.26186 0.14452 -0.23600
O 	O 	0.97129 0.31379 0.16979 -0.23200
O 	O 	0.06365 0.23121 0.99225 -0.21700
O 	O 	0.88644 0.28440 0.01744 -0.23900
O 	O 	0.30133 0.20471 0.33753 -0.48300
O 	O 	0.20534 0.20854 0.33406 -0.46700
O 	O 	0.21679 0.96277 0.39929 -0.22500
O 	O 	0.25604 0.96106 0.29768 -0.23400
O 	O 	0.21061 0.68467 0.39913 -0.22600
O 	O 	0.25550 0.68521 0.29856 -0.22900
O 	O 	0.87330 0.22253 0.87015 -0.48200
O 	O 	0.83451 0.15453 0.89561 -0.49200
O 	O 	0.81254 0.16248 0.77306 -0.50500
O 	O 	0.86969 0.22125 0.79784 -0.47100
O 	O 	0.21257 0.43572 0.33308 -0.44600
O 	O 	0.26785 0.44085 0.37448 -0.47300
Zn	Zn	0.81350 0.71585 0.66443 1.21400
Zn	Zn	0.73753 0.62238 0.69805 1.17100
Zn	Zn	0.67780 0.72278 0.66606 1.21100
Zn	Zn	0.73279 0.63471 0.62758 1.20900
Zn	Zn	0.31350 0.78415 0.16443 1.21400
Zn	Zn	0.23753 0.87762 0.19805 1.17100
Zn	Zn	0.17780 0.77722 0.16606 1.21100
Zn	Zn	0.23279 0.86529 0.12758 1.20900
H 	H 	0.83060 0.63760 0.54620 0.09000
H 	H 	0.86900 0.78520 0.57780 0.08100
H 	H 	0.86040 0.60690 0.50160 0.16900
H 	H 	0.92530 0.62500 0.49610 0.17900
H 	H 	0.87460 0.64750 0.47490 0.17800
H 	H 	0.97330 0.82340 0.53260 0.17400
H 	H 	0.93110 0.83960 0.55950 0.16400
H 	H 	0.91260 0.84990 0.52490 0.17300
H 	H 	0.08130 0.71140 0.45790 0.05300
H 	H 	0.11340 0.72020 0.40700 0.07000
H 	H 	0.87090 0.82540 0.36580 0.05300
H 	H 	0.84350 0.81470 0.41980 0.05700
H 	H 	0.07440 0.73390 0.24210 0.09800
H 	H 	0.13210 0.87130 0.27060 0.08300
H 	H 	0.02280 0.68630 0.31190 0.19300
H 	H 	0.02450 0.67370 0.27620 0.18200
H 	H 	0.97170 0.70580 0.28990 0.19500
H 	H 	0.04230 0.88940 0.33170 0.18700
H 	H 	0.10180 0.90930 0.31790 0.17100
H 	H 	0.10190 0.86780 0.34520 0.19000
H 	H 	0.88580 0.76380 0.74840 0.09200
H 	H 	0.87040 0.60770 0.76800 0.09600
H 	H 	0.89090 0.81530 0.81400 0.18200
H 	H 	0.93020 0.82400 0.78480 0.17200
H 	H 	0.95840 0.80350 0.81600 0.17800
H 	H 	0.95490 0.59750 0.82610 0.18400
H 	H 	0.89310 0.57350 0.81820 0.17100
H 	H 	0.90040 0.61400 0.84580 0.18200
H 	H 	0.83780 0.75090 0.91220 0.04800
H 	H 	0.86700 0.76310 0.96260 0.05500
H 	H 	0.12510 0.68220 0.92850 0.05400
H 	H 	0.09550 0.68050 0.87470 0.05500
H 	H 	0.07910 0.71680 0.09220 0.09900
H 	H 	0.11430 0.85750 0.05600 0.11100
H 	H 	0.98660 0.66770 0.03690 0.19800
H 	H 	0.02460 0.65270 0.06610 0.18500
H 	H 	0.05110 0.64760 0.03280 0.19700
H 	H 	0.06350 0.88760 0.01160 0.20200
H 	H 	0.02570 0.84770 0.99160 0.21500
H 	H 	0.09420 0.84770 0.98880 0.21300
H 	H 	0.83510 0.87850 0.66820 0.10100
H 	H 	0.67270 0.88560 0.64560 0.09400
H 	H 	0.89660 0.95530 0.66960 0.19100
H 	H 	0.86210 0.00440 0.68290 0.19600
H 	H 	0.87770 0.00240 0.64760 0.20300
H 	H 	0.64400 0.01160 0.65250 0.17700
H 	H 	0.62600 0.96360 0.63090 0.17500
H 	H 	0.66450 0.01040 0.61790 0.18900
H 	H 	0.74640 0.13160 0.72340 0.04700
H 	H 	0.75010 0.22420 0.72340 0.05400
H 	H 	0.79390 0.22170 0.57850 0.05200
H 	H 	0.78410 0.13030 0.57860 0.05100
H 	H 	0.86910 0.38930 0.69770 0.19800
H 	H 	0.89540 0.37690 0.66500 0.20300
H 	H 	0.85290 0.33570 0.68060 0.22800
H 	H 	0.83490 0.47470 0.67310 0.11000
H 	H 	0.68580 0.34290 0.60620 0.22400
H 	H 	0.64230 0.38950 0.61410 0.19900
H 	H 	0.65410 0.34380 0.63830 0.21400
H 	H 	0.68970 0.46880 0.62640 0.10900
H 	H 	0.33060 0.86240 0.04620 0.09000
H 	H 	0.36900 0.71480 0.07780 0.08100
H 	H 	0.36040 0.89310 0.00160 0.16900
H 	H 	0.42530 0.87500 0.99610 0.17900
H 	H 	0.37460 0.85250 0.97490 0.17800
H 	H 	0.47330 0.67660 0.03260 0.17400
H 	H 	0.43110 0.66040 0.05950 0.16400
H 	H 	0.41260 0.65010 0.02490 0.17300
H 	H 	0.58130 0.78860 0.95790 0.05300
H 	H 	0.61340 0.77980 0.90700 0.07000
H 	H 	0.37090 0.67460 0.86580 0.05300
H 	H 	0.34350 0.68530 0.91980 0.05700
H 	H 	0.57440 0.76610 0.74210 0.09800
H 	H 	0.63210 0.62870 0.77060 0.08300
H 	H 	0.52280 0.81370 0.81190 0.19300
H 	H 	0.52450 0.82630 0.77620 0.18200
H 	H 	0.47170 0.79420 0.78990 0.19500
H 	H 	0.54230 0.61060 0.83170 0.18700
H 	H 	0.60180 0.59070 0.81790 0.17100
H 	H 	0.60190 0.63220 0.84520 0.19000
H 	H 	0.38580 0.73620 0.24840 0.09200
H 	H 	0.37040 0.89230 0.26800 0.09600
H 	H 	0.39090 0.68470 0.31400 0.18200
H 	H 	0.43020 0.67600 0.28480 0.17200
H 	H 	0.45840 0.69650 0.31600 0.17800
H 	H 	0.45490 0.90250 0.32610 0.18400
H 	H 	0.39310 0.92650 0.31820 0.17100
H 	H 	0.40040 0.88600 0.34580 0.18200
H 	H 	0.33780 0.74910 0.41220 0.04800
H 	H 	0.36700 0.73690 0.46260 0.05500
H 	H 	0.62510 0.81780 0.42850 0.05400
H 	H 	0.59550 0.81950 0.37470 0.05500
H 	H 	0.57910 0.78320 0.59220 0.09900
H 	H 	0.61430 0.64250 0.55600 0.11100
H 	H 	0.48660 0.83230 0.53690 0.19800
H 	H 	0.52460 0.84730 0.56610 0.18500
H 	H 	0.55110 0.85240 0.53280 0.19700
H 	H 	0.56350 0.61240 0.51160 0.20200
H 	H 	0.52570 0.65230 0.49160 0.21500
H 	H 	0.59420 0.65230 0.48880 0.21300
H 	H 	0.33510 0.62150 0.16820 0.10100
H 	H 	0.17270 0.61440 0.14560 0.09400
H 	H 	0.39660 0.54470 0.16960 0.19200
H 	H 	0.36210 0.49560 0.18290 0.19700
H 	H 	0.37770 0.49760 0.14760 0.20300
H 	H 	0.14400 0.48840 0.15250 0.17700
H 	H 	0.12600 0.53640 0.13090 0.17500
H 	H 	0.16450 0.48960 0.11790 0.18900
H 	H 	0.24640 0.36840 0.22340 0.04700
H 	H 	0.25010 0.27580 0.22340 0.05500
H 	H 	0.29390 0.27830 0.07850 0.05200
H 	H 	0.28410 0.36970 0.07860 0.05100
H 	H 	0.36910 0.11070 0.19770 0.19800
H 	H 	0.39540 0.12310 0.16500 0.20300
H 	H 	0.35290 0.16430 0.18060 0.22800
H 	H 	0.33490 0.02530 0.17310 0.11000
H 	H 	0.18580 0.15710 0.10620 0.22400
H 	H 	0.14230 0.11050 0.11410 0.19900
H 	H 	0.15410 0.15620 0.13830 0.21400
H 	H 	0.18970 0.03120 0.12640 0.10900
C 	C 	0.82414 0.69060 0.59884 0.33100
C 	C 	0.85279 0.70690 0.57039 -0.00900
C 	C 	0.85025 0.67010 0.54455 -0.13700
C 	C 	0.87658 0.68360 0.51838 0.16600
C 	C 	0.90020 0.73300 0.51430 -0.04600
C 	C 	0.90279 0.76710 0.53719 0.14600
C 	C 	0.87438 0.75750 0.56368 -0.12100
C 	C 	0.88497 0.63630 0.49557 -0.49600
C 	C 	0.93303 0.82610 0.53873 -0.47200
C 	C 	0.97988 0.73330 0.47968 0.20100
C 	C 	0.00368 0.74170 0.44918 -0.06000
C 	C 	0.96493 0.76480 0.42593 0.02900
C 	C 	0.91380 0.77880 0.43450 -0.05400
C 	C 	0.88660 0.77030 0.46560 0.19400
C 	C 	0.05681 0.72610 0.44261 -0.01700
C 	C 	0.07597 0.73180 0.41227 -0.04000
C 	C 	0.04098 0.75360 0.39068 -0.04900
C 	C 	0.98564 0.77140 0.39684 0.01900
C 	C 	0.94967 0.79260 0.37457 -0.05700
C 	C 	0.89584 0.81000 0.38064 -0.02800
C 	C 	0.87990 0.80220 0.41350 -0.03200
C 	C 	0.06059 0.75850 0.35909 0.18100
C 	C 	0.97222 0.80060 0.34242 0.22200
C 	C 	0.05145 0.78892 0.30725 -0.08600
C 	C 	0.04448 0.74960 0.28618 0.20900
C 	C 	0.07716 0.75884 0.25806 -0.17400
C 	C 	0.11014 0.80062 0.25434 0.03600
C 	C 	0.11148 0.84004 0.27468 -0.16100
C 	C 	0.08009 0.83372 0.30339 0.19200
C 	C 	0.01321 0.69960 0.29151 -0.56600
C 	C 	0.08167 0.87924 0.32667 -0.53000
C 	C 	0.83928 0.67791 0.72488 0.32600
C 	C 	0.87133 0.68429 0.75513 0.01700
C 	C 	0.88926 0.73597 0.76266 -0.14300
C 	C 	0.91303 0.74510 0.79293 0.17200
C 	C 	0.91810 0.70092 0.81220 -0.05200
C 	C 	0.90162 0.65145 0.80312 0.18200
C 	C 	0.87967 0.64235 0.77437 -0.16000
C 	C 	0.92411 0.80217 0.80281 -0.51100
C 	C 	0.91357 0.60475 0.82537 -0.51600
C 	C 	0.89891 0.72730 0.86301 0.20500
C 	C 	0.91741 0.73222 0.89581 -0.06400
C 	C 	0.97402 0.71950 0.90362 0.02400
C 	C 	0.01449 0.70520 0.88229 -0.05500
C 	C 	0.99425 0.69950 0.84905 0.20300
C 	C 	0.87695 0.74620 0.91785 -0.02800
C 	C 	0.89385 0.75300 0.94755 -0.03800
C 	C 	0.94903 0.74510 0.95493 -0.04400
C 	C 	0.99260 0.72660 0.93450 0.01800
C 	C 	0.04947 0.71560 0.94197 -0.06700
C 	C 	0.08841 0.69440 0.92201 -0.02500
C 	C 	0.06957 0.69160 0.88997 -0.03200
C 	C 	0.97034 0.75230 0.98784 0.17300
C 	C 	0.06734 0.71960 0.97404 0.22500
C 	C 	0.04898 0.76300 0.02438 -0.10400
C 	C 	0.04700 0.72480 0.04770 0.21100
C 	C 	0.07542 0.74087 0.07582 -0.17600
C 	C 	0.09677 0.79065 0.07867 0.05100
C 	C 	0.09507 0.82472 0.05427 -0.21100
C 	C 	0.06604 0.81280 0.02734 0.26100
C 	C 	0.02541 0.66810 0.04571 -0.56100
C 	C 	0.06207 0.85230 0.00277 -0.62400
C 	C 	0.74767 0.81625 0.66277 0.33500
C 	C 	0.75369 0.87343 0.65759 0.03600
C 	C 	0.80283 0.89896 0.66213 -0.18600
C 	C 	0.81195 0.95441 0.65875 0.23900
C 	C 	0.76456 0.98075 0.65176 -0.09900
C 	C 	0.71131 0.95930 0.64551 0.19700
C 	C 	0.70832 0.90267 0.64922 -0.16400
C 	C 	0.86664 0.98136 0.66524 -0.59800
C 	C 	0.65640 0.98890 0.63580 -0.53200
C 	C 	0.75557 0.06448 0.67897 0.17900
C 	C 	0.75730 0.12234 0.67900 -0.05900
C 	C 	0.76471 0.14927 0.65111 0.02300
C 	C 	0.77289 0.12133 0.62339 -0.06100
C 	C 	0.77195 0.06385 0.62305 0.18700
C 	C 	0.75171 0.14979 0.70481 -0.02000
C 	C 	0.75350 0.20532 0.70490 -0.02200
C 	C 	0.75990 0.23089 0.67860 -0.04500
C 	C 	0.76902 0.20412 0.65232 0.04200
C 	C 	0.77637 0.23230 0.62367 -0.04600
C 	C 	0.78517 0.20390 0.59687 -0.02900
C 	C 	0.78106 0.14894 0.59726 -0.02500
C 	C 	0.75539 0.28824 0.67919 0.19800
C 	C 	0.77808 0.28901 0.62378 0.20600
C 	C 	0.76632 0.37244 0.64952 -0.11600
C 	C 	0.86154 0.37307 0.67784 -0.60200
C 	C 	0.80638 0.45460 0.66278 -0.22100
C 	C 	0.67134 0.36554 0.62244 -0.61800
C 	C 	0.72106 0.45125 0.63596 -0.23500
C 	C 	0.72037 0.39681 0.63587 0.25700
C 	C 	0.81028 0.40009 0.66258 0.24900
C 	C 	0.76108 0.47991 0.64808 0.07400
C 	C 	0.76153 0.53814 0.64563 0.26800
C 	C 	0.14599 0.80585 0.22599 0.30600
C 	C 	0.13243 0.80520 0.10703 0.32100
C 	C 	0.32414 0.80940 0.09884 0.33100
C 	C 	0.35279 0.79310 0.07039 -0.00900
C 	C 	0.35025 0.82990 0.04455 -0.13700
C 	C 	0.37658 0.81640 0.01838 0.16600
C 	C 	0.40020 0.76700 0.01430 -0.04600
C 	C 	0.40279 0.73290 0.03719 0.14600
C 	C 	0.37438 0.74250 0.06368 -0.12100
C 	C 	0.38497 0.86370 0.99557 -0.49600
C 	C 	0.43303 0.67390 0.03873 -0.47200
C 	C 	0.47988 0.76670 0.97968 0.20100
C 	C 	0.50368 0.75830 0.94918 -0.06000
C 	C 	0.46493 0.73520 0.92593 0.02900
C 	C 	0.41380 0.72120 0.93450 -0.05400
C 	C 	0.38660 0.72970 0.96560 0.19400
C 	C 	0.55681 0.77390 0.94261 -0.01700
C 	C 	0.57597 0.76820 0.91227 -0.04000
C 	C 	0.54098 0.74640 0.89068 -0.04900
C 	C 	0.48564 0.72860 0.89684 0.01900
C 	C 	0.44967 0.70740 0.87457 -0.05700
C 	C 	0.39584 0.69000 0.88064 -0.02800
C 	C 	0.37990 0.69780 0.91350 -0.03200
C 	C 	0.56059 0.74150 0.85909 0.18100
C 	C 	0.47222 0.69940 0.84242 0.22200
C 	C 	0.55145 0.71108 0.80725 -0.08600
C 	C 	0.54448 0.75040 0.78618 0.20900
C 	C 	0.57716 0.74116 0.75806 -0.17400
C 	C 	0.61014 0.69938 0.75434 0.03600
C 	C 	0.61148 0.65996 0.77468 -0.16100
C 	C 	0.58009 0.66628 0.80339 0.19200
C 	C 	0.51321 0.80040 0.79151 -0.56600
C 	C 	0.58167 0.62076 0.82667 -0.53000
C 	C 	0.33928 0.82209 0.22488 0.32600
C 	C 	0.37133 0.81571 0.25513 0.01700
C 	C 	0.38926 0.76403 0.26266 -0.14300
C 	C 	0.41303 0.75490 0.29293 0.17200
C 	C 	0.41810 0.79908 0.31220 -0.05200
C 	C 	0.40162 0.84855 0.30312 0.18200
C 	C 	0.37967 0.85765 0.27437 -0.16000
C 	C 	0.42411 0.69783 0.30281 -0.51100
C 	C 	0.41357 0.89525 0.32537 -0.51600
C 	C 	0.39891 0.77270 0.36301 0.20500
C 	C 	0.41741 0.76778 0.39581 -0.06400
C 	C 	0.47402 0.78050 0.40362 0.02400
C 	C 	0.51449 0.79480 0.38229 -0.05500
C 	C 	0.49425 0.80050 0.34905 0.20300
C 	C 	0.37695 0.75380 0.41785 -0.02800
C 	C 	0.39385 0.74700 0.44755 -0.03800
C 	C 	0.44903 0.75490 0.45493 -0.04400
C 	C 	0.49260 0.77340 0.43450 0.01800
C 	C 	0.54947 0.78440 0.44197 -0.06700
C 	C 	0.58841 0.80560 0.42201 -0.02500
C 	C 	0.56957 0.80840 0.38997 -0.03200
C 	C 	0.47034 0.74770 0.48784 0.17300
C 	C 	0.56734 0.78040 0.47404 0.22500
C 	C 	0.54898 0.73700 0.52438 -0.10400
C 	C 	0.54700 0.77520 0.54770 0.21100
C 	C 	0.57542 0.75913 0.57582 -0.17600
C 	C 	0.59677 0.70935 0.57867 0.05100
C 	C 	0.59507 0.67528 0.55427 -0.21100
C 	C 	0.56604 0.68720 0.52734 0.26100
C 	C 	0.52541 0.83190 0.54571 -0.56100
C 	C 	0.56207 0.64770 0.50277 -0.62400
C 	C 	0.24767 0.68375 0.16277 0.33500
C 	C 	0.25369 0.62657 0.15759 0.03700
C 	C 	0.30283 0.60104 0.16213 -0.18700
C 	C 	0.31195 0.54559 0.15875 0.23900
C 	C 	0.26456 0.51925 0.15176 -0.09900
C 	C 	0.21131 0.54070 0.14551 0.19700
C 	C 	0.20832 0.59733 0.14922 -0.16400
C 	C 	0.36664 0.51864 0.16524 -0.59900
C 	C 	0.15640 0.51110 0.13580 -0.53200
C 	C 	0.25557 0.43552 0.17897 0.17900
C 	C 	0.25730 0.37766 0.17900 -0.05900
C 	C 	0.26471 0.35073 0.15111 0.02300
C 	C 	0.27289 0.37867 0.12339 -0.06100
C 	C 	0.27195 0.43615 0.12305 0.18700
C 	C 	0.25171 0.35021 0.20481 -0.02000
C 	C 	0.25350 0.29468 0.20490 -0.02200
C 	C 	0.25990 0.26911 0.17860 -0.04500
C 	C 	0.26902 0.29588 0.15232 0.04200
C 	C 	0.27637 0.26770 0.12367 -0.04600
C 	C 	0.28517 0.29610 0.09687 -0.02900
C 	C 	0.28106 0.35106 0.09726 -0.02500
C 	C 	0.25539 0.21176 0.17919 0.19800
C 	C 	0.27808 0.21099 0.12378 0.20600
C 	C 	0.26632 0.12756 0.14952 -0.11600
C 	C 	0.36154 0.12693 0.17784 -0.60200
C 	C 	0.30638 0.04540 0.16278 -0.22100
C 	C 	0.17134 0.13446 0.12244 -0.61900
C 	C 	0.22106 0.04875 0.13596 -0.23500
C 	C 	0.22037 0.10319 0.13587 0.25700
C 	C 	0.31028 0.09991 0.16258 0.24900
C 	C 	0.26108 0.02009 0.14808 0.07400
C 	C 	0.26153 0.96186 0.14563 0.26800
C 	C 	0.64599 0.69415 0.72599 0.30600
C 	C 	0.63243 0.69480 0.60703 0.32100
N 	N 	0.92514 0.74790 0.48554 -0.15700
N 	N 	0.02473 0.78061 0.33733 -0.15600
N 	N 	0.93810 0.70970 0.84270 -0.16300
N 	N 	0.02764 0.74244 0.99474 -0.14400
N 	N 	0.76513 0.03842 0.65133 -0.14200
N 	N 	0.76850 0.31487 0.65078 -0.13500
N 	N 	0.42514 0.75210 0.98554 -0.15700
N 	N 	0.52473 0.71939 0.83733 -0.15600
N 	N 	0.43810 0.79030 0.34270 -0.16300
N 	N 	0.52764 0.75756 0.49474 -0.14300
N 	N 	0.26513 0.46158 0.15133 -0.14200
N 	N 	0.26850 0.18513 0.15078 -0.13500
O 	O 	0.74131 0.67607 0.66416 -0.95000
O 	O 	0.83658 0.72061 0.62291 -0.48500
O 	O 	0.79272 0.65160 0.59948 -0.48700
O 	O 	0.01110 0.71580 0.50040 -0.22200
O 	O 	0.83599 0.78100 0.47179 -0.21400
O 	O 	0.10983 0.74262 0.35133 -0.22100
O 	O 	0.94276 0.82060 0.32396 -0.24300
O 	O 	0.84715 0.71362 0.70487 -0.48300
O 	O 	0.81101 0.63587 0.72152 -0.47600
O 	O 	0.85018 0.73814 0.85548 -0.23600
O 	O 	0.02871 0.68621 0.83021 -0.23200
O 	O 	0.93635 0.76879 0.00775 -0.21700
O 	O 	0.11356 0.71560 0.98256 -0.23900
O 	O 	0.69867 0.79529 0.66247 -0.48300
O 	O 	0.79466 0.79146 0.66594 -0.46700
O 	O 	0.78321 0.03723 0.60071 -0.22500
O 	O 	0.74396 0.03894 0.70232 -0.23400
O 	O 	0.78939 0.31533 0.60087 -0.22600
O 	O 	0.74450 0.31479 0.70144 -0.22900
O 	O 	0.12670 0.77747 0.12985 -0.48200
O 	O 	0.16549 0.84547 0.10439 -0.49200
O 	O 	0.18746 0.83752 0.22694 -0.50500
O 	O 	0.13031 0.77875 0.20216 -0.47100
O 	O 	0.78743 0.56428 0.66692 -0.44600
O 	O 	0.73215 0.55915 0.62552 -0.47300
O 	O 	0.24131 0.82393 0.16416 -0.95000
O 	O 	0.33658 0.77939 0.12291 -0.48500
O 	O 	0.29272 0.84840 0.09948 -0.48700
O 	O 	0.51110 0.78420 0.00040 -0.22200
O 	O 	0.33599 0.71900 0.97179 -0.21500
O 	O 	0.60983 0.75738 0.85133 -0.22100
O 	O 	0.44276 0.67940 0.82396 -0.24400
O 	O 	0.34715 0.78638 0.20487 -0.48300
O 	O 	0.31101 0.86413 0.22152 -0.47600
O 	O 	0.35018 0.76186 0.35548 -0.23600
O 	O 	0.52871 0.81379 0.33021 -0.23200
O 	O 	0.43635 0.73121 0.50775 -0.21700
O 	O 	0.61356 0.78440 0.48256 -0.23900
O 	O 	0.19867 0.70471 0.16247 -0.48300
O 	O 	0.29466 0.70854 0.16594 -0.46700
O 	O 	0.28321 0.46277 0.10071 -0.22500
O 	O 	0.24396 0.46106 0.20232 -0.23400
O 	O 	0.28939 0.18467 0.10087 -0.22600
O 	O 	0.24450 0.18521 0.20144 -0.22900
O 	O 	0.62670 0.72253 0.62985 -0.48200
O 	O 	0.66549 0.65453 0.60439 -0.49200
O 	O 	0.68746 0.66248 0.72694 -0.50500
O 	O 	0.63031 0.72125 0.70216 -0.47100
O 	O 	0.28743 0.93572 0.16692 -0.44600
O 	O 	0.23215 0.94085 0.12552 -0.47300
