data_crystal

_cell_length_a 15.22800
_cell_length_b 15.22800
_cell_length_c 28.79100
_cell_angle_alpha 90.00000
_cell_angle_beta  90.00000
_cell_angle_gamma 90.00000

_symmetry_space_group_name_	'P 1'
_symmetry_space_group_name_H-M	'P 1'

loop_
_symmetry_equiv_pos_as_xyz
  x,y,z

loop_
_atom_site_label
_atom_site_type_symbol
_atom_site_fract_x
_atom_site_fract_y
_atom_site_fract_z
_atom_site_charge
O 	O 	0.78109 0.06858 0.42933 -0.76800
O 	O 	0.88158 0.03373 0.37516 -0.65100
O 	O 	0.89678 0.94624 0.54138 -1.29000
C 	C 	0.67850 0.99270 0.28007 0.42500
H 	H 	0.68860 0.96220 0.25260 -0.11500
C 	C 	0.74730 0.00480 0.31068 -0.46100
H 	H 	0.80300 0.98410 0.30320 0.24500
C 	C 	0.73345 0.04776 0.35253 0.06600
C 	C 	0.65150 0.08170 0.36121 -0.21400
H 	H 	0.64130 0.11240 0.38860 0.06800
C 	C 	0.58440 0.07080 0.32971 0.17300
H 	H 	0.52980 0.09540 0.33600 -0.06600
C 	C 	0.59598 0.02413 0.28885 -0.39800
C 	C 	0.80363 0.05131 0.38818 0.43600
O 	O 	0.28109 0.56858 0.92933 -0.72200
O 	O 	0.38158 0.53373 0.87516 -0.65900
O 	O 	0.39678 0.44624 0.04138 -1.40600
C 	C 	0.17850 0.49270 0.78007 -0.00700
H 	H 	0.18860 0.46220 0.75260 0.01700
C 	C 	0.24730 0.50480 0.81068 -0.00600
H 	H 	0.30300 0.48410 0.80320 0.04200
C 	C 	0.23345 0.54776 0.85253 -0.14500
C 	C 	0.15150 0.58170 0.86121 -0.00100
H 	H 	0.14130 0.61240 0.88860 0.02200
C 	C 	0.08440 0.57080 0.82971 -0.02000
H 	H 	0.02980 0.59540 0.83600 0.00400
C 	C 	0.09598 0.52413 0.78885 -0.17000
C 	C 	0.30363 0.55131 0.88818 0.51800
O 	O 	0.21891 0.93142 0.42933 -0.78800
O 	O 	0.11842 0.96627 0.37516 -0.67400
O 	O 	0.10322 0.05376 0.54138 -1.38700
C 	C 	0.32150 0.00730 0.28007 -0.58400
H 	H 	0.31140 0.03780 0.25260 0.19200
C 	C 	0.25270 0.99520 0.31068 0.58700
H 	H 	0.19700 0.01590 0.30320 -0.22300
C 	C 	0.26655 0.95224 0.35253 -0.46500
C 	C 	0.34850 0.91830 0.36121 0.31800
H 	H 	0.35870 0.88760 0.38860 -0.10100
C 	C 	0.41560 0.92920 0.32971 -0.32800
H 	H 	0.47020 0.90460 0.33600 0.13100
C 	C 	0.40402 0.97587 0.28885 0.21400
C 	C 	0.19637 0.94869 0.38818 0.64900
O 	O 	0.71891 0.43142 0.92933 -0.71600
O 	O 	0.61842 0.46627 0.87516 -0.66000
O 	O 	0.60322 0.55376 0.04138 -1.39900
C 	C 	0.82150 0.50730 0.78007 -0.04500
H 	H 	0.81140 0.53780 0.75260 0.03600
C 	C 	0.75270 0.49520 0.81068 0.03200
H 	H 	0.69700 0.51590 0.80320 0.03300
C 	C 	0.76655 0.45224 0.85253 -0.16200
C 	C 	0.84850 0.41830 0.86121 0.03800
H 	H 	0.85870 0.38760 0.88860 0.02100
C 	C 	0.91560 0.42920 0.82971 -0.04600
H 	H 	0.97020 0.40460 0.83600 0.05600
C 	C 	0.90402 0.47587 0.78885 -0.09200
C 	C 	0.69637 0.44869 0.88818 0.52700
O 	O 	0.93142 0.78109 0.42933 -0.77900
O 	O 	0.96627 0.88158 0.37516 -0.64400
O 	O 	0.05376 0.89678 0.54138 -1.35000
C 	C 	0.00730 0.67850 0.28007 -0.51700
H 	H 	0.03780 0.68860 0.25260 0.17800
C 	C 	0.99520 0.74730 0.31068 0.51500
H 	H 	0.01590 0.80300 0.30320 -0.17800
C 	C 	0.95224 0.73345 0.35253 -0.42000
C 	C 	0.91830 0.65150 0.36121 0.27900
H 	H 	0.88760 0.64130 0.38860 -0.08500
C 	C 	0.92920 0.58440 0.32971 -0.28800
H 	H 	0.90460 0.52980 0.33600 0.11800
C 	C 	0.97587 0.59598 0.28885 0.17300
C 	C 	0.94869 0.80363 0.38818 0.62900
O 	O 	0.43142 0.28109 0.92933 -0.72800
O 	O 	0.46627 0.38158 0.87516 -0.66100
O 	O 	0.55376 0.39678 0.04138 -1.40400
C 	C 	0.50730 0.17850 0.78007 -0.01800
H 	H 	0.53780 0.18860 0.75260 0.02300
C 	C 	0.49520 0.24730 0.81068 0.00300
H 	H 	0.51590 0.30300 0.80320 0.04000
C 	C 	0.45224 0.23345 0.85253 -0.15300
C 	C 	0.41830 0.15150 0.86121 0.00600
H 	H 	0.38760 0.14130 0.88860 0.01100
C 	C 	0.42920 0.08440 0.82971 -0.03300
H 	H 	0.40460 0.02980 0.83600 0.00200
C 	C 	0.47587 0.09598 0.78885 -0.15600
C 	C 	0.44869 0.30363 0.88818 0.52000
O 	O 	0.06858 0.21891 0.42933 -0.77500
O 	O 	0.03373 0.11842 0.37516 -0.68800
O 	O 	0.94624 0.10322 0.54138 -1.30900
C 	C 	0.99270 0.32150 0.28007 0.48300
H 	H 	0.96220 0.31140 0.25260 -0.13900
C 	C 	0.00480 0.25270 0.31068 -0.52400
H 	H 	0.98410 0.19700 0.30320 0.26300
C 	C 	0.04776 0.26655 0.35253 0.08900
C 	C 	0.08170 0.34850 0.36121 -0.24300
H 	H 	0.11240 0.35870 0.38860 0.07500
C 	C 	0.07080 0.41560 0.32971 0.20300
H 	H 	0.09540 0.47020 0.33600 -0.07600
C 	C 	0.02413 0.40402 0.28885 -0.44000
C 	C 	0.05131 0.19637 0.38818 0.42900
O 	O 	0.56858 0.71891 0.92933 -0.71200
O 	O 	0.53373 0.61842 0.87516 -0.65900
O 	O 	0.44624 0.60322 0.04138 -1.40100
C 	C 	0.49270 0.82150 0.78007 -0.05300
H 	H 	0.46220 0.81140 0.75260 0.03700
C 	C 	0.50480 0.75270 0.81068 0.03700
H 	H 	0.48410 0.69700 0.80320 0.03100
C 	C 	0.54776 0.76655 0.85253 -0.16400
C 	C 	0.58170 0.84850 0.86121 0.04400
H 	H 	0.61240 0.85870 0.88860 0.02600
C 	C 	0.57080 0.91560 0.82971 -0.05300
H 	H 	0.59540 0.97020 0.83600 0.06300
C 	C 	0.52413 0.90402 0.78885 -0.08000
C 	C 	0.55131 0.69637 0.88818 0.52900
O 	O 	0.21891 0.93142 0.57067 -0.78800
O 	O 	0.11842 0.96627 0.62484 -0.67200
O 	O 	0.10322 0.05376 0.45862 -1.38700
C 	C 	0.32150 0.00730 0.71993 -0.57800
H 	H 	0.31140 0.03780 0.74740 0.19800
C 	C 	0.25270 0.99520 0.68932 0.58500
H 	H 	0.19700 0.01590 0.69680 -0.21700
C 	C 	0.26655 0.95224 0.64747 -0.46200
C 	C 	0.34850 0.91830 0.63879 0.31500
H 	H 	0.35870 0.88760 0.61140 -0.10000
C 	C 	0.41560 0.92920 0.67029 -0.32200
H 	H 	0.47020 0.90460 0.66400 0.12900
C 	C 	0.40402 0.97587 0.71115 0.20800
C 	C 	0.19637 0.94869 0.61182 0.64800
O 	O 	0.71891 0.43142 0.07067 -0.82100
O 	O 	0.61842 0.46627 0.12484 -0.67100
O 	O 	0.60322 0.55376 0.95862 -1.24900
C 	C 	0.82150 0.50730 0.21993 -0.07300
H 	H 	0.81140 0.53780 0.24740 0.04300
C 	C 	0.75270 0.49520 0.18932 0.05500
H 	H 	0.69700 0.51590 0.19680 0.02100
C 	C 	0.76655 0.45224 0.14747 -0.21000
C 	C 	0.84850 0.41830 0.13879 0.06100
H 	H 	0.85870 0.38760 0.11140 -0.03700
C 	C 	0.91560 0.42920 0.17029 -0.08300
H 	H 	0.97020 0.40460 0.16400 0.04600
C 	C 	0.90402 0.47587 0.21115 -0.07500
C 	C 	0.69637 0.44869 0.11182 0.54900
O 	O 	0.78109 0.06858 0.57067 -0.76600
O 	O 	0.88158 0.03373 0.62484 -0.64800
O 	O 	0.89678 0.94624 0.45862 -1.28900
C 	C 	0.67850 0.99270 0.71993 0.43200
H 	H 	0.68860 0.96220 0.74740 -0.10800
C 	C 	0.74730 0.00480 0.68932 -0.46200
H 	H 	0.80300 0.98410 0.69680 0.25300
C 	C 	0.73345 0.04776 0.64747 0.07000
C 	C 	0.65150 0.08170 0.63879 -0.21600
H 	H 	0.64130 0.11240 0.61140 0.06900
C 	C 	0.58440 0.07080 0.67029 0.17800
H 	H 	0.52980 0.09540 0.66400 -0.06800
C 	C 	0.59598 0.02413 0.71115 -0.40400
C 	C 	0.80363 0.05131 0.61182 0.43500
O 	O 	0.28109 0.56858 0.07067 -0.82700
O 	O 	0.38158 0.53373 0.12484 -0.67000
O 	O 	0.39678 0.44624 0.95862 -1.25700
C 	C 	0.17850 0.49270 0.21993 -0.03500
H 	H 	0.18860 0.46220 0.24740 0.02400
C 	C 	0.24730 0.50480 0.18932 0.01700
H 	H 	0.30300 0.48410 0.19680 0.03000
C 	C 	0.23345 0.54776 0.14747 -0.19200
C 	C 	0.15150 0.58170 0.13879 0.02200
H 	H 	0.14130 0.61240 0.11140 -0.03700
C 	C 	0.08440 0.57080 0.17029 -0.05800
H 	H 	0.02980 0.59540 0.16400 -0.00700
C 	C 	0.09598 0.52413 0.21115 -0.15400
C 	C 	0.30363 0.55131 0.11182 0.54000
O 	O 	0.06858 0.21891 0.57067 -0.77500
O 	O 	0.03373 0.11842 0.62484 -0.68700
O 	O 	0.94624 0.10322 0.45862 -1.30900
C 	C 	0.99270 0.32150 0.71993 0.48900
H 	H 	0.96220 0.31140 0.74740 -0.13300
C 	C 	0.00480 0.25270 0.68932 -0.52600
H 	H 	0.98410 0.19700 0.69680 0.27000
C 	C 	0.04776 0.26655 0.64747 0.09300
C 	C 	0.08170 0.34850 0.63879 -0.24600
H 	H 	0.11240 0.35870 0.61140 0.07600
C 	C 	0.07080 0.41560 0.67029 0.20800
H 	H 	0.09540 0.47020 0.66400 -0.07800
C 	C 	0.02413 0.40402 0.71115 -0.44600
C 	C 	0.05131 0.19637 0.61182 0.42800
O 	O 	0.56858 0.71891 0.07067 -0.81700
O 	O 	0.53373 0.61842 0.12484 -0.67100
O 	O 	0.44624 0.60322 0.95862 -1.25200
C 	C 	0.49270 0.82150 0.21993 -0.08100
H 	H 	0.46220 0.81140 0.24740 0.04400
C 	C 	0.50480 0.75270 0.18932 0.05900
H 	H 	0.48410 0.69700 0.19680 0.01900
C 	C 	0.54776 0.76655 0.14747 -0.21100
C 	C 	0.58170 0.84850 0.13879 0.06700
H 	H 	0.61240 0.85870 0.11140 -0.03300
C 	C 	0.57080 0.91560 0.17029 -0.09000
H 	H 	0.59540 0.97020 0.16400 0.05200
C 	C 	0.52413 0.90402 0.21115 -0.06300
C 	C 	0.55131 0.69637 0.11182 0.55100
O 	O 	0.93142 0.78109 0.57067 -0.77900
O 	O 	0.96627 0.88158 0.62484 -0.64300
O 	O 	0.05376 0.89678 0.45862 -1.35000
C 	C 	0.00730 0.67850 0.71993 -0.51100
H 	H 	0.03780 0.68860 0.74740 0.18400
C 	C 	0.99520 0.74730 0.68932 0.51400
H 	H 	0.01590 0.80300 0.69680 -0.17200
C 	C 	0.95224 0.73345 0.64747 -0.41600
C 	C 	0.91830 0.65150 0.63879 0.27600
H 	H 	0.88760 0.64130 0.61140 -0.08400
C 	C 	0.92920 0.58440 0.67029 -0.28200
H 	H 	0.90460 0.52980 0.66400 0.11600
C 	C 	0.97587 0.59598 0.71115 0.16700
C 	C 	0.94869 0.80363 0.61182 0.62800
O 	O 	0.43142 0.28109 0.07067 -0.83300
O 	O 	0.46627 0.38158 0.12484 -0.67200
O 	O 	0.55376 0.39678 0.95862 -1.25400
C 	C 	0.50730 0.17850 0.21993 -0.04600
H 	H 	0.53780 0.18860 0.24740 0.03000
C 	C 	0.49520 0.24730 0.18932 0.02600
H 	H 	0.51590 0.30300 0.19680 0.02800
C 	C 	0.45224 0.23345 0.14747 -0.20100
C 	C 	0.41830 0.15150 0.13879 0.03000
H 	H 	0.38760 0.14130 0.11140 -0.04700
C 	C 	0.42920 0.08440 0.17029 -0.07000
H 	H 	0.40460 0.02980 0.16400 -0.00800
C 	C 	0.47587 0.09598 0.21115 -0.14000
C 	C 	0.44869 0.30363 0.11182 0.54200
Zr	Zr	0.84321 0.05007 0.50000 3.17200
Zr	Zr	0.34321 0.55007 -0.00000 3.15000
Zr	Zr	0.15679 0.94993 0.50000 3.18400
Zr	Zr	0.65679 0.44993 -0.00000 3.15100
Zr	Zr	0.94993 0.84321 0.50000 3.18300
Zr	Zr	0.44993 0.34321 -0.00000 3.15000
Zr	Zr	0.05007 0.15679 0.50000 3.17000
Zr	Zr	0.55007 0.65679 -0.00000 3.15100
Zr	Zr	-0.00000 -0.00000 0.41456 3.19500
Zr	Zr	0.50000 0.50000 0.91456 3.21200
Zr	Zr	-0.00000 -0.00000 0.58543 3.19500
Zr	Zr	0.50000 0.50000 0.08544 3.21400
Si	Si	0.50000 0.00000 0.25000 0.41200
Si	Si	0.00000 0.50000 0.25000 0.44600
Si	Si	0.50000 -0.00000 0.75000 0.43400
Si	Si	0.00000 0.50000 0.75000 0.46800
