data_crystal

_cell_length_a 12.00200
_cell_length_b 15.37200
_cell_length_c 18.01800
_cell_angle_alpha 90.15000
_cell_angle_beta  96.90100
_cell_angle_gamma 92.01300

_symmetry_space_group_name_	'P 1'
_symmetry_space_group_name_H-M	'P 1'

loop_
_symmetry_equiv_pos_as_xyz
  x,y,z

loop_
_atom_site_label
_atom_site_type_symbol
_atom_site_fract_x
_atom_site_fract_y
_atom_site_fract_z
_atom_site_charge
Y 	Y 	0.30664 0.41735 0.77243 2.35700
Y 	Y 	0.19166 0.21279 0.46725 2.36100
Y 	Y 	0.70413 0.31185 0.46855 2.37800
Y 	Y 	0.40160 0.22809 0.07069 2.35200
Y 	Y 	0.90127 0.26527 0.06999 2.35000
Y 	Y 	0.79283 0.08837 0.76312 2.35600
N 	N 	0.45150 0.29640 0.76010 -0.24100
C 	C 	0.50050 0.26570 0.82380 -0.12300
C 	C 	0.59480 0.22340 0.83010 0.06000
H 	H 	0.62540 0.20580 0.87730 -0.00500
N 	N 	0.64890 0.20460 0.77070 -0.24700
C 	C 	0.60890 0.24010 0.70470 -0.13800
C 	C 	0.50530 0.28500 0.70050 0.05000
H 	H 	0.47490 0.30690 0.65470 -0.00300
C 	C 	0.67460 0.22910 0.63860 0.45100
O 	O 	0.74490 0.17370 0.64870 -0.58900
O 	O 	0.65310 0.28040 0.58640 -0.58400
C 	C 	0.43060 0.28550 0.88890 0.36400
O 	O 	0.34760 0.32980 0.87650 -0.64500
O 	O 	0.46970 0.25200 0.95280 -0.58600
N 	N 	0.14480 0.30450 0.77130 -0.25600
C 	C 	0.09820 0.27540 0.70540 -0.11000
C 	C 	0.99100 0.23660 0.69640 0.05100
H 	H 	0.95800 0.22160 0.64850 0.02200
N 	N 	0.93340 0.22010 0.75470 -0.23100
C 	C 	0.98530 0.24730 0.82340 -0.16400
C 	C 	0.08830 0.28780 0.82840 0.08300
H 	H 	0.12150 0.30520 0.87560 -0.01600
C 	C 	0.16930 0.28600 0.64350 0.40000
O 	O 	0.25410 0.33950 0.65740 -0.56900
O 	O 	0.14190 0.24200 0.58490 -0.59600
C 	C 	0.92130 0.22180 0.88770 0.45400
O 	O 	0.84280 0.16750 0.87470 -0.65800
O 	O 	0.95860 0.25400 0.94770 -0.62600
N 	N 	0.06550 0.07690 0.49290 -0.23900
C 	C 	0.05730 0.01460 0.44180 -0.15800
C 	C 	0.99190 0.93830 0.44940 0.06300
H 	H 	0.98850 0.89600 0.41200 -0.00400
C 	C 	0.12310 0.02790 0.37760 0.48300
O 	O 	0.16880 0.10000 0.37490 -0.63800
O 	O 	0.12510 0.96550 0.33470 -0.67600
N 	N 	0.11680 0.27820 0.34110 -0.24100
C 	C 	0.00810 0.29460 0.33240 -0.10400
C 	C 	0.95570 0.31730 0.26160 0.05000
H 	H 	0.88400 0.33920 0.25820 0.00100
N 	N 	0.00280 0.30940 0.20000 -0.23700
C 	C 	0.10860 0.29360 0.20700 -0.13800
C 	C 	0.16900 0.28110 0.27690 0.04700
H 	H 	0.24620 0.27450 0.28040 0.00700
C 	C 	0.95260 0.28220 0.40090 0.39500
O 	O 	0.00860 0.25070 0.45690 -0.58900
O 	O 	0.84960 0.30580 0.39390 -0.54400
C 	C 	0.16520 0.27060 0.13960 0.42100
O 	O 	0.09890 0.26340 0.08070 -0.65000
O 	O 	0.26820 0.25860 0.14790 -0.64400
N 	N 	0.62160 0.22650 0.34670 -0.23500
C 	C 	0.51020 0.21440 0.33630 -0.12200
C 	C 	0.45070 0.19130 0.26800 0.04900
H 	H 	0.37590 0.17210 0.26540 -0.00900
N 	N 	0.50080 0.19680 0.20600 -0.23700
C 	C 	0.61440 0.20690 0.21610 -0.14300
C 	C 	0.67250 0.21780 0.28450 0.06300
H 	H 	0.75060 0.21940 0.28890 -0.00600
C 	C 	0.45020 0.23250 0.40470 0.41300
O 	O 	0.51430 0.26760 0.45960 -0.58900
O 	O 	0.34820 0.21870 0.40010 -0.61800
C 	C 	0.66600 0.22300 0.14340 0.42800
O 	O 	0.60080 0.23340 0.08460 -0.65000
O 	O 	0.76950 0.23020 0.15120 -0.64300
N 	N 	0.57840 0.43460 0.49550 -0.22200
C 	C 	0.54640 0.48840 0.43690 -0.13100
C 	C 	0.47050 0.55060 0.44280 0.07900
H 	H 	0.45120 0.58530 0.40130 0.00600
C 	C 	0.60330 0.47100 0.36870 0.47400
O 	O 	0.65200 0.40320 0.36490 -0.59300
O 	O 	0.59650 0.53060 0.32220 -0.63800
N 	N 	0.47070 0.08100 0.02410 -0.24300
C 	C 	0.42700 0.00960 0.05010 -0.14900
C 	C 	0.45680 0.92780 0.02490 0.06300
H 	H 	0.42420 0.87790 0.04350 -0.00600
C 	C 	0.35470 0.02050 0.11000 0.40500
O 	O 	0.33080 0.09710 0.12300 -0.61300
O 	O 	0.31710 0.95470 0.14310 -0.60600
N 	N 	0.97540 0.41780 0.02900 -0.23900
C 	C 	0.92410 0.48840 0.04850 -0.14100
C 	C 	0.94700 0.56640 0.01770 0.07000
H 	H 	0.90540 0.61310 0.03000 -0.00800
C 	C 	0.83940 0.47460 0.10280 0.42500
O 	O 	0.82240 0.39830 0.12060 -0.59000
O 	O 	0.79520 0.53920 0.12690 -0.60200
O 	O 	0.86600 0.35130 0.56060 -0.34300
N 	N 	0.87840 0.43200 0.54190 0.06200
O 	O 	0.80730 0.45540 0.48770 -0.33300
O 	O 	0.95320 0.48060 0.57380 -0.13100
Y 	Y 	0.69336 0.58265 0.22757 2.35600
Y 	Y 	0.80834 0.78721 0.53275 2.36000
Y 	Y 	0.29587 0.68815 0.53145 2.37700
Y 	Y 	0.59840 0.77191 0.92931 2.35100
Y 	Y 	0.09873 0.73473 0.93001 2.34900
Y 	Y 	0.20717 0.91163 0.23688 2.35500
N 	N 	0.54850 0.70360 0.23990 -0.24200
C 	C 	0.49950 0.73430 0.17620 -0.12400
C 	C 	0.40520 0.77660 0.16990 0.06000
H 	H 	0.37460 0.79420 0.12270 -0.00500
N 	N 	0.35110 0.79540 0.22930 -0.24700
C 	C 	0.39110 0.75990 0.29530 -0.13800
C 	C 	0.49470 0.71500 0.29950 0.05000
H 	H 	0.52510 0.69310 0.34530 -0.00300
C 	C 	0.32540 0.77090 0.36140 0.45100
O 	O 	0.25510 0.82630 0.35130 -0.58900
O 	O 	0.34690 0.71960 0.41360 -0.58400
C 	C 	0.56940 0.71450 0.11110 0.36400
O 	O 	0.65240 0.67020 0.12350 -0.64500
O 	O 	0.53030 0.74800 0.04720 -0.58600
N 	N 	0.85520 0.69550 0.22870 -0.25600
C 	C 	0.90180 0.72460 0.29460 -0.11000
C 	C 	0.00900 0.76340 0.30360 0.05100
H 	H 	0.04200 0.77840 0.35150 0.02200
N 	N 	0.06660 0.77990 0.24530 -0.23100
C 	C 	0.01470 0.75270 0.17660 -0.16400
C 	C 	0.91170 0.71220 0.17160 0.08300
H 	H 	0.87850 0.69480 0.12440 -0.01600
C 	C 	0.83070 0.71400 0.35650 0.40000
O 	O 	0.74590 0.66050 0.34260 -0.56900
O 	O 	0.85810 0.75800 0.41510 -0.59600
C 	C 	0.07870 0.77820 0.11230 0.45400
O 	O 	0.15720 0.83250 0.12530 -0.65800
O 	O 	0.04140 0.74600 0.05230 -0.62600
N 	N 	0.93450 0.92310 0.50710 -0.23900
C 	C 	0.94270 0.98540 0.55820 -0.15800
C 	C 	0.00810 0.06170 0.55060 0.06300
H 	H 	0.01150 0.10400 0.58800 -0.00400
C 	C 	0.87690 0.97210 0.62240 0.48300
O 	O 	0.83120 0.90000 0.62510 -0.63800
O 	O 	0.87490 0.03450 0.66530 -0.67600
N 	N 	0.88320 0.72180 0.65890 -0.24100
C 	C 	0.99190 0.70540 0.66760 -0.10400
C 	C 	0.04430 0.68270 0.73840 0.05000
H 	H 	0.11600 0.66080 0.74180 0.00100
N 	N 	0.99720 0.69060 0.80000 -0.23700
C 	C 	0.89140 0.70640 0.79300 -0.13800
C 	C 	0.83100 0.71890 0.72310 0.04700
H 	H 	0.75380 0.72550 0.71960 0.00700
C 	C 	0.04740 0.71780 0.59910 0.39500
O 	O 	0.99140 0.74930 0.54310 -0.58900
O 	O 	0.15040 0.69420 0.60610 -0.54400
C 	C 	0.83480 0.72940 0.86040 0.42100
O 	O 	0.90110 0.73660 0.91930 -0.65000
O 	O 	0.73180 0.74140 0.85210 -0.64400
N 	N 	0.37840 0.77350 0.65330 -0.23500
C 	C 	0.48980 0.78560 0.66370 -0.12200
C 	C 	0.54930 0.80870 0.73200 0.04900
H 	H 	0.62410 0.82790 0.73460 -0.00900
N 	N 	0.49920 0.80320 0.79400 -0.23700
C 	C 	0.38560 0.79310 0.78390 -0.14300
C 	C 	0.32750 0.78220 0.71550 0.06300
H 	H 	0.24940 0.78060 0.71110 -0.00600
C 	C 	0.54980 0.76750 0.59530 0.41300
O 	O 	0.48570 0.73240 0.54040 -0.58900
O 	O 	0.65180 0.78130 0.59990 -0.61800
C 	C 	0.33400 0.77700 0.85660 0.42800
O 	O 	0.39920 0.76660 0.91540 -0.65000
O 	O 	0.23050 0.76980 0.84880 -0.64300
N 	N 	0.42160 0.56540 0.50450 -0.22200
C 	C 	0.45360 0.51160 0.56310 -0.13100
C 	C 	0.52950 0.44940 0.55720 0.07900
H 	H 	0.54880 0.41470 0.59870 0.00600
C 	C 	0.39670 0.52900 0.63130 0.47400
O 	O 	0.34800 0.59680 0.63510 -0.59300
O 	O 	0.40350 0.46940 0.67780 -0.63800
N 	N 	0.52930 0.91900 0.97590 -0.24300
C 	C 	0.57300 0.99040 0.94990 -0.14900
C 	C 	0.54320 0.07220 0.97510 0.06300
H 	H 	0.57580 0.12210 0.95650 -0.00600
C 	C 	0.64530 0.97950 0.89000 0.40500
O 	O 	0.66920 0.90290 0.87700 -0.61300
O 	O 	0.68290 0.04530 0.85690 -0.60600
N 	N 	0.02460 0.58220 0.97100 -0.23900
C 	C 	0.07590 0.51160 0.95150 -0.14100
C 	C 	0.05300 0.43360 0.98230 0.07000
H 	H 	0.09460 0.38690 0.97000 -0.00800
C 	C 	0.16060 0.52540 0.89720 0.42500
O 	O 	0.17760 0.60170 0.87940 -0.59000
O 	O 	0.20480 0.46080 0.87310 -0.60200
O 	O 	0.13400 0.64870 0.43940 -0.34300
N 	N 	0.12160 0.56800 0.45810 0.06200
O 	O 	0.19270 0.54460 0.51230 -0.33300
O 	O 	0.04680 0.51940 0.42620 -0.13100
