data_crystal

_cell_length_a 9.60840
_cell_length_b 15.80300
_cell_length_c 7.93090
_cell_angle_alpha 90.00000
_cell_angle_beta  96.84000
_cell_angle_gamma 90.00000

_symmetry_space_group_name_	'P 1'
_symmetry_space_group_name_H-M	'P 1'

loop_
_symmetry_equiv_pos_as_xyz
  x,y,z

loop_
_atom_site_label
_atom_site_type_symbol
_atom_site_fract_x
_atom_site_fract_y
_atom_site_fract_z
_atom_site_charge
Y 	Y 	0.86694 0.67263 0.07257 2.36400
O 	O 	0.70870 0.57060 0.94850 -0.47800
O 	O 	0.10860 0.68972 0.14420 -0.57700
O 	O 	0.94330 0.53800 0.18650 -0.48000
O 	O 	0.18720 0.76250 0.37570 -0.58200
O 	O 	0.02350 0.41004 0.12690 -0.44400
N 	N 	0.62590 0.67300 0.18290 -0.26900
N 	N 	0.45200 0.73550 0.33050 -0.23900
C 	C 	0.52680 0.63230 0.08080 -0.04800
C 	C 	0.20330 0.71740 0.25150 0.43200
C 	C 	0.38540 0.64120 0.10050 0.00600
C 	C 	0.35320 0.69530 0.22470 -0.09100
O 	O 	0.48800 0.55551 0.82510 -0.26900
C 	C 	0.57680 0.58130 0.94040 0.32500
C 	C 	0.58360 0.72230 0.30370 0.09400
C 	C 	0.99020 0.48500 0.09070 0.25500
H 	H 	0.31393 0.61083 0.03017 0.05200
H 	H 	0.65510 0.75070 0.37757 -0.04800
Y 	Y 	0.63306 0.17263 0.42743 2.36600
O 	O 	0.79130 0.07060 0.55150 -0.48400
O 	O 	0.39140 0.18972 0.35580 -0.58100
O 	O 	0.55670 0.03800 0.31350 -0.47800
O 	O 	0.31280 0.26250 0.12430 -0.58000
O 	O 	0.47650 0.91004 0.37310 -0.45800
N 	N 	0.87410 0.17300 0.31710 -0.26600
N 	N 	0.04800 0.23550 0.16950 -0.23200
C 	C 	0.97320 0.13230 0.41920 -0.05200
C 	C 	0.29670 0.21740 0.24850 0.43300
C 	C 	0.11460 0.14120 0.39950 0.01200
C 	C 	0.14680 0.19530 0.27530 -0.09300
O 	O 	0.01200 0.05551 0.67490 -0.27600
C 	C 	0.92320 0.08130 0.55960 0.33300
C 	C 	0.91640 0.22230 0.19630 0.08200
C 	C 	0.50980 0.98500 0.40930 0.26900
H 	H 	0.18607 0.11083 0.46983 0.04800
H 	H 	0.84490 0.25070 0.12243 -0.04600
Y 	Y 	0.13306 0.32737 0.92743 2.36400
O 	O 	0.29130 0.42940 0.05150 -0.47800
O 	O 	0.89140 0.31028 0.85580 -0.57700
O 	O 	0.05670 0.46200 0.81350 -0.48000
O 	O 	0.81280 0.23750 0.62430 -0.58200
O 	O 	0.97650 0.58996 0.87310 -0.44400
N 	N 	0.37410 0.32700 0.81710 -0.26900
N 	N 	0.54800 0.26450 0.66950 -0.23900
C 	C 	0.47320 0.36770 0.91920 -0.04800
C 	C 	0.79670 0.28260 0.74850 0.43200
C 	C 	0.61460 0.35880 0.89950 0.00600
C 	C 	0.64680 0.30470 0.77530 -0.09100
O 	O 	0.51200 0.44449 0.17490 -0.26900
C 	C 	0.42320 0.41870 0.05960 0.32500
C 	C 	0.41640 0.27770 0.69630 0.09400
C 	C 	0.00980 0.51500 0.90930 0.25500
H 	H 	0.68607 0.38917 0.96983 0.05200
H 	H 	0.34490 0.24930 0.62243 -0.04800
Y 	Y 	0.36694 0.82737 0.57257 2.36600
O 	O 	0.20870 0.92940 0.44850 -0.48400
O 	O 	0.60860 0.81028 0.64420 -0.58100
O 	O 	0.44330 0.96200 0.68650 -0.47800
O 	O 	0.68720 0.73750 0.87570 -0.58000
O 	O 	0.52350 0.08996 0.62690 -0.45800
N 	N 	0.12590 0.82700 0.68290 -0.26600
N 	N 	0.95200 0.76450 0.83050 -0.23200
C 	C 	0.02680 0.86770 0.58080 -0.05200
C 	C 	0.70330 0.78260 0.75150 0.43300
C 	C 	0.88540 0.85880 0.60050 0.01200
C 	C 	0.85320 0.80470 0.72470 -0.09300
O 	O 	0.98800 0.94449 0.32510 -0.27600
C 	C 	0.07680 0.91870 0.44040 0.33300
C 	C 	0.08360 0.77770 0.80370 0.08200
C 	C 	0.49020 0.01500 0.59070 0.26900
H 	H 	0.81393 0.88917 0.53017 0.04800
H 	H 	0.15510 0.74930 0.87757 -0.04600
