data_crystal

_cell_length_a 37.44100
_cell_length_b 37.44900
_cell_length_c 27.25000
_cell_angle_alpha 90.00000
_cell_angle_beta  90.00000
_cell_angle_gamma 90.00000

_symmetry_space_group_name_	'P 1'
_symmetry_space_group_name_H-M	'P 1'

loop_
_symmetry_equiv_pos_as_xyz
  x,y,z

loop_
_atom_site_label
_atom_site_type_symbol
_atom_site_fract_x
_atom_site_fract_y
_atom_site_fract_z
_atom_site_charge
Cu	Cu	0.00102 0.00335 0.14958 0.90200
Cu	Cu	0.99089 0.99795 0.24613 0.91800
Cu	Cu	0.23856 0.28367 0.03999 0.92400
N 	N 	0.09341 0.30135 0.34180 -0.20600
N 	N 	0.09182 0.19675 0.23600 -0.20800
N 	N 	0.19445 0.90888 0.22460 -0.21100
O 	O 	0.02520 0.04760 0.17054 -0.42000
O 	O 	0.04497 0.97601 0.16470 -0.41900
O 	O 	0.26616 0.79492 0.08120 -0.42800
O 	O 	0.20991 0.77551 0.08170 -0.40900
O 	O 	0.03889 0.97570 0.24578 -0.40800
O 	O 	0.01457 0.04553 0.25101 -0.39700
O 	O 	0.44550 0.97811 0.27184 -0.41000
O 	O 	0.23272 0.79443 0.48020 -0.43400
O 	O 	0.28887 0.77646 0.47890 -0.41700
O 	O 	0.45533 0.97111 0.35204 -0.41000
O 	O 	0.20498 0.26665 0.08910 -0.39600
O 	O 	0.22513 0.21020 0.09030 -0.40300
O 	O 	0.02528 0.45707 0.35680 -0.39300
O 	O 	0.02990 0.45143 0.27513 -0.41200
O 	O 	0.22472 0.29159 0.49050 -0.39900
O 	O 	0.20582 0.23482 0.49020 -0.40200
C 	C 	0.07391 0.27466 0.31470 0.24900
C 	C 	0.09156 0.24868 0.28840 -0.32300
H 	H 	0.11640 0.24870 0.28730 0.15200
C 	C 	0.07297 0.22308 0.26390 0.25800
C 	C 	0.07597 0.16252 0.22900 0.18900
C 	C 	0.07310 0.14630 0.18430 -0.22600
H 	H 	0.08220 0.15790 0.15680 0.11600
C 	C 	0.05740 0.11355 0.17840 0.12800
H 	H 	0.05560 0.10350 0.14730 0.00300
C 	C 	0.04399 0.09513 0.21890 -0.17600
C 	C 	0.02714 0.06006 0.21290 0.39500
C 	C 	0.05558 0.96924 0.20710 0.40800
C 	C 	0.09080 0.95164 0.21250 -0.19300
C 	C 	0.11010 0.94230 0.17200 0.13500
H 	H 	0.09970 0.94530 0.14130 0.00200
C 	C 	0.14450 0.92840 0.17430 -0.22800
H 	H 	0.15750 0.92360 0.14610 0.11800
C 	C 	0.15858 0.92210 0.22120 0.19800
C 	C 	0.21886 0.92700 0.25340 0.25100
C 	C 	0.24538 0.90870 0.27970 -0.30800
H 	H 	0.24610 0.88390 0.27900 0.14700
C 	C 	0.27000 0.92720 0.30630 0.23700
C 	C 	0.26850 0.96440 0.30910 -0.28900
H 	H 	0.28520 0.97690 0.32750 0.13800
C 	C 	0.24250 0.98200 0.28480 0.20300
H 	H 	0.24070 0.00670 0.28750 -0.03900
C 	C 	0.21820 0.96300 0.25540 -0.29400
H 	H 	0.20140 0.97550 0.23700 0.13800
C 	C 	0.20430 0.88020 0.19330 0.18300
C 	C 	0.23760 0.87900 0.17280 -0.21100
H 	H 	0.25360 0.89730 0.18010 0.10700
C 	C 	0.24870 0.85210 0.14200 0.10500
H 	H 	0.27160 0.85200 0.12890 0.00900
C 	C 	0.22400 0.82400 0.13060 -0.16000
C 	C 	0.23580 0.79580 0.09570 0.39900
C 	C 	0.18990 0.82510 0.15080 0.10800
H 	H 	0.17350 0.80740 0.14310 0.01000
C 	C 	0.18030 0.85270 0.18270 -0.20600
H 	H 	0.15780 0.85280 0.19690 0.10900
C 	C 	0.13975 0.93070 0.26180 -0.23900
H 	H 	0.14950 0.92670 0.29270 0.11800
C 	C 	0.10594 0.94570 0.25750 0.14000
H 	H 	0.09340 0.95180 0.28570 -0.00100
C 	C 	0.43655 0.96824 0.31350 0.39000
C 	C 	0.40094 0.95071 0.31920 -0.17500
C 	C 	0.38809 0.94050 0.36420 0.12900
H 	H 	0.40240 0.94310 0.39190 0.00100
C 	C 	0.35419 0.92660 0.36870 -0.23000
H 	H 	0.34570 0.92000 0.39940 0.11600
C 	C 	0.33290 0.92230 0.32810 0.19300
C 	C 	0.34581 0.93230 0.28240 -0.22600
H 	H 	0.33140 0.92960 0.25490 0.11400
C 	C 	0.37909 0.94600 0.27750 0.12500
H 	H 	0.38760 0.95230 0.24660 0.00500
N 	N 	0.29766 0.90820 0.33240 -0.20800
C 	C 	0.28929 0.87940 0.36460 0.20800
C 	C 	0.25588 0.87770 0.38760 -0.25800
H 	H 	0.23920 0.89540 0.38090 0.12400
C 	C 	0.24720 0.85250 0.41780 0.16000
H 	H 	0.22430 0.85200 0.43110 -0.01100
C 	C 	0.27260 0.82540 0.43100 -0.18700
C 	C 	0.26360 0.79660 0.46680 0.42300
C 	C 	0.30616 0.82670 0.40850 0.13000
H 	H 	0.32340 0.80970 0.41610 0.00200
C 	C 	0.31390 0.85380 0.37460 -0.23500
H 	H 	0.33590 0.85410 0.35880 0.11800
C 	C 	0.04860 0.11005 0.26520 0.11400
H 	H 	0.04120 0.09760 0.29300 0.00800
C 	C 	0.06440 0.14380 0.27020 -0.21200
H 	H 	0.06720 0.15370 0.30120 0.10900
C 	C 	0.11954 0.20724 0.20430 0.18500
C 	C 	0.14760 0.18339 0.19390 -0.21400
H 	H 	0.14790 0.16100 0.20870 0.11100
C 	C 	0.17450 0.19279 0.16230 0.12200
H 	H 	0.19240 0.17650 0.15500 0.00600
C 	C 	0.17510 0.22530 0.14180 -0.16500
C 	C 	0.20450 0.23430 0.10450 0.36800
C 	C 	0.14820 0.24940 0.15200 0.12500
H 	H 	0.14910 0.27220 0.13830 0.00400
C 	C 	0.12060 0.24055 0.18160 -0.22400
H 	H 	0.10230 0.25680 0.18690 0.11300
C 	C 	0.03640 0.22320 0.26550 -0.31200
H 	H 	0.02340 0.20570 0.24910 0.14400
C 	C 	0.01890 0.24980 0.29170 0.23600
H 	H 	0.99410 0.25020 0.29190 -0.05100
C 	C 	0.03660 0.27450 0.31650 -0.31500
H 	H 	0.02440 0.29150 0.33490 0.14600
C 	C 	0.08075 0.33753 0.33690 0.16700
C 	C 	0.07360 0.35106 0.28970 -0.19200
H 	H 	0.07920 0.33740 0.26220 0.10200
C 	C 	0.05860 0.38445 0.28370 0.09800
H 	H 	0.05330 0.39290 0.25240 0.01300
C 	C 	0.05126 0.40527 0.32440 -0.15300
C 	C 	0.03444 0.44074 0.31700 0.37900
C 	C 	0.05920 0.39259 0.37170 0.09400
H 	H 	0.05440 0.40660 0.39910 0.01400
C 	C 	0.07450 0.35848 0.37720 -0.19800
H 	H 	0.08030 0.35010 0.40830 0.10400
C 	C 	0.12078 0.29301 0.37460 0.21100
C 	C 	0.14720 0.31775 0.38640 -0.24600
H 	H 	0.14620 0.34050 0.37290 0.12200
C 	C 	0.17410 0.30925 0.41700 0.14800
H 	H 	0.19190 0.32590 0.42340 -0.00600
C 	C 	0.17526 0.27578 0.43900 -0.18800
C 	C 	0.20420 0.26680 0.47570 0.37800
C 	C 	0.15060 0.25200 0.42790 0.14400
H 	H 	0.15210 0.22920 0.44150 0.00000
C 	C 	0.12220 0.26006 0.39620 -0.24100
H 	H 	0.10460 0.24320 0.39000 0.12000
N 	N 	0.97543 0.98961 0.31800 -0.17500
C 	C 	0.99230 0.00040 0.36220 0.06900
H 	H 	0.01310 0.01400 0.36460 0.01400
N 	N 	0.97200 0.98700 0.40206 -0.12000
C 	C 	0.94250 0.96780 0.38250 0.00300
H 	H 	0.92490 0.95620 0.40050 0.03500
C 	C 	0.94460 0.96950 0.33050 0.00300
H 	H 	0.92870 0.95910 0.30850 0.04200
N 	N 	0.21820 0.33785 0.04050 -0.16400
C 	C 	0.18990 0.35020 0.07090 0.06500
H 	H 	0.18050 0.33820 0.09790 0.02400
N 	N 	0.17870 0.38390 0.05290 -0.11000
C 	C 	0.19990 0.39250 0.01140 0.00200
H 	H 	0.19810 0.41310 0.99250 0.03700
C 	C 	0.22430 0.36400 0.00370 0.00200
H 	H 	0.24130 0.36270 0.97890 0.04000
C 	C 	0.98810 0.99530 0.45320 0.07400
C 	C 	0.96550 0.99140 0.49050 -0.07300
H 	H 	0.94200 0.98510 0.48400 0.06300
C 	C 	0.14490 0.40220 0.07510 0.01600
C 	C 	0.02430 0.00370 0.46290 -0.06500
H 	H 	0.04070 0.00580 0.43740 0.05800
Cu	Cu	0.28340 0.76109 0.03072 0.90300
Cu	Cu	0.49898 0.49665 0.14958 0.90100
Cu	Cu	0.50911 0.50205 0.24613 0.91700
Cu	Cu	0.26144 0.21633 0.03999 0.92300
N 	N 	0.40659 0.19865 0.34180 -0.20700
N 	N 	0.40818 0.30325 0.23600 -0.20900
N 	N 	0.30555 0.59112 0.22460 -0.21200
O 	O 	0.47480 0.45240 0.17054 -0.42100
O 	O 	0.45503 0.52399 0.16470 -0.42000
O 	O 	0.23384 0.70508 0.08120 -0.42900
O 	O 	0.29009 0.72449 0.08170 -0.41000
O 	O 	0.46111 0.52430 0.24578 -0.40900
O 	O 	0.48543 0.45447 0.25101 -0.39800
O 	O 	0.05450 0.52189 0.27184 -0.41100
O 	O 	0.26728 0.70557 0.48020 -0.43500
O 	O 	0.21113 0.72354 0.47890 -0.41800
O 	O 	0.04467 0.52889 0.35204 -0.41100
O 	O 	0.29502 0.23335 0.08910 -0.39700
O 	O 	0.27487 0.28980 0.09030 -0.40400
O 	O 	0.47472 0.04293 0.35680 -0.39400
O 	O 	0.47010 0.04857 0.27513 -0.41300
O 	O 	0.27528 0.20841 0.49050 -0.40000
O 	O 	0.29418 0.26518 0.49020 -0.40300
C 	C 	0.42609 0.22534 0.31470 0.24800
C 	C 	0.40844 0.25132 0.28840 -0.32400
H 	H 	0.38360 0.25130 0.28730 0.15100
C 	C 	0.42703 0.27692 0.26390 0.25700
C 	C 	0.42403 0.33748 0.22900 0.18800
C 	C 	0.42690 0.35370 0.18430 -0.22700
H 	H 	0.41780 0.34210 0.15680 0.11500
C 	C 	0.44260 0.38645 0.17840 0.12700
H 	H 	0.44440 0.39650 0.14730 0.00200
C 	C 	0.45601 0.40487 0.21890 -0.17700
C 	C 	0.47286 0.43994 0.21290 0.39400
C 	C 	0.44442 0.53076 0.20710 0.40700
C 	C 	0.40920 0.54836 0.21250 -0.19400
C 	C 	0.38990 0.55770 0.17200 0.13400
H 	H 	0.40030 0.55470 0.14130 0.00100
C 	C 	0.35550 0.57160 0.17430 -0.22900
H 	H 	0.34250 0.57640 0.14610 0.11700
C 	C 	0.34142 0.57790 0.22120 0.19700
C 	C 	0.28114 0.57300 0.25340 0.25000
C 	C 	0.25462 0.59130 0.27970 -0.30900
H 	H 	0.25390 0.61610 0.27900 0.14600
C 	C 	0.23000 0.57280 0.30630 0.23600
C 	C 	0.23150 0.53560 0.30910 -0.29000
H 	H 	0.21480 0.52310 0.32750 0.13700
C 	C 	0.25750 0.51800 0.28480 0.20200
H 	H 	0.25930 0.49330 0.28750 -0.04000
C 	C 	0.28180 0.53700 0.25540 -0.29300
H 	H 	0.29860 0.52450 0.23700 0.13800
C 	C 	0.29570 0.61980 0.19330 0.18300
C 	C 	0.26240 0.62100 0.17280 -0.21100
H 	H 	0.24640 0.60270 0.18010 0.10700
C 	C 	0.25130 0.64790 0.14200 0.10500
H 	H 	0.22840 0.64800 0.12890 0.00900
C 	C 	0.27600 0.67600 0.13060 -0.16000
C 	C 	0.26420 0.70420 0.09570 0.39900
C 	C 	0.31010 0.67490 0.15080 0.10800
H 	H 	0.32650 0.69260 0.14310 0.01000
C 	C 	0.31970 0.64730 0.18270 -0.20600
H 	H 	0.34220 0.64720 0.19690 0.10900
C 	C 	0.36025 0.56930 0.26180 -0.23900
H 	H 	0.35050 0.57330 0.29270 0.11800
C 	C 	0.39406 0.55430 0.25750 0.14000
H 	H 	0.40660 0.54820 0.28570 -0.00100
C 	C 	0.06345 0.53176 0.31350 0.39000
C 	C 	0.09906 0.54929 0.31920 -0.17500
C 	C 	0.11191 0.55950 0.36420 0.12900
H 	H 	0.09760 0.55690 0.39190 0.00100
C 	C 	0.14581 0.57340 0.36870 -0.23000
H 	H 	0.15430 0.58000 0.39940 0.11600
C 	C 	0.16710 0.57770 0.32810 0.19300
C 	C 	0.15419 0.56770 0.28240 -0.22600
H 	H 	0.16860 0.57040 0.25490 0.11400
C 	C 	0.12091 0.55400 0.27750 0.12500
H 	H 	0.11240 0.54770 0.24660 0.00500
N 	N 	0.20234 0.59180 0.33240 -0.20800
C 	C 	0.21071 0.62060 0.36460 0.20800
C 	C 	0.24412 0.62230 0.38760 -0.25800
H 	H 	0.26080 0.60460 0.38090 0.12400
C 	C 	0.25280 0.64750 0.41780 0.16000
H 	H 	0.27570 0.64800 0.43110 -0.01100
C 	C 	0.22740 0.67460 0.43100 -0.18700
C 	C 	0.23640 0.70340 0.46680 0.42300
C 	C 	0.19384 0.67330 0.40850 0.13000
H 	H 	0.17660 0.69030 0.41610 0.00200
C 	C 	0.18610 0.64620 0.37460 -0.23500
H 	H 	0.16410 0.64590 0.35880 0.11800
C 	C 	0.45140 0.38995 0.26520 0.11400
H 	H 	0.45880 0.40240 0.29300 0.00800
C 	C 	0.43560 0.35620 0.27020 -0.21200
H 	H 	0.43280 0.34630 0.30120 0.10900
C 	C 	0.38046 0.29276 0.20430 0.18500
C 	C 	0.35240 0.31661 0.19390 -0.21400
H 	H 	0.35210 0.33900 0.20870 0.11100
C 	C 	0.32550 0.30721 0.16230 0.12200
H 	H 	0.30760 0.32350 0.15500 0.00600
C 	C 	0.32490 0.27470 0.14180 -0.16500
C 	C 	0.29550 0.26570 0.10450 0.36800
C 	C 	0.35180 0.25060 0.15200 0.12500
H 	H 	0.35090 0.22780 0.13830 0.00400
C 	C 	0.37940 0.25945 0.18160 -0.22400
H 	H 	0.39770 0.24320 0.18690 0.11300
C 	C 	0.46360 0.27680 0.26550 -0.31200
H 	H 	0.47660 0.29430 0.24910 0.14400
C 	C 	0.48110 0.25020 0.29170 0.23600
H 	H 	0.50590 0.24980 0.29190 -0.05100
C 	C 	0.46340 0.22550 0.31650 -0.31600
H 	H 	0.47560 0.20850 0.33490 0.14600
C 	C 	0.41925 0.16247 0.33690 0.16700
C 	C 	0.42640 0.14894 0.28970 -0.19200
H 	H 	0.42080 0.16260 0.26220 0.10200
C 	C 	0.44140 0.11555 0.28370 0.09800
H 	H 	0.44670 0.10710 0.25240 0.01300
C 	C 	0.44874 0.09473 0.32440 -0.15300
C 	C 	0.46556 0.05926 0.31700 0.37900
C 	C 	0.44080 0.10741 0.37170 0.09400
H 	H 	0.44560 0.09340 0.39910 0.01400
C 	C 	0.42550 0.14152 0.37720 -0.19800
H 	H 	0.41970 0.14990 0.40830 0.10400
C 	C 	0.37922 0.20699 0.37460 0.21100
C 	C 	0.35280 0.18225 0.38640 -0.24600
H 	H 	0.35380 0.15950 0.37290 0.12200
C 	C 	0.32590 0.19075 0.41700 0.14800
H 	H 	0.30810 0.17410 0.42340 -0.00600
C 	C 	0.32474 0.22422 0.43900 -0.18800
C 	C 	0.29580 0.23320 0.47570 0.37800
C 	C 	0.34940 0.24800 0.42790 0.14400
H 	H 	0.34790 0.27080 0.44150 0.00000
C 	C 	0.37780 0.23994 0.39620 -0.24100
H 	H 	0.39540 0.25680 0.39000 0.12000
N 	N 	0.52457 0.51039 0.31800 -0.17500
C 	C 	0.50770 0.49960 0.36220 0.06900
H 	H 	0.48690 0.48600 0.36460 0.01500
N 	N 	0.52800 0.51300 0.40206 -0.12000
C 	C 	0.55750 0.53220 0.38250 0.00300
H 	H 	0.57510 0.54380 0.40050 0.03500
C 	C 	0.55540 0.53050 0.33050 0.00300
H 	H 	0.57130 0.54090 0.30850 0.04200
N 	N 	0.28180 0.16215 0.04050 -0.16400
C 	C 	0.31010 0.14980 0.07090 0.06500
H 	H 	0.31950 0.16180 0.09790 0.02400
N 	N 	0.32130 0.11610 0.05290 -0.11000
C 	C 	0.30010 0.10750 0.01140 0.00200
H 	H 	0.30190 0.08690 0.99250 0.03700
C 	C 	0.27570 0.13600 0.00370 0.00200
H 	H 	0.25870 0.13730 0.97890 0.04000
C 	C 	0.51190 0.50470 0.45320 0.07400
C 	C 	0.53450 0.50860 0.49050 -0.07300
H 	H 	0.55800 0.51490 0.48400 0.06300
C 	C 	0.35510 0.09780 0.07510 0.01600
C 	C 	0.47570 0.49630 0.46290 -0.06500
H 	H 	0.45930 0.49420 0.43740 0.05800
Cu	Cu	0.21660 0.73891 0.03072 0.90300
Cu	Cu	0.99898 0.50335 0.35042 0.90100
Cu	Cu	0.00911 0.49795 0.25387 0.91700
Cu	Cu	0.76144 0.78367 0.46001 0.92300
N 	N 	0.90659 0.80135 0.15820 -0.20700
N 	N 	0.90818 0.69675 0.26400 -0.20900
N 	N 	0.80555 0.40888 0.27540 -0.21200
O 	O 	0.97480 0.54760 0.32946 -0.42100
O 	O 	0.95503 0.47601 0.33530 -0.42000
O 	O 	0.73384 0.29492 0.41880 -0.42900
O 	O 	0.79009 0.27551 0.41830 -0.41000
O 	O 	0.96111 0.47570 0.25422 -0.40900
O 	O 	0.98543 0.54553 0.24899 -0.39800
O 	O 	0.55450 0.47811 0.22816 -0.41100
O 	O 	0.76728 0.29443 0.01980 -0.43500
O 	O 	0.71113 0.27646 0.02110 -0.41800
O 	O 	0.54467 0.47111 0.14796 -0.41100
O 	O 	0.79502 0.76665 0.41090 -0.39700
O 	O 	0.77487 0.71020 0.40970 -0.40400
O 	O 	0.97472 0.95707 0.14320 -0.39400
O 	O 	0.97010 0.95143 0.22487 -0.41300
O 	O 	0.77528 0.79159 0.00950 -0.40000
O 	O 	0.79418 0.73482 0.00980 -0.40300
C 	C 	0.92609 0.77466 0.18530 0.24800
C 	C 	0.90844 0.74868 0.21160 -0.32400
H 	H 	0.88360 0.74870 0.21270 0.15100
C 	C 	0.92703 0.72308 0.23610 0.25700
C 	C 	0.92403 0.66252 0.27100 0.18800
C 	C 	0.92690 0.64630 0.31570 -0.22700
H 	H 	0.91780 0.65790 0.34320 0.11500
C 	C 	0.94260 0.61355 0.32160 0.12700
H 	H 	0.94440 0.60350 0.35270 0.00200
C 	C 	0.95601 0.59513 0.28110 -0.17700
C 	C 	0.97286 0.56006 0.28710 0.39400
C 	C 	0.94442 0.46924 0.29290 0.40700
C 	C 	0.90920 0.45164 0.28750 -0.19400
C 	C 	0.88990 0.44230 0.32800 0.13400
H 	H 	0.90030 0.44530 0.35870 0.00100
C 	C 	0.85550 0.42840 0.32570 -0.22900
H 	H 	0.84250 0.42360 0.35390 0.11700
C 	C 	0.84142 0.42210 0.27880 0.19700
C 	C 	0.78114 0.42700 0.24660 0.25000
C 	C 	0.75462 0.40870 0.22030 -0.30900
H 	H 	0.75390 0.38390 0.22100 0.14600
C 	C 	0.73000 0.42720 0.19370 0.23600
C 	C 	0.73150 0.46440 0.19090 -0.29000
H 	H 	0.71480 0.47690 0.17250 0.13700
C 	C 	0.75750 0.48200 0.21520 0.20200
H 	H 	0.75930 0.50670 0.21250 -0.04000
C 	C 	0.78180 0.46300 0.24460 -0.29300
H 	H 	0.79860 0.47550 0.26300 0.13800
C 	C 	0.79570 0.38020 0.30670 0.18300
C 	C 	0.76240 0.37900 0.32720 -0.21100
H 	H 	0.74640 0.39730 0.31990 0.10700
C 	C 	0.75130 0.35210 0.35800 0.10500
H 	H 	0.72840 0.35200 0.37110 0.00900
C 	C 	0.77600 0.32400 0.36940 -0.16000
C 	C 	0.76420 0.29580 0.40430 0.39900
C 	C 	0.81010 0.32510 0.34920 0.10800
H 	H 	0.82650 0.30740 0.35690 0.01000
C 	C 	0.81970 0.35270 0.31730 -0.20600
H 	H 	0.84220 0.35280 0.30310 0.10900
C 	C 	0.86025 0.43070 0.23820 -0.23900
H 	H 	0.85050 0.42670 0.20730 0.11800
C 	C 	0.89406 0.44570 0.24250 0.14000
H 	H 	0.90660 0.45180 0.21430 -0.00100
C 	C 	0.56345 0.46824 0.18650 0.39000
C 	C 	0.59906 0.45071 0.18080 -0.17500
C 	C 	0.61191 0.44050 0.13580 0.12900
H 	H 	0.59760 0.44310 0.10810 0.00100
C 	C 	0.64581 0.42660 0.13130 -0.23000
H 	H 	0.65430 0.42000 0.10060 0.11600
C 	C 	0.66710 0.42230 0.17190 0.19300
C 	C 	0.65419 0.43230 0.21760 -0.22600
H 	H 	0.66860 0.42960 0.24510 0.11400
C 	C 	0.62091 0.44600 0.22250 0.12500
H 	H 	0.61240 0.45230 0.25340 0.00500
N 	N 	0.70234 0.40820 0.16760 -0.20800
C 	C 	0.71071 0.37940 0.13540 0.20800
C 	C 	0.74412 0.37770 0.11240 -0.25800
H 	H 	0.76080 0.39540 0.11910 0.12400
C 	C 	0.75280 0.35250 0.08220 0.16000
H 	H 	0.77570 0.35200 0.06890 -0.01100
C 	C 	0.72740 0.32540 0.06900 -0.18700
C 	C 	0.73640 0.29660 0.03320 0.42300
C 	C 	0.69384 0.32670 0.09150 0.13000
H 	H 	0.67660 0.30970 0.08390 0.00200
C 	C 	0.68610 0.35380 0.12540 -0.23500
H 	H 	0.66410 0.35410 0.14120 0.11800
C 	C 	0.95140 0.61005 0.23480 0.11400
H 	H 	0.95880 0.59760 0.20700 0.00800
C 	C 	0.93560 0.64380 0.22980 -0.21200
H 	H 	0.93280 0.65370 0.19880 0.10900
C 	C 	0.88046 0.70724 0.29570 0.18500
C 	C 	0.85240 0.68339 0.30610 -0.21400
H 	H 	0.85210 0.66100 0.29130 0.11100
C 	C 	0.82550 0.69279 0.33770 0.12200
H 	H 	0.80760 0.67650 0.34500 0.00600
C 	C 	0.82490 0.72530 0.35820 -0.16500
C 	C 	0.79550 0.73430 0.39550 0.36800
C 	C 	0.85180 0.74940 0.34800 0.12500
H 	H 	0.85090 0.77220 0.36170 0.00400
C 	C 	0.87940 0.74055 0.31840 -0.22400
H 	H 	0.89770 0.75680 0.31310 0.11300
C 	C 	0.96360 0.72320 0.23450 -0.31200
H 	H 	0.97660 0.70570 0.25090 0.14400
C 	C 	0.98110 0.74980 0.20830 0.23700
H 	H 	0.00590 0.75020 0.20810 -0.05100
C 	C 	0.96340 0.77450 0.18350 -0.31600
H 	H 	0.97560 0.79150 0.16510 0.14700
C 	C 	0.91925 0.83753 0.16310 0.16700
C 	C 	0.92640 0.85106 0.21030 -0.19200
H 	H 	0.92080 0.83740 0.23780 0.10200
C 	C 	0.94140 0.88445 0.21630 0.09800
H 	H 	0.94670 0.89290 0.24760 0.01300
C 	C 	0.94874 0.90527 0.17560 -0.15300
C 	C 	0.96556 0.94074 0.18300 0.37900
C 	C 	0.94080 0.89259 0.12830 0.09400
H 	H 	0.94560 0.90660 0.10090 0.01400
C 	C 	0.92550 0.85848 0.12280 -0.19800
H 	H 	0.91970 0.85010 0.09170 0.10400
C 	C 	0.87922 0.79301 0.12540 0.21100
C 	C 	0.85280 0.81775 0.11360 -0.24600
H 	H 	0.85380 0.84050 0.12710 0.12200
C 	C 	0.82590 0.80925 0.08300 0.14800
H 	H 	0.80810 0.82590 0.07660 -0.00600
C 	C 	0.82474 0.77578 0.06100 -0.18800
C 	C 	0.79580 0.76680 0.02430 0.37800
C 	C 	0.84940 0.75200 0.07210 0.14400
H 	H 	0.84790 0.72920 0.05850 0.00000
C 	C 	0.87780 0.76006 0.10380 -0.24100
H 	H 	0.89540 0.74320 0.11000 0.12000
N 	N 	0.02457 0.48961 0.18200 -0.17500
C 	C 	0.00770 0.50040 0.13780 0.06900
H 	H 	0.98690 0.51400 0.13540 0.01500
N 	N 	0.02800 0.48700 0.09794 -0.12000
C 	C 	0.05750 0.46780 0.11750 0.00300
H 	H 	0.07510 0.45620 0.09950 0.03500
C 	C 	0.05540 0.46950 0.16950 0.00300
H 	H 	0.07130 0.45910 0.19150 0.04200
N 	N 	0.78180 0.83785 0.45950 -0.16400
C 	C 	0.81010 0.85020 0.42910 0.06500
H 	H 	0.81950 0.83820 0.40210 0.02400
N 	N 	0.82130 0.88390 0.44710 -0.11000
C 	C 	0.80010 0.89250 0.48860 0.00200
H 	H 	0.80190 0.91310 0.50750 0.03700
C 	C 	0.77570 0.86400 0.49630 0.00200
H 	H 	0.75870 0.86270 0.52110 0.04000
C 	C 	0.01190 0.49530 0.04680 0.07400
C 	C 	0.03450 0.49140 0.00950 -0.07400
H 	H 	0.05800 0.48510 0.01600 0.06400
C 	C 	0.85510 0.90220 0.42490 0.01600
C 	C 	0.97570 0.50370 0.03710 -0.06400
H 	H 	0.95930 0.50580 0.06260 0.05700
Cu	Cu	0.71660 0.26109 0.46928 0.90300
Cu	Cu	0.50102 0.99665 0.35042 0.90100
Cu	Cu	0.49089 0.00205 0.25387 0.91700
Cu	Cu	0.73856 0.71633 0.46001 0.92300
N 	N 	0.59341 0.69865 0.15820 -0.20700
N 	N 	0.59182 0.80325 0.26400 -0.20900
N 	N 	0.69445 0.09112 0.27540 -0.21200
O 	O 	0.52520 0.95240 0.32946 -0.42100
O 	O 	0.54497 0.02399 0.33530 -0.42000
O 	O 	0.76616 0.20508 0.41880 -0.42900
O 	O 	0.70991 0.22449 0.41830 -0.41000
O 	O 	0.53889 0.02430 0.25422 -0.40900
O 	O 	0.51457 0.95447 0.24899 -0.39800
O 	O 	0.94550 0.02189 0.22816 -0.41100
O 	O 	0.73272 0.20557 0.01980 -0.43500
O 	O 	0.78887 0.22354 0.02110 -0.41800
O 	O 	0.95533 0.02889 0.14796 -0.41100
O 	O 	0.70498 0.73335 0.41090 -0.39700
O 	O 	0.72513 0.78980 0.40970 -0.40400
O 	O 	0.52528 0.54293 0.14320 -0.39400
O 	O 	0.52990 0.54857 0.22487 -0.41300
O 	O 	0.72472 0.70841 0.00950 -0.40000
O 	O 	0.70582 0.76518 0.00980 -0.40300
C 	C 	0.57391 0.72534 0.18530 0.24800
C 	C 	0.59156 0.75132 0.21160 -0.32400
H 	H 	0.61640 0.75130 0.21270 0.15100
C 	C 	0.57297 0.77692 0.23610 0.25700
C 	C 	0.57597 0.83748 0.27100 0.18800
C 	C 	0.57310 0.85370 0.31570 -0.22700
H 	H 	0.58220 0.84210 0.34320 0.11500
C 	C 	0.55740 0.88645 0.32160 0.12700
H 	H 	0.55560 0.89650 0.35270 0.00200
C 	C 	0.54399 0.90487 0.28110 -0.17700
C 	C 	0.52714 0.93994 0.28710 0.39400
C 	C 	0.55558 0.03076 0.29290 0.40700
C 	C 	0.59080 0.04836 0.28750 -0.19400
C 	C 	0.61010 0.05770 0.32800 0.13400
H 	H 	0.59970 0.05470 0.35870 0.00100
C 	C 	0.64450 0.07160 0.32570 -0.22900
H 	H 	0.65750 0.07640 0.35390 0.11700
C 	C 	0.65858 0.07790 0.27880 0.19700
C 	C 	0.71886 0.07300 0.24660 0.25000
C 	C 	0.74538 0.09130 0.22030 -0.30900
H 	H 	0.74610 0.11610 0.22100 0.14600
C 	C 	0.77000 0.07280 0.19370 0.23600
C 	C 	0.76850 0.03560 0.19090 -0.29000
H 	H 	0.78520 0.02310 0.17250 0.13700
C 	C 	0.74250 0.01800 0.21520 0.20200
H 	H 	0.74070 0.99330 0.21250 -0.04000
C 	C 	0.71820 0.03700 0.24460 -0.29400
H 	H 	0.70140 0.02450 0.26300 0.13800
C 	C 	0.70430 0.11980 0.30670 0.18300
C 	C 	0.73760 0.12100 0.32720 -0.21100
H 	H 	0.75360 0.10270 0.31990 0.10700
C 	C 	0.74870 0.14790 0.35800 0.10500
H 	H 	0.77160 0.14800 0.37110 0.00900
C 	C 	0.72400 0.17600 0.36940 -0.16000
C 	C 	0.73580 0.20420 0.40430 0.39900
C 	C 	0.68990 0.17490 0.34920 0.10800
H 	H 	0.67350 0.19260 0.35690 0.01000
C 	C 	0.68030 0.14730 0.31730 -0.20600
H 	H 	0.65780 0.14720 0.30310 0.10900
C 	C 	0.63975 0.06930 0.23820 -0.23900
H 	H 	0.64950 0.07330 0.20730 0.11800
C 	C 	0.60594 0.05430 0.24250 0.14000
H 	H 	0.59340 0.04820 0.21430 -0.00100
C 	C 	0.93655 0.03176 0.18650 0.39000
C 	C 	0.90094 0.04929 0.18080 -0.17500
C 	C 	0.88809 0.05950 0.13580 0.12900
H 	H 	0.90240 0.05690 0.10810 0.00100
C 	C 	0.85419 0.07340 0.13130 -0.23000
H 	H 	0.84570 0.08000 0.10060 0.11600
C 	C 	0.83290 0.07770 0.17190 0.19300
C 	C 	0.84581 0.06770 0.21760 -0.22600
H 	H 	0.83140 0.07040 0.24510 0.11400
C 	C 	0.87909 0.05400 0.22250 0.12500
H 	H 	0.88760 0.04770 0.25340 0.00500
N 	N 	0.79766 0.09180 0.16760 -0.20800
C 	C 	0.78929 0.12060 0.13540 0.20800
C 	C 	0.75588 0.12230 0.11240 -0.25800
H 	H 	0.73920 0.10460 0.11910 0.12400
C 	C 	0.74720 0.14750 0.08220 0.16000
H 	H 	0.72430 0.14800 0.06890 -0.01100
C 	C 	0.77260 0.17460 0.06900 -0.18700
C 	C 	0.76360 0.20340 0.03320 0.42300
C 	C 	0.80616 0.17330 0.09150 0.13000
H 	H 	0.82340 0.19030 0.08390 0.00200
C 	C 	0.81390 0.14620 0.12540 -0.23500
H 	H 	0.83590 0.14590 0.14120 0.11800
C 	C 	0.54860 0.88995 0.23480 0.11400
H 	H 	0.54120 0.90240 0.20700 0.00800
C 	C 	0.56440 0.85620 0.22980 -0.21200
H 	H 	0.56720 0.84630 0.19880 0.10900
C 	C 	0.61954 0.79276 0.29570 0.18500
C 	C 	0.64760 0.81661 0.30610 -0.21400
H 	H 	0.64790 0.83900 0.29130 0.11100
C 	C 	0.67450 0.80721 0.33770 0.12200
H 	H 	0.69240 0.82350 0.34500 0.00600
C 	C 	0.67510 0.77470 0.35820 -0.16500
C 	C 	0.70450 0.76570 0.39550 0.36800
C 	C 	0.64820 0.75060 0.34800 0.12500
H 	H 	0.64910 0.72780 0.36170 0.00400
C 	C 	0.62060 0.75945 0.31840 -0.22400
H 	H 	0.60230 0.74320 0.31310 0.11300
C 	C 	0.53640 0.77680 0.23450 -0.31200
H 	H 	0.52340 0.79430 0.25090 0.14400
C 	C 	0.51890 0.75020 0.20830 0.23600
H 	H 	0.49410 0.74980 0.20810 -0.05100
C 	C 	0.53660 0.72550 0.18350 -0.31600
H 	H 	0.52440 0.70850 0.16510 0.14600
C 	C 	0.58075 0.66247 0.16310 0.16700
C 	C 	0.57360 0.64894 0.21030 -0.19200
H 	H 	0.57920 0.66260 0.23780 0.10200
C 	C 	0.55860 0.61555 0.21630 0.09800
H 	H 	0.55330 0.60710 0.24760 0.01300
C 	C 	0.55126 0.59473 0.17560 -0.15300
C 	C 	0.53444 0.55926 0.18300 0.37900
C 	C 	0.55920 0.60741 0.12830 0.09400
H 	H 	0.55440 0.59340 0.10090 0.01400
C 	C 	0.57450 0.64152 0.12280 -0.19800
H 	H 	0.58030 0.64990 0.09170 0.10400
C 	C 	0.62078 0.70699 0.12540 0.21100
C 	C 	0.64720 0.68225 0.11360 -0.24600
H 	H 	0.64620 0.65950 0.12710 0.12200
C 	C 	0.67410 0.69075 0.08300 0.14800
H 	H 	0.69190 0.67410 0.07660 -0.00600
C 	C 	0.67526 0.72422 0.06100 -0.18800
C 	C 	0.70420 0.73320 0.02430 0.37800
C 	C 	0.65060 0.74800 0.07210 0.14400
H 	H 	0.65210 0.77080 0.05850 0.00000
C 	C 	0.62220 0.73994 0.10380 -0.24100
H 	H 	0.60460 0.75680 0.11000 0.12000
N 	N 	0.47543 0.01039 0.18200 -0.17500
C 	C 	0.49230 0.99960 0.13780 0.06900
H 	H 	0.51310 0.98600 0.13540 0.01500
N 	N 	0.47200 0.01300 0.09794 -0.12000
C 	C 	0.44250 0.03220 0.11750 0.00300
H 	H 	0.42490 0.04380 0.09950 0.03500
C 	C 	0.44460 0.03050 0.16950 0.00300
H 	H 	0.42870 0.04090 0.19150 0.04200
N 	N 	0.71820 0.66215 0.45950 -0.16400
C 	C 	0.68990 0.64980 0.42910 0.06500
H 	H 	0.68050 0.66180 0.40210 0.02400
N 	N 	0.67870 0.61610 0.44710 -0.11000
C 	C 	0.69990 0.60750 0.48860 0.00200
H 	H 	0.69810 0.58690 0.50750 0.03700
C 	C 	0.72430 0.63600 0.49630 0.00200
H 	H 	0.74130 0.63730 0.52110 0.04000
C 	C 	0.48810 0.00470 0.04680 0.07400
C 	C 	0.46550 0.00860 0.00950 -0.07300
H 	H 	0.44200 0.01490 0.01600 0.06300
C 	C 	0.64490 0.59780 0.42490 0.01600
C 	C 	0.52430 0.99630 0.03710 -0.06500
H 	H 	0.54070 0.99420 0.06260 0.05800
Cu	Cu	0.78340 0.23891 0.46928 0.90300
Cu	Cu	0.99898 0.99665 0.85042 0.90100
Cu	Cu	0.00911 0.00205 0.75387 0.91700
Cu	Cu	0.76144 0.71633 0.96001 0.92300
N 	N 	0.90659 0.69865 0.65820 -0.20700
N 	N 	0.90818 0.80325 0.76400 -0.20900
N 	N 	0.80555 0.09112 0.77540 -0.21200
O 	O 	0.97480 0.95240 0.82946 -0.42100
O 	O 	0.95503 0.02399 0.83530 -0.42000
O 	O 	0.73384 0.20508 0.91880 -0.42900
O 	O 	0.79009 0.22449 0.91830 -0.41000
O 	O 	0.96111 0.02430 0.75422 -0.40900
O 	O 	0.98543 0.95447 0.74899 -0.39800
O 	O 	0.55450 0.02189 0.72816 -0.41100
O 	O 	0.76728 0.20557 0.51980 -0.43500
O 	O 	0.71113 0.22354 0.52110 -0.41800
O 	O 	0.54467 0.02889 0.64796 -0.41100
O 	O 	0.79502 0.73335 0.91090 -0.39700
O 	O 	0.77487 0.78980 0.90970 -0.40400
O 	O 	0.97472 0.54293 0.64320 -0.39400
O 	O 	0.97010 0.54857 0.72487 -0.41300
O 	O 	0.77528 0.70841 0.50950 -0.40000
O 	O 	0.79418 0.76518 0.50980 -0.40300
C 	C 	0.92609 0.72534 0.68530 0.24800
C 	C 	0.90844 0.75132 0.71160 -0.32400
H 	H 	0.88360 0.75130 0.71270 0.15100
C 	C 	0.92703 0.77692 0.73610 0.25700
C 	C 	0.92403 0.83748 0.77100 0.18800
C 	C 	0.92690 0.85370 0.81570 -0.22700
H 	H 	0.91780 0.84210 0.84320 0.11500
C 	C 	0.94260 0.88645 0.82160 0.12700
H 	H 	0.94440 0.89650 0.85270 0.00200
C 	C 	0.95601 0.90487 0.78110 -0.17700
C 	C 	0.97286 0.93994 0.78710 0.39400
C 	C 	0.94442 0.03076 0.79290 0.40700
C 	C 	0.90920 0.04836 0.78750 -0.19400
C 	C 	0.88990 0.05770 0.82800 0.13400
H 	H 	0.90030 0.05470 0.85870 0.00100
C 	C 	0.85550 0.07160 0.82570 -0.22900
H 	H 	0.84250 0.07640 0.85390 0.11700
C 	C 	0.84142 0.07790 0.77880 0.19700
C 	C 	0.78114 0.07300 0.74660 0.25000
C 	C 	0.75462 0.09130 0.72030 -0.30900
H 	H 	0.75390 0.11610 0.72100 0.14600
C 	C 	0.73000 0.07280 0.69370 0.23600
C 	C 	0.73150 0.03560 0.69090 -0.29000
H 	H 	0.71480 0.02310 0.67250 0.13700
C 	C 	0.75750 0.01800 0.71520 0.20200
H 	H 	0.75930 0.99330 0.71250 -0.04000
C 	C 	0.78180 0.03700 0.74460 -0.29400
H 	H 	0.79860 0.02450 0.76300 0.13800
C 	C 	0.79570 0.11980 0.80670 0.18300
C 	C 	0.76240 0.12100 0.82720 -0.21100
H 	H 	0.74640 0.10270 0.81990 0.10700
C 	C 	0.75130 0.14790 0.85800 0.10500
H 	H 	0.72840 0.14800 0.87110 0.00900
C 	C 	0.77600 0.17600 0.86940 -0.16000
C 	C 	0.76420 0.20420 0.90430 0.39900
C 	C 	0.81010 0.17490 0.84920 0.10800
H 	H 	0.82650 0.19260 0.85690 0.01000
C 	C 	0.81970 0.14730 0.81730 -0.20600
H 	H 	0.84220 0.14720 0.80310 0.10900
C 	C 	0.86025 0.06930 0.73820 -0.23900
H 	H 	0.85050 0.07330 0.70730 0.11800
C 	C 	0.89406 0.05430 0.74250 0.14000
H 	H 	0.90660 0.04820 0.71430 -0.00100
C 	C 	0.56345 0.03176 0.68650 0.39000
C 	C 	0.59906 0.04929 0.68080 -0.17500
C 	C 	0.61191 0.05950 0.63580 0.12900
H 	H 	0.59760 0.05690 0.60810 0.00100
C 	C 	0.64581 0.07340 0.63130 -0.23000
H 	H 	0.65430 0.08000 0.60060 0.11600
C 	C 	0.66710 0.07770 0.67190 0.19300
C 	C 	0.65419 0.06770 0.71760 -0.22600
H 	H 	0.66860 0.07040 0.74510 0.11400
C 	C 	0.62091 0.05400 0.72250 0.12500
H 	H 	0.61240 0.04770 0.75340 0.00500
N 	N 	0.70234 0.09180 0.66760 -0.20800
C 	C 	0.71071 0.12060 0.63540 0.20800
C 	C 	0.74412 0.12230 0.61240 -0.25800
H 	H 	0.76080 0.10460 0.61910 0.12400
C 	C 	0.75280 0.14750 0.58220 0.16000
H 	H 	0.77570 0.14800 0.56890 -0.01100
C 	C 	0.72740 0.17460 0.56900 -0.18700
C 	C 	0.73640 0.20340 0.53320 0.42300
C 	C 	0.69384 0.17330 0.59150 0.13000
H 	H 	0.67660 0.19030 0.58390 0.00200
C 	C 	0.68610 0.14620 0.62540 -0.23500
H 	H 	0.66410 0.14590 0.64120 0.11800
C 	C 	0.95140 0.88995 0.73480 0.11400
H 	H 	0.95880 0.90240 0.70700 0.00800
C 	C 	0.93560 0.85620 0.72980 -0.21200
H 	H 	0.93280 0.84630 0.69880 0.10900
C 	C 	0.88046 0.79276 0.79570 0.18500
C 	C 	0.85240 0.81661 0.80610 -0.21400
H 	H 	0.85210 0.83900 0.79130 0.11100
C 	C 	0.82550 0.80721 0.83770 0.12200
H 	H 	0.80760 0.82350 0.84500 0.00600
C 	C 	0.82490 0.77470 0.85820 -0.16500
C 	C 	0.79550 0.76570 0.89550 0.36800
C 	C 	0.85180 0.75060 0.84800 0.12500
H 	H 	0.85090 0.72780 0.86170 0.00400
C 	C 	0.87940 0.75945 0.81840 -0.22400
H 	H 	0.89770 0.74320 0.81310 0.11300
C 	C 	0.96360 0.77680 0.73450 -0.31200
H 	H 	0.97660 0.79430 0.75090 0.14400
C 	C 	0.98110 0.75020 0.70830 0.23600
H 	H 	0.00590 0.74980 0.70810 -0.05100
C 	C 	0.96340 0.72550 0.68350 -0.31500
H 	H 	0.97560 0.70850 0.66510 0.14600
C 	C 	0.91925 0.66247 0.66310 0.16700
C 	C 	0.92640 0.64894 0.71030 -0.19200
H 	H 	0.92080 0.66260 0.73780 0.10200
C 	C 	0.94140 0.61555 0.71630 0.09800
H 	H 	0.94670 0.60710 0.74760 0.01300
C 	C 	0.94874 0.59473 0.67560 -0.15300
C 	C 	0.96556 0.55926 0.68300 0.37900
C 	C 	0.94080 0.60741 0.62830 0.09400
H 	H 	0.94560 0.59340 0.60090 0.01400
C 	C 	0.92550 0.64152 0.62280 -0.19800
H 	H 	0.91970 0.64990 0.59170 0.10400
C 	C 	0.87922 0.70699 0.62540 0.21100
C 	C 	0.85280 0.68225 0.61360 -0.24600
H 	H 	0.85380 0.65950 0.62710 0.12200
C 	C 	0.82590 0.69075 0.58300 0.14800
H 	H 	0.80810 0.67410 0.57660 -0.00600
C 	C 	0.82474 0.72422 0.56100 -0.18800
C 	C 	0.79580 0.73320 0.52430 0.37800
C 	C 	0.84940 0.74800 0.57210 0.14400
H 	H 	0.84790 0.77080 0.55850 0.00000
C 	C 	0.87780 0.73994 0.60380 -0.24100
H 	H 	0.89540 0.75680 0.61000 0.12000
N 	N 	0.02457 0.01039 0.68200 -0.17500
C 	C 	0.00770 0.99960 0.63780 0.06900
H 	H 	0.98690 0.98600 0.63540 0.01400
N 	N 	0.02800 0.01300 0.59794 -0.12000
C 	C 	0.05750 0.03220 0.61750 0.00300
H 	H 	0.07510 0.04380 0.59950 0.03500
C 	C 	0.05540 0.03050 0.66950 0.00300
H 	H 	0.07130 0.04090 0.69150 0.04200
N 	N 	0.78180 0.66215 0.95950 -0.16400
C 	C 	0.81010 0.64980 0.92910 0.06500
H 	H 	0.81950 0.66180 0.90210 0.02400
N 	N 	0.82130 0.61610 0.94710 -0.11000
C 	C 	0.80010 0.60750 0.98860 0.00200
H 	H 	0.80190 0.58690 0.00750 0.03700
C 	C 	0.77570 0.63600 0.99630 0.00200
H 	H 	0.75870 0.63730 0.02110 0.04000
C 	C 	0.01190 0.00470 0.54680 0.07400
C 	C 	0.03450 0.00860 0.50950 -0.07300
H 	H 	0.05800 0.01490 0.51600 0.06300
C 	C 	0.85510 0.59780 0.92490 0.01600
C 	C 	0.97570 0.99630 0.53710 -0.06500
H 	H 	0.95930 0.99420 0.56260 0.05800
Cu	Cu	0.71660 0.23891 0.96928 0.90300
Cu	Cu	0.50102 0.50335 0.85042 0.90100
Cu	Cu	0.49089 0.49795 0.75387 0.91700
Cu	Cu	0.73856 0.78367 0.96001 0.92300
N 	N 	0.59341 0.80135 0.65820 -0.20700
N 	N 	0.59182 0.69675 0.76400 -0.20900
N 	N 	0.69445 0.40888 0.77540 -0.21200
O 	O 	0.52520 0.54760 0.82946 -0.42100
O 	O 	0.54497 0.47601 0.83530 -0.42000
O 	O 	0.76616 0.29492 0.91880 -0.42900
O 	O 	0.70991 0.27551 0.91830 -0.41000
O 	O 	0.53889 0.47570 0.75422 -0.40900
O 	O 	0.51457 0.54553 0.74899 -0.39800
O 	O 	0.94550 0.47811 0.72816 -0.41100
O 	O 	0.73272 0.29443 0.51980 -0.43500
O 	O 	0.78887 0.27646 0.52110 -0.41800
O 	O 	0.95533 0.47111 0.64796 -0.41100
O 	O 	0.70498 0.76665 0.91090 -0.39700
O 	O 	0.72513 0.71020 0.90970 -0.40400
O 	O 	0.52528 0.95707 0.64320 -0.39400
O 	O 	0.52990 0.95143 0.72487 -0.41300
O 	O 	0.72472 0.79159 0.50950 -0.40000
O 	O 	0.70582 0.73482 0.50980 -0.40300
C 	C 	0.57391 0.77466 0.68530 0.24800
C 	C 	0.59156 0.74868 0.71160 -0.32400
H 	H 	0.61640 0.74870 0.71270 0.15100
C 	C 	0.57297 0.72308 0.73610 0.25700
C 	C 	0.57597 0.66252 0.77100 0.18800
C 	C 	0.57310 0.64630 0.81570 -0.22700
H 	H 	0.58220 0.65790 0.84320 0.11500
C 	C 	0.55740 0.61355 0.82160 0.12700
H 	H 	0.55560 0.60350 0.85270 0.00200
C 	C 	0.54399 0.59513 0.78110 -0.17700
C 	C 	0.52714 0.56006 0.78710 0.39400
C 	C 	0.55558 0.46924 0.79290 0.40700
C 	C 	0.59080 0.45164 0.78750 -0.19400
C 	C 	0.61010 0.44230 0.82800 0.13400
H 	H 	0.59970 0.44530 0.85870 0.00100
C 	C 	0.64450 0.42840 0.82570 -0.22900
H 	H 	0.65750 0.42360 0.85390 0.11700
C 	C 	0.65858 0.42210 0.77880 0.19700
C 	C 	0.71886 0.42700 0.74660 0.25000
C 	C 	0.74538 0.40870 0.72030 -0.30900
H 	H 	0.74610 0.38390 0.72100 0.14600
C 	C 	0.77000 0.42720 0.69370 0.23600
C 	C 	0.76850 0.46440 0.69090 -0.29000
H 	H 	0.78520 0.47690 0.67250 0.13700
C 	C 	0.74250 0.48200 0.71520 0.20200
H 	H 	0.74070 0.50670 0.71250 -0.04000
C 	C 	0.71820 0.46300 0.74460 -0.29300
H 	H 	0.70140 0.47550 0.76300 0.13800
C 	C 	0.70430 0.38020 0.80670 0.18300
C 	C 	0.73760 0.37900 0.82720 -0.21100
H 	H 	0.75360 0.39730 0.81990 0.10700
C 	C 	0.74870 0.35210 0.85800 0.10500
H 	H 	0.77160 0.35200 0.87110 0.00900
C 	C 	0.72400 0.32400 0.86940 -0.16000
C 	C 	0.73580 0.29580 0.90430 0.39900
C 	C 	0.68990 0.32510 0.84920 0.10800
H 	H 	0.67350 0.30740 0.85690 0.01000
C 	C 	0.68030 0.35270 0.81730 -0.20600
H 	H 	0.65780 0.35280 0.80310 0.10900
C 	C 	0.63975 0.43070 0.73820 -0.23900
H 	H 	0.64950 0.42670 0.70730 0.11800
C 	C 	0.60594 0.44570 0.74250 0.14000
H 	H 	0.59340 0.45180 0.71430 -0.00100
C 	C 	0.93655 0.46824 0.68650 0.39000
C 	C 	0.90094 0.45071 0.68080 -0.17500
C 	C 	0.88809 0.44050 0.63580 0.12900
H 	H 	0.90240 0.44310 0.60810 0.00100
C 	C 	0.85419 0.42660 0.63130 -0.23000
H 	H 	0.84570 0.42000 0.60060 0.11600
C 	C 	0.83290 0.42230 0.67190 0.19300
C 	C 	0.84581 0.43230 0.71760 -0.22600
H 	H 	0.83140 0.42960 0.74510 0.11400
C 	C 	0.87909 0.44600 0.72250 0.12500
H 	H 	0.88760 0.45230 0.75340 0.00500
N 	N 	0.79766 0.40820 0.66760 -0.20800
C 	C 	0.78929 0.37940 0.63540 0.20800
C 	C 	0.75588 0.37770 0.61240 -0.25800
H 	H 	0.73920 0.39540 0.61910 0.12400
C 	C 	0.74720 0.35250 0.58220 0.16000
H 	H 	0.72430 0.35200 0.56890 -0.01100
C 	C 	0.77260 0.32540 0.56900 -0.18700
C 	C 	0.76360 0.29660 0.53320 0.42300
C 	C 	0.80616 0.32670 0.59150 0.13000
H 	H 	0.82340 0.30970 0.58390 0.00200
C 	C 	0.81390 0.35380 0.62540 -0.23500
H 	H 	0.83590 0.35410 0.64120 0.11800
C 	C 	0.54860 0.61005 0.73480 0.11400
H 	H 	0.54120 0.59760 0.70700 0.00800
C 	C 	0.56440 0.64380 0.72980 -0.21200
H 	H 	0.56720 0.65370 0.69880 0.10900
C 	C 	0.61954 0.70724 0.79570 0.18500
C 	C 	0.64760 0.68339 0.80610 -0.21400
H 	H 	0.64790 0.66100 0.79130 0.11100
C 	C 	0.67450 0.69279 0.83770 0.12200
H 	H 	0.69240 0.67650 0.84500 0.00600
C 	C 	0.67510 0.72530 0.85820 -0.16500
C 	C 	0.70450 0.73430 0.89550 0.36800
C 	C 	0.64820 0.74940 0.84800 0.12500
H 	H 	0.64910 0.77220 0.86170 0.00400
C 	C 	0.62060 0.74055 0.81840 -0.22400
H 	H 	0.60230 0.75680 0.81310 0.11300
C 	C 	0.53640 0.72320 0.73450 -0.31200
H 	H 	0.52340 0.70570 0.75090 0.14400
C 	C 	0.51890 0.74980 0.70830 0.23600
H 	H 	0.49410 0.75020 0.70810 -0.05100
C 	C 	0.53660 0.77450 0.68350 -0.31600
H 	H 	0.52440 0.79150 0.66510 0.14600
C 	C 	0.58075 0.83753 0.66310 0.16700
C 	C 	0.57360 0.85106 0.71030 -0.19200
H 	H 	0.57920 0.83740 0.73780 0.10200
C 	C 	0.55860 0.88445 0.71630 0.09800
H 	H 	0.55330 0.89290 0.74760 0.01300
C 	C 	0.55126 0.90527 0.67560 -0.15300
C 	C 	0.53444 0.94074 0.68300 0.37900
C 	C 	0.55920 0.89259 0.62830 0.09400
H 	H 	0.55440 0.90660 0.60090 0.01400
C 	C 	0.57450 0.85848 0.62280 -0.19800
H 	H 	0.58030 0.85010 0.59170 0.10400
C 	C 	0.62078 0.79301 0.62540 0.21100
C 	C 	0.64720 0.81775 0.61360 -0.24600
H 	H 	0.64620 0.84050 0.62710 0.12200
C 	C 	0.67410 0.80925 0.58300 0.14800
H 	H 	0.69190 0.82590 0.57660 -0.00600
C 	C 	0.67526 0.77578 0.56100 -0.18800
C 	C 	0.70420 0.76680 0.52430 0.37800
C 	C 	0.65060 0.75200 0.57210 0.14400
H 	H 	0.65210 0.72920 0.55850 0.00000
C 	C 	0.62220 0.76006 0.60380 -0.24100
H 	H 	0.60460 0.74320 0.61000 0.12000
N 	N 	0.47543 0.48961 0.68200 -0.17500
C 	C 	0.49230 0.50040 0.63780 0.06900
H 	H 	0.51310 0.51400 0.63540 0.01500
N 	N 	0.47200 0.48700 0.59794 -0.12000
C 	C 	0.44250 0.46780 0.61750 0.00300
H 	H 	0.42490 0.45620 0.59950 0.03500
C 	C 	0.44460 0.46950 0.66950 0.00300
H 	H 	0.42870 0.45910 0.69150 0.04200
N 	N 	0.71820 0.83785 0.95950 -0.16400
C 	C 	0.68990 0.85020 0.92910 0.06500
H 	H 	0.68050 0.83820 0.90210 0.02400
N 	N 	0.67870 0.88390 0.94710 -0.11000
C 	C 	0.69990 0.89250 0.98860 0.00200
H 	H 	0.69810 0.91310 0.00750 0.03700
C 	C 	0.72430 0.86400 0.99630 0.00200
H 	H 	0.74130 0.86270 0.02110 0.04000
C 	C 	0.48810 0.49530 0.54680 0.07400
C 	C 	0.46550 0.49140 0.50950 -0.07300
H 	H 	0.44200 0.48510 0.51600 0.06300
C 	C 	0.64490 0.90220 0.92490 0.01600
C 	C 	0.52430 0.50370 0.53710 -0.06500
H 	H 	0.54070 0.50580 0.56260 0.05800
Cu	Cu	0.78340 0.26109 0.96928 0.90300
Cu	Cu	0.00102 0.49665 0.64958 0.90100
Cu	Cu	0.99089 0.50205 0.74613 0.91700
Cu	Cu	0.23856 0.21633 0.53999 0.92300
N 	N 	0.09341 0.19865 0.84180 -0.20700
N 	N 	0.09182 0.30325 0.73600 -0.20900
N 	N 	0.19445 0.59112 0.72460 -0.21200
O 	O 	0.02520 0.45240 0.67054 -0.42100
O 	O 	0.04497 0.52399 0.66470 -0.42000
O 	O 	0.26616 0.70508 0.58120 -0.42900
O 	O 	0.20991 0.72449 0.58170 -0.41000
O 	O 	0.03889 0.52430 0.74578 -0.40900
O 	O 	0.01457 0.45447 0.75101 -0.39800
O 	O 	0.44550 0.52189 0.77184 -0.41100
O 	O 	0.23272 0.70557 0.98020 -0.43500
O 	O 	0.28887 0.72354 0.97890 -0.41800
O 	O 	0.45533 0.52889 0.85204 -0.41100
O 	O 	0.20498 0.23335 0.58910 -0.39700
O 	O 	0.22513 0.28980 0.59030 -0.40400
O 	O 	0.02528 0.04293 0.85680 -0.39400
O 	O 	0.02990 0.04857 0.77513 -0.41300
O 	O 	0.22472 0.20841 0.99050 -0.40000
O 	O 	0.20582 0.26518 0.99020 -0.40300
C 	C 	0.07391 0.22534 0.81470 0.24800
C 	C 	0.09156 0.25132 0.78840 -0.32400
H 	H 	0.11640 0.25130 0.78730 0.15100
C 	C 	0.07297 0.27692 0.76390 0.25700
C 	C 	0.07597 0.33748 0.72900 0.18800
C 	C 	0.07310 0.35370 0.68430 -0.22700
H 	H 	0.08220 0.34210 0.65680 0.11500
C 	C 	0.05740 0.38645 0.67840 0.12700
H 	H 	0.05560 0.39650 0.64730 0.00200
C 	C 	0.04399 0.40487 0.71890 -0.17700
C 	C 	0.02714 0.43994 0.71290 0.39400
C 	C 	0.05558 0.53076 0.70710 0.40700
C 	C 	0.09080 0.54836 0.71250 -0.19400
C 	C 	0.11010 0.55770 0.67200 0.13400
H 	H 	0.09970 0.55470 0.64130 0.00100
C 	C 	0.14450 0.57160 0.67430 -0.22900
H 	H 	0.15750 0.57640 0.64610 0.11700
C 	C 	0.15858 0.57790 0.72120 0.19700
C 	C 	0.21886 0.57300 0.75340 0.25000
C 	C 	0.24538 0.59130 0.77970 -0.30900
H 	H 	0.24610 0.61610 0.77900 0.14600
C 	C 	0.27000 0.57280 0.80630 0.23600
C 	C 	0.26850 0.53560 0.80910 -0.29000
H 	H 	0.28520 0.52310 0.82750 0.13700
C 	C 	0.24250 0.51800 0.78480 0.20200
H 	H 	0.24070 0.49330 0.78750 -0.04000
C 	C 	0.21820 0.53700 0.75540 -0.29300
H 	H 	0.20140 0.52450 0.73700 0.13800
C 	C 	0.20430 0.61980 0.69330 0.18300
C 	C 	0.23760 0.62100 0.67280 -0.21100
H 	H 	0.25360 0.60270 0.68010 0.10700
C 	C 	0.24870 0.64790 0.64200 0.10500
H 	H 	0.27160 0.64800 0.62890 0.00900
C 	C 	0.22400 0.67600 0.63060 -0.16000
C 	C 	0.23580 0.70420 0.59570 0.39900
C 	C 	0.18990 0.67490 0.65080 0.10800
H 	H 	0.17350 0.69260 0.64310 0.01000
C 	C 	0.18030 0.64730 0.68270 -0.20600
H 	H 	0.15780 0.64720 0.69690 0.10900
C 	C 	0.13975 0.56930 0.76180 -0.23900
H 	H 	0.14950 0.57330 0.79270 0.11800
C 	C 	0.10594 0.55430 0.75750 0.14000
H 	H 	0.09340 0.54820 0.78570 -0.00100
C 	C 	0.43655 0.53176 0.81350 0.39000
C 	C 	0.40094 0.54929 0.81920 -0.17500
C 	C 	0.38809 0.55950 0.86420 0.12900
H 	H 	0.40240 0.55690 0.89190 0.00100
C 	C 	0.35419 0.57340 0.86870 -0.23000
H 	H 	0.34570 0.58000 0.89940 0.11600
C 	C 	0.33290 0.57770 0.82810 0.19300
C 	C 	0.34581 0.56770 0.78240 -0.22600
H 	H 	0.33140 0.57040 0.75490 0.11400
C 	C 	0.37909 0.55400 0.77750 0.12500
H 	H 	0.38760 0.54770 0.74660 0.00500
N 	N 	0.29766 0.59180 0.83240 -0.20800
C 	C 	0.28929 0.62060 0.86460 0.20800
C 	C 	0.25588 0.62230 0.88760 -0.25800
H 	H 	0.23920 0.60460 0.88090 0.12400
C 	C 	0.24720 0.64750 0.91780 0.16000
H 	H 	0.22430 0.64800 0.93110 -0.01100
C 	C 	0.27260 0.67460 0.93100 -0.18700
C 	C 	0.26360 0.70340 0.96680 0.42300
C 	C 	0.30616 0.67330 0.90850 0.13000
H 	H 	0.32340 0.69030 0.91610 0.00200
C 	C 	0.31390 0.64620 0.87460 -0.23500
H 	H 	0.33590 0.64590 0.85880 0.11800
C 	C 	0.04860 0.38995 0.76520 0.11400
H 	H 	0.04120 0.40240 0.79300 0.00800
C 	C 	0.06440 0.35620 0.77020 -0.21200
H 	H 	0.06720 0.34630 0.80120 0.10900
C 	C 	0.11954 0.29276 0.70430 0.18500
C 	C 	0.14760 0.31661 0.69390 -0.21400
H 	H 	0.14790 0.33900 0.70870 0.11100
C 	C 	0.17450 0.30721 0.66230 0.12200
H 	H 	0.19240 0.32350 0.65500 0.00600
C 	C 	0.17510 0.27470 0.64180 -0.16500
C 	C 	0.20450 0.26570 0.60450 0.36800
C 	C 	0.14820 0.25060 0.65200 0.12500
H 	H 	0.14910 0.22780 0.63830 0.00400
C 	C 	0.12060 0.25945 0.68160 -0.22400
H 	H 	0.10230 0.24320 0.68690 0.11300
C 	C 	0.03640 0.27680 0.76550 -0.31200
H 	H 	0.02340 0.29430 0.74910 0.14400
C 	C 	0.01890 0.25020 0.79170 0.23700
H 	H 	0.99410 0.24980 0.79190 -0.05100
C 	C 	0.03660 0.22550 0.81650 -0.31600
H 	H 	0.02440 0.20850 0.83490 0.14700
C 	C 	0.08075 0.16247 0.83690 0.16700
C 	C 	0.07360 0.14894 0.78970 -0.19200
H 	H 	0.07920 0.16260 0.76220 0.10200
C 	C 	0.05860 0.11555 0.78370 0.09800
H 	H 	0.05330 0.10710 0.75240 0.01300
C 	C 	0.05126 0.09473 0.82440 -0.15300
C 	C 	0.03444 0.05926 0.81700 0.37900
C 	C 	0.05920 0.10741 0.87170 0.09400
H 	H 	0.05440 0.09340 0.89910 0.01400
C 	C 	0.07450 0.14152 0.87720 -0.19800
H 	H 	0.08030 0.14990 0.90830 0.10400
C 	C 	0.12078 0.20699 0.87460 0.21100
C 	C 	0.14720 0.18225 0.88640 -0.24600
H 	H 	0.14620 0.15950 0.87290 0.12200
C 	C 	0.17410 0.19075 0.91700 0.14800
H 	H 	0.19190 0.17410 0.92340 -0.00600
C 	C 	0.17526 0.22422 0.93900 -0.18800
C 	C 	0.20420 0.23320 0.97570 0.37800
C 	C 	0.15060 0.24800 0.92790 0.14400
H 	H 	0.15210 0.27080 0.94150 0.00000
C 	C 	0.12220 0.23994 0.89620 -0.24100
H 	H 	0.10460 0.25680 0.89000 0.12000
N 	N 	0.97543 0.51039 0.81800 -0.17500
C 	C 	0.99230 0.49960 0.86220 0.06900
H 	H 	0.01310 0.48600 0.86460 0.01500
N 	N 	0.97200 0.51300 0.90206 -0.12000
C 	C 	0.94250 0.53220 0.88250 0.00300
H 	H 	0.92490 0.54380 0.90050 0.03500
C 	C 	0.94460 0.53050 0.83050 0.00300
H 	H 	0.92870 0.54090 0.80850 0.04200
N 	N 	0.21820 0.16215 0.54050 -0.16400
C 	C 	0.18990 0.14980 0.57090 0.06500
H 	H 	0.18050 0.16180 0.59790 0.02400
N 	N 	0.17870 0.11610 0.55290 -0.11000
C 	C 	0.19990 0.10750 0.51140 0.00200
H 	H 	0.19810 0.08690 0.49250 0.03700
C 	C 	0.22430 0.13600 0.50370 0.00200
H 	H 	0.24130 0.13730 0.47890 0.04000
C 	C 	0.98810 0.50470 0.95320 0.07400
C 	C 	0.96550 0.50860 0.99050 -0.07400
H 	H 	0.94200 0.51490 0.98400 0.06400
C 	C 	0.14490 0.09780 0.57510 0.01600
C 	C 	0.02430 0.49630 0.96290 -0.06400
H 	H 	0.04070 0.49420 0.93740 0.05700
Cu	Cu	0.28340 0.73891 0.53072 0.90300
Cu	Cu	0.49898 0.00335 0.64958 0.90100
Cu	Cu	0.50911 0.99795 0.74613 0.91700
Cu	Cu	0.26144 0.28367 0.53999 0.92300
N 	N 	0.40659 0.30135 0.84180 -0.20700
N 	N 	0.40818 0.19675 0.73600 -0.20900
N 	N 	0.30555 0.90888 0.72460 -0.21200
O 	O 	0.47480 0.04760 0.67054 -0.42100
O 	O 	0.45503 0.97601 0.66470 -0.42000
O 	O 	0.23384 0.79492 0.58120 -0.42900
O 	O 	0.29009 0.77551 0.58170 -0.41000
O 	O 	0.46111 0.97570 0.74578 -0.40900
O 	O 	0.48543 0.04553 0.75101 -0.39800
O 	O 	0.05450 0.97811 0.77184 -0.41100
O 	O 	0.26728 0.79443 0.98020 -0.43500
O 	O 	0.21113 0.77646 0.97890 -0.41800
O 	O 	0.04467 0.97111 0.85204 -0.41100
O 	O 	0.29502 0.26665 0.58910 -0.39700
O 	O 	0.27487 0.21020 0.59030 -0.40400
O 	O 	0.47472 0.45707 0.85680 -0.39400
O 	O 	0.47010 0.45143 0.77513 -0.41300
O 	O 	0.27528 0.29159 0.99050 -0.40000
O 	O 	0.29418 0.23482 0.99020 -0.40300
C 	C 	0.42609 0.27466 0.81470 0.24800
C 	C 	0.40844 0.24868 0.78840 -0.32400
H 	H 	0.38360 0.24870 0.78730 0.15100
C 	C 	0.42703 0.22308 0.76390 0.25700
C 	C 	0.42403 0.16252 0.72900 0.18800
C 	C 	0.42690 0.14630 0.68430 -0.22700
H 	H 	0.41780 0.15790 0.65680 0.11500
C 	C 	0.44260 0.11355 0.67840 0.12700
H 	H 	0.44440 0.10350 0.64730 0.00200
C 	C 	0.45601 0.09513 0.71890 -0.17700
C 	C 	0.47286 0.06006 0.71290 0.39400
C 	C 	0.44442 0.96924 0.70710 0.40700
C 	C 	0.40920 0.95164 0.71250 -0.19400
C 	C 	0.38990 0.94230 0.67200 0.13400
H 	H 	0.40030 0.94530 0.64130 0.00100
C 	C 	0.35550 0.92840 0.67430 -0.22900
H 	H 	0.34250 0.92360 0.64610 0.11700
C 	C 	0.34142 0.92210 0.72120 0.19700
C 	C 	0.28114 0.92700 0.75340 0.25000
C 	C 	0.25462 0.90870 0.77970 -0.30900
H 	H 	0.25390 0.88390 0.77900 0.14600
C 	C 	0.23000 0.92720 0.80630 0.23600
C 	C 	0.23150 0.96440 0.80910 -0.29000
H 	H 	0.21480 0.97690 0.82750 0.13700
C 	C 	0.25750 0.98200 0.78480 0.20200
H 	H 	0.25930 0.00670 0.78750 -0.04000
C 	C 	0.28180 0.96300 0.75540 -0.29400
H 	H 	0.29860 0.97550 0.73700 0.13800
C 	C 	0.29570 0.88020 0.69330 0.18300
C 	C 	0.26240 0.87900 0.67280 -0.21100
H 	H 	0.24640 0.89730 0.68010 0.10700
C 	C 	0.25130 0.85210 0.64200 0.10500
H 	H 	0.22840 0.85200 0.62890 0.00900
C 	C 	0.27600 0.82400 0.63060 -0.16000
C 	C 	0.26420 0.79580 0.59570 0.39900
C 	C 	0.31010 0.82510 0.65080 0.10800
H 	H 	0.32650 0.80740 0.64310 0.01000
C 	C 	0.31970 0.85270 0.68270 -0.20600
H 	H 	0.34220 0.85280 0.69690 0.10900
C 	C 	0.36025 0.93070 0.76180 -0.23900
H 	H 	0.35050 0.92670 0.79270 0.11800
C 	C 	0.39406 0.94570 0.75750 0.14000
H 	H 	0.40660 0.95180 0.78570 -0.00100
C 	C 	0.06345 0.96824 0.81350 0.39000
C 	C 	0.09906 0.95071 0.81920 -0.17500
C 	C 	0.11191 0.94050 0.86420 0.12900
H 	H 	0.09760 0.94310 0.89190 0.00100
C 	C 	0.14581 0.92660 0.86870 -0.23000
H 	H 	0.15430 0.92000 0.89940 0.11600
C 	C 	0.16710 0.92230 0.82810 0.19300
C 	C 	0.15419 0.93230 0.78240 -0.22600
H 	H 	0.16860 0.92960 0.75490 0.11400
C 	C 	0.12091 0.94600 0.77750 0.12500
H 	H 	0.11240 0.95230 0.74660 0.00500
N 	N 	0.20234 0.90820 0.83240 -0.20800
C 	C 	0.21071 0.87940 0.86460 0.20800
C 	C 	0.24412 0.87770 0.88760 -0.25800
H 	H 	0.26080 0.89540 0.88090 0.12400
C 	C 	0.25280 0.85250 0.91780 0.16000
H 	H 	0.27570 0.85200 0.93110 -0.01100
C 	C 	0.22740 0.82540 0.93100 -0.18700
C 	C 	0.23640 0.79660 0.96680 0.42300
C 	C 	0.19384 0.82670 0.90850 0.13000
H 	H 	0.17660 0.80970 0.91610 0.00200
C 	C 	0.18610 0.85380 0.87460 -0.23500
H 	H 	0.16410 0.85410 0.85880 0.11800
C 	C 	0.45140 0.11005 0.76520 0.11400
H 	H 	0.45880 0.09760 0.79300 0.00800
C 	C 	0.43560 0.14380 0.77020 -0.21200
H 	H 	0.43280 0.15370 0.80120 0.10900
C 	C 	0.38046 0.20724 0.70430 0.18500
C 	C 	0.35240 0.18339 0.69390 -0.21400
H 	H 	0.35210 0.16100 0.70870 0.11100
C 	C 	0.32550 0.19279 0.66230 0.12200
H 	H 	0.30760 0.17650 0.65500 0.00600
C 	C 	0.32490 0.22530 0.64180 -0.16500
C 	C 	0.29550 0.23430 0.60450 0.36800
C 	C 	0.35180 0.24940 0.65200 0.12500
H 	H 	0.35090 0.27220 0.63830 0.00400
C 	C 	0.37940 0.24055 0.68160 -0.22400
H 	H 	0.39770 0.25680 0.68690 0.11300
C 	C 	0.46360 0.22320 0.76550 -0.31200
H 	H 	0.47660 0.20570 0.74910 0.14400
C 	C 	0.48110 0.24980 0.79170 0.23600
H 	H 	0.50590 0.25020 0.79190 -0.05100
C 	C 	0.46340 0.27450 0.81650 -0.31600
H 	H 	0.47560 0.29150 0.83490 0.14600
C 	C 	0.41925 0.33753 0.83690 0.16700
C 	C 	0.42640 0.35106 0.78970 -0.19200
H 	H 	0.42080 0.33740 0.76220 0.10200
C 	C 	0.44140 0.38445 0.78370 0.09800
H 	H 	0.44670 0.39290 0.75240 0.01300
C 	C 	0.44874 0.40527 0.82440 -0.15300
C 	C 	0.46556 0.44074 0.81700 0.37900
C 	C 	0.44080 0.39259 0.87170 0.09400
H 	H 	0.44560 0.40660 0.89910 0.01400
C 	C 	0.42550 0.35848 0.87720 -0.19800
H 	H 	0.41970 0.35010 0.90830 0.10400
C 	C 	0.37922 0.29301 0.87460 0.21100
C 	C 	0.35280 0.31775 0.88640 -0.24600
H 	H 	0.35380 0.34050 0.87290 0.12200
C 	C 	0.32590 0.30925 0.91700 0.14800
H 	H 	0.30810 0.32590 0.92340 -0.00600
C 	C 	0.32474 0.27578 0.93900 -0.18800
C 	C 	0.29580 0.26680 0.97570 0.37800
C 	C 	0.34940 0.25200 0.92790 0.14400
H 	H 	0.34790 0.22920 0.94150 0.00000
C 	C 	0.37780 0.26006 0.89620 -0.24100
H 	H 	0.39540 0.24320 0.89000 0.12000
N 	N 	0.52457 0.98961 0.81800 -0.17500
C 	C 	0.50770 0.00040 0.86220 0.06900
H 	H 	0.48690 0.01400 0.86460 0.01500
N 	N 	0.52800 0.98700 0.90206 -0.12000
C 	C 	0.55750 0.96780 0.88250 0.00300
H 	H 	0.57510 0.95620 0.90050 0.03500
C 	C 	0.55540 0.96950 0.83050 0.00300
H 	H 	0.57130 0.95910 0.80850 0.04200
N 	N 	0.28180 0.33785 0.54050 -0.16400
C 	C 	0.31010 0.35020 0.57090 0.06500
H 	H 	0.31950 0.33820 0.59790 0.02400
N 	N 	0.32130 0.38390 0.55290 -0.11000
C 	C 	0.30010 0.39250 0.51140 0.00200
H 	H 	0.30190 0.41310 0.49250 0.03700
C 	C 	0.27570 0.36400 0.50370 0.00200
H 	H 	0.25870 0.36270 0.47890 0.04000
C 	C 	0.51190 0.99530 0.95320 0.07400
C 	C 	0.53450 0.99140 0.99050 -0.07300
H 	H 	0.55800 0.98510 0.98400 0.06300
C 	C 	0.35510 0.40220 0.57510 0.01600
C 	C 	0.47570 0.00370 0.96290 -0.06500
H 	H 	0.45930 0.00580 0.93740 0.05800
Cu	Cu	0.21660 0.76109 0.53072 0.90300
