data_crystal

_cell_length_a 26.45000
_cell_length_b 26.45000
_cell_length_c 27.88000
_cell_angle_alpha 90.00000
_cell_angle_beta  90.00000
_cell_angle_gamma 90.00000

_symmetry_space_group_name_	'P 1'
_symmetry_space_group_name_H-M	'P 1'

loop_
_symmetry_equiv_pos_as_xyz
  x,y,z

loop_
_atom_site_label
_atom_site_type_symbol
_atom_site_fract_x
_atom_site_fract_y
_atom_site_fract_z
_atom_site_charge
O 	O 	0.43497 0.98563 0.45033 -0.38600
O 	O 	0.47194 0.06239 0.45085 -0.40100
O 	O 	0.07114 0.02089 0.34907 -0.42400
O 	O 	0.07018 0.02304 0.26909 -0.42200
N 	N 	0.29298 0.10452 0.30367 -0.20000
C 	C 	0.43913 0.03090 0.43764 0.32900
C 	C 	0.40195 0.05006 0.39972 -0.10700
C 	C 	0.36769 0.01773 0.37873 0.02200
H 	H 	0.36860 0.98350 0.38620 0.05600
C 	C 	0.33290 0.03486 0.34755 -0.15800
H 	H 	0.31010 0.01230 0.33390 0.08500
C 	C 	0.33061 0.08545 0.33548 0.14600
C 	C 	0.36587 0.11957 0.35551 -0.16900
H 	H 	0.36560 0.15370 0.34740 0.09300
C 	C 	0.40109 0.10030 0.38775 0.06300
H 	H 	0.42460 0.12210 0.40150 0.02400
C 	C 	0.24304 0.08352 0.30571 0.18800
C 	C 	0.21991 0.07291 0.34870 -0.23000
H 	H 	0.23740 0.07810 0.37720 0.11300
C 	C 	0.17094 0.05459 0.35002 0.13000
H 	H 	0.15570 0.04770 0.37940 -0.00400
C 	C 	0.14467 0.04651 0.30816 -0.19200
C 	C 	0.09163 0.02878 0.30879 0.39200
C 	C 	0.16826 0.05673 0.26563 0.12800
H 	H 	0.15070 0.05130 0.23720 -0.00300
C 	C 	0.21739 0.07490 0.26316 -0.22600
H 	H 	0.23270 0.08110 0.23370 0.10900
C 	C 	0.30019 0.14951 0.27594 0.24600
C 	C 	0.26338 0.18630 0.27580 -0.30200
H 	H 	0.23380 0.18170 0.29330 0.13900
C 	C 	0.01880 0.03980 0.16050 0.01600
H 	H 	0.03190 0.06710 0.17740 0.02300
C 	C 	0.01940 0.04150 0.11700 -0.06600
H 	H 	0.03220 0.06920 0.10050 0.05200
N 	N 	0.00800 0.03700 0.01890 -0.10300
O 	O 	0.56503 0.01437 0.45033 -0.44500
O 	O 	0.52806 0.93761 0.45085 -0.41700
O 	O 	0.92886 0.97911 0.34907 -0.39100
O 	O 	0.92982 0.97696 0.26909 -0.39100
N 	N 	0.70702 0.89548 0.30367 -0.21000
C 	C 	0.56087 0.96910 0.43764 0.42500
C 	C 	0.59805 0.94994 0.39972 -0.21100
C 	C 	0.63231 0.98227 0.37873 0.22400
H 	H 	0.63140 0.01650 0.38620 -0.04800
C 	C 	0.66710 0.96514 0.34755 -0.28600
H 	H 	0.68990 0.98770 0.33390 0.14100
C 	C 	0.66939 0.91455 0.33548 0.21400
C 	C 	0.63413 0.88043 0.35551 -0.23800
H 	H 	0.63440 0.84630 0.34740 0.11800
C 	C 	0.59891 0.89970 0.38775 0.14900
H 	H 	0.57540 0.87790 0.40150 -0.00300
C 	C 	0.75696 0.91648 0.30571 0.18900
C 	C 	0.78009 0.92709 0.34870 -0.22400
H 	H 	0.76260 0.92190 0.37720 0.11600
C 	C 	0.82906 0.94541 0.35002 0.12800
H 	H 	0.84430 0.95230 0.37940 0.00700
C 	C 	0.85533 0.95349 0.30816 -0.17700
C 	C 	0.90837 0.97122 0.30879 0.38800
C 	C 	0.83174 0.94327 0.26563 0.12500
H 	H 	0.84930 0.94870 0.23720 0.00700
C 	C 	0.78261 0.92510 0.26316 -0.21800
H 	H 	0.76730 0.91890 0.23370 0.11300
C 	C 	0.69981 0.85049 0.27594 0.25100
C 	C 	0.73662 0.81370 0.27580 -0.30600
H 	H 	0.76620 0.81830 0.29330 0.14400
C 	C 	0.98120 0.96020 0.16050 0.06200
H 	H 	0.96810 0.93290 0.17740 0.02400
C 	C 	0.98060 0.95850 0.11700 -0.03000
H 	H 	0.96780 0.93080 0.10050 0.05600
N 	N 	0.99200 0.96300 0.01890 -0.07400
O 	O 	0.01437 0.43497 0.45033 -0.44500
O 	O 	0.93761 0.47194 0.45085 -0.41700
O 	O 	0.97911 0.07114 0.34907 -0.40500
O 	O 	0.97696 0.07018 0.26909 -0.40300
N 	N 	0.89548 0.29298 0.30367 -0.21000
C 	C 	0.96910 0.43913 0.43764 0.42500
C 	C 	0.94994 0.40195 0.39972 -0.21200
C 	C 	0.98227 0.36769 0.37873 0.22600
H 	H 	0.01650 0.36860 0.38620 -0.04900
C 	C 	0.96514 0.33290 0.34755 -0.28700
H 	H 	0.98770 0.31010 0.33390 0.14200
C 	C 	0.91455 0.33061 0.33548 0.21400
C 	C 	0.88043 0.36587 0.35551 -0.23900
H 	H 	0.84630 0.36560 0.34740 0.11800
C 	C 	0.89970 0.40109 0.38775 0.15000
H 	H 	0.87790 0.42460 0.40150 -0.00300
C 	C 	0.91648 0.24304 0.30571 0.19000
C 	C 	0.92709 0.21991 0.34870 -0.22700
H 	H 	0.92190 0.23740 0.37720 0.11500
C 	C 	0.94541 0.17094 0.35002 0.12900
H 	H 	0.95230 0.15570 0.37940 0.00200
C 	C 	0.95349 0.14467 0.30816 -0.18200
C 	C 	0.97122 0.09163 0.30879 0.38900
C 	C 	0.94327 0.16826 0.26563 0.12700
H 	H 	0.94870 0.15070 0.23720 0.00500
C 	C 	0.92510 0.21739 0.26316 -0.22100
H 	H 	0.91890 0.23270 0.23370 0.11300
C 	C 	0.85049 0.30019 0.27594 0.25000
C 	C 	0.81370 0.26338 0.27580 -0.30600
H 	H 	0.81830 0.23380 0.29330 0.14000
C 	C 	0.96020 0.01880 0.16050 0.03300
H 	H 	0.93290 0.03190 0.17740 0.02200
C 	C 	0.95850 0.01940 0.11700 -0.03900
H 	H 	0.93080 0.03220 0.10050 0.05000
N 	N 	0.96300 0.00800 0.01890 -0.08900
O 	O 	0.98563 0.56503 0.45033 -0.38700
O 	O 	0.06239 0.52806 0.45085 -0.40100
O 	O 	0.02089 0.92886 0.34907 -0.40700
O 	O 	0.02304 0.92982 0.26909 -0.40800
N 	N 	0.10452 0.70702 0.30367 -0.20000
C 	C 	0.03090 0.56087 0.43764 0.32900
C 	C 	0.05006 0.59805 0.39972 -0.10800
C 	C 	0.01773 0.63231 0.37873 0.02400
H 	H 	0.98350 0.63140 0.38620 0.05500
C 	C 	0.03486 0.66710 0.34755 -0.15900
H 	H 	0.01230 0.68990 0.33390 0.08600
C 	C 	0.08545 0.66939 0.33548 0.14700
C 	C 	0.11957 0.63413 0.35551 -0.16900
H 	H 	0.15370 0.63440 0.34740 0.09400
C 	C 	0.10030 0.59891 0.38775 0.06400
H 	H 	0.12210 0.57540 0.40150 0.02400
C 	C 	0.08352 0.75696 0.30571 0.18700
C 	C 	0.07291 0.78009 0.34870 -0.22600
H 	H 	0.07810 0.76260 0.37720 0.11400
C 	C 	0.05459 0.82906 0.35002 0.12800
H 	H 	0.04770 0.84430 0.37940 0.00100
C 	C 	0.04651 0.85533 0.30816 -0.18500
C 	C 	0.02878 0.90837 0.30879 0.39000
C 	C 	0.05673 0.83174 0.26563 0.12600
H 	H 	0.05130 0.84930 0.23720 0.00000
C 	C 	0.07490 0.78261 0.26316 -0.22200
H 	H 	0.08110 0.76730 0.23370 0.11000
C 	C 	0.14951 0.69981 0.27594 0.24700
C 	C 	0.18630 0.73662 0.27580 -0.30200
H 	H 	0.18170 0.76620 0.29330 0.14200
C 	C 	0.03980 0.98120 0.16050 0.03400
H 	H 	0.06710 0.96810 0.17740 0.03000
C 	C 	0.04150 0.98060 0.11700 -0.03800
H 	H 	0.06920 0.96780 0.10050 0.05300
N 	N 	0.03700 0.99200 0.01890 -0.08500
O 	O 	0.06503 0.48563 0.04967 -0.42900
O 	O 	0.02806 0.56239 0.04915 -0.42600
O 	O 	0.42886 0.52089 0.15093 -0.41500
O 	O 	0.42982 0.52304 0.23091 -0.41200
N 	N 	0.20702 0.60452 0.19633 -0.20600
C 	C 	0.06087 0.53090 0.06236 0.37800
C 	C 	0.09805 0.55006 0.10028 -0.16800
C 	C 	0.13231 0.51773 0.12127 0.12700
H 	H 	0.13140 0.48350 0.11380 -0.00300
C 	C 	0.16710 0.53486 0.15245 -0.22800
H 	H 	0.18990 0.51230 0.16610 0.11300
C 	C 	0.16939 0.58545 0.16452 0.18200
C 	C 	0.13413 0.61957 0.14449 -0.20900
H 	H 	0.13440 0.65370 0.15260 0.10500
C 	C 	0.09891 0.60030 0.11225 0.10900
H 	H 	0.07540 0.62210 0.09850 0.00400
C 	C 	0.25696 0.58352 0.19429 0.18800
C 	C 	0.28009 0.57291 0.15130 -0.22900
H 	H 	0.26260 0.57810 0.12280 0.11200
C 	C 	0.32906 0.55459 0.14998 0.13000
H 	H 	0.34430 0.54770 0.12060 -0.00300
C 	C 	0.35533 0.54651 0.19184 -0.18700
C 	C 	0.40837 0.52878 0.19121 0.39300
C 	C 	0.33174 0.55673 0.23437 0.12800
H 	H 	0.34930 0.55130 0.26280 0.00300
C 	C 	0.28261 0.57490 0.23684 -0.22300
H 	H 	0.26730 0.58110 0.26630 0.11200
C 	C 	0.19981 0.64951 0.22406 0.24700
C 	C 	0.23662 0.68630 0.22420 -0.30200
H 	H 	0.26620 0.68170 0.20670 0.14000
C 	C 	0.48120 0.53980 0.33950 0.07300
H 	H 	0.46810 0.56710 0.32260 0.01300
C 	C 	0.48060 0.54150 0.38300 -0.13400
H 	H 	0.46780 0.56920 0.39950 0.08600
N 	N 	0.49200 0.53700 0.48110 -0.06300
O 	O 	0.93497 0.51437 0.04967 -0.41600
O 	O 	0.97194 0.43761 0.04915 -0.40500
O 	O 	0.57114 0.47911 0.15093 -0.41500
O 	O 	0.57018 0.47696 0.23091 -0.41200
N 	N 	0.79298 0.39548 0.19633 -0.20500
C 	C 	0.93913 0.46910 0.06236 0.37500
C 	C 	0.90195 0.44994 0.10028 -0.15900
C 	C 	0.86769 0.48227 0.12127 0.12300
H 	H 	0.86860 0.51650 0.11380 0.00300
C 	C 	0.83290 0.46514 0.15245 -0.22200
H 	H 	0.81010 0.48770 0.16610 0.11300
C 	C 	0.83061 0.41455 0.16452 0.18000
C 	C 	0.86587 0.38043 0.14449 -0.20400
H 	H 	0.86560 0.34630 0.15260 0.10500
C 	C 	0.90109 0.39970 0.11225 0.10500
H 	H 	0.92460 0.37790 0.09850 0.01000
C 	C 	0.74304 0.41648 0.19429 0.18900
C 	C 	0.71991 0.42709 0.15130 -0.22900
H 	H 	0.73740 0.42190 0.12280 0.11200
C 	C 	0.67094 0.44541 0.14998 0.13000
H 	H 	0.65570 0.45230 0.12060 -0.00300
C 	C 	0.64467 0.45349 0.19184 -0.18700
C 	C 	0.59163 0.47122 0.19121 0.39300
C 	C 	0.66826 0.44327 0.23437 0.12800
H 	H 	0.65070 0.44870 0.26280 0.00300
C 	C 	0.71739 0.42510 0.23684 -0.22300
H 	H 	0.73270 0.41890 0.26630 0.11300
C 	C 	0.80019 0.35049 0.22406 0.25000
C 	C 	0.76338 0.31370 0.22420 -0.30600
H 	H 	0.73380 0.31830 0.20670 0.14000
C 	C 	0.51880 0.46020 0.33950 0.07300
H 	H 	0.53190 0.43290 0.32260 0.01200
C 	C 	0.51940 0.45850 0.38300 -0.13400
H 	H 	0.53220 0.43080 0.39950 0.08500
N 	N 	0.50800 0.46300 0.48110 -0.06300
O 	O 	0.48563 0.93497 0.04967 -0.41600
O 	O 	0.56239 0.97194 0.04915 -0.40500
O 	O 	0.52089 0.57114 0.15093 -0.41500
O 	O 	0.52304 0.57018 0.23091 -0.41100
N 	N 	0.60452 0.79298 0.19633 -0.20500
C 	C 	0.53090 0.93913 0.06236 0.37500
C 	C 	0.55006 0.90195 0.10028 -0.15900
C 	C 	0.51773 0.86769 0.12127 0.12300
H 	H 	0.48350 0.86860 0.11380 0.00300
C 	C 	0.53486 0.83290 0.15245 -0.22200
H 	H 	0.51230 0.81010 0.16610 0.11300
C 	C 	0.58545 0.83061 0.16452 0.18000
C 	C 	0.61957 0.86587 0.14449 -0.20400
H 	H 	0.65370 0.86560 0.15260 0.10600
C 	C 	0.60030 0.90109 0.11225 0.10600
H 	H 	0.62210 0.92460 0.09850 0.01100
C 	C 	0.58352 0.74304 0.19429 0.18900
C 	C 	0.57291 0.71991 0.15130 -0.22900
H 	H 	0.57810 0.73740 0.12280 0.11200
C 	C 	0.55459 0.67094 0.14998 0.13000
H 	H 	0.54770 0.65570 0.12060 -0.00300
C 	C 	0.54651 0.64467 0.19184 -0.18700
C 	C 	0.52878 0.59163 0.19121 0.39300
C 	C 	0.55673 0.66826 0.23437 0.12900
H 	H 	0.55130 0.65070 0.26280 0.00300
C 	C 	0.57490 0.71739 0.23684 -0.22300
H 	H 	0.58110 0.73270 0.26630 0.11300
C 	C 	0.64951 0.80019 0.22406 0.25000
C 	C 	0.68630 0.76338 0.22420 -0.30500
H 	H 	0.68170 0.73380 0.20670 0.14100
C 	C 	0.53980 0.51880 0.33950 0.07300
H 	H 	0.56710 0.53190 0.32260 0.01300
C 	C 	0.54150 0.51940 0.38300 -0.13400
H 	H 	0.56920 0.53220 0.39950 0.08600
N 	N 	0.53700 0.50800 0.48110 -0.06300
O 	O 	0.51437 0.06503 0.04967 -0.42900
O 	O 	0.43761 0.02806 0.04915 -0.42600
O 	O 	0.47911 0.42886 0.15093 -0.41500
O 	O 	0.47696 0.42982 0.23091 -0.41200
N 	N 	0.39548 0.20702 0.19633 -0.20500
C 	C 	0.46910 0.06087 0.06236 0.37800
C 	C 	0.44994 0.09805 0.10028 -0.16800
C 	C 	0.48227 0.13231 0.12127 0.12700
H 	H 	0.51650 0.13140 0.11380 -0.00300
C 	C 	0.46514 0.16710 0.15245 -0.22800
H 	H 	0.48770 0.18990 0.16610 0.11300
C 	C 	0.41455 0.16939 0.16452 0.18100
C 	C 	0.38043 0.13413 0.14449 -0.20900
H 	H 	0.34630 0.13440 0.15260 0.10400
C 	C 	0.39970 0.09891 0.11225 0.10900
H 	H 	0.37790 0.07540 0.09850 0.00300
C 	C 	0.41648 0.25696 0.19429 0.18800
C 	C 	0.42709 0.28009 0.15130 -0.22900
H 	H 	0.42190 0.26260 0.12280 0.11100
C 	C 	0.44541 0.32906 0.14998 0.13000
H 	H 	0.45230 0.34430 0.12060 -0.00300
C 	C 	0.45349 0.35533 0.19184 -0.18700
C 	C 	0.47122 0.40837 0.19121 0.39300
C 	C 	0.44327 0.33174 0.23437 0.12800
H 	H 	0.44870 0.34930 0.26280 0.00200
C 	C 	0.42510 0.28261 0.23684 -0.22300
H 	H 	0.41890 0.26730 0.26630 0.11200
C 	C 	0.35049 0.19981 0.22406 0.24600
C 	C 	0.31370 0.23662 0.22420 -0.30300
H 	H 	0.31830 0.26620 0.20670 0.13900
C 	C 	0.46020 0.48120 0.33950 0.07300
H 	H 	0.43290 0.46810 0.32260 0.01200
C 	C 	0.45850 0.48060 0.38300 -0.13400
H 	H 	0.43080 0.46780 0.39950 0.08500
N 	N 	0.46300 0.49200 0.48110 -0.06300
O 	O 	0.56503 0.01437 0.54967 -0.44500
O 	O 	0.52806 0.93761 0.54915 -0.41700
O 	O 	0.92886 0.97911 0.65093 -0.39100
O 	O 	0.92982 0.97696 0.73091 -0.39000
N 	N 	0.70702 0.89548 0.69633 -0.21000
C 	C 	0.56087 0.96910 0.56236 0.42500
C 	C 	0.59805 0.94994 0.60028 -0.21100
C 	C 	0.63231 0.98227 0.62127 0.22400
H 	H 	0.63140 0.01650 0.61380 -0.04800
C 	C 	0.66710 0.96514 0.65245 -0.28600
H 	H 	0.68990 0.98770 0.66610 0.14200
C 	C 	0.66939 0.91455 0.66452 0.21400
C 	C 	0.63413 0.88043 0.64449 -0.23800
H 	H 	0.63440 0.84630 0.65260 0.11900
C 	C 	0.59891 0.89970 0.61225 0.14900
H 	H 	0.57540 0.87790 0.59850 -0.00300
C 	C 	0.75696 0.91648 0.69429 0.18900
C 	C 	0.78009 0.92709 0.65130 -0.22400
H 	H 	0.76260 0.92190 0.62280 0.11600
C 	C 	0.82906 0.94541 0.64998 0.12800
H 	H 	0.84430 0.95230 0.62060 0.00700
C 	C 	0.85533 0.95349 0.69184 -0.17600
C 	C 	0.90837 0.97122 0.69121 0.38800
C 	C 	0.83174 0.94327 0.73437 0.12600
H 	H 	0.84930 0.94870 0.76280 0.00900
C 	C 	0.78261 0.92510 0.73684 -0.21800
H 	H 	0.76730 0.91890 0.76630 0.11500
C 	C 	0.69981 0.85049 0.72406 0.25200
C 	C 	0.73662 0.81370 0.72420 -0.30600
H 	H 	0.76620 0.81830 0.70670 0.14400
C 	C 	0.98120 0.96020 0.83950 0.09800
H 	H 	0.96810 0.93290 0.82260 0.01400
C 	C 	0.98060 0.95850 0.88300 -0.09400
H 	H 	0.96780 0.93080 0.89950 0.08500
N 	N 	0.99200 0.96300 0.98110 -0.01200
O 	O 	0.43497 0.98563 0.54967 -0.38600
O 	O 	0.47194 0.06239 0.54915 -0.40100
O 	O 	0.07114 0.02089 0.65093 -0.42300
O 	O 	0.07018 0.02304 0.73091 -0.42100
N 	N 	0.29298 0.10452 0.69633 -0.20000
C 	C 	0.43913 0.03090 0.56236 0.32900
C 	C 	0.40195 0.05006 0.60028 -0.10700
C 	C 	0.36769 0.01773 0.62127 0.02200
H 	H 	0.36860 0.98350 0.61380 0.05600
C 	C 	0.33290 0.03486 0.65245 -0.15800
H 	H 	0.31010 0.01230 0.66610 0.08600
C 	C 	0.33061 0.08545 0.66452 0.14600
C 	C 	0.36587 0.11957 0.64449 -0.16900
H 	H 	0.36560 0.15370 0.65260 0.09300
C 	C 	0.40109 0.10030 0.61225 0.06300
H 	H 	0.42460 0.12210 0.59850 0.02400
C 	C 	0.24304 0.08352 0.69429 0.18800
C 	C 	0.21991 0.07291 0.65130 -0.23000
H 	H 	0.23740 0.07810 0.62280 0.11300
C 	C 	0.17094 0.05459 0.64998 0.13100
H 	H 	0.15570 0.04770 0.62060 -0.00400
C 	C 	0.14467 0.04651 0.69184 -0.19100
C 	C 	0.09163 0.02878 0.69121 0.39200
C 	C 	0.16826 0.05673 0.73437 0.12900
H 	H 	0.15070 0.05130 0.76280 -0.00100
C 	C 	0.21739 0.07490 0.73684 -0.22500
H 	H 	0.23270 0.08110 0.76630 0.11200
C 	C 	0.30019 0.14951 0.72406 0.24700
C 	C 	0.26338 0.18630 0.72420 -0.30200
H 	H 	0.23380 0.18170 0.70670 0.14000
C 	C 	0.01880 0.03980 0.83950 0.05300
H 	H 	0.03190 0.06710 0.82260 0.01300
C 	C 	0.01940 0.04150 0.88300 -0.12900
H 	H 	0.03220 0.06920 0.89950 0.08200
N 	N 	0.00800 0.03700 0.98110 -0.04100
O 	O 	0.98563 0.56503 0.54967 -0.38600
O 	O 	0.06239 0.52806 0.54915 -0.40100
O 	O 	0.02089 0.92886 0.65093 -0.40700
O 	O 	0.02304 0.92982 0.73091 -0.40700
N 	N 	0.10452 0.70702 0.69633 -0.20000
C 	C 	0.03090 0.56087 0.56236 0.32900
C 	C 	0.05006 0.59805 0.60028 -0.10800
C 	C 	0.01773 0.63231 0.62127 0.02500
H 	H 	0.98350 0.63140 0.61380 0.05500
C 	C 	0.03486 0.66710 0.65245 -0.15900
H 	H 	0.01230 0.68990 0.66610 0.08700
C 	C 	0.08545 0.66939 0.66452 0.14800
C 	C 	0.11957 0.63413 0.64449 -0.16900
H 	H 	0.15370 0.63440 0.65260 0.09400
C 	C 	0.10030 0.59891 0.61225 0.06400
H 	H 	0.12210 0.57540 0.59850 0.02400
C 	C 	0.08352 0.75696 0.69429 0.18700
C 	C 	0.07291 0.78009 0.65130 -0.22600
H 	H 	0.07810 0.76260 0.62280 0.11400
C 	C 	0.05459 0.82906 0.64998 0.12800
H 	H 	0.04770 0.84430 0.62060 0.00100
C 	C 	0.04651 0.85533 0.69184 -0.18400
C 	C 	0.02878 0.90837 0.69121 0.39000
C 	C 	0.05673 0.83174 0.73437 0.12700
H 	H 	0.05130 0.84930 0.76280 0.00200
C 	C 	0.07490 0.78261 0.73684 -0.22200
H 	H 	0.08110 0.76730 0.76630 0.11200
C 	C 	0.14951 0.69981 0.72406 0.24800
C 	C 	0.18630 0.73662 0.72420 -0.30200
H 	H 	0.18170 0.76620 0.70670 0.14300
C 	C 	0.03980 0.98120 0.83950 0.07100
H 	H 	0.06710 0.96810 0.82260 0.02000
C 	C 	0.04150 0.98060 0.88300 -0.10200
H 	H 	0.06920 0.96780 0.89950 0.08200
N 	N 	0.03700 0.99200 0.98110 -0.02400
O 	O 	0.01437 0.43497 0.54967 -0.44500
O 	O 	0.93761 0.47194 0.54915 -0.41700
O 	O 	0.97911 0.07114 0.65093 -0.40500
O 	O 	0.97696 0.07018 0.73091 -0.40200
N 	N 	0.89548 0.29298 0.69633 -0.21000
C 	C 	0.96910 0.43913 0.56236 0.42500
C 	C 	0.94994 0.40195 0.60028 -0.21200
C 	C 	0.98227 0.36769 0.62127 0.22600
H 	H 	0.01650 0.36860 0.61380 -0.04900
C 	C 	0.96514 0.33290 0.65245 -0.28700
H 	H 	0.98770 0.31010 0.66610 0.14200
C 	C 	0.91455 0.33061 0.66452 0.21500
C 	C 	0.88043 0.36587 0.64449 -0.23900
H 	H 	0.84630 0.36560 0.65260 0.11800
C 	C 	0.89970 0.40109 0.61225 0.15000
H 	H 	0.87790 0.42460 0.59850 -0.00300
C 	C 	0.91648 0.24304 0.69429 0.19000
C 	C 	0.92709 0.21991 0.65130 -0.22700
H 	H 	0.92190 0.23740 0.62280 0.11500
C 	C 	0.94541 0.17094 0.64998 0.13000
H 	H 	0.95230 0.15570 0.62060 0.00200
C 	C 	0.95349 0.14467 0.69184 -0.18200
C 	C 	0.97122 0.09163 0.69121 0.38900
C 	C 	0.94327 0.16826 0.73437 0.12700
H 	H 	0.94870 0.15070 0.76280 0.00700
C 	C 	0.92510 0.21739 0.73684 -0.22100
H 	H 	0.91890 0.23270 0.76630 0.11500
C 	C 	0.85049 0.30019 0.72406 0.25100
C 	C 	0.81370 0.26338 0.72420 -0.30600
H 	H 	0.81830 0.23380 0.70670 0.14100
C 	C 	0.96020 0.01880 0.83950 0.07000
H 	H 	0.93290 0.03190 0.82260 0.01300
C 	C 	0.95850 0.01940 0.88300 -0.10300
H 	H 	0.93080 0.03220 0.89950 0.07900
N 	N 	0.96300 0.00800 0.98110 -0.02700
O 	O 	0.93497 0.51437 0.95033 -0.39600
O 	O 	0.97194 0.43761 0.95085 -0.38500
O 	O 	0.57114 0.47911 0.84907 -0.40900
O 	O 	0.57018 0.47696 0.76909 -0.41100
N 	N 	0.79298 0.39548 0.80367 -0.20500
C 	C 	0.93913 0.46910 0.93764 0.37300
C 	C 	0.90195 0.44994 0.89972 -0.14900
C 	C 	0.86769 0.48227 0.87873 0.12000
H 	H 	0.86860 0.51650 0.88620 0.01000
C 	C 	0.83290 0.46514 0.84755 -0.21600
H 	H 	0.81010 0.48770 0.83390 0.11400
C 	C 	0.83061 0.41455 0.83548 0.17900
C 	C 	0.86587 0.38043 0.85551 -0.19700
H 	H 	0.86560 0.34630 0.84740 0.10700
C 	C 	0.90109 0.39970 0.88775 0.10200
H 	H 	0.92460 0.37790 0.90150 0.01800
C 	C 	0.74304 0.41648 0.80571 0.19000
C 	C 	0.71991 0.42709 0.84870 -0.22700
H 	H 	0.73740 0.42190 0.87720 0.11800
C 	C 	0.67094 0.44541 0.85002 0.13000
H 	H 	0.65570 0.45230 0.87940 0.00500
C 	C 	0.64467 0.45349 0.80816 -0.18300
C 	C 	0.59163 0.47122 0.80879 0.39200
C 	C 	0.66826 0.44327 0.76563 0.12800
H 	H 	0.65070 0.44870 0.73720 0.00300
C 	C 	0.71739 0.42510 0.76316 -0.22200
H 	H 	0.73270 0.41890 0.73370 0.11200
C 	C 	0.80019 0.35049 0.77594 0.25100
C 	C 	0.76338 0.31370 0.77580 -0.30600
H 	H 	0.73380 0.31830 0.79330 0.14300
C 	C 	0.51880 0.46020 0.66050 0.07300
H 	H 	0.53190 0.43290 0.67740 0.01200
C 	C 	0.51940 0.45850 0.61700 -0.13300
H 	H 	0.53220 0.43080 0.60050 0.08500
N 	N 	0.50800 0.46300 0.51890 -0.06300
O 	O 	0.06503 0.48563 0.95033 -0.40900
O 	O 	0.02806 0.56239 0.95085 -0.40600
O 	O 	0.42886 0.52089 0.84907 -0.40900
O 	O 	0.42982 0.52304 0.76909 -0.41100
N 	N 	0.20702 0.60452 0.80367 -0.20500
C 	C 	0.06087 0.53090 0.93764 0.37600
C 	C 	0.09805 0.55006 0.89972 -0.15800
C 	C 	0.13231 0.51773 0.87873 0.12400
H 	H 	0.13140 0.48350 0.88620 0.00400
C 	C 	0.16710 0.53486 0.84755 -0.22200
H 	H 	0.18990 0.51230 0.83390 0.11400
C 	C 	0.16939 0.58545 0.83548 0.18100
C 	C 	0.13413 0.61957 0.85551 -0.20300
H 	H 	0.13440 0.65370 0.84740 0.10700
C 	C 	0.09891 0.60030 0.88775 0.10600
H 	H 	0.07540 0.62210 0.90150 0.01200
C 	C 	0.25696 0.58352 0.80571 0.18900
C 	C 	0.28009 0.57291 0.84870 -0.22700
H 	H 	0.26260 0.57810 0.87720 0.11800
C 	C 	0.32906 0.55459 0.85002 0.13000
H 	H 	0.34430 0.54770 0.87940 0.00400
C 	C 	0.35533 0.54651 0.80816 -0.18400
C 	C 	0.40837 0.52878 0.80879 0.39200
C 	C 	0.33174 0.55673 0.76563 0.12800
H 	H 	0.34930 0.55130 0.73720 0.00300
C 	C 	0.28261 0.57490 0.76316 -0.22200
H 	H 	0.26730 0.58110 0.73370 0.11200
C 	C 	0.19981 0.64951 0.77594 0.24800
C 	C 	0.23662 0.68630 0.77580 -0.30200
H 	H 	0.26620 0.68170 0.79330 0.14300
C 	C 	0.48120 0.53980 0.66050 0.07300
H 	H 	0.46810 0.56710 0.67740 0.01300
C 	C 	0.48060 0.54150 0.61700 -0.13300
H 	H 	0.46780 0.56920 0.60050 0.08600
N 	N 	0.49200 0.53700 0.51890 -0.06300
O 	O 	0.51437 0.06503 0.95033 -0.40900
O 	O 	0.43761 0.02806 0.95085 -0.40600
O 	O 	0.47911 0.42886 0.84907 -0.40900
O 	O 	0.47696 0.42982 0.76909 -0.41100
N 	N 	0.39548 0.20702 0.80367 -0.20500
C 	C 	0.46910 0.06087 0.93764 0.37600
C 	C 	0.44994 0.09805 0.89972 -0.15800
C 	C 	0.48227 0.13231 0.87873 0.12300
H 	H 	0.51650 0.13140 0.88620 0.00400
C 	C 	0.46514 0.16710 0.84755 -0.22200
H 	H 	0.48770 0.18990 0.83390 0.11400
C 	C 	0.41455 0.16939 0.83548 0.18000
C 	C 	0.38043 0.13413 0.85551 -0.20300
H 	H 	0.34630 0.13440 0.84740 0.10600
C 	C 	0.39970 0.09891 0.88775 0.10600
H 	H 	0.37790 0.07540 0.90150 0.01100
C 	C 	0.41648 0.25696 0.80571 0.18900
C 	C 	0.42709 0.28009 0.84870 -0.22700
H 	H 	0.42190 0.26260 0.87720 0.11800
C 	C 	0.44541 0.32906 0.85002 0.13000
H 	H 	0.45230 0.34430 0.87940 0.00400
C 	C 	0.45349 0.35533 0.80816 -0.18400
C 	C 	0.47122 0.40837 0.80879 0.39200
C 	C 	0.44327 0.33174 0.76563 0.12700
H 	H 	0.44870 0.34930 0.73720 0.00300
C 	C 	0.42510 0.28261 0.76316 -0.22200
H 	H 	0.41890 0.26730 0.73370 0.11200
C 	C 	0.35049 0.19981 0.77594 0.24800
C 	C 	0.31370 0.23662 0.77580 -0.30300
H 	H 	0.31830 0.26620 0.79330 0.14200
C 	C 	0.46020 0.48120 0.66050 0.07300
H 	H 	0.43290 0.46810 0.67740 0.01200
C 	C 	0.45850 0.48060 0.61700 -0.13300
H 	H 	0.43080 0.46780 0.60050 0.08500
N 	N 	0.46300 0.49200 0.51890 -0.06300
O 	O 	0.48563 0.93497 0.95033 -0.39600
O 	O 	0.56239 0.97194 0.95085 -0.38500
O 	O 	0.52089 0.57114 0.84907 -0.40900
O 	O 	0.52304 0.57018 0.76909 -0.41100
N 	N 	0.60452 0.79298 0.80367 -0.20500
C 	C 	0.53090 0.93913 0.93764 0.37400
C 	C 	0.55006 0.90195 0.89972 -0.14900
C 	C 	0.51773 0.86769 0.87873 0.12000
H 	H 	0.48350 0.86860 0.88620 0.01000
C 	C 	0.53486 0.83290 0.84755 -0.21600
H 	H 	0.51230 0.81010 0.83390 0.11400
C 	C 	0.58545 0.83061 0.83548 0.17900
C 	C 	0.61957 0.86587 0.85551 -0.19700
H 	H 	0.65370 0.86560 0.84740 0.10800
C 	C 	0.60030 0.90109 0.88775 0.10300
H 	H 	0.62210 0.92460 0.90150 0.01900
C 	C 	0.58352 0.74304 0.80571 0.19000
C 	C 	0.57291 0.71991 0.84870 -0.22600
H 	H 	0.57810 0.73740 0.87720 0.11800
C 	C 	0.55459 0.67094 0.85002 0.13100
H 	H 	0.54770 0.65570 0.87940 0.00500
C 	C 	0.54651 0.64467 0.80816 -0.18300
C 	C 	0.52878 0.59163 0.80879 0.39200
C 	C 	0.55673 0.66826 0.76563 0.12800
H 	H 	0.55130 0.65070 0.73720 0.00300
C 	C 	0.57490 0.71739 0.76316 -0.22200
H 	H 	0.58110 0.73270 0.73370 0.11300
C 	C 	0.64951 0.80019 0.77594 0.25100
C 	C 	0.68630 0.76338 0.77580 -0.30500
H 	H 	0.68170 0.73380 0.79330 0.14400
C 	C 	0.53980 0.51880 0.66050 0.07300
H 	H 	0.56710 0.53190 0.67740 0.01300
C 	C 	0.54150 0.51940 0.61700 -0.13300
H 	H 	0.56920 0.53220 0.60050 0.08600
N 	N 	0.53700 0.50800 0.51890 -0.06300
Cu	Cu	0.47759 0.95571 0.50000 0.90600
Cu	Cu	0.52241 0.04429 0.50000 0.89900
Cu	Cu	0.04429 0.47759 0.50000 0.89900
Cu	Cu	0.95571 0.52241 0.50000 0.90600
Cu	Cu	0.02241 0.45571 -0.00000 0.88000
Cu	Cu	0.97759 0.54429 -0.00000 0.90100
Cu	Cu	0.45571 0.97759 -0.00000 0.90100
Cu	Cu	0.54429 0.02241 -0.00000 0.88000
Cu	Cu	0.00000 0.00000 0.35610 0.88200
Cu	Cu	-0.00000 0.00000 0.26145 0.90000
N 	N 	0.00000 -0.00000 0.18610 -0.22200
C 	C 	0.00000 0.00000 0.09390 -0.06000
C 	C 	-0.00000 0.00000 0.04490 0.19400
Cu	Cu	0.50000 0.50000 0.14390 0.90100
Cu	Cu	0.50000 0.50000 0.23855 0.91900
N 	N 	0.50000 0.50000 0.31390 -0.22000
C 	C 	0.50000 0.50000 0.40610 0.12700
C 	C 	0.50000 0.50000 0.45510 0.14500
Cu	Cu	0.00000 0.00000 0.64390 0.88200
Cu	Cu	-0.00000 0.00000 0.73855 0.90000
N 	N 	0.00000 -0.00000 0.81390 -0.24500
C 	C 	-0.00000 0.00000 0.90610 0.07400
C 	C 	0.00000 0.00000 0.95510 0.07000
Cu	Cu	0.50000 0.50000 0.85610 0.90400
Cu	Cu	0.50000 0.50000 0.76145 0.91900
N 	N 	0.50000 0.50000 0.68610 -0.22000
C 	C 	0.50000 0.50000 0.59390 0.12700
C 	C 	0.50000 0.50000 0.54490 0.14500
C 	C 	0.34377 0.15623 0.25000 -0.31700
H 	H 	0.36860 0.13140 0.25000 0.14700
C 	C 	0.27040 0.22960 0.25000 0.21700
H 	H 	0.24550 0.25450 0.25000 -0.04800
C 	C 	0.65623 0.84377 0.25000 -0.32200
H 	H 	0.63140 0.86860 0.25000 0.15100
C 	C 	0.72960 0.77040 0.25000 0.22200
H 	H 	0.75450 0.74550 0.25000 -0.04600
C 	C 	0.84377 0.34377 0.25000 -0.32200
H 	H 	0.86860 0.36860 0.25000 0.15100
C 	C 	0.77040 0.27040 0.25000 0.22100
H 	H 	0.74550 0.24550 0.25000 -0.04900
C 	C 	0.15623 0.65623 0.25000 -0.31700
H 	H 	0.13140 0.63140 0.25000 0.14700
C 	C 	0.22960 0.72960 0.25000 0.21800
H 	H 	0.25450 0.75450 0.25000 -0.04500
C 	C 	0.65623 0.84377 0.75000 -0.32200
H 	H 	0.63140 0.86860 0.75000 0.15200
C 	C 	0.72960 0.77040 0.75000 0.22400
H 	H 	0.75450 0.74550 0.75000 -0.04400
C 	C 	0.34377 0.15623 0.75000 -0.31800
H 	H 	0.36860 0.13140 0.75000 0.14800
C 	C 	0.27040 0.22960 0.75000 0.21900
H 	H 	0.24550 0.25450 0.75000 -0.04700
C 	C 	0.15623 0.65623 0.75000 -0.31800
H 	H 	0.13140 0.63140 0.75000 0.14800
C 	C 	0.22960 0.72960 0.75000 0.22000
H 	H 	0.25450 0.75450 0.75000 -0.04300
C 	C 	0.84377 0.34377 0.75000 -0.32200
H 	H 	0.86860 0.36860 0.75000 0.15200
C 	C 	0.77040 0.27040 0.75000 0.22300
H 	H 	0.74550 0.24550 0.75000 -0.04700
