data_crystal

_cell_length_a 26.70000
_cell_length_b 26.70000
_cell_length_c 26.72000
_cell_angle_alpha 90.00000
_cell_angle_beta  90.00000
_cell_angle_gamma 90.00000

_symmetry_space_group_name_	'P 1'
_symmetry_space_group_name_H-M	'P 1'

loop_
_symmetry_equiv_pos_as_xyz
  x,y,z

loop_
_atom_site_label
_atom_site_type_symbol
_atom_site_fract_x
_atom_site_fract_y
_atom_site_fract_z
_atom_site_charge
N 	N 	0.71110 0.89267 0.19566 -0.21600
O 	O 	0.93090 0.97499 0.24042 -0.37900
O 	O 	0.92942 0.98141 0.15649 -0.36500
O 	O 	0.56556 0.01475 0.05181 -0.45800
O 	O 	0.52840 0.93887 0.05125 -0.42800
O 	O 	0.01310 0.98630 0.07170 -0.06100
C 	C 	0.90977 0.97141 0.19837 0.36500
C 	C 	0.85694 0.95300 0.19782 -0.15200
C 	C 	0.83164 0.94726 0.15312 0.10600
H 	H 	0.84700 0.95610 0.12320 0.02000
C 	C 	0.78288 0.92814 0.15283 -0.21300
H 	H 	0.76590 0.92450 0.12270 0.11200
C 	C 	0.76010 0.91485 0.19633 0.18800
C 	C 	0.78491 0.92064 0.24112 -0.21200
H 	H 	0.76930 0.91150 0.27090 0.11100
C 	C 	0.83287 0.93994 0.24200 0.11100
H 	H 	0.84920 0.94420 0.27240 0.00800
C 	C 	0.67397 0.91192 0.16429 0.23100
C 	C 	0.67050 0.96264 0.15423 -0.29700
H 	H 	0.69370 0.98430 0.16870 0.14500
C 	C 	0.63431 0.98199 0.12387 0.24300
H 	H 	0.63260 0.01640 0.11850 -0.06300
C 	C 	0.59955 0.94987 0.10073 -0.23300
C 	C 	0.60210 0.89942 0.11170 0.17000
H 	H 	0.57830 0.87790 0.09810 -0.01500
C 	C 	0.63901 0.87994 0.14225 -0.26200
H 	H 	0.64060 0.84560 0.14810 0.12400
C 	C 	0.56136 0.96972 0.06532 0.44200
C 	C 	0.70315 0.84824 0.22343 0.24000
C 	C 	0.74018 0.81095 0.22466 -0.29200
H 	H 	0.77030 0.81600 0.20800 0.13900
N 	N 	0.00680 0.00090 0.32820 0.27300
C 	C 	0.96710 0.00290 0.36350 -0.01000
H 	H 	0.93330 0.99800 0.35650 -0.09200
N 	N 	0.98790 0.01360 0.41113 0.02400
C 	C 	0.04060 0.01820 0.40540 -0.10500
H 	H 	0.06350 0.02520 0.43070 0.06700
C 	C 	0.05230 0.01040 0.35410 0.16600
H 	H 	0.08410 0.01130 0.34000 -0.00500
C 	C 	0.96080 0.01200 0.45560 -0.06300
C 	C 	0.90950 0.01850 0.45510 -0.03600
H 	H 	0.89270 0.02490 0.42540 0.02800
N 	N 	0.28890 0.10733 0.19566 -0.20200
O 	O 	0.06910 0.02501 0.24042 -0.42400
O 	O 	0.07058 0.01859 0.15649 -0.39900
O 	O 	0.43444 0.98525 0.05181 -0.37800
O 	O 	0.47160 0.06113 0.05125 -0.40700
O 	O 	0.98690 0.01370 0.07170 -0.06900
C 	C 	0.09023 0.02859 0.19837 0.36900
C 	C 	0.14306 0.04700 0.19782 -0.16600
C 	C 	0.16836 0.05274 0.15312 0.10700
H 	H 	0.15300 0.04390 0.12320 0.01000
C 	C 	0.21712 0.07186 0.15283 -0.21800
H 	H 	0.23410 0.07550 0.12270 0.10700
C 	C 	0.23990 0.08515 0.19633 0.18400
C 	C 	0.21509 0.07936 0.24112 -0.21800
H 	H 	0.23070 0.08850 0.27090 0.10600
C 	C 	0.16713 0.06006 0.24200 0.11000
H 	H 	0.15080 0.05580 0.27240 -0.00100
C 	C 	0.32603 0.08808 0.16429 0.14700
C 	C 	0.32950 0.03736 0.15423 -0.14400
H 	H 	0.30630 0.01570 0.16870 0.07800
C 	C 	0.36569 0.01801 0.12387 -0.00600
H 	H 	0.36740 0.98360 0.11850 0.06900
C 	C 	0.40045 0.05013 0.10073 -0.10500
C 	C 	0.39790 0.10058 0.11170 0.06300
H 	H 	0.42170 0.12210 0.09810 0.01900
C 	C 	0.36099 0.12006 0.14225 -0.17400
H 	H 	0.35940 0.15440 0.14810 0.09200
C 	C 	0.43864 0.03028 0.06532 0.31500
C 	C 	0.29685 0.15176 0.22343 0.23300
C 	C 	0.25982 0.18905 0.22466 -0.28800
H 	H 	0.22970 0.18400 0.20800 0.13300
N 	N 	0.99320 0.99910 0.32820 -0.34700
C 	C 	0.03290 0.99710 0.36350 -0.14800
H 	H 	0.06670 0.00200 0.35650 -0.06400
N 	N 	0.01210 0.98640 0.41113 -0.18200
C 	C 	0.95940 0.98180 0.40540 0.31700
H 	H 	0.93650 0.97480 0.43070 -0.05100
C 	C 	0.94770 0.98960 0.35410 0.11700
H 	H 	0.91590 0.98870 0.34000 0.05500
C 	C 	0.03920 0.98800 0.45560 0.07000
C 	C 	0.09050 0.98150 0.45510 -0.13500
H 	H 	0.10730 0.97510 0.42540 0.08200
N 	N 	0.10733 0.71110 0.19566 -0.20200
O 	O 	0.02501 0.93090 0.24042 -0.40600
O 	O 	0.01859 0.92942 0.15649 -0.38500
O 	O 	0.98525 0.56556 0.05181 -0.37900
O 	O 	0.06113 0.52840 0.05125 -0.40700
O 	O 	0.01370 0.01310 0.07170 -0.13700
C 	C 	0.02859 0.90977 0.19837 0.37000
C 	C 	0.04700 0.85694 0.19782 -0.16200
C 	C 	0.05274 0.83164 0.15312 0.10800
H 	H 	0.04390 0.84700 0.12320 0.01200
C 	C 	0.07186 0.78288 0.15283 -0.21600
H 	H 	0.07550 0.76590 0.12270 0.10800
C 	C 	0.08515 0.76010 0.19633 0.18500
C 	C 	0.07936 0.78491 0.24112 -0.21700
H 	H 	0.08850 0.76930 0.27090 0.10700
C 	C 	0.06006 0.83287 0.24200 0.11200
H 	H 	0.05580 0.84920 0.27240 -0.00000
C 	C 	0.08808 0.67397 0.16429 0.14800
C 	C 	0.03736 0.67050 0.15423 -0.14600
H 	H 	0.01570 0.69370 0.16870 0.07800
C 	C 	0.01801 0.63431 0.12387 -0.00400
H 	H 	0.98360 0.63260 0.11850 0.06800
C 	C 	0.05013 0.59955 0.10073 -0.10600
C 	C 	0.10058 0.60210 0.11170 0.06400
H 	H 	0.12210 0.57830 0.09810 0.01900
C 	C 	0.12006 0.63901 0.14225 -0.17400
H 	H 	0.15440 0.64060 0.14810 0.09300
C 	C 	0.03028 0.56136 0.06532 0.31600
C 	C 	0.15176 0.70315 0.22343 0.23400
C 	C 	0.18905 0.74018 0.22466 -0.28800
H 	H 	0.18400 0.77030 0.20800 0.13700
N 	N 	0.99910 0.00680 0.32820 -0.10800
C 	C 	0.99710 0.96710 0.36350 -0.03800
H 	H 	0.00200 0.93330 0.35650 -0.21400
N 	N 	0.98640 0.98790 0.41113 -0.24300
C 	C 	0.98180 0.04060 0.40540 -0.05700
H 	H 	0.97480 0.06350 0.43070 0.09100
C 	C 	0.98960 0.05230 0.35410 0.05700
H 	H 	0.98870 0.08410 0.34000 0.00500
C 	C 	0.98800 0.96080 0.45560 0.05900
C 	C 	0.98150 0.90950 0.45510 -0.09200
H 	H 	0.97510 0.89270 0.42540 0.06600
N 	N 	0.89267 0.28890 0.19566 -0.21600
O 	O 	0.97499 0.06910 0.24042 -0.39500
O 	O 	0.98141 0.07058 0.15649 -0.37500
O 	O 	0.01475 0.43444 0.05181 -0.45700
O 	O 	0.93887 0.47160 0.05125 -0.42800
O 	O 	0.98630 0.98690 0.07170 0.03500
C 	C 	0.97141 0.09023 0.19837 0.36600
C 	C 	0.95300 0.14306 0.19782 -0.15400
C 	C 	0.94726 0.16836 0.15312 0.10600
H 	H 	0.95610 0.15300 0.12320 0.01800
C 	C 	0.92814 0.21712 0.15283 -0.21500
H 	H 	0.92450 0.23410 0.12270 0.11100
C 	C 	0.91485 0.23990 0.19633 0.18700
C 	C 	0.92064 0.21509 0.24112 -0.21300
H 	H 	0.91150 0.23070 0.27090 0.11000
C 	C 	0.93994 0.16713 0.24200 0.10900
H 	H 	0.94420 0.15080 0.27240 0.00800
C 	C 	0.91192 0.32603 0.16429 0.23200
C 	C 	0.96264 0.32950 0.15423 -0.29800
H 	H 	0.98430 0.30630 0.16870 0.14600
C 	C 	0.98199 0.36569 0.12387 0.24500
H 	H 	0.01640 0.36740 0.11850 -0.06400
C 	C 	0.94987 0.40045 0.10073 -0.23400
C 	C 	0.89942 0.39790 0.11170 0.17100
H 	H 	0.87790 0.42170 0.09810 -0.01500
C 	C 	0.87994 0.36099 0.14225 -0.26200
H 	H 	0.84560 0.35940 0.14810 0.12300
C 	C 	0.96972 0.43864 0.06532 0.44300
C 	C 	0.84824 0.29685 0.22343 0.23900
C 	C 	0.81095 0.25982 0.22466 -0.29300
H 	H 	0.81600 0.22970 0.20800 0.13400
N 	N 	0.00090 0.99320 0.32820 0.02700
C 	C 	0.00290 0.03290 0.36350 -0.06600
H 	H 	0.99800 0.06670 0.35650 0.02900
N 	N 	0.01360 0.01210 0.41113 0.09800
C 	C 	0.01820 0.95940 0.40540 0.27800
H 	H 	0.02520 0.93650 0.43070 -0.07500
C 	C 	0.01040 0.94770 0.35410 0.22600
H 	H 	0.01130 0.91590 0.34000 0.06000
C 	C 	0.01200 0.03920 0.45560 -0.07700
C 	C 	0.01850 0.09050 0.45510 -0.05900
H 	H 	0.02490 0.10730 0.42540 0.03600
N 	N 	0.78890 0.39267 0.30434 -0.20800
O 	O 	0.56910 0.47499 0.25958 -0.40700
O 	O 	0.57058 0.48141 0.34351 -0.38500
O 	O 	0.93444 0.51475 0.44819 -0.40200
O 	O 	0.97160 0.43887 0.44875 -0.39500
O 	O 	0.48690 0.48630 0.42830 -0.05600
C 	C 	0.59023 0.47141 0.30163 0.37000
C 	C 	0.64306 0.45300 0.30218 -0.15800
C 	C 	0.66836 0.44726 0.34688 0.10800
H 	H 	0.65300 0.45610 0.37680 0.01800
C 	C 	0.71712 0.42814 0.34717 -0.21500
H 	H 	0.73410 0.42450 0.37730 0.11300
C 	C 	0.73990 0.41485 0.30367 0.18700
C 	C 	0.71509 0.42064 0.25888 -0.21500
H 	H 	0.73070 0.41150 0.22910 0.10700
C 	C 	0.66713 0.43994 0.25800 0.11100
H 	H 	0.65080 0.44420 0.22760 0.00300
C 	C 	0.82603 0.41192 0.33571 0.18800
C 	C 	0.82950 0.46264 0.34577 -0.21500
H 	H 	0.80630 0.48430 0.33130 0.11200
C 	C 	0.86569 0.48199 0.37613 0.11600
H 	H 	0.86740 0.51640 0.38150 0.00900
C 	C 	0.90045 0.44987 0.39927 -0.15900
C 	C 	0.89790 0.39942 0.38830 0.11300
H 	H 	0.92170 0.37790 0.40190 0.01100
C 	C 	0.86099 0.37994 0.35775 -0.21100
H 	H 	0.85940 0.34560 0.35190 0.10900
C 	C 	0.93864 0.46972 0.43468 0.37700
C 	C 	0.79685 0.34824 0.27657 0.23800
C 	C 	0.75982 0.31095 0.27534 -0.29200
H 	H 	0.72970 0.31600 0.29200 0.13700
N 	N 	0.49320 0.50090 0.17180 -0.03900
C 	C 	0.53290 0.50290 0.13650 -0.06800
H 	H 	0.56670 0.49800 0.14350 -0.08500
N 	N 	0.51210 0.51360 0.08887 -0.07700
C 	C 	0.45940 0.51820 0.09460 0.11300
H 	H 	0.43650 0.52520 0.06930 0.00300
C 	C 	0.44770 0.51040 0.14590 0.14200
H 	H 	0.41590 0.51130 0.16000 0.02700
C 	C 	0.53920 0.51200 0.04440 -0.01000
C 	C 	0.59050 0.51850 0.04490 -0.05500
H 	H 	0.60730 0.52490 0.07460 0.04200
N 	N 	0.21110 0.60733 0.30434 -0.20900
O 	O 	0.43090 0.52501 0.25958 -0.40700
O 	O 	0.42942 0.51859 0.34351 -0.38500
O 	O 	0.06556 0.48525 0.44819 -0.41900
O 	O 	0.02840 0.56113 0.44875 -0.42400
O 	O 	0.51310 0.51370 0.42830 -0.05600
C 	C 	0.40977 0.52859 0.30163 0.37000
C 	C 	0.35694 0.54700 0.30218 -0.15800
C 	C 	0.33164 0.55274 0.34688 0.10800
H 	H 	0.34700 0.54390 0.37680 0.01800
C 	C 	0.28288 0.57186 0.34717 -0.21500
H 	H 	0.26590 0.57550 0.37730 0.11300
C 	C 	0.26010 0.58515 0.30367 0.18700
C 	C 	0.28491 0.57936 0.25888 -0.21600
H 	H 	0.26930 0.58850 0.22910 0.10700
C 	C 	0.33287 0.56006 0.25800 0.11100
H 	H 	0.34920 0.55580 0.22760 0.00300
C 	C 	0.17397 0.58808 0.33571 0.19000
C 	C 	0.17050 0.53736 0.34577 -0.22200
H 	H 	0.19370 0.51570 0.33130 0.11200
C 	C 	0.13431 0.51801 0.37613 0.12000
H 	H 	0.13260 0.48360 0.38150 0.00100
C 	C 	0.09955 0.55013 0.39927 -0.17100
C 	C 	0.10210 0.60058 0.38830 0.11900
H 	H 	0.07830 0.62210 0.40190 0.00100
C 	C 	0.13901 0.62006 0.35775 -0.21900
H 	H 	0.14060 0.65440 0.35190 0.10900
C 	C 	0.06136 0.53028 0.43468 0.38100
C 	C 	0.20315 0.65176 0.27657 0.23500
C 	C 	0.24018 0.68905 0.27534 -0.28800
H 	H 	0.27030 0.68400 0.29200 0.13700
N 	N 	0.50680 0.49910 0.17180 -0.03900
C 	C 	0.46710 0.49710 0.13650 -0.06800
H 	H 	0.43330 0.50200 0.14350 -0.08500
N 	N 	0.48790 0.48640 0.08887 -0.07700
C 	C 	0.54060 0.48180 0.09460 0.11300
H 	H 	0.56350 0.47480 0.06930 0.00300
C 	C 	0.55230 0.48960 0.14590 0.14200
H 	H 	0.58410 0.48870 0.16000 0.02700
C 	C 	0.46080 0.48800 0.04440 -0.01000
C 	C 	0.40950 0.48150 0.04490 -0.05500
H 	H 	0.39270 0.47510 0.07460 0.04100
N 	N 	0.39267 0.21110 0.30434 -0.20800
O 	O 	0.47499 0.43090 0.25958 -0.40700
O 	O 	0.48141 0.42942 0.34351 -0.38500
O 	O 	0.51475 0.06556 0.44819 -0.41900
O 	O 	0.43887 0.02840 0.44875 -0.42400
O 	O 	0.48630 0.51310 0.42830 -0.05600
C 	C 	0.47141 0.40977 0.30163 0.37000
C 	C 	0.45300 0.35694 0.30218 -0.15800
C 	C 	0.44726 0.33164 0.34688 0.10800
H 	H 	0.45610 0.34700 0.37680 0.01800
C 	C 	0.42814 0.28288 0.34717 -0.21500
H 	H 	0.42450 0.26590 0.37730 0.11300
C 	C 	0.41485 0.26010 0.30367 0.18600
C 	C 	0.42064 0.28491 0.25888 -0.21600
H 	H 	0.41150 0.26930 0.22910 0.10700
C 	C 	0.43994 0.33287 0.25800 0.11100
H 	H 	0.44420 0.34920 0.22760 0.00300
C 	C 	0.41192 0.17397 0.33571 0.19000
C 	C 	0.46264 0.17050 0.34577 -0.22200
H 	H 	0.48430 0.19370 0.33130 0.11200
C 	C 	0.48199 0.13431 0.37613 0.12000
H 	H 	0.51640 0.13260 0.38150 0.00200
C 	C 	0.44987 0.09955 0.39927 -0.17100
C 	C 	0.39942 0.10210 0.38830 0.11800
H 	H 	0.37790 0.07830 0.40190 0.00100
C 	C 	0.37994 0.13901 0.35775 -0.21800
H 	H 	0.34560 0.14060 0.35190 0.10800
C 	C 	0.46972 0.06136 0.43468 0.38100
C 	C 	0.34824 0.20315 0.27657 0.23400
C 	C 	0.31095 0.24018 0.27534 -0.28900
H 	H 	0.31600 0.27030 0.29200 0.13500
N 	N 	0.50090 0.50680 0.17180 -0.03900
C 	C 	0.50290 0.46710 0.13650 -0.06800
H 	H 	0.49800 0.43330 0.14350 -0.08500
N 	N 	0.51360 0.48790 0.08887 -0.07700
C 	C 	0.51820 0.54060 0.09460 0.11300
H 	H 	0.52520 0.56350 0.06930 0.00300
C 	C 	0.51040 0.55230 0.14590 0.14200
H 	H 	0.51130 0.58410 0.16000 0.02800
C 	C 	0.51200 0.46080 0.04440 -0.01000
C 	C 	0.51850 0.40950 0.04490 -0.05500
H 	H 	0.52490 0.39270 0.07460 0.04100
N 	N 	0.60733 0.78890 0.30434 -0.20800
O 	O 	0.52501 0.56910 0.25958 -0.40700
O 	O 	0.51859 0.57058 0.34351 -0.38500
O 	O 	0.48525 0.93444 0.44819 -0.40200
O 	O 	0.56113 0.97160 0.44875 -0.39500
O 	O 	0.51370 0.48690 0.42830 -0.05600
C 	C 	0.52859 0.59023 0.30163 0.37000
C 	C 	0.54700 0.64306 0.30218 -0.15800
C 	C 	0.55274 0.66836 0.34688 0.10900
H 	H 	0.54390 0.65300 0.37680 0.01800
C 	C 	0.57186 0.71712 0.34717 -0.21500
H 	H 	0.57550 0.73410 0.37730 0.11400
C 	C 	0.58515 0.73990 0.30367 0.18700
C 	C 	0.57936 0.71509 0.25888 -0.21500
H 	H 	0.58850 0.73070 0.22910 0.10800
C 	C 	0.56006 0.66713 0.25800 0.11200
H 	H 	0.55580 0.65080 0.22760 0.00300
C 	C 	0.58808 0.82603 0.33571 0.18800
C 	C 	0.53736 0.82950 0.34577 -0.21500
H 	H 	0.51570 0.80630 0.33130 0.11200
C 	C 	0.51801 0.86569 0.37613 0.11600
H 	H 	0.48360 0.86740 0.38150 0.00900
C 	C 	0.55013 0.90045 0.39927 -0.15900
C 	C 	0.60058 0.89790 0.38830 0.11400
H 	H 	0.62210 0.92170 0.40190 0.01100
C 	C 	0.62006 0.86099 0.35775 -0.21200
H 	H 	0.65440 0.85940 0.35190 0.11000
C 	C 	0.53028 0.93864 0.43468 0.37700
C 	C 	0.65176 0.79685 0.27657 0.23900
C 	C 	0.68905 0.75982 0.27534 -0.29100
H 	H 	0.68400 0.72970 0.29200 0.13800
N 	N 	0.49910 0.49320 0.17180 -0.03900
C 	C 	0.49710 0.53290 0.13650 -0.06800
H 	H 	0.50200 0.56670 0.14350 -0.08500
N 	N 	0.48640 0.51210 0.08887 -0.07700
C 	C 	0.48180 0.45940 0.09460 0.11300
H 	H 	0.47480 0.43650 0.06930 0.00300
C 	C 	0.48960 0.44770 0.14590 0.14200
H 	H 	0.48870 0.41590 0.16000 0.02700
C 	C 	0.48800 0.53920 0.04440 -0.01000
C 	C 	0.48150 0.59050 0.04490 -0.05500
H 	H 	0.47510 0.60730 0.07460 0.04200
N 	N 	0.28890 0.10733 0.80434 -0.20100
O 	O 	0.06910 0.02501 0.75958 -0.42400
O 	O 	0.07058 0.01859 0.84351 -0.39500
O 	O 	0.43444 0.98525 0.94819 -0.35600
O 	O 	0.47160 0.06113 0.94875 -0.38500
O 	O 	0.98690 0.01370 0.92830 -0.06300
C 	C 	0.09023 0.02859 0.80163 0.36900
C 	C 	0.14306 0.04700 0.80218 -0.16300
C 	C 	0.16836 0.05274 0.84688 0.10800
H 	H 	0.15300 0.04390 0.87680 0.01700
C 	C 	0.21712 0.07186 0.84717 -0.21600
H 	H 	0.23410 0.07550 0.87730 0.11400
C 	C 	0.23990 0.08515 0.80367 0.18600
C 	C 	0.21509 0.07936 0.75888 -0.21800
H 	H 	0.23070 0.08850 0.72910 0.10600
C 	C 	0.16713 0.06006 0.75800 0.11100
H 	H 	0.15080 0.05580 0.72760 -0.00100
C 	C 	0.32603 0.08808 0.83571 0.14600
C 	C 	0.32950 0.03736 0.84577 -0.13800
H 	H 	0.30630 0.01570 0.83130 0.07800
C 	C 	0.36569 0.01801 0.87613 -0.00900
H 	H 	0.36740 0.98360 0.88150 0.07600
C 	C 	0.40045 0.05013 0.89927 -0.09400
C 	C 	0.39790 0.10058 0.88830 0.06000
H 	H 	0.42170 0.12210 0.90190 0.02800
C 	C 	0.36099 0.12006 0.85775 -0.16700
H 	H 	0.35940 0.15440 0.85190 0.09500
C 	C 	0.43864 0.03028 0.93468 0.31200
C 	C 	0.29685 0.15176 0.77657 0.23400
C 	C 	0.25982 0.18905 0.77534 -0.28800
H 	H 	0.22970 0.18400 0.79200 0.13600
N 	N 	0.99320 0.99910 0.67180 -0.34700
C 	C 	0.03290 0.99710 0.63650 -0.14800
H 	H 	0.06670 0.00200 0.64350 -0.06400
N 	N 	0.01210 0.98640 0.58887 -0.18200
C 	C 	0.95940 0.98180 0.59460 0.31700
H 	H 	0.93650 0.97480 0.56930 -0.05100
C 	C 	0.94770 0.98960 0.64590 0.11700
H 	H 	0.91590 0.98870 0.66000 0.05500
C 	C 	0.03920 0.98800 0.54440 0.07000
C 	C 	0.09050 0.98150 0.54490 -0.13500
H 	H 	0.10730 0.97510 0.57460 0.08200
N 	N 	0.71110 0.89267 0.80434 -0.21500
O 	O 	0.93090 0.97499 0.75958 -0.37800
O 	O 	0.92942 0.98141 0.84351 -0.35900
O 	O 	0.56556 0.01475 0.94819 -0.43500
O 	O 	0.52840 0.93887 0.94875 -0.40500
O 	O 	0.01310 0.98630 0.92830 -0.05400
C 	C 	0.90977 0.97141 0.80163 0.36600
C 	C 	0.85694 0.95300 0.80218 -0.14800
C 	C 	0.83164 0.94726 0.84688 0.10900
H 	H 	0.84700 0.95610 0.87680 0.02700
C 	C 	0.78288 0.92814 0.84717 -0.21200
H 	H 	0.76590 0.92450 0.87730 0.11900
C 	C 	0.76010 0.91485 0.80367 0.18900
C 	C 	0.78491 0.92064 0.75888 -0.21200
H 	H 	0.76930 0.91150 0.72910 0.11100
C 	C 	0.83287 0.93994 0.75800 0.11100
H 	H 	0.84920 0.94420 0.72760 0.00900
C 	C 	0.67397 0.91192 0.83571 0.23100
C 	C 	0.67050 0.96264 0.84577 -0.29100
H 	H 	0.69370 0.98430 0.83130 0.14600
C 	C 	0.63431 0.98199 0.87613 0.24000
H 	H 	0.63260 0.01640 0.88150 -0.05600
C 	C 	0.59955 0.94987 0.89927 -0.22200
C 	C 	0.60210 0.89942 0.88830 0.16700
H 	H 	0.57830 0.87790 0.90190 -0.00600
C 	C 	0.63901 0.87994 0.85775 -0.25500
H 	H 	0.64060 0.84560 0.85190 0.12600
C 	C 	0.56136 0.96972 0.93468 0.44000
C 	C 	0.70315 0.84824 0.77657 0.24100
C 	C 	0.74018 0.81095 0.77534 -0.29200
H 	H 	0.77030 0.81600 0.79200 0.14200
N 	N 	0.00680 0.00090 0.67180 0.27300
C 	C 	0.96710 0.00290 0.63650 -0.01000
H 	H 	0.93330 0.99800 0.64350 -0.09200
N 	N 	0.98790 0.01360 0.58887 0.02400
C 	C 	0.04060 0.01820 0.59460 -0.10500
H 	H 	0.06350 0.02520 0.56930 0.06700
C 	C 	0.05230 0.01040 0.64590 0.16600
H 	H 	0.08410 0.01130 0.66000 -0.00500
C 	C 	0.96080 0.01200 0.54440 -0.06300
C 	C 	0.90950 0.01850 0.54490 -0.03600
H 	H 	0.89270 0.02490 0.57460 0.02800
N 	N 	0.89267 0.28890 0.80434 -0.21500
O 	O 	0.97499 0.06910 0.75958 -0.39500
O 	O 	0.98141 0.07058 0.84351 -0.37100
O 	O 	0.01475 0.43444 0.94819 -0.43500
O 	O 	0.93887 0.47160 0.94875 -0.40600
O 	O 	0.98630 0.98690 0.92830 0.04100
C 	C 	0.97141 0.09023 0.80163 0.36500
C 	C 	0.95300 0.14306 0.80218 -0.15100
C 	C 	0.94726 0.16836 0.84688 0.10800
H 	H 	0.95610 0.15300 0.87680 0.02500
C 	C 	0.92814 0.21712 0.84717 -0.21300
H 	H 	0.92450 0.23410 0.87730 0.11800
C 	C 	0.91485 0.23990 0.80367 0.18900
C 	C 	0.92064 0.21509 0.75888 -0.21300
H 	H 	0.91150 0.23070 0.72910 0.11000
C 	C 	0.93994 0.16713 0.75800 0.10900
H 	H 	0.94420 0.15080 0.72760 0.00800
C 	C 	0.91192 0.32603 0.83571 0.23100
C 	C 	0.96264 0.32950 0.84577 -0.29200
H 	H 	0.98430 0.30630 0.83130 0.14700
C 	C 	0.98199 0.36569 0.87613 0.24200
H 	H 	0.01640 0.36740 0.88150 -0.05800
C 	C 	0.94987 0.40045 0.89927 -0.22300
C 	C 	0.89942 0.39790 0.88830 0.16800
H 	H 	0.87790 0.42170 0.90190 -0.00600
C 	C 	0.87994 0.36099 0.85775 -0.25500
H 	H 	0.84560 0.35940 0.85190 0.12600
C 	C 	0.96972 0.43864 0.93468 0.44000
C 	C 	0.84824 0.29685 0.77657 0.24000
C 	C 	0.81095 0.25982 0.77534 -0.29200
H 	H 	0.81600 0.22970 0.79200 0.13800
N 	N 	0.00090 0.99320 0.67180 0.02700
C 	C 	0.00290 0.03290 0.63650 -0.06600
H 	H 	0.99800 0.06670 0.64350 0.02900
N 	N 	0.01360 0.01210 0.58887 0.09800
C 	C 	0.01820 0.95940 0.59460 0.27800
H 	H 	0.02520 0.93650 0.56930 -0.07500
C 	C 	0.01040 0.94770 0.64590 0.22600
H 	H 	0.01130 0.91590 0.66000 0.06000
C 	C 	0.01200 0.03920 0.54440 -0.07700
C 	C 	0.01850 0.09050 0.54490 -0.06000
H 	H 	0.02490 0.10730 0.57460 0.03600
N 	N 	0.10733 0.71110 0.80434 -0.20100
O 	O 	0.02501 0.93090 0.75958 -0.40500
O 	O 	0.01859 0.92942 0.84351 -0.38100
O 	O 	0.98525 0.56556 0.94819 -0.35700
O 	O 	0.06113 0.52840 0.94875 -0.38500
O 	O 	0.01370 0.01310 0.92830 -0.13100
C 	C 	0.02859 0.90977 0.80163 0.37000
C 	C 	0.04700 0.85694 0.80218 -0.15900
C 	C 	0.05274 0.83164 0.84688 0.10900
H 	H 	0.04390 0.84700 0.87680 0.01900
C 	C 	0.07186 0.78288 0.84717 -0.21400
H 	H 	0.07550 0.76590 0.87730 0.11600
C 	C 	0.08515 0.76010 0.80367 0.18600
C 	C 	0.07936 0.78491 0.75888 -0.21700
H 	H 	0.08850 0.76930 0.72910 0.10700
C 	C 	0.06006 0.83287 0.75800 0.11200
H 	H 	0.05580 0.84920 0.72760 0.00000
C 	C 	0.08808 0.67397 0.83571 0.14700
C 	C 	0.03736 0.67050 0.84577 -0.14000
H 	H 	0.01570 0.69370 0.83130 0.07900
C 	C 	0.01801 0.63431 0.87613 -0.00700
H 	H 	0.98360 0.63260 0.88150 0.07500
C 	C 	0.05013 0.59955 0.89927 -0.09500
C 	C 	0.10058 0.60210 0.88830 0.06200
H 	H 	0.12210 0.57830 0.90190 0.02800
C 	C 	0.12006 0.63901 0.85775 -0.16800
H 	H 	0.15440 0.64060 0.85190 0.09600
C 	C 	0.03028 0.56136 0.93468 0.31300
C 	C 	0.15176 0.70315 0.77657 0.23600
C 	C 	0.18905 0.74018 0.77534 -0.28800
H 	H 	0.18400 0.77030 0.79200 0.14000
N 	N 	0.99910 0.00680 0.67180 -0.10800
C 	C 	0.99710 0.96710 0.63650 -0.03700
H 	H 	0.00200 0.93330 0.64350 -0.21400
N 	N 	0.98640 0.98790 0.58887 -0.24300
C 	C 	0.98180 0.04060 0.59460 -0.05700
H 	H 	0.97480 0.06350 0.56930 0.09100
C 	C 	0.98960 0.05230 0.64590 0.05700
H 	H 	0.98870 0.08410 0.66000 0.00600
C 	C 	0.98800 0.96080 0.54440 0.05900
C 	C 	0.98150 0.90950 0.54490 -0.09200
H 	H 	0.97510 0.89270 0.57460 0.06600
N 	N 	0.21110 0.60733 0.69566 -0.20900
O 	O 	0.43090 0.52501 0.74042 -0.40600
O 	O 	0.42942 0.51859 0.65649 -0.38500
O 	O 	0.06556 0.48525 0.55181 -0.41900
O 	O 	0.02840 0.56113 0.55125 -0.42400
O 	O 	0.51310 0.51370 0.57170 -0.05600
C 	C 	0.40977 0.52859 0.69837 0.37000
C 	C 	0.35694 0.54700 0.69782 -0.15800
C 	C 	0.33164 0.55274 0.65312 0.10900
H 	H 	0.34700 0.54390 0.62320 0.01800
C 	C 	0.28288 0.57186 0.65283 -0.21500
H 	H 	0.26590 0.57550 0.62270 0.11300
C 	C 	0.26010 0.58515 0.69633 0.18700
C 	C 	0.28491 0.57936 0.74112 -0.21600
H 	H 	0.26930 0.58850 0.77090 0.11000
C 	C 	0.33287 0.56006 0.74200 0.11200
H 	H 	0.34920 0.55580 0.77240 0.00500
C 	C 	0.17397 0.58808 0.66429 0.19100
C 	C 	0.17050 0.53736 0.65423 -0.22200
H 	H 	0.19370 0.51570 0.66870 0.11200
C 	C 	0.13431 0.51801 0.62387 0.12100
H 	H 	0.13260 0.48360 0.61850 0.00200
C 	C 	0.09955 0.55013 0.60073 -0.17100
C 	C 	0.10210 0.60058 0.61170 0.11900
H 	H 	0.07830 0.62210 0.59810 0.00200
C 	C 	0.13901 0.62006 0.64225 -0.21900
H 	H 	0.14060 0.65440 0.64810 0.10900
C 	C 	0.06136 0.53028 0.56532 0.38100
C 	C 	0.20315 0.65176 0.72343 0.23600
C 	C 	0.24018 0.68905 0.72466 -0.28800
H 	H 	0.27030 0.68400 0.70800 0.13800
N 	N 	0.50680 0.49910 0.82820 -0.03900
C 	C 	0.46710 0.49710 0.86350 -0.06500
H 	H 	0.43330 0.50200 0.85650 -0.08600
N 	N 	0.48790 0.48640 0.91113 -0.07700
C 	C 	0.54060 0.48180 0.90540 0.11000
H 	H 	0.56350 0.47480 0.93070 0.00500
C 	C 	0.55230 0.48960 0.85410 0.14200
H 	H 	0.58410 0.48870 0.84000 0.03100
C 	C 	0.46080 0.48800 0.95560 0.00100
C 	C 	0.40950 0.48150 0.95510 -0.01800
H 	H 	0.39270 0.47510 0.92540 0.03700
N 	N 	0.78890 0.39267 0.69566 -0.20800
O 	O 	0.56910 0.47499 0.74042 -0.40600
O 	O 	0.57058 0.48141 0.65649 -0.38500
O 	O 	0.93444 0.51475 0.55181 -0.40200
O 	O 	0.97160 0.43887 0.55125 -0.39500
O 	O 	0.48690 0.48630 0.57170 -0.05600
C 	C 	0.59023 0.47141 0.69837 0.37000
C 	C 	0.64306 0.45300 0.69782 -0.15800
C 	C 	0.66836 0.44726 0.65312 0.10900
H 	H 	0.65300 0.45610 0.62320 0.01800
C 	C 	0.71712 0.42814 0.65283 -0.21500
H 	H 	0.73410 0.42450 0.62270 0.11300
C 	C 	0.73990 0.41485 0.69633 0.18800
C 	C 	0.71509 0.42064 0.74112 -0.21500
H 	H 	0.73070 0.41150 0.77090 0.11000
C 	C 	0.66713 0.43994 0.74200 0.11200
H 	H 	0.65080 0.44420 0.77240 0.00500
C 	C 	0.82603 0.41192 0.66429 0.18800
C 	C 	0.82950 0.46264 0.65423 -0.21500
H 	H 	0.80630 0.48430 0.66870 0.11300
C 	C 	0.86569 0.48199 0.62387 0.11600
H 	H 	0.86740 0.51640 0.61850 0.00900
C 	C 	0.90045 0.44987 0.60073 -0.15900
C 	C 	0.89790 0.39942 0.61170 0.11400
H 	H 	0.92170 0.37790 0.59810 0.01100
C 	C 	0.86099 0.37994 0.64225 -0.21200
H 	H 	0.85940 0.34560 0.64810 0.10900
C 	C 	0.93864 0.46972 0.56532 0.37700
C 	C 	0.79685 0.34824 0.72343 0.23900
C 	C 	0.75982 0.31095 0.72466 -0.29200
H 	H 	0.72970 0.31600 0.70800 0.13800
N 	N 	0.49320 0.50090 0.82820 -0.03900
C 	C 	0.53290 0.50290 0.86350 -0.06500
H 	H 	0.56670 0.49800 0.85650 -0.08600
N 	N 	0.51210 0.51360 0.91113 -0.07700
C 	C 	0.45940 0.51820 0.90540 0.11000
H 	H 	0.43650 0.52520 0.93070 0.00500
C 	C 	0.44770 0.51040 0.85410 0.14200
H 	H 	0.41590 0.51130 0.84000 0.03000
C 	C 	0.53920 0.51200 0.95560 0.00100
C 	C 	0.59050 0.51850 0.95510 -0.01800
H 	H 	0.60730 0.52490 0.92540 0.03700
N 	N 	0.60733 0.78890 0.69566 -0.20800
O 	O 	0.52501 0.56910 0.74042 -0.40600
O 	O 	0.51859 0.57058 0.65649 -0.38500
O 	O 	0.48525 0.93444 0.55181 -0.40200
O 	O 	0.56113 0.97160 0.55125 -0.39500
O 	O 	0.51370 0.48690 0.57170 -0.05600
C 	C 	0.52859 0.59023 0.69837 0.37000
C 	C 	0.54700 0.64306 0.69782 -0.15700
C 	C 	0.55274 0.66836 0.65312 0.10900
H 	H 	0.54390 0.65300 0.62320 0.01800
C 	C 	0.57186 0.71712 0.65283 -0.21500
H 	H 	0.57550 0.73410 0.62270 0.11400
C 	C 	0.58515 0.73990 0.69633 0.18800
C 	C 	0.57936 0.71509 0.74112 -0.21500
H 	H 	0.58850 0.73070 0.77090 0.11100
C 	C 	0.56006 0.66713 0.74200 0.11300
H 	H 	0.55580 0.65080 0.77240 0.00500
C 	C 	0.58808 0.82603 0.66429 0.18900
C 	C 	0.53736 0.82950 0.65423 -0.21600
H 	H 	0.51570 0.80630 0.66870 0.11300
C 	C 	0.51801 0.86569 0.62387 0.11700
H 	H 	0.48360 0.86740 0.61850 0.00900
C 	C 	0.55013 0.90045 0.60073 -0.15900
C 	C 	0.60058 0.89790 0.61170 0.11400
H 	H 	0.62210 0.92170 0.59810 0.01100
C 	C 	0.62006 0.86099 0.64225 -0.21200
H 	H 	0.65440 0.85940 0.64810 0.11000
C 	C 	0.53028 0.93864 0.56532 0.37700
C 	C 	0.65176 0.79685 0.72343 0.24000
C 	C 	0.68905 0.75982 0.72466 -0.29100
H 	H 	0.68400 0.72970 0.70800 0.13900
N 	N 	0.49910 0.49320 0.82820 -0.04000
C 	C 	0.49710 0.53290 0.86350 -0.06500
H 	H 	0.50200 0.56670 0.85650 -0.08600
N 	N 	0.48640 0.51210 0.91113 -0.07700
C 	C 	0.48180 0.45940 0.90540 0.11000
H 	H 	0.47480 0.43650 0.93070 0.00500
C 	C 	0.48960 0.44770 0.85410 0.14200
H 	H 	0.48870 0.41590 0.84000 0.03000
C 	C 	0.48800 0.53920 0.95560 0.00100
C 	C 	0.48150 0.59050 0.95510 -0.01800
H 	H 	0.47510 0.60730 0.92540 0.03800
N 	N 	0.39267 0.21110 0.69566 -0.20900
O 	O 	0.47499 0.43090 0.74042 -0.40700
O 	O 	0.48141 0.42942 0.65649 -0.38500
O 	O 	0.51475 0.06556 0.55181 -0.41900
O 	O 	0.43887 0.02840 0.55125 -0.42400
O 	O 	0.48630 0.51310 0.57170 -0.05600
C 	C 	0.47141 0.40977 0.69837 0.37000
C 	C 	0.45300 0.35694 0.69782 -0.15800
C 	C 	0.44726 0.33164 0.65312 0.10800
H 	H 	0.45610 0.34700 0.62320 0.01800
C 	C 	0.42814 0.28288 0.65283 -0.21500
H 	H 	0.42450 0.26590 0.62270 0.11300
C 	C 	0.41485 0.26010 0.69633 0.18700
C 	C 	0.42064 0.28491 0.74112 -0.21600
H 	H 	0.41150 0.26930 0.77090 0.11000
C 	C 	0.43994 0.33287 0.74200 0.11200
H 	H 	0.44420 0.34920 0.77240 0.00500
C 	C 	0.41192 0.17397 0.66429 0.19000
C 	C 	0.46264 0.17050 0.65423 -0.22200
H 	H 	0.48430 0.19370 0.66870 0.11200
C 	C 	0.48199 0.13431 0.62387 0.12000
H 	H 	0.51640 0.13260 0.61850 0.00200
C 	C 	0.44987 0.09955 0.60073 -0.17100
C 	C 	0.39942 0.10210 0.61170 0.11800
H 	H 	0.37790 0.07830 0.59810 0.00100
C 	C 	0.37994 0.13901 0.64225 -0.21900
H 	H 	0.34560 0.14060 0.64810 0.10800
C 	C 	0.46972 0.06136 0.56532 0.38100
C 	C 	0.34824 0.20315 0.72343 0.23500
C 	C 	0.31095 0.24018 0.72466 -0.28900
H 	H 	0.31600 0.27030 0.70800 0.13600
N 	N 	0.50090 0.50680 0.82820 -0.03900
C 	C 	0.50290 0.46710 0.86350 -0.06500
H 	H 	0.49800 0.43330 0.85650 -0.08600
N 	N 	0.51360 0.48790 0.91113 -0.07700
C 	C 	0.51820 0.54060 0.90540 0.10900
H 	H 	0.52520 0.56350 0.93070 0.00500
C 	C 	0.51040 0.55230 0.85410 0.14200
H 	H 	0.51130 0.58410 0.84000 0.03100
C 	C 	0.51200 0.46080 0.95560 0.00100
C 	C 	0.51850 0.40950 0.95510 -0.01800
H 	H 	0.52490 0.39270 0.92540 0.03700
Cu	Cu	0.00000 0.00000 0.14982 0.90500
Cu	Cu	0.00000 0.00000 0.24957 0.88200
Cu	Cu	0.50000 0.50000 0.35018 0.93400
Cu	Cu	0.50000 0.50000 0.25043 0.91000
Cu	Cu	0.00000 0.00000 0.85018 0.90600
Cu	Cu	0.00000 0.00000 0.75043 0.88200
Cu	Cu	0.50000 0.50000 0.64982 0.93400
Cu	Cu	0.50000 0.50000 0.74957 0.91000
Cu	Cu	0.52201 0.04414 -0.00000 0.88200
Cu	Cu	0.47799 0.95586 -0.00000 0.89100
Cu	Cu	0.95586 0.52201 -0.00000 0.89100
Cu	Cu	0.04414 0.47799 -0.00000 0.88200
Cu	Cu	0.97799 0.54414 0.50000 0.91500
Cu	Cu	0.02201 0.45586 0.50000 0.88600
Cu	Cu	0.54414 0.02201 0.50000 0.88600
Cu	Cu	0.45586 0.97799 0.50000 0.91500
C 	C 	0.65983 0.84017 0.25000 -0.30900
H 	H 	0.63520 0.86480 0.25000 0.14600
C 	C 	0.73237 0.76763 0.25000 0.21400
H 	H 	0.75700 0.74300 0.25000 -0.04300
C 	C 	0.34017 0.15983 0.25000 -0.30300
H 	H 	0.36480 0.13520 0.25000 0.14100
C 	C 	0.26763 0.23237 0.25000 0.20800
H 	H 	0.24300 0.25700 0.25000 -0.04600
C 	C 	0.15983 0.65983 0.25000 -0.30400
H 	H 	0.13520 0.63520 0.25000 0.14100
C 	C 	0.23237 0.73237 0.25000 0.21000
H 	H 	0.25700 0.75700 0.25000 -0.04200
C 	C 	0.84017 0.34017 0.25000 -0.30800
H 	H 	0.86480 0.36480 0.25000 0.14600
C 	C 	0.76763 0.26763 0.25000 0.21300
H 	H 	0.74300 0.24300 0.25000 -0.04700
C 	C 	0.34017 0.15983 0.75000 -0.30300
H 	H 	0.36480 0.13520 0.75000 0.14200
C 	C 	0.26763 0.23237 0.75000 0.21000
H 	H 	0.24300 0.25700 0.75000 -0.04500
C 	C 	0.65983 0.84017 0.75000 -0.30900
H 	H 	0.63520 0.86480 0.75000 0.14700
C 	C 	0.73237 0.76763 0.75000 0.21600
H 	H 	0.75700 0.74300 0.75000 -0.04100
C 	C 	0.84017 0.34017 0.75000 -0.30900
H 	H 	0.86480 0.36480 0.75000 0.14700
C 	C 	0.76763 0.26763 0.75000 0.21500
H 	H 	0.74300 0.24300 0.75000 -0.04600
C 	C 	0.15983 0.65983 0.75000 -0.30400
H 	H 	0.13520 0.63520 0.75000 0.14200
C 	C 	0.23237 0.73237 0.75000 0.21200
H 	H 	0.25700 0.75700 0.75000 -0.04000
C 	C 	0.98660 0.00700 0.50000 0.14400
H 	H 	0.02490 0.00830 0.50000 -0.13300
C 	C 	0.88360 0.01510 0.50000 -0.04700
H 	H 	0.84910 0.00700 0.50000 0.03500
C 	C 	0.01340 0.99300 0.50000 0.05100
H 	H 	0.97510 0.99170 0.50000 -0.04200
C 	C 	0.11640 0.98490 0.50000 0.05700
H 	H 	0.15090 0.99300 0.50000 0.01700
C 	C 	0.99300 0.98660 0.50000 0.04500
H 	H 	0.99170 0.02490 0.50000 -0.08700
C 	C 	0.98490 0.88360 0.50000 0.02500
H 	H 	0.99300 0.84910 0.50000 0.02900
C 	C 	0.00700 0.01340 0.50000 0.15600
H 	H 	0.00830 0.97510 0.50000 -0.07800
C 	C 	0.01510 0.11640 0.50000 -0.03400
H 	H 	0.00700 0.15090 0.50000 0.02800
C 	C 	0.51340 0.50700 -0.00000 0.09400
H 	H 	0.47510 0.50830 -0.00000 -0.08600
C 	C 	0.61640 0.51510 -0.00000 -0.06700
H 	H 	0.65090 0.50700 -0.00000 0.04100
C 	C 	0.48660 0.49300 -0.00000 0.09400
H 	H 	0.52490 0.49170 -0.00000 -0.08600
C 	C 	0.38360 0.48490 -0.00000 -0.06800
H 	H 	0.34910 0.49300 -0.00000 0.04000
C 	C 	0.50700 0.48660 -0.00000 0.09400
H 	H 	0.50830 0.52490 -0.00000 -0.08600
C 	C 	0.51510 0.38360 -0.00000 -0.06800
H 	H 	0.50700 0.34910 -0.00000 0.04000
C 	C 	0.49300 0.51340 -0.00000 0.09400
H 	H 	0.49170 0.47510 -0.00000 -0.08600
C 	C 	0.48490 0.61640 -0.00000 -0.06700
H 	H 	0.49300 0.65090 -0.00000 0.04100
