data_crystal

_cell_length_a 27.25900
_cell_length_b 27.25900
_cell_length_c 27.25900
_cell_angle_alpha 90.00000
_cell_angle_beta  90.00000
_cell_angle_gamma 90.00000

_symmetry_space_group_name_	'P 1'
_symmetry_space_group_name_H-M	'P 1'

loop_
_symmetry_equiv_pos_as_xyz
  x,y,z

loop_
_atom_site_label
_atom_site_type_symbol
_atom_site_fract_x
_atom_site_fract_y
_atom_site_fract_z
_atom_site_charge
O 	O 	0.44689 0.94670 0.66918 -0.53000
C 	C 	0.42273 0.92567 0.63787 0.47700
C 	C 	0.39539 0.87990 0.65305 -0.17500
O 	O 	0.42226 0.93663 0.59295 -0.53900
C 	C 	0.37026 0.85116 0.61818 0.09200
C 	C 	0.39220 0.86765 0.70336 0.08300
H 	H 	0.37050 0.86050 0.58540 0.00000
C 	C 	0.34616 0.81077 0.63166 -0.15300
C 	C 	0.36582 0.82614 0.71625 -0.14800
H 	H 	0.40740 0.88690 0.72710 0.00900
H 	H 	0.33150 0.79130 0.60780 0.08200
C 	C 	0.34251 0.79691 0.68232 0.07300
H 	H 	0.36380 0.81770 0.74920 0.08400
C 	C 	0.31477 0.75349 0.69679 0.01700
C 	C 	0.27359 0.73863 0.67033 -0.08300
H 	H 	0.26380 0.75620 0.64280 0.05900
H 	H 	0.61210 0.02920 0.49010 0.21500
H 	H 	0.59700 0.98240 0.47640 0.00700
O 	O 	0.55311 0.05330 0.66918 -0.53500
C 	C 	0.57727 0.07433 0.63787 0.47700
C 	C 	0.60461 0.12010 0.65305 -0.17700
O 	O 	0.57774 0.06337 0.59295 -0.54300
C 	C 	0.62974 0.14884 0.61818 0.09200
C 	C 	0.60780 0.13235 0.70336 0.08200
H 	H 	0.62950 0.13950 0.58540 -0.00200
C 	C 	0.65384 0.18923 0.63166 -0.15500
C 	C 	0.63418 0.17386 0.71625 -0.15000
H 	H 	0.59260 0.11310 0.72710 0.00700
H 	H 	0.66850 0.20870 0.60780 0.08100
C 	C 	0.65749 0.20309 0.68232 0.07300
H 	H 	0.63620 0.18230 0.74920 0.08300
C 	C 	0.68523 0.24651 0.69679 0.01600
C 	C 	0.72641 0.26137 0.67033 -0.08400
H 	H 	0.73620 0.24380 0.64280 0.05800
H 	H 	0.38790 0.97080 0.49010 0.21100
H 	H 	0.40300 0.01760 0.47640 -0.00600
O 	O 	0.55311 0.94670 0.33082 -0.53100
C 	C 	0.57727 0.92567 0.36213 0.47600
C 	C 	0.60461 0.87990 0.34695 -0.17600
O 	O 	0.57774 0.93663 0.40705 -0.54000
C 	C 	0.62974 0.85116 0.38182 0.09200
C 	C 	0.60780 0.86765 0.29664 0.08200
H 	H 	0.62950 0.86050 0.41460 -0.00100
C 	C 	0.65384 0.81077 0.36834 -0.15400
C 	C 	0.63418 0.82614 0.28375 -0.14900
H 	H 	0.59260 0.88690 0.27290 0.00800
H 	H 	0.66850 0.79130 0.39220 0.08100
C 	C 	0.65749 0.79691 0.31768 0.07200
H 	H 	0.63620 0.81770 0.25080 0.08300
C 	C 	0.68523 0.75349 0.30321 0.01600
C 	C 	0.72641 0.73863 0.32967 -0.08400
H 	H 	0.73620 0.75620 0.35720 0.05800
H 	H 	0.38790 0.02920 0.50990 0.21400
H 	H 	0.40300 0.98240 0.52360 0.00600
O 	O 	0.44689 0.05330 0.33082 -0.53500
C 	C 	0.42273 0.07433 0.36213 0.47700
C 	C 	0.39539 0.12010 0.34695 -0.17800
O 	O 	0.42226 0.06337 0.40705 -0.54300
C 	C 	0.37026 0.14884 0.38182 0.09200
C 	C 	0.39220 0.13235 0.29664 0.08200
H 	H 	0.37050 0.13950 0.41460 -0.00200
C 	C 	0.34616 0.18923 0.36834 -0.15500
C 	C 	0.36582 0.17386 0.28375 -0.15000
H 	H 	0.40740 0.11310 0.27290 0.00600
H 	H 	0.33150 0.20870 0.39220 0.08100
C 	C 	0.34251 0.20309 0.31768 0.07300
H 	H 	0.36380 0.18230 0.25080 0.08300
C 	C 	0.31477 0.24651 0.30321 0.01600
C 	C 	0.27359 0.26137 0.32967 -0.08400
H 	H 	0.26380 0.24380 0.35720 0.05800
H 	H 	0.61210 0.97080 0.50990 0.21100
H 	H 	0.59700 0.01760 0.52360 -0.00600
O 	O 	0.66918 0.44689 0.94670 -0.53100
C 	C 	0.63787 0.42273 0.92567 0.47600
C 	C 	0.65305 0.39539 0.87990 -0.17600
O 	O 	0.59295 0.42226 0.93663 -0.54000
C 	C 	0.61818 0.37026 0.85116 0.09100
C 	C 	0.70336 0.39220 0.86765 0.08200
H 	H 	0.58540 0.37050 0.86050 -0.00100
C 	C 	0.63166 0.34616 0.81077 -0.15400
C 	C 	0.71625 0.36582 0.82614 -0.14900
H 	H 	0.72710 0.40740 0.88690 0.00800
H 	H 	0.60780 0.33150 0.79130 0.08100
C 	C 	0.68232 0.34251 0.79691 0.07200
H 	H 	0.74920 0.36380 0.81770 0.08300
C 	C 	0.69679 0.31477 0.75349 0.01600
C 	C 	0.67033 0.27359 0.73863 -0.08400
H 	H 	0.64280 0.26380 0.75620 0.05800
H 	H 	0.49010 0.61210 0.02920 0.21400
H 	H 	0.47640 0.59700 0.98240 0.00600
O 	O 	0.66918 0.55311 0.05330 -0.53500
C 	C 	0.63787 0.57727 0.07433 0.47700
C 	C 	0.65305 0.60461 0.12010 -0.17700
O 	O 	0.59295 0.57774 0.06337 -0.54300
C 	C 	0.61818 0.62974 0.14884 0.09200
C 	C 	0.70336 0.60780 0.13235 0.08200
H 	H 	0.58540 0.62950 0.13950 -0.00200
C 	C 	0.63166 0.65384 0.18923 -0.15500
C 	C 	0.71625 0.63418 0.17386 -0.15000
H 	H 	0.72710 0.59260 0.11310 0.00700
H 	H 	0.60780 0.66850 0.20870 0.08100
C 	C 	0.68232 0.65749 0.20309 0.07300
H 	H 	0.74920 0.63620 0.18230 0.08300
C 	C 	0.69679 0.68523 0.24651 0.01600
C 	C 	0.67033 0.72641 0.26137 -0.08400
H 	H 	0.64280 0.73620 0.24380 0.05800
H 	H 	0.49010 0.38790 0.97080 0.21100
H 	H 	0.47640 0.40300 0.01760 -0.00600
O 	O 	0.33082 0.55311 0.94670 -0.53100
C 	C 	0.36213 0.57727 0.92567 0.47600
C 	C 	0.34695 0.60461 0.87990 -0.17600
O 	O 	0.40705 0.57774 0.93663 -0.54000
C 	C 	0.38182 0.62974 0.85116 0.09200
C 	C 	0.29664 0.60780 0.86765 0.08200
H 	H 	0.41460 0.62950 0.86050 -0.00100
C 	C 	0.36834 0.65384 0.81077 -0.15400
C 	C 	0.28375 0.63418 0.82614 -0.14900
H 	H 	0.27290 0.59260 0.88690 0.00800
H 	H 	0.39220 0.66850 0.79130 0.08100
C 	C 	0.31768 0.65749 0.79691 0.07200
H 	H 	0.25080 0.63620 0.81770 0.08300
C 	C 	0.30321 0.68523 0.75349 0.01600
C 	C 	0.32967 0.72641 0.73863 -0.08400
H 	H 	0.35720 0.73620 0.75620 0.05800
H 	H 	0.50990 0.38790 0.02920 0.21400
H 	H 	0.52360 0.40300 0.98240 0.00600
O 	O 	0.33082 0.44689 0.05330 -0.53500
C 	C 	0.36213 0.42273 0.07433 0.47700
C 	C 	0.34695 0.39539 0.12010 -0.17800
O 	O 	0.40705 0.42226 0.06337 -0.54300
C 	C 	0.38182 0.37026 0.14884 0.09200
C 	C 	0.29664 0.39220 0.13235 0.08200
H 	H 	0.41460 0.37050 0.13950 -0.00200
C 	C 	0.36834 0.34616 0.18923 -0.15500
C 	C 	0.28375 0.36582 0.17386 -0.15000
H 	H 	0.27290 0.40740 0.11310 0.00600
H 	H 	0.39220 0.33150 0.20870 0.08100
C 	C 	0.31768 0.34251 0.20309 0.07300
H 	H 	0.25080 0.36380 0.18230 0.08300
C 	C 	0.30321 0.31477 0.24651 0.01600
C 	C 	0.32967 0.27359 0.26137 -0.08400
H 	H 	0.35720 0.26380 0.24380 0.05800
H 	H 	0.50990 0.61210 0.97080 0.21100
H 	H 	0.52360 0.59700 0.01760 -0.00600
O 	O 	0.94670 0.66918 0.44689 -0.53100
C 	C 	0.92567 0.63787 0.42273 0.47600
C 	C 	0.87990 0.65305 0.39539 -0.17600
O 	O 	0.93663 0.59295 0.42226 -0.54000
C 	C 	0.85116 0.61818 0.37026 0.09100
C 	C 	0.86765 0.70336 0.39220 0.08200
H 	H 	0.86050 0.58540 0.37050 -0.00100
C 	C 	0.81077 0.63166 0.34616 -0.15400
C 	C 	0.82614 0.71625 0.36582 -0.14900
H 	H 	0.88690 0.72710 0.40740 0.00800
H 	H 	0.79130 0.60780 0.33150 0.08100
C 	C 	0.79691 0.68232 0.34251 0.07200
H 	H 	0.81770 0.74920 0.36380 0.08300
C 	C 	0.75349 0.69679 0.31477 0.01600
C 	C 	0.73863 0.67033 0.27359 -0.08400
H 	H 	0.75620 0.64280 0.26380 0.05800
H 	H 	0.02920 0.49010 0.61210 0.21400
H 	H 	0.98240 0.47640 0.59700 0.00600
O 	O 	0.05330 0.66918 0.55311 -0.53500
C 	C 	0.07433 0.63787 0.57727 0.47700
C 	C 	0.12010 0.65305 0.60461 -0.17700
O 	O 	0.06337 0.59295 0.57774 -0.54300
C 	C 	0.14884 0.61818 0.62974 0.09200
C 	C 	0.13235 0.70336 0.60780 0.08200
H 	H 	0.13950 0.58540 0.62950 -0.00200
C 	C 	0.18923 0.63166 0.65384 -0.15500
C 	C 	0.17386 0.71625 0.63418 -0.15000
H 	H 	0.11310 0.72710 0.59260 0.00700
H 	H 	0.20870 0.60780 0.66850 0.08100
C 	C 	0.20309 0.68232 0.65749 0.07300
H 	H 	0.18230 0.74920 0.63620 0.08300
C 	C 	0.24651 0.69679 0.68523 0.01600
C 	C 	0.26137 0.67033 0.72641 -0.08400
H 	H 	0.24380 0.64280 0.73620 0.05800
H 	H 	0.97080 0.49010 0.38790 0.21100
H 	H 	0.01760 0.47640 0.40300 -0.00600
O 	O 	0.94670 0.33082 0.55311 -0.53100
C 	C 	0.92567 0.36213 0.57727 0.47600
C 	C 	0.87990 0.34695 0.60461 -0.17600
O 	O 	0.93663 0.40705 0.57774 -0.54000
C 	C 	0.85116 0.38182 0.62974 0.09200
C 	C 	0.86765 0.29664 0.60780 0.08200
H 	H 	0.86050 0.41460 0.62950 -0.00100
C 	C 	0.81077 0.36834 0.65384 -0.15400
C 	C 	0.82614 0.28375 0.63418 -0.14900
H 	H 	0.88690 0.27290 0.59260 0.00800
H 	H 	0.79130 0.39220 0.66850 0.08100
C 	C 	0.79691 0.31768 0.65749 0.07200
H 	H 	0.81770 0.25080 0.63620 0.08300
C 	C 	0.75349 0.30321 0.68523 0.01600
C 	C 	0.73863 0.32967 0.72641 -0.08400
H 	H 	0.75620 0.35720 0.73620 0.05800
H 	H 	0.02920 0.50990 0.38790 0.21400
H 	H 	0.98240 0.52360 0.40300 0.00600
O 	O 	0.05330 0.33082 0.44689 -0.53500
C 	C 	0.07433 0.36213 0.42273 0.47700
C 	C 	0.12010 0.34695 0.39539 -0.17800
O 	O 	0.06337 0.40705 0.42226 -0.54300
C 	C 	0.14884 0.38182 0.37026 0.09200
C 	C 	0.13235 0.29664 0.39220 0.08200
H 	H 	0.13950 0.41460 0.37050 -0.00200
C 	C 	0.18923 0.36834 0.34616 -0.15500
C 	C 	0.17386 0.28375 0.36582 -0.15000
H 	H 	0.11310 0.27290 0.40740 0.00600
H 	H 	0.20870 0.39220 0.33150 0.08100
C 	C 	0.20309 0.31768 0.34251 0.07300
H 	H 	0.18230 0.25080 0.36380 0.08300
C 	C 	0.24651 0.30321 0.31477 0.01600
C 	C 	0.26137 0.32967 0.27359 -0.08400
H 	H 	0.24380 0.35720 0.26380 0.05800
H 	H 	0.97080 0.50990 0.61210 0.21100
H 	H 	0.01760 0.52360 0.59700 -0.00600
O 	O 	0.55311 0.05330 0.33082 -0.53500
C 	C 	0.57727 0.07433 0.36213 0.47700
C 	C 	0.60461 0.12010 0.34695 -0.17800
O 	O 	0.57774 0.06337 0.40705 -0.54300
C 	C 	0.62974 0.14884 0.38182 0.09200
C 	C 	0.60780 0.13235 0.29664 0.08200
H 	H 	0.62950 0.13950 0.41460 -0.00200
C 	C 	0.65384 0.18923 0.36834 -0.15500
C 	C 	0.63418 0.17386 0.28375 -0.15000
H 	H 	0.59260 0.11310 0.27290 0.00600
H 	H 	0.66850 0.20870 0.39220 0.08100
C 	C 	0.65749 0.20309 0.31768 0.07300
H 	H 	0.63620 0.18230 0.25080 0.08300
C 	C 	0.68523 0.24651 0.30321 0.01600
C 	C 	0.72641 0.26137 0.32967 -0.08400
H 	H 	0.73620 0.24380 0.35720 0.05800
H 	H 	0.38790 0.97080 0.50990 0.21100
H 	H 	0.40300 0.01760 0.52360 -0.00600
O 	O 	0.44689 0.94670 0.33082 -0.53100
C 	C 	0.42273 0.92567 0.36213 0.47600
C 	C 	0.39539 0.87990 0.34695 -0.17600
O 	O 	0.42226 0.93663 0.40705 -0.54000
C 	C 	0.37026 0.85116 0.38182 0.09200
C 	C 	0.39220 0.86765 0.29664 0.08200
H 	H 	0.37050 0.86050 0.41460 -0.00100
C 	C 	0.34616 0.81077 0.36834 -0.15400
C 	C 	0.36582 0.82614 0.28375 -0.14900
H 	H 	0.40740 0.88690 0.27290 0.00800
H 	H 	0.33150 0.79130 0.39220 0.08100
C 	C 	0.34251 0.79691 0.31768 0.07200
H 	H 	0.36380 0.81770 0.25080 0.08300
C 	C 	0.31477 0.75349 0.30321 0.01600
C 	C 	0.27359 0.73863 0.32967 -0.08400
H 	H 	0.26380 0.75620 0.35720 0.05800
H 	H 	0.61210 0.02920 0.50990 0.21400
H 	H 	0.59700 0.98240 0.52360 0.00600
O 	O 	0.44689 0.05330 0.66918 -0.53500
C 	C 	0.42273 0.07433 0.63787 0.47700
C 	C 	0.39539 0.12010 0.65305 -0.17800
O 	O 	0.42226 0.06337 0.59295 -0.54300
C 	C 	0.37026 0.14884 0.61818 0.09200
C 	C 	0.39220 0.13235 0.70336 0.08200
H 	H 	0.37050 0.13950 0.58540 -0.00200
C 	C 	0.34616 0.18923 0.63166 -0.15500
C 	C 	0.36582 0.17386 0.71625 -0.15000
H 	H 	0.40740 0.11310 0.72710 0.00600
H 	H 	0.33150 0.20870 0.60780 0.08100
C 	C 	0.34251 0.20309 0.68232 0.07300
H 	H 	0.36380 0.18230 0.74920 0.08300
C 	C 	0.31477 0.24651 0.69679 0.01600
C 	C 	0.27359 0.26137 0.67033 -0.08400
H 	H 	0.26380 0.24380 0.64280 0.05800
H 	H 	0.61210 0.97080 0.49010 0.21100
H 	H 	0.59700 0.01760 0.47640 -0.00600
O 	O 	0.55311 0.94670 0.66918 -0.53000
C 	C 	0.57727 0.92567 0.63787 0.47600
C 	C 	0.60461 0.87990 0.65305 -0.17600
O 	O 	0.57774 0.93663 0.59295 -0.54000
C 	C 	0.62974 0.85116 0.61818 0.09100
C 	C 	0.60780 0.86765 0.70336 0.08200
H 	H 	0.62950 0.86050 0.58540 -0.00100
C 	C 	0.65384 0.81077 0.63166 -0.15400
C 	C 	0.63418 0.82614 0.71625 -0.14900
H 	H 	0.59260 0.88690 0.72710 0.00800
H 	H 	0.66850 0.79130 0.60780 0.08100
C 	C 	0.65749 0.79691 0.68232 0.07200
H 	H 	0.63620 0.81770 0.74920 0.08300
C 	C 	0.68523 0.75349 0.69679 0.01700
C 	C 	0.72641 0.73863 0.67033 -0.08500
H 	H 	0.73620 0.75620 0.64280 0.05800
H 	H 	0.38790 0.02920 0.49010 0.21400
H 	H 	0.40300 0.98240 0.47640 0.00600
O 	O 	0.33082 0.55311 0.05330 -0.53500
C 	C 	0.36213 0.57727 0.07433 0.47700
C 	C 	0.34695 0.60461 0.12010 -0.17800
O 	O 	0.40705 0.57774 0.06337 -0.54300
C 	C 	0.38182 0.62974 0.14884 0.09200
C 	C 	0.29664 0.60780 0.13235 0.08200
H 	H 	0.41460 0.62950 0.13950 -0.00200
C 	C 	0.36834 0.65384 0.18923 -0.15500
C 	C 	0.28375 0.63418 0.17386 -0.15000
H 	H 	0.27290 0.59260 0.11310 0.00600
H 	H 	0.39220 0.66850 0.20870 0.08100
C 	C 	0.31768 0.65749 0.20309 0.07300
H 	H 	0.25080 0.63620 0.18230 0.08300
C 	C 	0.30321 0.68523 0.24651 0.01600
C 	C 	0.32967 0.72641 0.26137 -0.08400
H 	H 	0.35720 0.73620 0.24380 0.05800
H 	H 	0.50990 0.38790 0.97080 0.21100
H 	H 	0.52360 0.40300 0.01760 -0.00600
O 	O 	0.33082 0.44689 0.94670 -0.53100
C 	C 	0.36213 0.42273 0.92567 0.47600
C 	C 	0.34695 0.39539 0.87990 -0.17600
O 	O 	0.40705 0.42226 0.93663 -0.54000
C 	C 	0.38182 0.37026 0.85116 0.09200
C 	C 	0.29664 0.39220 0.86765 0.08200
H 	H 	0.41460 0.37050 0.86050 -0.00100
C 	C 	0.36834 0.34616 0.81077 -0.15400
C 	C 	0.28375 0.36582 0.82614 -0.14900
H 	H 	0.27290 0.40740 0.88690 0.00800
H 	H 	0.39220 0.33150 0.79130 0.08100
C 	C 	0.31768 0.34251 0.79691 0.07200
H 	H 	0.25080 0.36380 0.81770 0.08300
C 	C 	0.30321 0.31477 0.75349 0.01600
C 	C 	0.32967 0.27359 0.73863 -0.08400
H 	H 	0.35720 0.26380 0.75620 0.05800
H 	H 	0.50990 0.61210 0.02920 0.21400
H 	H 	0.52360 0.59700 0.98240 0.00600
O 	O 	0.66918 0.44689 0.05330 -0.53500
C 	C 	0.63787 0.42273 0.07433 0.47700
C 	C 	0.65305 0.39539 0.12010 -0.17800
O 	O 	0.59295 0.42226 0.06337 -0.54300
C 	C 	0.61818 0.37026 0.14884 0.09200
C 	C 	0.70336 0.39220 0.13235 0.08200
H 	H 	0.58540 0.37050 0.13950 -0.00200
C 	C 	0.63166 0.34616 0.18923 -0.15500
C 	C 	0.71625 0.36582 0.17386 -0.15000
H 	H 	0.72710 0.40740 0.11310 0.00600
H 	H 	0.60780 0.33150 0.20870 0.08100
C 	C 	0.68232 0.34251 0.20309 0.07300
H 	H 	0.74920 0.36380 0.18230 0.08300
C 	C 	0.69679 0.31477 0.24651 0.01600
C 	C 	0.67033 0.27359 0.26137 -0.08400
H 	H 	0.64280 0.26380 0.24380 0.05800
H 	H 	0.49010 0.61210 0.97080 0.21100
H 	H 	0.47640 0.59700 0.01760 -0.00600
O 	O 	0.66918 0.55311 0.94670 -0.53000
C 	C 	0.63787 0.57727 0.92567 0.47600
C 	C 	0.65305 0.60461 0.87990 -0.17600
O 	O 	0.59295 0.57774 0.93663 -0.54000
C 	C 	0.61818 0.62974 0.85116 0.09100
C 	C 	0.70336 0.60780 0.86765 0.08200
H 	H 	0.58540 0.62950 0.86050 -0.00100
C 	C 	0.63166 0.65384 0.81077 -0.15400
C 	C 	0.71625 0.63418 0.82614 -0.14900
H 	H 	0.72710 0.59260 0.88690 0.00800
H 	H 	0.60780 0.66850 0.79130 0.08100
C 	C 	0.68232 0.65749 0.79691 0.07200
H 	H 	0.74920 0.63620 0.81770 0.08300
C 	C 	0.69679 0.68523 0.75349 0.01700
C 	C 	0.67033 0.72641 0.73863 -0.08500
H 	H 	0.64280 0.73620 0.75620 0.05800
H 	H 	0.49010 0.38790 0.02920 0.21400
H 	H 	0.47640 0.40300 0.98240 0.00600
O 	O 	0.05330 0.33082 0.55311 -0.53500
C 	C 	0.07433 0.36213 0.57727 0.47700
C 	C 	0.12010 0.34695 0.60461 -0.17800
O 	O 	0.06337 0.40705 0.57774 -0.54300
C 	C 	0.14884 0.38182 0.62974 0.09200
C 	C 	0.13235 0.29664 0.60780 0.08200
H 	H 	0.13950 0.41460 0.62950 -0.00200
C 	C 	0.18923 0.36834 0.65384 -0.15500
C 	C 	0.17386 0.28375 0.63418 -0.15000
H 	H 	0.11310 0.27290 0.59260 0.00600
H 	H 	0.20870 0.39220 0.66850 0.08100
C 	C 	0.20309 0.31768 0.65749 0.07300
H 	H 	0.18230 0.25080 0.63620 0.08300
C 	C 	0.24651 0.30321 0.68523 0.01600
C 	C 	0.26137 0.32967 0.72641 -0.08400
H 	H 	0.24380 0.35720 0.73620 0.05800
H 	H 	0.97080 0.50990 0.38790 0.21100
H 	H 	0.01760 0.52360 0.40300 -0.00600
O 	O 	0.94670 0.33082 0.44689 -0.53100
C 	C 	0.92567 0.36213 0.42273 0.47600
C 	C 	0.87990 0.34695 0.39539 -0.17600
O 	O 	0.93663 0.40705 0.42226 -0.54000
C 	C 	0.85116 0.38182 0.37026 0.09200
C 	C 	0.86765 0.29664 0.39220 0.08200
H 	H 	0.86050 0.41460 0.37050 -0.00100
C 	C 	0.81077 0.36834 0.34616 -0.15400
C 	C 	0.82614 0.28375 0.36582 -0.14900
H 	H 	0.88690 0.27290 0.40740 0.00800
H 	H 	0.79130 0.39220 0.33150 0.08100
C 	C 	0.79691 0.31768 0.34251 0.07200
H 	H 	0.81770 0.25080 0.36380 0.08300
C 	C 	0.75349 0.30321 0.31477 0.01600
C 	C 	0.73863 0.32967 0.27359 -0.08400
H 	H 	0.75620 0.35720 0.26380 0.05800
H 	H 	0.02920 0.50990 0.61210 0.21400
H 	H 	0.98240 0.52360 0.59700 0.00600
O 	O 	0.05330 0.66918 0.44689 -0.53500
C 	C 	0.07433 0.63787 0.42273 0.47700
C 	C 	0.12010 0.65305 0.39539 -0.17800
O 	O 	0.06337 0.59295 0.42226 -0.54300
C 	C 	0.14884 0.61818 0.37026 0.09200
C 	C 	0.13235 0.70336 0.39220 0.08200
H 	H 	0.13950 0.58540 0.37050 -0.00200
C 	C 	0.18923 0.63166 0.34616 -0.15500
C 	C 	0.17386 0.71625 0.36582 -0.15000
H 	H 	0.11310 0.72710 0.40740 0.00600
H 	H 	0.20870 0.60780 0.33150 0.08100
C 	C 	0.20309 0.68232 0.34251 0.07300
H 	H 	0.18230 0.74920 0.36380 0.08300
C 	C 	0.24651 0.69679 0.31477 0.01600
C 	C 	0.26137 0.67033 0.27359 -0.08400
H 	H 	0.24380 0.64280 0.26380 0.05800
H 	H 	0.97080 0.49010 0.61210 0.21100
H 	H 	0.01760 0.47640 0.59700 -0.00600
O 	O 	0.94670 0.66918 0.55311 -0.53000
C 	C 	0.92567 0.63787 0.57727 0.47600
C 	C 	0.87990 0.65305 0.60461 -0.17600
O 	O 	0.93663 0.59295 0.57774 -0.54000
C 	C 	0.85116 0.61818 0.62974 0.09100
C 	C 	0.86765 0.70336 0.60780 0.08200
H 	H 	0.86050 0.58540 0.62950 -0.00100
C 	C 	0.81077 0.63166 0.65384 -0.15400
C 	C 	0.82614 0.71625 0.63418 -0.14900
H 	H 	0.88690 0.72710 0.59260 0.00800
H 	H 	0.79130 0.60780 0.66850 0.08100
C 	C 	0.79691 0.68232 0.65749 0.07200
H 	H 	0.81770 0.74920 0.63620 0.08300
C 	C 	0.75349 0.69679 0.68523 0.01700
C 	C 	0.73863 0.67033 0.72641 -0.08500
H 	H 	0.75620 0.64280 0.73620 0.05800
H 	H 	0.02920 0.49010 0.38790 0.21400
H 	H 	0.98240 0.47640 0.40300 0.00600
Mg	Mg	0.50000 0.00000 0.66943 1.47400
O 	O 	0.50000 0.00000 0.59380 -0.92500
Mg	Mg	0.50000 0.00000 0.33057 1.47400
O 	O 	0.50000 0.00000 0.40620 -0.92500
Mg	Mg	0.66943 0.50000 -0.00000 1.47400
O 	O 	0.59380 0.50000 -0.00000 -0.92500
Mg	Mg	0.33057 0.50000 -0.00000 1.47400
O 	O 	0.40620 0.50000 -0.00000 -0.92500
Mg	Mg	0.00000 0.66943 0.50000 1.47400
O 	O 	0.00000 0.59380 0.50000 -0.92500
Mg	Mg	-0.00000 0.33057 0.50000 1.47400
O 	O 	-0.00000 0.40620 0.50000 -0.92500
Mg	Mg	0.55385 0.00000 0.55774 1.47000
Mg	Mg	0.44615 0.00000 0.55774 1.47000
Mg	Mg	0.44615 0.00000 0.44226 1.47000
Mg	Mg	0.55385 0.00000 0.44226 1.47000
Mg	Mg	0.55774 0.55385 -0.00000 1.47000
Mg	Mg	0.55774 0.44615 -0.00000 1.47000
Mg	Mg	0.44226 0.44615 -0.00000 1.47000
Mg	Mg	0.44226 0.55385 -0.00000 1.47000
Mg	Mg	-0.00000 0.55774 0.55385 1.47000
Mg	Mg	0.00000 0.55774 0.44615 1.47000
Mg	Mg	0.00000 0.44226 0.44615 1.47000
Mg	Mg	0.00000 0.44226 0.55385 1.47000
O 	O 	0.50000 0.00000 0.50000 -0.88400
O 	O 	0.50000 0.50000 -0.00000 -0.88400
O 	O 	0.00000 0.50000 0.50000 -0.88400
O 	O 	0.60724 0.00000 0.50000 -1.21000
O 	O 	0.39276 0.00000 0.50000 -1.20900
O 	O 	0.50000 0.60724 -0.00000 -1.21000
O 	O 	0.50000 0.39276 -0.00000 -1.20900
O 	O 	-0.00000 0.50000 0.60724 -1.21000
O 	O 	0.00000 0.50000 0.39276 -1.20900
O 	O 	0.94689 0.44670 0.16918 -0.53100
C 	C 	0.92273 0.42567 0.13787 0.47600
C 	C 	0.89539 0.37990 0.15305 -0.17600
O 	O 	0.92226 0.43663 0.09295 -0.54100
C 	C 	0.87026 0.35116 0.11818 0.09200
C 	C 	0.89220 0.36765 0.20336 0.08200
H 	H 	0.87050 0.36050 0.08540 -0.00300
C 	C 	0.84616 0.31077 0.13166 -0.15500
C 	C 	0.86582 0.32614 0.21625 -0.14900
H 	H 	0.90740 0.38690 0.22710 0.00800
H 	H 	0.83150 0.29130 0.10780 0.08000
C 	C 	0.84251 0.29691 0.18232 0.07200
H 	H 	0.86380 0.31770 0.24920 0.08300
C 	C 	0.81477 0.25349 0.19679 0.01600
C 	C 	0.77359 0.23863 0.17033 -0.08400
H 	H 	0.76380 0.25620 0.14280 0.05800
H 	H 	0.11210 0.52920 0.99010 0.16500
H 	H 	0.09700 0.48240 0.97640 0.02100
O 	O 	0.05311 0.55330 0.16918 -0.53500
C 	C 	0.07727 0.57433 0.13787 0.47700
C 	C 	0.10461 0.62010 0.15305 -0.17800
O 	O 	0.07774 0.56337 0.09295 -0.54300
C 	C 	0.12974 0.64884 0.11818 0.09200
C 	C 	0.10780 0.63235 0.20336 0.08300
H 	H 	0.12950 0.63950 0.08540 -0.00300
C 	C 	0.15384 0.68923 0.13166 -0.15600
C 	C 	0.13418 0.67386 0.21625 -0.15100
H 	H 	0.09260 0.61310 0.22710 0.00600
H 	H 	0.16850 0.70870 0.10780 0.08000
C 	C 	0.15749 0.70309 0.18232 0.07300
H 	H 	0.13620 0.68230 0.24920 0.08300
C 	C 	0.18523 0.74651 0.19679 0.01600
C 	C 	0.22641 0.76137 0.17033 -0.08400
H 	H 	0.23620 0.74380 0.14280 0.05800
H 	H 	0.88790 0.47080 0.99010 0.16400
H 	H 	0.90300 0.51760 0.97640 0.02500
O 	O 	0.05311 0.44670 0.83082 -0.53500
C 	C 	0.07727 0.42567 0.86213 0.47700
C 	C 	0.10461 0.37990 0.84695 -0.17700
O 	O 	0.07774 0.43663 0.90705 -0.54200
C 	C 	0.12974 0.35116 0.88182 0.09200
C 	C 	0.10780 0.36765 0.79664 0.08200
H 	H 	0.12950 0.36050 0.91460 -0.00100
C 	C 	0.15384 0.31077 0.86834 -0.15500
C 	C 	0.13418 0.32614 0.78375 -0.15000
H 	H 	0.09260 0.38690 0.77290 0.00700
H 	H 	0.16850 0.29130 0.89220 0.08100
C 	C 	0.15749 0.29691 0.81768 0.07200
H 	H 	0.13620 0.31770 0.75080 0.08300
C 	C 	0.18523 0.25349 0.80321 0.01600
C 	C 	0.22641 0.23863 0.82967 -0.08400
H 	H 	0.23620 0.25620 0.85720 0.05800
H 	H 	0.88790 0.52920 0.00990 0.26300
H 	H 	0.90300 0.48240 0.02360 -0.02200
O 	O 	0.94689 0.55330 0.83082 -0.53000
C 	C 	0.92273 0.57433 0.86213 0.47600
C 	C 	0.89539 0.62010 0.84695 -0.17500
O 	O 	0.92226 0.56337 0.90705 -0.53900
C 	C 	0.87026 0.64884 0.88182 0.09100
C 	C 	0.89220 0.63235 0.79664 0.08100
H 	H 	0.87050 0.63950 0.91460 0.00000
C 	C 	0.84616 0.68923 0.86834 -0.15300
C 	C 	0.86582 0.67386 0.78375 -0.14800
H 	H 	0.90740 0.61310 0.77290 0.00800
H 	H 	0.83150 0.70870 0.89220 0.08200
C 	C 	0.84251 0.70309 0.81768 0.07200
H 	H 	0.86380 0.68230 0.75080 0.08300
C 	C 	0.81477 0.74651 0.80321 0.01800
C 	C 	0.77359 0.76137 0.82967 -0.08500
H 	H 	0.76380 0.74380 0.85720 0.05900
H 	H 	0.11210 0.47080 0.00990 0.26000
H 	H 	0.09700 0.51760 0.02360 -0.02300
O 	O 	0.16918 0.94689 0.44670 -0.53100
C 	C 	0.13787 0.92273 0.42567 0.47600
C 	C 	0.15305 0.89539 0.37990 -0.17600
O 	O 	0.09295 0.92226 0.43663 -0.54100
C 	C 	0.11818 0.87026 0.35116 0.09200
C 	C 	0.20336 0.89220 0.36765 0.08200
H 	H 	0.08540 0.87050 0.36050 -0.00300
C 	C 	0.13166 0.84616 0.31077 -0.15500
C 	C 	0.21625 0.86582 0.32614 -0.14900
H 	H 	0.22710 0.90740 0.38690 0.00800
H 	H 	0.10780 0.83150 0.29130 0.08000
C 	C 	0.18232 0.84251 0.29691 0.07200
H 	H 	0.24920 0.86380 0.31770 0.08300
C 	C 	0.19679 0.81477 0.25349 0.01600
C 	C 	0.17033 0.77359 0.23863 -0.08400
H 	H 	0.14280 0.76380 0.25620 0.05800
H 	H 	0.99010 0.11210 0.52920 0.16500
H 	H 	0.97640 0.09700 0.48240 0.02100
O 	O 	0.16918 0.05311 0.55330 -0.53500
C 	C 	0.13787 0.07727 0.57433 0.47700
C 	C 	0.15305 0.10461 0.62010 -0.17800
O 	O 	0.09295 0.07774 0.56337 -0.54300
C 	C 	0.11818 0.12974 0.64884 0.09200
C 	C 	0.20336 0.10780 0.63235 0.08300
H 	H 	0.08540 0.12950 0.63950 -0.00300
C 	C 	0.13166 0.15384 0.68923 -0.15600
C 	C 	0.21625 0.13418 0.67386 -0.15100
H 	H 	0.22710 0.09260 0.61310 0.00600
H 	H 	0.10780 0.16850 0.70870 0.08000
C 	C 	0.18232 0.15749 0.70309 0.07300
H 	H 	0.24920 0.13620 0.68230 0.08300
C 	C 	0.19679 0.18523 0.74651 0.01600
C 	C 	0.17033 0.22641 0.76137 -0.08400
H 	H 	0.14280 0.23620 0.74380 0.05800
H 	H 	0.99010 0.88790 0.47080 0.16400
H 	H 	0.97640 0.90300 0.51760 0.02500
O 	O 	0.83082 0.05311 0.44670 -0.53500
C 	C 	0.86213 0.07727 0.42567 0.47700
C 	C 	0.84695 0.10461 0.37990 -0.17700
O 	O 	0.90705 0.07774 0.43663 -0.54200
C 	C 	0.88182 0.12974 0.35116 0.09200
C 	C 	0.79664 0.10780 0.36765 0.08200
H 	H 	0.91460 0.12950 0.36050 -0.00100
C 	C 	0.86834 0.15384 0.31077 -0.15500
C 	C 	0.78375 0.13418 0.32614 -0.15000
H 	H 	0.77290 0.09260 0.38690 0.00700
H 	H 	0.89220 0.16850 0.29130 0.08100
C 	C 	0.81768 0.15749 0.29691 0.07200
H 	H 	0.75080 0.13620 0.31770 0.08300
C 	C 	0.80321 0.18523 0.25349 0.01600
C 	C 	0.82967 0.22641 0.23863 -0.08400
H 	H 	0.85720 0.23620 0.25620 0.05800
H 	H 	0.00990 0.88790 0.52920 0.26300
H 	H 	0.02360 0.90300 0.48240 -0.02200
O 	O 	0.83082 0.94689 0.55330 -0.53000
C 	C 	0.86213 0.92273 0.57433 0.47600
C 	C 	0.84695 0.89539 0.62010 -0.17500
O 	O 	0.90705 0.92226 0.56337 -0.53900
C 	C 	0.88182 0.87026 0.64884 0.09100
C 	C 	0.79664 0.89220 0.63235 0.08100
H 	H 	0.91460 0.87050 0.63950 0.00000
C 	C 	0.86834 0.84616 0.68923 -0.15300
C 	C 	0.78375 0.86582 0.67386 -0.14800
H 	H 	0.77290 0.90740 0.61310 0.00800
H 	H 	0.89220 0.83150 0.70870 0.08200
C 	C 	0.81768 0.84251 0.70309 0.07200
H 	H 	0.75080 0.86380 0.68230 0.08300
C 	C 	0.80321 0.81477 0.74651 0.01800
C 	C 	0.82967 0.77359 0.76137 -0.08500
H 	H 	0.85720 0.76380 0.74380 0.05900
H 	H 	0.00990 0.11210 0.47080 0.26000
H 	H 	0.02360 0.09700 0.51760 -0.02300
O 	O 	0.44670 0.16918 0.94689 -0.53100
C 	C 	0.42567 0.13787 0.92273 0.47600
C 	C 	0.37990 0.15305 0.89539 -0.17600
O 	O 	0.43663 0.09295 0.92226 -0.54100
C 	C 	0.35116 0.11818 0.87026 0.09200
C 	C 	0.36765 0.20336 0.89220 0.08200
H 	H 	0.36050 0.08540 0.87050 -0.00300
C 	C 	0.31077 0.13166 0.84616 -0.15500
C 	C 	0.32614 0.21625 0.86582 -0.14900
H 	H 	0.38690 0.22710 0.90740 0.00800
H 	H 	0.29130 0.10780 0.83150 0.08000
C 	C 	0.29691 0.18232 0.84251 0.07200
H 	H 	0.31770 0.24920 0.86380 0.08300
C 	C 	0.25349 0.19679 0.81477 0.01600
C 	C 	0.23863 0.17033 0.77359 -0.08400
H 	H 	0.25620 0.14280 0.76380 0.05800
H 	H 	0.52920 0.99010 0.11210 0.16500
H 	H 	0.48240 0.97640 0.09700 0.02100
O 	O 	0.55330 0.16918 0.05311 -0.53500
C 	C 	0.57433 0.13787 0.07727 0.47700
C 	C 	0.62010 0.15305 0.10461 -0.17800
O 	O 	0.56337 0.09295 0.07774 -0.54300
C 	C 	0.64884 0.11818 0.12974 0.09200
C 	C 	0.63235 0.20336 0.10780 0.08300
H 	H 	0.63950 0.08540 0.12950 -0.00300
C 	C 	0.68923 0.13166 0.15384 -0.15600
C 	C 	0.67386 0.21625 0.13418 -0.15100
H 	H 	0.61310 0.22710 0.09260 0.00600
H 	H 	0.70870 0.10780 0.16850 0.08000
C 	C 	0.70309 0.18232 0.15749 0.07300
H 	H 	0.68230 0.24920 0.13620 0.08300
C 	C 	0.74651 0.19679 0.18523 0.01600
C 	C 	0.76137 0.17033 0.22641 -0.08400
H 	H 	0.74380 0.14280 0.23620 0.05800
H 	H 	0.47080 0.99010 0.88790 0.16400
H 	H 	0.51760 0.97640 0.90300 0.02500
O 	O 	0.44670 0.83082 0.05311 -0.53500
C 	C 	0.42567 0.86213 0.07727 0.47700
C 	C 	0.37990 0.84695 0.10461 -0.17700
O 	O 	0.43663 0.90705 0.07774 -0.54200
C 	C 	0.35116 0.88182 0.12974 0.09200
C 	C 	0.36765 0.79664 0.10780 0.08200
H 	H 	0.36050 0.91460 0.12950 -0.00100
C 	C 	0.31077 0.86834 0.15384 -0.15500
C 	C 	0.32614 0.78375 0.13418 -0.15000
H 	H 	0.38690 0.77290 0.09260 0.00700
H 	H 	0.29130 0.89220 0.16850 0.08100
C 	C 	0.29691 0.81768 0.15749 0.07200
H 	H 	0.31770 0.75080 0.13620 0.08300
C 	C 	0.25349 0.80321 0.18523 0.01600
C 	C 	0.23863 0.82967 0.22641 -0.08400
H 	H 	0.25620 0.85720 0.23620 0.05800
H 	H 	0.52920 0.00990 0.88790 0.26300
H 	H 	0.48240 0.02360 0.90300 -0.02200
O 	O 	0.55330 0.83082 0.94689 -0.53000
C 	C 	0.57433 0.86213 0.92273 0.47600
C 	C 	0.62010 0.84695 0.89539 -0.17500
O 	O 	0.56337 0.90705 0.92226 -0.53900
C 	C 	0.64884 0.88182 0.87026 0.09100
C 	C 	0.63235 0.79664 0.89220 0.08100
H 	H 	0.63950 0.91460 0.87050 0.00000
C 	C 	0.68923 0.86834 0.84616 -0.15300
C 	C 	0.67386 0.78375 0.86582 -0.14800
H 	H 	0.61310 0.77290 0.90740 0.00800
H 	H 	0.70870 0.89220 0.83150 0.08200
C 	C 	0.70309 0.81768 0.84251 0.07200
H 	H 	0.68230 0.75080 0.86380 0.08300
C 	C 	0.74651 0.80321 0.81477 0.01800
C 	C 	0.76137 0.82967 0.77359 -0.08500
H 	H 	0.74380 0.85720 0.76380 0.05900
H 	H 	0.47080 0.00990 0.11210 0.26000
H 	H 	0.51760 0.02360 0.09700 -0.02300
O 	O 	0.05311 0.55330 0.83082 -0.53500
C 	C 	0.07727 0.57433 0.86213 0.47700
C 	C 	0.10461 0.62010 0.84695 -0.17700
O 	O 	0.07774 0.56337 0.90705 -0.54200
C 	C 	0.12974 0.64884 0.88182 0.09200
C 	C 	0.10780 0.63235 0.79664 0.08200
H 	H 	0.12950 0.63950 0.91460 -0.00100
C 	C 	0.15384 0.68923 0.86834 -0.15500
C 	C 	0.13418 0.67386 0.78375 -0.15000
H 	H 	0.09260 0.61310 0.77290 0.00700
H 	H 	0.16850 0.70870 0.89220 0.08200
C 	C 	0.15749 0.70309 0.81768 0.07300
H 	H 	0.13620 0.68230 0.75080 0.08300
C 	C 	0.18523 0.74651 0.80321 0.01600
C 	C 	0.22641 0.76137 0.82967 -0.08400
H 	H 	0.23620 0.74380 0.85720 0.05900
H 	H 	0.88790 0.47080 0.00990 0.26300
H 	H 	0.90300 0.51760 0.02360 -0.02200
O 	O 	0.94689 0.44670 0.83082 -0.53000
C 	C 	0.92273 0.42567 0.86213 0.47600
C 	C 	0.89539 0.37990 0.84695 -0.17500
O 	O 	0.92226 0.43663 0.90705 -0.53900
C 	C 	0.87026 0.35116 0.88182 0.09100
C 	C 	0.89220 0.36765 0.79664 0.08100
H 	H 	0.87050 0.36050 0.91460 0.00000
C 	C 	0.84616 0.31077 0.86834 -0.15300
C 	C 	0.86582 0.32614 0.78375 -0.14900
H 	H 	0.90740 0.38690 0.77290 0.00800
H 	H 	0.83150 0.29130 0.89220 0.08200
C 	C 	0.84251 0.29691 0.81768 0.07200
H 	H 	0.86380 0.31770 0.75080 0.08300
C 	C 	0.81477 0.25349 0.80321 0.01700
C 	C 	0.77359 0.23863 0.82967 -0.08500
H 	H 	0.76380 0.25620 0.85720 0.05900
H 	H 	0.11210 0.52920 0.00990 0.26000
H 	H 	0.09700 0.48240 0.02360 -0.02300
O 	O 	0.94689 0.55330 0.16918 -0.53100
C 	C 	0.92273 0.57433 0.13787 0.47600
C 	C 	0.89539 0.62010 0.15305 -0.17600
O 	O 	0.92226 0.56337 0.09295 -0.54100
C 	C 	0.87026 0.64884 0.11818 0.09200
C 	C 	0.89220 0.63235 0.20336 0.08200
H 	H 	0.87050 0.63950 0.08540 -0.00200
C 	C 	0.84616 0.68923 0.13166 -0.15400
C 	C 	0.86582 0.67386 0.21625 -0.14900
H 	H 	0.90740 0.61310 0.22710 0.00800
H 	H 	0.83150 0.70870 0.10780 0.08000
C 	C 	0.84251 0.70309 0.18232 0.07200
H 	H 	0.86380 0.68230 0.24920 0.08300
C 	C 	0.81477 0.74651 0.19679 0.01700
C 	C 	0.77359 0.76137 0.17033 -0.08400
H 	H 	0.76380 0.74380 0.14280 0.05800
H 	H 	0.11210 0.47080 0.99010 0.16500
H 	H 	0.09700 0.51760 0.97640 0.02100
O 	O 	0.05311 0.44670 0.16918 -0.53500
C 	C 	0.07727 0.42567 0.13787 0.47700
C 	C 	0.10461 0.37990 0.15305 -0.17800
O 	O 	0.07774 0.43663 0.09295 -0.54300
C 	C 	0.12974 0.35116 0.11818 0.09200
C 	C 	0.10780 0.36765 0.20336 0.08300
H 	H 	0.12950 0.36050 0.08540 -0.00300
C 	C 	0.15384 0.31077 0.13166 -0.15600
C 	C 	0.13418 0.32614 0.21625 -0.15100
H 	H 	0.09260 0.38690 0.22710 0.00600
H 	H 	0.16850 0.29130 0.10780 0.08000
C 	C 	0.15749 0.29691 0.18232 0.07300
H 	H 	0.13620 0.31770 0.24920 0.08300
C 	C 	0.18523 0.25349 0.19679 0.01500
C 	C 	0.22641 0.23863 0.17033 -0.08400
H 	H 	0.23620 0.25620 0.14280 0.05700
H 	H 	0.88790 0.52920 0.99010 0.16400
H 	H 	0.90300 0.48240 0.97640 0.02500
O 	O 	0.83082 0.05311 0.55330 -0.53500
C 	C 	0.86213 0.07727 0.57433 0.47700
C 	C 	0.84695 0.10461 0.62010 -0.17700
O 	O 	0.90705 0.07774 0.56337 -0.54200
C 	C 	0.88182 0.12974 0.64884 0.09200
C 	C 	0.79664 0.10780 0.63235 0.08200
H 	H 	0.91460 0.12950 0.63950 -0.00100
C 	C 	0.86834 0.15384 0.68923 -0.15500
C 	C 	0.78375 0.13418 0.67386 -0.15000
H 	H 	0.77290 0.09260 0.61310 0.00700
H 	H 	0.89220 0.16850 0.70870 0.08200
C 	C 	0.81768 0.15749 0.70309 0.07300
H 	H 	0.75080 0.13620 0.68230 0.08300
C 	C 	0.80321 0.18523 0.74651 0.01600
C 	C 	0.82967 0.22641 0.76137 -0.08400
H 	H 	0.85720 0.23620 0.74380 0.05900
H 	H 	0.00990 0.88790 0.47080 0.26300
H 	H 	0.02360 0.90300 0.51760 -0.02200
O 	O 	0.83082 0.94689 0.44670 -0.53000
C 	C 	0.86213 0.92273 0.42567 0.47600
C 	C 	0.84695 0.89539 0.37990 -0.17500
O 	O 	0.90705 0.92226 0.43663 -0.53900
C 	C 	0.88182 0.87026 0.35116 0.09100
C 	C 	0.79664 0.89220 0.36765 0.08100
H 	H 	0.91460 0.87050 0.36050 0.00000
C 	C 	0.86834 0.84616 0.31077 -0.15300
C 	C 	0.78375 0.86582 0.32614 -0.14900
H 	H 	0.77290 0.90740 0.38690 0.00800
H 	H 	0.89220 0.83150 0.29130 0.08200
C 	C 	0.81768 0.84251 0.29691 0.07200
H 	H 	0.75080 0.86380 0.31770 0.08300
C 	C 	0.80321 0.81477 0.25349 0.01700
C 	C 	0.82967 0.77359 0.23863 -0.08500
H 	H 	0.85720 0.76380 0.25620 0.05900
H 	H 	0.00990 0.11210 0.52920 0.26000
H 	H 	0.02360 0.09700 0.48240 -0.02300
O 	O 	0.16918 0.94689 0.55330 -0.53100
C 	C 	0.13787 0.92273 0.57433 0.47600
C 	C 	0.15305 0.89539 0.62010 -0.17600
O 	O 	0.09295 0.92226 0.56337 -0.54100
C 	C 	0.11818 0.87026 0.64884 0.09200
C 	C 	0.20336 0.89220 0.63235 0.08200
H 	H 	0.08540 0.87050 0.63950 -0.00200
C 	C 	0.13166 0.84616 0.68923 -0.15400
C 	C 	0.21625 0.86582 0.67386 -0.14900
H 	H 	0.22710 0.90740 0.61310 0.00800
H 	H 	0.10780 0.83150 0.70870 0.08000
C 	C 	0.18232 0.84251 0.70309 0.07200
H 	H 	0.24920 0.86380 0.68230 0.08300
C 	C 	0.19679 0.81477 0.74651 0.01700
C 	C 	0.17033 0.77359 0.76137 -0.08400
H 	H 	0.14280 0.76380 0.74380 0.05800
H 	H 	0.99010 0.11210 0.47080 0.16500
H 	H 	0.97640 0.09700 0.51760 0.02100
O 	O 	0.16918 0.05311 0.44670 -0.53500
C 	C 	0.13787 0.07727 0.42567 0.47700
C 	C 	0.15305 0.10461 0.37990 -0.17800
O 	O 	0.09295 0.07774 0.43663 -0.54300
C 	C 	0.11818 0.12974 0.35116 0.09200
C 	C 	0.20336 0.10780 0.36765 0.08300
H 	H 	0.08540 0.12950 0.36050 -0.00300
C 	C 	0.13166 0.15384 0.31077 -0.15600
C 	C 	0.21625 0.13418 0.32614 -0.15100
H 	H 	0.22710 0.09260 0.38690 0.00600
H 	H 	0.10780 0.16850 0.29130 0.08000
C 	C 	0.18232 0.15749 0.29691 0.07300
H 	H 	0.24920 0.13620 0.31770 0.08300
C 	C 	0.19679 0.18523 0.25349 0.01500
C 	C 	0.17033 0.22641 0.23863 -0.08400
H 	H 	0.14280 0.23620 0.25620 0.05700
H 	H 	0.99010 0.88790 0.52920 0.16400
H 	H 	0.97640 0.90300 0.48240 0.02500
O 	O 	0.55330 0.83082 0.05311 -0.53500
C 	C 	0.57433 0.86213 0.07727 0.47700
C 	C 	0.62010 0.84695 0.10461 -0.17700
O 	O 	0.56337 0.90705 0.07774 -0.54200
C 	C 	0.64884 0.88182 0.12974 0.09200
C 	C 	0.63235 0.79664 0.10780 0.08200
H 	H 	0.63950 0.91460 0.12950 -0.00100
C 	C 	0.68923 0.86834 0.15384 -0.15500
C 	C 	0.67386 0.78375 0.13418 -0.15000
H 	H 	0.61310 0.77290 0.09260 0.00700
H 	H 	0.70870 0.89220 0.16850 0.08200
C 	C 	0.70309 0.81768 0.15749 0.07300
H 	H 	0.68230 0.75080 0.13620 0.08300
C 	C 	0.74651 0.80321 0.18523 0.01600
C 	C 	0.76137 0.82967 0.22641 -0.08400
H 	H 	0.74380 0.85720 0.23620 0.05900
H 	H 	0.47080 0.00990 0.88790 0.26300
H 	H 	0.51760 0.02360 0.90300 -0.02200
O 	O 	0.44670 0.83082 0.94689 -0.53000
C 	C 	0.42567 0.86213 0.92273 0.47600
C 	C 	0.37990 0.84695 0.89539 -0.17500
O 	O 	0.43663 0.90705 0.92226 -0.53900
C 	C 	0.35116 0.88182 0.87026 0.09100
C 	C 	0.36765 0.79664 0.89220 0.08100
H 	H 	0.36050 0.91460 0.87050 0.00000
C 	C 	0.31077 0.86834 0.84616 -0.15300
C 	C 	0.32614 0.78375 0.86582 -0.14900
H 	H 	0.38690 0.77290 0.90740 0.00800
H 	H 	0.29130 0.89220 0.83150 0.08200
C 	C 	0.29691 0.81768 0.84251 0.07200
H 	H 	0.31770 0.75080 0.86380 0.08300
C 	C 	0.25349 0.80321 0.81477 0.01700
C 	C 	0.23863 0.82967 0.77359 -0.08500
H 	H 	0.25620 0.85720 0.76380 0.05900
H 	H 	0.52920 0.00990 0.11210 0.26000
H 	H 	0.48240 0.02360 0.09700 -0.02300
O 	O 	0.55330 0.16918 0.94689 -0.53100
C 	C 	0.57433 0.13787 0.92273 0.47600
C 	C 	0.62010 0.15305 0.89539 -0.17600
O 	O 	0.56337 0.09295 0.92226 -0.54100
C 	C 	0.64884 0.11818 0.87026 0.09200
C 	C 	0.63235 0.20336 0.89220 0.08200
H 	H 	0.63950 0.08540 0.87050 -0.00200
C 	C 	0.68923 0.13166 0.84616 -0.15400
C 	C 	0.67386 0.21625 0.86582 -0.14900
H 	H 	0.61310 0.22710 0.90740 0.00800
H 	H 	0.70870 0.10780 0.83150 0.08000
C 	C 	0.70309 0.18232 0.84251 0.07200
H 	H 	0.68230 0.24920 0.86380 0.08300
C 	C 	0.74651 0.19679 0.81477 0.01700
C 	C 	0.76137 0.17033 0.77359 -0.08400
H 	H 	0.74380 0.14280 0.76380 0.05800
H 	H 	0.47080 0.99010 0.11210 0.16500
H 	H 	0.51760 0.97640 0.09700 0.02100
O 	O 	0.44670 0.16918 0.05311 -0.53500
C 	C 	0.42567 0.13787 0.07727 0.47700
C 	C 	0.37990 0.15305 0.10461 -0.17800
O 	O 	0.43663 0.09295 0.07774 -0.54300
C 	C 	0.35116 0.11818 0.12974 0.09200
C 	C 	0.36765 0.20336 0.10780 0.08300
H 	H 	0.36050 0.08540 0.12950 -0.00300
C 	C 	0.31077 0.13166 0.15384 -0.15600
C 	C 	0.32614 0.21625 0.13418 -0.15100
H 	H 	0.38690 0.22710 0.09260 0.00600
H 	H 	0.29130 0.10780 0.16850 0.08000
C 	C 	0.29691 0.18232 0.15749 0.07300
H 	H 	0.31770 0.24920 0.13620 0.08300
C 	C 	0.25349 0.19679 0.18523 0.01500
C 	C 	0.23863 0.17033 0.22641 -0.08400
H 	H 	0.25620 0.14280 0.23620 0.05700
H 	H 	0.52920 0.99010 0.88790 0.16400
H 	H 	0.48240 0.97640 0.90300 0.02500
Mg	Mg	0.00000 0.50000 0.16943 1.47400
O 	O 	0.00000 0.50000 0.09380 -0.92500
Mg	Mg	-0.00000 0.50000 0.83057 1.47400
O 	O 	-0.00000 0.50000 0.90620 -0.92500
Mg	Mg	0.16943 0.00000 0.50000 1.47400
O 	O 	0.09380 0.00000 0.50000 -0.92500
Mg	Mg	0.83057 0.00000 0.50000 1.47400
O 	O 	0.90620 0.00000 0.50000 -0.92500
Mg	Mg	0.50000 0.16943 -0.00000 1.47400
O 	O 	0.50000 0.09380 -0.00000 -0.92500
Mg	Mg	0.50000 0.83057 -0.00000 1.47400
O 	O 	0.50000 0.90620 -0.00000 -0.92500
Mg	Mg	0.05385 0.50000 0.05774 1.47100
Mg	Mg	0.94615 0.50000 0.05774 1.47200
Mg	Mg	0.94615 0.50000 0.94226 1.47100
Mg	Mg	0.05385 0.50000 0.94226 1.47000
Mg	Mg	0.05774 0.05385 0.50000 1.47100
Mg	Mg	0.05774 0.94615 0.50000 1.47200
Mg	Mg	0.94226 0.94615 0.50000 1.47100
Mg	Mg	0.94226 0.05385 0.50000 1.47000
Mg	Mg	0.50000 0.05774 0.05385 1.47100
Mg	Mg	0.50000 0.05774 0.94615 1.47200
Mg	Mg	0.50000 0.94226 0.94615 1.47100
Mg	Mg	0.50000 0.94226 0.05385 1.47000
O 	O 	-0.00000 0.50000 -0.00000 -0.88800
O 	O 	0.00000 0.00000 0.50000 -0.88800
O 	O 	0.50000 0.00000 -0.00000 -0.88800
O 	O 	0.10724 0.50000 -0.00000 -1.20500
O 	O 	0.89276 0.50000 -0.00000 -1.21500
O 	O 	-0.00000 0.10724 0.50000 -1.20500
O 	O 	-0.00000 0.89276 0.50000 -1.21500
O 	O 	0.50000 0.00000 0.10724 -1.20500
O 	O 	0.50000 0.00000 0.89276 -1.21500
