data_crystal

_cell_length_a 27.34890
_cell_length_b 27.34890
_cell_length_c 27.34890
_cell_angle_alpha 90.00000
_cell_angle_beta  90.00000
_cell_angle_gamma 90.00000

_symmetry_space_group_name_	'P 1'
_symmetry_space_group_name_H-M	'P 1'

loop_
_symmetry_equiv_pos_as_xyz
  x,y,z

loop_
_atom_site_label
_atom_site_type_symbol
_atom_site_fract_x
_atom_site_fract_y
_atom_site_fract_z
_atom_site_charge
C 	C 	0.13943 0.07463 0.42297 0.40300
C 	C 	0.15528 0.10173 0.37852 -0.15600
C 	C 	0.12045 0.12787 0.35166 0.06700
H 	H 	0.08830 0.12990 0.36240 0.01200
C 	C 	0.13446 0.15015 0.30972 -0.14300
H 	H 	0.11050 0.16160 0.28850 0.07100
C 	C 	0.18361 0.15660 0.29717 0.06900
C 	C 	0.21680 0.13386 0.32555 -0.14800
H 	H 	0.24970 0.13670 0.31750 0.08200
C 	C 	0.20421 0.10652 0.36618 0.07400
H 	H 	0.22830 0.09150 0.38500 0.01200
C 	C 	0.19681 0.18528 0.25288 0.01900
C 	C 	0.17065 0.22618 0.23820 -0.09100
H 	H 	0.14330 0.23600 0.25580 0.05900
O 	O 	0.17176 0.05248 0.44624 -0.50300
O 	O 	0.09659 0.07431 0.43735 -0.29800
C 	C 	0.86057 0.92537 0.42297 0.39400
C 	C 	0.84472 0.89827 0.37852 -0.12400
C 	C 	0.87955 0.87213 0.35166 0.05800
H 	H 	0.91170 0.87010 0.36240 0.03900
C 	C 	0.86554 0.84985 0.30972 -0.12100
H 	H 	0.88950 0.83840 0.28850 0.08400
C 	C 	0.81639 0.84340 0.29717 0.06100
C 	C 	0.78320 0.86614 0.32555 -0.12700
H 	H 	0.75030 0.86330 0.31750 0.08000
C 	C 	0.79579 0.89348 0.36618 0.06100
H 	H 	0.77170 0.90850 0.38500 0.02900
C 	C 	0.80319 0.81472 0.25288 0.03500
C 	C 	0.82935 0.77382 0.23820 -0.09900
H 	H 	0.85670 0.76400 0.25580 0.06900
O 	O 	0.82824 0.94752 0.44624 -0.46500
O 	O 	0.90341 0.92569 0.43735 -0.25300
C 	C 	0.86057 0.07463 0.57703 0.39900
C 	C 	0.84472 0.10173 0.62148 -0.14300
C 	C 	0.87955 0.12787 0.64834 0.06500
H 	H 	0.91170 0.12990 0.63760 0.03100
C 	C 	0.86554 0.15015 0.69028 -0.13300
H 	H 	0.88950 0.16160 0.71150 0.08400
C 	C 	0.81639 0.15660 0.70283 0.06600
C 	C 	0.78320 0.13386 0.67445 -0.14000
H 	H 	0.75030 0.13670 0.68250 0.08000
C 	C 	0.79579 0.10652 0.63382 0.06900
H 	H 	0.77170 0.09150 0.61500 0.01500
C 	C 	0.80319 0.18528 0.74712 0.03100
C 	C 	0.82935 0.22618 0.76180 -0.09800
H 	H 	0.85670 0.23600 0.74420 0.06900
O 	O 	0.82824 0.05248 0.55376 -0.49800
O 	O 	0.90341 0.07431 0.56265 -0.27600
C 	C 	0.13943 0.92537 0.57703 0.39800
C 	C 	0.15528 0.89827 0.62148 -0.13400
C 	C 	0.12045 0.87213 0.64834 0.06200
H 	H 	0.08830 0.87010 0.63760 0.02300
C 	C 	0.13446 0.84985 0.69028 -0.12800
H 	H 	0.11050 0.83840 0.71150 0.07600
C 	C 	0.18361 0.84340 0.70283 0.06300
C 	C 	0.21680 0.86614 0.67445 -0.13200
H 	H 	0.24970 0.86330 0.68250 0.08200
C 	C 	0.20421 0.89348 0.63382 0.06700
H 	H 	0.22830 0.90850 0.61500 0.02700
C 	C 	0.19681 0.81472 0.74712 0.03300
C 	C 	0.17065 0.77382 0.76180 -0.09700
H 	H 	0.14330 0.76400 0.74420 0.06400
O 	O 	0.17176 0.94752 0.55376 -0.46900
O 	O 	0.09659 0.92569 0.56265 -0.27400
C 	C 	0.42297 0.13943 0.07463 0.40400
C 	C 	0.37852 0.15528 0.10173 -0.15500
C 	C 	0.35166 0.12045 0.12787 0.06800
H 	H 	0.36240 0.08830 0.12990 0.01300
C 	C 	0.30972 0.13446 0.15015 -0.14200
H 	H 	0.28850 0.11050 0.16160 0.07200
C 	C 	0.29717 0.18361 0.15660 0.06900
C 	C 	0.32555 0.21680 0.13386 -0.14800
H 	H 	0.31750 0.24970 0.13670 0.08200
C 	C 	0.36618 0.20421 0.10652 0.07400
H 	H 	0.38500 0.22830 0.09150 0.01200
C 	C 	0.25288 0.19681 0.18528 0.01900
C 	C 	0.23820 0.17065 0.22618 -0.09100
H 	H 	0.25580 0.14330 0.23600 0.05900
O 	O 	0.44624 0.17176 0.05248 -0.50300
O 	O 	0.43735 0.09659 0.07431 -0.29800
C 	C 	0.42297 0.86057 0.92537 0.39400
C 	C 	0.37852 0.84472 0.89827 -0.12400
C 	C 	0.35166 0.87955 0.87213 0.05800
H 	H 	0.36240 0.91170 0.87010 0.03900
C 	C 	0.30972 0.86554 0.84985 -0.12100
H 	H 	0.28850 0.88950 0.83840 0.08400
C 	C 	0.29717 0.81639 0.84340 0.06100
C 	C 	0.32555 0.78320 0.86614 -0.12700
H 	H 	0.31750 0.75030 0.86330 0.08000
C 	C 	0.36618 0.79579 0.89348 0.06100
H 	H 	0.38500 0.77170 0.90850 0.02900
C 	C 	0.25288 0.80319 0.81472 0.03500
C 	C 	0.23820 0.82935 0.77382 -0.09900
H 	H 	0.25580 0.85670 0.76400 0.06900
O 	O 	0.44624 0.82824 0.94752 -0.46500
O 	O 	0.43735 0.90341 0.92569 -0.25300
C 	C 	0.57703 0.86057 0.07463 0.39900
C 	C 	0.62148 0.84472 0.10173 -0.14300
C 	C 	0.64834 0.87955 0.12787 0.06500
H 	H 	0.63760 0.91170 0.12990 0.03100
C 	C 	0.69028 0.86554 0.15015 -0.13300
H 	H 	0.71150 0.88950 0.16160 0.08400
C 	C 	0.70283 0.81639 0.15660 0.06600
C 	C 	0.67445 0.78320 0.13386 -0.14000
H 	H 	0.68250 0.75030 0.13670 0.08000
C 	C 	0.63382 0.79579 0.10652 0.06900
H 	H 	0.61500 0.77170 0.09150 0.01500
C 	C 	0.74712 0.80319 0.18528 0.03100
C 	C 	0.76180 0.82935 0.22618 -0.09800
H 	H 	0.74420 0.85670 0.23600 0.06900
O 	O 	0.55376 0.82824 0.05248 -0.49800
O 	O 	0.56265 0.90341 0.07431 -0.27600
C 	C 	0.57703 0.13943 0.92537 0.39800
C 	C 	0.62148 0.15528 0.89827 -0.13400
C 	C 	0.64834 0.12045 0.87213 0.06200
H 	H 	0.63760 0.08830 0.87010 0.02300
C 	C 	0.69028 0.13446 0.84985 -0.12800
H 	H 	0.71150 0.11050 0.83840 0.07600
C 	C 	0.70283 0.18361 0.84340 0.06300
C 	C 	0.67445 0.21680 0.86614 -0.13200
H 	H 	0.68250 0.24970 0.86330 0.08200
C 	C 	0.63382 0.20421 0.89348 0.06700
H 	H 	0.61500 0.22830 0.90850 0.02700
C 	C 	0.74712 0.19681 0.81472 0.03300
C 	C 	0.76180 0.17065 0.77382 -0.09700
H 	H 	0.74420 0.14330 0.76400 0.06400
O 	O 	0.55376 0.17176 0.94752 -0.46900
O 	O 	0.56265 0.09659 0.92569 -0.27400
C 	C 	0.07463 0.42297 0.13943 0.40400
C 	C 	0.10173 0.37852 0.15528 -0.15500
C 	C 	0.12787 0.35166 0.12045 0.06800
H 	H 	0.12990 0.36240 0.08830 0.01300
C 	C 	0.15015 0.30972 0.13446 -0.14200
H 	H 	0.16160 0.28850 0.11050 0.07200
C 	C 	0.15660 0.29717 0.18361 0.06900
C 	C 	0.13386 0.32555 0.21680 -0.14800
H 	H 	0.13670 0.31750 0.24970 0.08200
C 	C 	0.10652 0.36618 0.20421 0.07400
H 	H 	0.09150 0.38500 0.22830 0.01200
C 	C 	0.18528 0.25288 0.19681 0.01900
C 	C 	0.22618 0.23820 0.17065 -0.09100
H 	H 	0.23600 0.25580 0.14330 0.05900
O 	O 	0.05248 0.44624 0.17176 -0.50300
O 	O 	0.07431 0.43735 0.09659 -0.29800
C 	C 	0.92537 0.42297 0.86057 0.39400
C 	C 	0.89827 0.37852 0.84472 -0.12400
C 	C 	0.87213 0.35166 0.87955 0.05800
H 	H 	0.87010 0.36240 0.91170 0.03900
C 	C 	0.84985 0.30972 0.86554 -0.12100
H 	H 	0.83840 0.28850 0.88950 0.08400
C 	C 	0.84340 0.29717 0.81639 0.06100
C 	C 	0.86614 0.32555 0.78320 -0.12700
H 	H 	0.86330 0.31750 0.75030 0.08000
C 	C 	0.89348 0.36618 0.79579 0.06100
H 	H 	0.90850 0.38500 0.77170 0.02900
C 	C 	0.81472 0.25288 0.80319 0.03500
C 	C 	0.77382 0.23820 0.82935 -0.09900
H 	H 	0.76400 0.25580 0.85670 0.06900
O 	O 	0.94752 0.44624 0.82824 -0.46500
O 	O 	0.92569 0.43735 0.90341 -0.25300
C 	C 	0.07463 0.57703 0.86057 0.39900
C 	C 	0.10173 0.62148 0.84472 -0.14300
C 	C 	0.12787 0.64834 0.87955 0.06500
H 	H 	0.12990 0.63760 0.91170 0.03100
C 	C 	0.15015 0.69028 0.86554 -0.13300
H 	H 	0.16160 0.71150 0.88950 0.08400
C 	C 	0.15660 0.70283 0.81639 0.06600
C 	C 	0.13386 0.67445 0.78320 -0.14000
H 	H 	0.13670 0.68250 0.75030 0.08000
C 	C 	0.10652 0.63382 0.79579 0.06900
H 	H 	0.09150 0.61500 0.77170 0.01500
C 	C 	0.18528 0.74712 0.80319 0.03100
C 	C 	0.22618 0.76180 0.82935 -0.09800
H 	H 	0.23600 0.74420 0.85670 0.06900
O 	O 	0.05248 0.55376 0.82824 -0.49800
O 	O 	0.07431 0.56265 0.90341 -0.27600
C 	C 	0.92537 0.57703 0.13943 0.39800
C 	C 	0.89827 0.62148 0.15528 -0.13400
C 	C 	0.87213 0.64834 0.12045 0.06200
H 	H 	0.87010 0.63760 0.08830 0.02300
C 	C 	0.84985 0.69028 0.13446 -0.12800
H 	H 	0.83840 0.71150 0.11050 0.07600
C 	C 	0.84340 0.70283 0.18361 0.06300
C 	C 	0.86614 0.67445 0.21680 -0.13200
H 	H 	0.86330 0.68250 0.24970 0.08200
C 	C 	0.89348 0.63382 0.20421 0.06700
H 	H 	0.90850 0.61500 0.22830 0.02700
C 	C 	0.81472 0.74712 0.19681 0.03300
C 	C 	0.77382 0.76180 0.17065 -0.09700
H 	H 	0.76400 0.74420 0.14330 0.06400
O 	O 	0.94752 0.55376 0.17176 -0.46900
O 	O 	0.92569 0.56265 0.09659 -0.27400
C 	C 	0.86057 0.92537 0.57703 0.39400
C 	C 	0.84472 0.89827 0.62148 -0.12300
C 	C 	0.87955 0.87213 0.64834 0.05800
H 	H 	0.91170 0.87010 0.63760 0.04000
C 	C 	0.86554 0.84985 0.69028 -0.12000
H 	H 	0.88950 0.83840 0.71150 0.08600
C 	C 	0.81639 0.84340 0.70283 0.06100
C 	C 	0.78320 0.86614 0.67445 -0.12500
H 	H 	0.75030 0.86330 0.68250 0.08000
C 	C 	0.79579 0.89348 0.63382 0.06100
H 	H 	0.77170 0.90850 0.61500 0.02900
C 	C 	0.80319 0.81472 0.74712 0.04000
C 	C 	0.82935 0.77382 0.76180 -0.10100
H 	H 	0.85670 0.76400 0.74420 0.07200
O 	O 	0.82824 0.94752 0.55376 -0.46500
O 	O 	0.90341 0.92569 0.56265 -0.25200
C 	C 	0.13943 0.07463 0.57703 0.40400
C 	C 	0.15528 0.10173 0.62148 -0.15400
C 	C 	0.12045 0.12787 0.64834 0.06900
H 	H 	0.08830 0.12990 0.63760 0.01400
C 	C 	0.13446 0.15015 0.69028 -0.14100
H 	H 	0.11050 0.16160 0.71150 0.07400
C 	C 	0.18361 0.15660 0.70283 0.06900
C 	C 	0.21680 0.13386 0.67445 -0.14600
H 	H 	0.24970 0.13670 0.68250 0.08100
C 	C 	0.20421 0.10652 0.63382 0.07400
H 	H 	0.22830 0.09150 0.61500 0.01200
C 	C 	0.19681 0.18528 0.74712 0.02400
C 	C 	0.17065 0.22618 0.76180 -0.09400
H 	H 	0.14330 0.23600 0.74420 0.06100
O 	O 	0.17176 0.05248 0.55376 -0.50200
O 	O 	0.09659 0.07431 0.56265 -0.29700
C 	C 	0.13943 0.92537 0.42297 0.39800
C 	C 	0.15528 0.89827 0.37852 -0.13500
C 	C 	0.12045 0.87213 0.35166 0.06100
H 	H 	0.08830 0.87010 0.36240 0.02200
C 	C 	0.13446 0.84985 0.30972 -0.12900
H 	H 	0.11050 0.83840 0.28850 0.07400
C 	C 	0.18361 0.84340 0.29717 0.06400
C 	C 	0.21680 0.86614 0.32555 -0.13300
H 	H 	0.24970 0.86330 0.31750 0.08200
C 	C 	0.20421 0.89348 0.36618 0.06700
H 	H 	0.22830 0.90850 0.38500 0.02700
C 	C 	0.19681 0.81472 0.25288 0.02800
C 	C 	0.17065 0.77382 0.23820 -0.09500
H 	H 	0.14330 0.76400 0.25580 0.06100
O 	O 	0.17176 0.94752 0.44624 -0.46900
O 	O 	0.09659 0.92569 0.43735 -0.27400
C 	C 	0.86057 0.07463 0.42297 0.39900
C 	C 	0.84472 0.10173 0.37852 -0.14400
C 	C 	0.87955 0.12787 0.35166 0.06400
H 	H 	0.91170 0.12990 0.36240 0.03000
C 	C 	0.86554 0.15015 0.30972 -0.13400
H 	H 	0.88950 0.16160 0.28850 0.08200
C 	C 	0.81639 0.15660 0.29717 0.06600
C 	C 	0.78320 0.13386 0.32555 -0.14100
H 	H 	0.75030 0.13670 0.31750 0.08000
C 	C 	0.79579 0.10652 0.36618 0.06900
H 	H 	0.77170 0.09150 0.38500 0.01500
C 	C 	0.80319 0.18528 0.25288 0.02600
C 	C 	0.82935 0.22618 0.23820 -0.09600
H 	H 	0.85670 0.23600 0.25580 0.06700
O 	O 	0.82824 0.05248 0.44624 -0.49900
O 	O 	0.90341 0.07431 0.43735 -0.27600
C 	C 	0.57703 0.86057 0.92537 0.39400
C 	C 	0.62148 0.84472 0.89827 -0.12300
C 	C 	0.64834 0.87955 0.87213 0.05800
H 	H 	0.63760 0.91170 0.87010 0.04000
C 	C 	0.69028 0.86554 0.84985 -0.12000
H 	H 	0.71150 0.88950 0.83840 0.08600
C 	C 	0.70283 0.81639 0.84340 0.06100
C 	C 	0.67445 0.78320 0.86614 -0.12500
H 	H 	0.68250 0.75030 0.86330 0.08000
C 	C 	0.63382 0.79579 0.89348 0.06100
H 	H 	0.61500 0.77170 0.90850 0.02900
C 	C 	0.74712 0.80319 0.81472 0.04000
C 	C 	0.76180 0.82935 0.77382 -0.10100
H 	H 	0.74420 0.85670 0.76400 0.07200
O 	O 	0.55376 0.82824 0.94752 -0.46500
O 	O 	0.56265 0.90341 0.92569 -0.25200
C 	C 	0.57703 0.13943 0.07463 0.40400
C 	C 	0.62148 0.15528 0.10173 -0.15400
C 	C 	0.64834 0.12045 0.12787 0.06900
H 	H 	0.63760 0.08830 0.12990 0.01400
C 	C 	0.69028 0.13446 0.15015 -0.14100
H 	H 	0.71150 0.11050 0.16160 0.07400
C 	C 	0.70283 0.18361 0.15660 0.06900
C 	C 	0.67445 0.21680 0.13386 -0.14600
H 	H 	0.68250 0.24970 0.13670 0.08100
C 	C 	0.63382 0.20421 0.10652 0.07400
H 	H 	0.61500 0.22830 0.09150 0.01200
C 	C 	0.74712 0.19681 0.18528 0.02400
C 	C 	0.76180 0.17065 0.22618 -0.09400
H 	H 	0.74420 0.14330 0.23600 0.06100
O 	O 	0.55376 0.17176 0.05248 -0.50200
O 	O 	0.56265 0.09659 0.07431 -0.29700
C 	C 	0.42297 0.13943 0.92537 0.39800
C 	C 	0.37852 0.15528 0.89827 -0.13500
C 	C 	0.35166 0.12045 0.87213 0.06100
H 	H 	0.36240 0.08830 0.87010 0.02200
C 	C 	0.30972 0.13446 0.84985 -0.12900
H 	H 	0.28850 0.11050 0.83840 0.07400
C 	C 	0.29717 0.18361 0.84340 0.06400
C 	C 	0.32555 0.21680 0.86614 -0.13300
H 	H 	0.31750 0.24970 0.86330 0.08200
C 	C 	0.36618 0.20421 0.89348 0.06700
H 	H 	0.38500 0.22830 0.90850 0.02700
C 	C 	0.25288 0.19681 0.81472 0.02800
C 	C 	0.23820 0.17065 0.77382 -0.09500
H 	H 	0.25580 0.14330 0.76400 0.06100
O 	O 	0.44624 0.17176 0.94752 -0.46900
O 	O 	0.43735 0.09659 0.92569 -0.27400
C 	C 	0.42297 0.86057 0.07463 0.39900
C 	C 	0.37852 0.84472 0.10173 -0.14400
C 	C 	0.35166 0.87955 0.12787 0.06400
H 	H 	0.36240 0.91170 0.12990 0.03000
C 	C 	0.30972 0.86554 0.15015 -0.13400
H 	H 	0.28850 0.88950 0.16160 0.08200
C 	C 	0.29717 0.81639 0.15660 0.06600
C 	C 	0.32555 0.78320 0.13386 -0.14100
H 	H 	0.31750 0.75030 0.13670 0.08000
C 	C 	0.36618 0.79579 0.10652 0.06900
H 	H 	0.38500 0.77170 0.09150 0.01500
C 	C 	0.25288 0.80319 0.18528 0.02600
C 	C 	0.23820 0.82935 0.22618 -0.09600
H 	H 	0.25580 0.85670 0.23600 0.06700
O 	O 	0.44624 0.82824 0.05248 -0.49900
O 	O 	0.43735 0.90341 0.07431 -0.27600
C 	C 	0.92537 0.57703 0.86057 0.39400
C 	C 	0.89827 0.62148 0.84472 -0.12300
C 	C 	0.87213 0.64834 0.87955 0.05800
H 	H 	0.87010 0.63760 0.91170 0.04000
C 	C 	0.84985 0.69028 0.86554 -0.12000
H 	H 	0.83840 0.71150 0.88950 0.08600
C 	C 	0.84340 0.70283 0.81639 0.06100
C 	C 	0.86614 0.67445 0.78320 -0.12500
H 	H 	0.86330 0.68250 0.75030 0.08000
C 	C 	0.89348 0.63382 0.79579 0.06100
H 	H 	0.90850 0.61500 0.77170 0.02900
C 	C 	0.81472 0.74712 0.80319 0.04000
C 	C 	0.77382 0.76180 0.82935 -0.10100
H 	H 	0.76400 0.74420 0.85670 0.07200
O 	O 	0.94752 0.55376 0.82824 -0.46500
O 	O 	0.92569 0.56265 0.90341 -0.25200
C 	C 	0.07463 0.57703 0.13943 0.40400
C 	C 	0.10173 0.62148 0.15528 -0.15400
C 	C 	0.12787 0.64834 0.12045 0.06900
H 	H 	0.12990 0.63760 0.08830 0.01400
C 	C 	0.15015 0.69028 0.13446 -0.14100
H 	H 	0.16160 0.71150 0.11050 0.07400
C 	C 	0.15660 0.70283 0.18361 0.06900
C 	C 	0.13386 0.67445 0.21680 -0.14600
H 	H 	0.13670 0.68250 0.24970 0.08100
C 	C 	0.10652 0.63382 0.20421 0.07400
H 	H 	0.09150 0.61500 0.22830 0.01200
C 	C 	0.18528 0.74712 0.19681 0.02400
C 	C 	0.22618 0.76180 0.17065 -0.09400
H 	H 	0.23600 0.74420 0.14330 0.06100
O 	O 	0.05248 0.55376 0.17176 -0.50200
O 	O 	0.07431 0.56265 0.09659 -0.29700
C 	C 	0.92537 0.42297 0.13943 0.39800
C 	C 	0.89827 0.37852 0.15528 -0.13500
C 	C 	0.87213 0.35166 0.12045 0.06100
H 	H 	0.87010 0.36240 0.08830 0.02200
C 	C 	0.84985 0.30972 0.13446 -0.12900
H 	H 	0.83840 0.28850 0.11050 0.07400
C 	C 	0.84340 0.29717 0.18361 0.06400
C 	C 	0.86614 0.32555 0.21680 -0.13300
H 	H 	0.86330 0.31750 0.24970 0.08200
C 	C 	0.89348 0.36618 0.20421 0.06700
H 	H 	0.90850 0.38500 0.22830 0.02700
C 	C 	0.81472 0.25288 0.19681 0.02800
C 	C 	0.77382 0.23820 0.17065 -0.09500
H 	H 	0.76400 0.25580 0.14330 0.06100
O 	O 	0.94752 0.44624 0.17176 -0.46900
O 	O 	0.92569 0.43735 0.09659 -0.27400
C 	C 	0.07463 0.42297 0.86057 0.39900
C 	C 	0.10173 0.37852 0.84472 -0.14400
C 	C 	0.12787 0.35166 0.87955 0.06400
H 	H 	0.12990 0.36240 0.91170 0.03000
C 	C 	0.15015 0.30972 0.86554 -0.13400
H 	H 	0.16160 0.28850 0.88950 0.08200
C 	C 	0.15660 0.29717 0.81639 0.06600
C 	C 	0.13386 0.32555 0.78320 -0.14100
H 	H 	0.13670 0.31750 0.75030 0.08000
C 	C 	0.10652 0.36618 0.79579 0.06900
H 	H 	0.09150 0.38500 0.77170 0.01500
C 	C 	0.18528 0.25288 0.80319 0.02600
C 	C 	0.22618 0.23820 0.82935 -0.09600
H 	H 	0.23600 0.25580 0.85670 0.06700
O 	O 	0.05248 0.44624 0.82824 -0.49900
O 	O 	0.07431 0.43735 0.90341 -0.27600
Mg	Mg	0.17218 0.00000 0.50000 1.46300
Mg	Mg	0.82782 0.00000 0.50000 1.46400
Mg	Mg	0.50000 0.17218 -0.00000 1.46300
Mg	Mg	0.50000 0.82782 -0.00000 1.46400
Mg	Mg	0.00000 0.50000 0.17218 1.46300
Mg	Mg	-0.00000 0.50000 0.82782 1.46400
C 	C 	0.63943 0.57463 0.92297 0.39400
C 	C 	0.65528 0.60173 0.87852 -0.13000
C 	C 	0.62045 0.62787 0.85166 0.05800
H 	H 	0.58830 0.62990 0.86240 0.03100
C 	C 	0.63446 0.65015 0.80972 -0.12500
H 	H 	0.61050 0.66160 0.78850 0.07700
C 	C 	0.68361 0.65660 0.79717 0.06000
C 	C 	0.71680 0.63386 0.82555 -0.13000
H 	H 	0.74970 0.63670 0.81750 0.07900
C 	C 	0.70421 0.60652 0.86618 0.06200
H 	H 	0.72830 0.59150 0.88500 0.02700
C 	C 	0.69681 0.68528 0.75288 0.03300
C 	C 	0.67065 0.72618 0.73820 -0.10000
H 	H 	0.64330 0.73600 0.75580 0.06700
O 	O 	0.67176 0.55248 0.94624 -0.46600
O 	O 	0.59659 0.57431 0.93735 -0.25900
C 	C 	0.36057 0.42537 0.92297 0.39400
C 	C 	0.34472 0.39827 0.87852 -0.13100
C 	C 	0.37955 0.37213 0.85166 0.05900
H 	H 	0.41170 0.37010 0.86240 0.03100
C 	C 	0.36554 0.34985 0.80972 -0.12700
H 	H 	0.38950 0.33840 0.78850 0.07800
C 	C 	0.31639 0.34340 0.79717 0.06200
C 	C 	0.28320 0.36614 0.82555 -0.13200
H 	H 	0.25030 0.36330 0.81750 0.08000
C 	C 	0.29579 0.39348 0.86618 0.06400
H 	H 	0.27170 0.40850 0.88500 0.02600
C 	C 	0.30319 0.31472 0.75288 0.03000
C 	C 	0.32935 0.27382 0.73820 -0.09600
H 	H 	0.35670 0.26400 0.75580 0.06500
O 	O 	0.32824 0.44752 0.94624 -0.46700
O 	O 	0.40341 0.42569 0.93735 -0.25900
C 	C 	0.36057 0.57463 0.07703 0.40400
C 	C 	0.34472 0.60173 0.12148 -0.14800
C 	C 	0.37955 0.62787 0.14834 0.06800
H 	H 	0.41170 0.62990 0.13760 0.02200
C 	C 	0.36554 0.65015 0.19028 -0.13600
H 	H 	0.38950 0.66160 0.21150 0.08000
C 	C 	0.31639 0.65660 0.20283 0.06900
C 	C 	0.28320 0.63386 0.17445 -0.14300
H 	H 	0.25030 0.63670 0.18250 0.08200
C 	C 	0.29579 0.60652 0.13382 0.07300
H 	H 	0.27170 0.59150 0.11500 0.01500
C 	C 	0.30319 0.68528 0.24712 0.02700
C 	C 	0.32935 0.72618 0.26180 -0.09500
H 	H 	0.35670 0.73600 0.24420 0.06500
O 	O 	0.32824 0.55248 0.05376 -0.50100
O 	O 	0.40341 0.57431 0.06265 -0.29100
C 	C 	0.63943 0.42537 0.07703 0.40300
C 	C 	0.65528 0.39827 0.12148 -0.14700
C 	C 	0.62045 0.37213 0.14834 0.06800
H 	H 	0.58830 0.37010 0.13760 0.02200
C 	C 	0.63446 0.34985 0.19028 -0.13600
H 	H 	0.61050 0.33840 0.21150 0.08000
C 	C 	0.68361 0.34340 0.20283 0.06800
C 	C 	0.71680 0.36614 0.17445 -0.14200
H 	H 	0.74970 0.36330 0.18250 0.08200
C 	C 	0.70421 0.39348 0.13382 0.07200
H 	H 	0.72830 0.40850 0.11500 0.01500
C 	C 	0.69681 0.31472 0.24712 0.02700
C 	C 	0.67065 0.27382 0.26180 -0.09400
H 	H 	0.64330 0.26400 0.24420 0.06400
O 	O 	0.67176 0.44752 0.05376 -0.50100
O 	O 	0.59659 0.42569 0.06265 -0.29100
C 	C 	0.92297 0.63943 0.57463 0.39400
C 	C 	0.87852 0.65528 0.60173 -0.13000
C 	C 	0.85166 0.62045 0.62787 0.05800
H 	H 	0.86240 0.58830 0.62990 0.03100
C 	C 	0.80972 0.63446 0.65015 -0.12500
H 	H 	0.78850 0.61050 0.66160 0.07700
C 	C 	0.79717 0.68361 0.65660 0.06000
C 	C 	0.82555 0.71680 0.63386 -0.13000
H 	H 	0.81750 0.74970 0.63670 0.07900
C 	C 	0.86618 0.70421 0.60652 0.06200
H 	H 	0.88500 0.72830 0.59150 0.02700
C 	C 	0.75288 0.69681 0.68528 0.03300
C 	C 	0.73820 0.67065 0.72618 -0.10000
H 	H 	0.75580 0.64330 0.73600 0.06700
O 	O 	0.94624 0.67176 0.55248 -0.46600
O 	O 	0.93735 0.59659 0.57431 -0.25900
C 	C 	0.92297 0.36057 0.42537 0.39400
C 	C 	0.87852 0.34472 0.39827 -0.13100
C 	C 	0.85166 0.37955 0.37213 0.05900
H 	H 	0.86240 0.41170 0.37010 0.03100
C 	C 	0.80972 0.36554 0.34985 -0.12700
H 	H 	0.78850 0.38950 0.33840 0.07800
C 	C 	0.79717 0.31639 0.34340 0.06200
C 	C 	0.82555 0.28320 0.36614 -0.13200
H 	H 	0.81750 0.25030 0.36330 0.08000
C 	C 	0.86618 0.29579 0.39348 0.06400
H 	H 	0.88500 0.27170 0.40850 0.02600
C 	C 	0.75288 0.30319 0.31472 0.03000
C 	C 	0.73820 0.32935 0.27382 -0.09600
H 	H 	0.75580 0.35670 0.26400 0.06500
O 	O 	0.94624 0.32824 0.44752 -0.46700
O 	O 	0.93735 0.40341 0.42569 -0.25900
C 	C 	0.07703 0.36057 0.57463 0.40400
C 	C 	0.12148 0.34472 0.60173 -0.14800
C 	C 	0.14834 0.37955 0.62787 0.06800
H 	H 	0.13760 0.41170 0.62990 0.02200
C 	C 	0.19028 0.36554 0.65015 -0.13600
H 	H 	0.21150 0.38950 0.66160 0.08000
C 	C 	0.20283 0.31639 0.65660 0.06900
C 	C 	0.17445 0.28320 0.63386 -0.14300
H 	H 	0.18250 0.25030 0.63670 0.08200
C 	C 	0.13382 0.29579 0.60652 0.07300
H 	H 	0.11500 0.27170 0.59150 0.01500
C 	C 	0.24712 0.30319 0.68528 0.02700
C 	C 	0.26180 0.32935 0.72618 -0.09500
H 	H 	0.24420 0.35670 0.73600 0.06500
O 	O 	0.05376 0.32824 0.55248 -0.50100
O 	O 	0.06265 0.40341 0.57431 -0.29100
C 	C 	0.07703 0.63943 0.42537 0.40300
C 	C 	0.12148 0.65528 0.39827 -0.14700
C 	C 	0.14834 0.62045 0.37213 0.06800
H 	H 	0.13760 0.58830 0.37010 0.02200
C 	C 	0.19028 0.63446 0.34985 -0.13600
H 	H 	0.21150 0.61050 0.33840 0.08000
C 	C 	0.20283 0.68361 0.34340 0.06800
C 	C 	0.17445 0.71680 0.36614 -0.14200
H 	H 	0.18250 0.74970 0.36330 0.08200
C 	C 	0.13382 0.70421 0.39348 0.07200
H 	H 	0.11500 0.72830 0.40850 0.01500
C 	C 	0.24712 0.69681 0.31472 0.02700
C 	C 	0.26180 0.67065 0.27382 -0.09400
H 	H 	0.24420 0.64330 0.26400 0.06400
O 	O 	0.05376 0.67176 0.44752 -0.50100
O 	O 	0.06265 0.59659 0.42569 -0.29100
C 	C 	0.57463 0.92297 0.63943 0.39400
C 	C 	0.60173 0.87852 0.65528 -0.13000
C 	C 	0.62787 0.85166 0.62045 0.05800
H 	H 	0.62990 0.86240 0.58830 0.03100
C 	C 	0.65015 0.80972 0.63446 -0.12500
H 	H 	0.66160 0.78850 0.61050 0.07700
C 	C 	0.65660 0.79717 0.68361 0.06000
C 	C 	0.63386 0.82555 0.71680 -0.13000
H 	H 	0.63670 0.81750 0.74970 0.07900
C 	C 	0.60652 0.86618 0.70421 0.06200
H 	H 	0.59150 0.88500 0.72830 0.02700
C 	C 	0.68528 0.75288 0.69681 0.03300
C 	C 	0.72618 0.73820 0.67065 -0.10000
H 	H 	0.73600 0.75580 0.64330 0.06700
O 	O 	0.55248 0.94624 0.67176 -0.46600
O 	O 	0.57431 0.93735 0.59659 -0.25900
C 	C 	0.42537 0.92297 0.36057 0.39400
C 	C 	0.39827 0.87852 0.34472 -0.13100
C 	C 	0.37213 0.85166 0.37955 0.05900
H 	H 	0.37010 0.86240 0.41170 0.03100
C 	C 	0.34985 0.80972 0.36554 -0.12700
H 	H 	0.33840 0.78850 0.38950 0.07800
C 	C 	0.34340 0.79717 0.31639 0.06200
C 	C 	0.36614 0.82555 0.28320 -0.13200
H 	H 	0.36330 0.81750 0.25030 0.08000
C 	C 	0.39348 0.86618 0.29579 0.06400
H 	H 	0.40850 0.88500 0.27170 0.02600
C 	C 	0.31472 0.75288 0.30319 0.03000
C 	C 	0.27382 0.73820 0.32935 -0.09600
H 	H 	0.26400 0.75580 0.35670 0.06500
O 	O 	0.44752 0.94624 0.32824 -0.46700
O 	O 	0.42569 0.93735 0.40341 -0.25900
C 	C 	0.57463 0.07703 0.36057 0.40400
C 	C 	0.60173 0.12148 0.34472 -0.14800
C 	C 	0.62787 0.14834 0.37955 0.06800
H 	H 	0.62990 0.13760 0.41170 0.02200
C 	C 	0.65015 0.19028 0.36554 -0.13600
H 	H 	0.66160 0.21150 0.38950 0.08000
C 	C 	0.65660 0.20283 0.31639 0.06900
C 	C 	0.63386 0.17445 0.28320 -0.14300
H 	H 	0.63670 0.18250 0.25030 0.08200
C 	C 	0.60652 0.13382 0.29579 0.07300
H 	H 	0.59150 0.11500 0.27170 0.01500
C 	C 	0.68528 0.24712 0.30319 0.02700
C 	C 	0.72618 0.26180 0.32935 -0.09500
H 	H 	0.73600 0.24420 0.35670 0.06500
O 	O 	0.55248 0.05376 0.32824 -0.50100
O 	O 	0.57431 0.06265 0.40341 -0.29100
C 	C 	0.42537 0.07703 0.63943 0.40300
C 	C 	0.39827 0.12148 0.65528 -0.14700
C 	C 	0.37213 0.14834 0.62045 0.06800
H 	H 	0.37010 0.13760 0.58830 0.02200
C 	C 	0.34985 0.19028 0.63446 -0.13600
H 	H 	0.33840 0.21150 0.61050 0.08000
C 	C 	0.34340 0.20283 0.68361 0.06800
C 	C 	0.36614 0.17445 0.71680 -0.14200
H 	H 	0.36330 0.18250 0.74970 0.08200
C 	C 	0.39348 0.13382 0.70421 0.07200
H 	H 	0.40850 0.11500 0.72830 0.01500
C 	C 	0.31472 0.24712 0.69681 0.02700
C 	C 	0.27382 0.26180 0.67065 -0.09400
H 	H 	0.26400 0.24420 0.64330 0.06400
O 	O 	0.44752 0.05376 0.67176 -0.50100
O 	O 	0.42569 0.06265 0.59659 -0.29100
C 	C 	0.36057 0.42537 0.07703 0.40400
C 	C 	0.34472 0.39827 0.12148 -0.14800
C 	C 	0.37955 0.37213 0.14834 0.06900
H 	H 	0.41170 0.37010 0.13760 0.02200
C 	C 	0.36554 0.34985 0.19028 -0.13700
H 	H 	0.38950 0.33840 0.21150 0.08100
C 	C 	0.31639 0.34340 0.20283 0.07000
C 	C 	0.28320 0.36614 0.17445 -0.14400
H 	H 	0.25030 0.36330 0.18250 0.08200
C 	C 	0.29579 0.39348 0.13382 0.07300
H 	H 	0.27170 0.40850 0.11500 0.01400
C 	C 	0.30319 0.31472 0.24712 0.02600
C 	C 	0.32935 0.27382 0.26180 -0.09300
H 	H 	0.35670 0.26400 0.24420 0.06400
O 	O 	0.32824 0.44752 0.05376 -0.50100
O 	O 	0.40341 0.42569 0.06265 -0.29100
C 	C 	0.63943 0.57463 0.07703 0.40300
C 	C 	0.65528 0.60173 0.12148 -0.14700
C 	C 	0.62045 0.62787 0.14834 0.06700
H 	H 	0.58830 0.62990 0.13760 0.02200
C 	C 	0.63446 0.65015 0.19028 -0.13500
H 	H 	0.61050 0.66160 0.21150 0.08000
C 	C 	0.68361 0.65660 0.20283 0.06700
C 	C 	0.71680 0.63386 0.17445 -0.14100
H 	H 	0.74970 0.63670 0.18250 0.08100
C 	C 	0.70421 0.60652 0.13382 0.07200
H 	H 	0.72830 0.59150 0.11500 0.01500
C 	C 	0.69681 0.68528 0.24712 0.02900
C 	C 	0.67065 0.72618 0.26180 -0.09700
H 	H 	0.64330 0.73600 0.24420 0.06500
O 	O 	0.67176 0.55248 0.05376 -0.50100
O 	O 	0.59659 0.57431 0.06265 -0.29100
C 	C 	0.63943 0.42537 0.92297 0.39400
C 	C 	0.65528 0.39827 0.87852 -0.13000
C 	C 	0.62045 0.37213 0.85166 0.05800
H 	H 	0.58830 0.37010 0.86240 0.03100
C 	C 	0.63446 0.34985 0.80972 -0.12600
H 	H 	0.61050 0.33840 0.78850 0.07700
C 	C 	0.68361 0.34340 0.79717 0.06100
C 	C 	0.71680 0.36614 0.82555 -0.13000
H 	H 	0.74970 0.36330 0.81750 0.07900
C 	C 	0.70421 0.39348 0.86618 0.06300
H 	H 	0.72830 0.40850 0.88500 0.02700
C 	C 	0.69681 0.31472 0.75288 0.03100
C 	C 	0.67065 0.27382 0.73820 -0.09700
H 	H 	0.64330 0.26400 0.75580 0.06500
O 	O 	0.67176 0.44752 0.94624 -0.46600
O 	O 	0.59659 0.42569 0.93735 -0.25900
C 	C 	0.36057 0.57463 0.92297 0.39400
C 	C 	0.34472 0.60173 0.87852 -0.13000
C 	C 	0.37955 0.62787 0.85166 0.05800
H 	H 	0.41170 0.62990 0.86240 0.03100
C 	C 	0.36554 0.65015 0.80972 -0.12600
H 	H 	0.38950 0.66160 0.78850 0.07800
C 	C 	0.31639 0.65660 0.79717 0.06100
C 	C 	0.28320 0.63386 0.82555 -0.13100
H 	H 	0.25030 0.63670 0.81750 0.08000
C 	C 	0.29579 0.60652 0.86618 0.06300
H 	H 	0.27170 0.59150 0.88500 0.02600
C 	C 	0.30319 0.68528 0.75288 0.03100
C 	C 	0.32935 0.72618 0.73820 -0.09800
H 	H 	0.35670 0.73600 0.75580 0.06600
O 	O 	0.32824 0.55248 0.94624 -0.46700
O 	O 	0.40341 0.57431 0.93735 -0.25900
C 	C 	0.07703 0.36057 0.42537 0.40400
C 	C 	0.12148 0.34472 0.39827 -0.14800
C 	C 	0.14834 0.37955 0.37213 0.06900
H 	H 	0.13760 0.41170 0.37010 0.02200
C 	C 	0.19028 0.36554 0.34985 -0.13700
H 	H 	0.21150 0.38950 0.33840 0.08100
C 	C 	0.20283 0.31639 0.34340 0.07000
C 	C 	0.17445 0.28320 0.36614 -0.14400
H 	H 	0.18250 0.25030 0.36330 0.08200
C 	C 	0.13382 0.29579 0.39348 0.07300
H 	H 	0.11500 0.27170 0.40850 0.01400
C 	C 	0.24712 0.30319 0.31472 0.02600
C 	C 	0.26180 0.32935 0.27382 -0.09300
H 	H 	0.24420 0.35670 0.26400 0.06400
O 	O 	0.05376 0.32824 0.44752 -0.50100
O 	O 	0.06265 0.40341 0.42569 -0.29100
C 	C 	0.07703 0.63943 0.57463 0.40300
C 	C 	0.12148 0.65528 0.60173 -0.14700
C 	C 	0.14834 0.62045 0.62787 0.06700
H 	H 	0.13760 0.58830 0.62990 0.02200
C 	C 	0.19028 0.63446 0.65015 -0.13500
H 	H 	0.21150 0.61050 0.66160 0.08000
C 	C 	0.20283 0.68361 0.65660 0.06700
C 	C 	0.17445 0.71680 0.63386 -0.14100
H 	H 	0.18250 0.74970 0.63670 0.08100
C 	C 	0.13382 0.70421 0.60652 0.07200
H 	H 	0.11500 0.72830 0.59150 0.01500
C 	C 	0.24712 0.69681 0.68528 0.02900
C 	C 	0.26180 0.67065 0.72618 -0.09700
H 	H 	0.24420 0.64330 0.73600 0.06500
O 	O 	0.05376 0.67176 0.55248 -0.50100
O 	O 	0.06265 0.59659 0.57431 -0.29100
C 	C 	0.92297 0.63943 0.42537 0.39400
C 	C 	0.87852 0.65528 0.39827 -0.13000
C 	C 	0.85166 0.62045 0.37213 0.05800
H 	H 	0.86240 0.58830 0.37010 0.03100
C 	C 	0.80972 0.63446 0.34985 -0.12600
H 	H 	0.78850 0.61050 0.33840 0.07700
C 	C 	0.79717 0.68361 0.34340 0.06100
C 	C 	0.82555 0.71680 0.36614 -0.13000
H 	H 	0.81750 0.74970 0.36330 0.07900
C 	C 	0.86618 0.70421 0.39348 0.06300
H 	H 	0.88500 0.72830 0.40850 0.02700
C 	C 	0.75288 0.69681 0.31472 0.03100
C 	C 	0.73820 0.67065 0.27382 -0.09700
H 	H 	0.75580 0.64330 0.26400 0.06500
O 	O 	0.94624 0.67176 0.44752 -0.46600
O 	O 	0.93735 0.59659 0.42569 -0.25900
C 	C 	0.92297 0.36057 0.57463 0.39400
C 	C 	0.87852 0.34472 0.60173 -0.13000
C 	C 	0.85166 0.37955 0.62787 0.05800
H 	H 	0.86240 0.41170 0.62990 0.03100
C 	C 	0.80972 0.36554 0.65015 -0.12600
H 	H 	0.78850 0.38950 0.66160 0.07800
C 	C 	0.79717 0.31639 0.65660 0.06100
C 	C 	0.82555 0.28320 0.63386 -0.13100
H 	H 	0.81750 0.25030 0.63670 0.08000
C 	C 	0.86618 0.29579 0.60652 0.06300
H 	H 	0.88500 0.27170 0.59150 0.02600
C 	C 	0.75288 0.30319 0.68528 0.03100
C 	C 	0.73820 0.32935 0.72618 -0.09800
H 	H 	0.75580 0.35670 0.73600 0.06600
O 	O 	0.94624 0.32824 0.55248 -0.46700
O 	O 	0.93735 0.40341 0.57431 -0.25900
C 	C 	0.42537 0.07703 0.36057 0.40400
C 	C 	0.39827 0.12148 0.34472 -0.14800
C 	C 	0.37213 0.14834 0.37955 0.06900
H 	H 	0.37010 0.13760 0.41170 0.02200
C 	C 	0.34985 0.19028 0.36554 -0.13700
H 	H 	0.33840 0.21150 0.38950 0.08100
C 	C 	0.34340 0.20283 0.31639 0.07000
C 	C 	0.36614 0.17445 0.28320 -0.14400
H 	H 	0.36330 0.18250 0.25030 0.08200
C 	C 	0.39348 0.13382 0.29579 0.07300
H 	H 	0.40850 0.11500 0.27170 0.01400
C 	C 	0.31472 0.24712 0.30319 0.02600
C 	C 	0.27382 0.26180 0.32935 -0.09300
H 	H 	0.26400 0.24420 0.35670 0.06400
O 	O 	0.44752 0.05376 0.32824 -0.50100
O 	O 	0.42569 0.06265 0.40341 -0.29100
C 	C 	0.57463 0.07703 0.63943 0.40300
C 	C 	0.60173 0.12148 0.65528 -0.14700
C 	C 	0.62787 0.14834 0.62045 0.06700
H 	H 	0.62990 0.13760 0.58830 0.02200
C 	C 	0.65015 0.19028 0.63446 -0.13500
H 	H 	0.66160 0.21150 0.61050 0.08000
C 	C 	0.65660 0.20283 0.68361 0.06700
C 	C 	0.63386 0.17445 0.71680 -0.14100
H 	H 	0.63670 0.18250 0.74970 0.08100
C 	C 	0.60652 0.13382 0.70421 0.07200
H 	H 	0.59150 0.11500 0.72830 0.01500
C 	C 	0.68528 0.24712 0.69681 0.02900
C 	C 	0.72618 0.26180 0.67065 -0.09700
H 	H 	0.73600 0.24420 0.64330 0.06500
O 	O 	0.55248 0.05376 0.67176 -0.50100
O 	O 	0.57431 0.06265 0.59659 -0.29100
C 	C 	0.42537 0.92297 0.63943 0.39400
C 	C 	0.39827 0.87852 0.65528 -0.13000
C 	C 	0.37213 0.85166 0.62045 0.05800
H 	H 	0.37010 0.86240 0.58830 0.03100
C 	C 	0.34985 0.80972 0.63446 -0.12600
H 	H 	0.33840 0.78850 0.61050 0.07700
C 	C 	0.34340 0.79717 0.68361 0.06100
C 	C 	0.36614 0.82555 0.71680 -0.13000
H 	H 	0.36330 0.81750 0.74970 0.07900
C 	C 	0.39348 0.86618 0.70421 0.06300
H 	H 	0.40850 0.88500 0.72830 0.02700
C 	C 	0.31472 0.75288 0.69681 0.03100
C 	C 	0.27382 0.73820 0.67065 -0.09700
H 	H 	0.26400 0.75580 0.64330 0.06500
O 	O 	0.44752 0.94624 0.67176 -0.46600
O 	O 	0.42569 0.93735 0.59659 -0.25900
C 	C 	0.57463 0.92297 0.36057 0.39400
C 	C 	0.60173 0.87852 0.34472 -0.13000
C 	C 	0.62787 0.85166 0.37955 0.05800
H 	H 	0.62990 0.86240 0.41170 0.03100
C 	C 	0.65015 0.80972 0.36554 -0.12600
H 	H 	0.66160 0.78850 0.38950 0.07800
C 	C 	0.65660 0.79717 0.31639 0.06100
C 	C 	0.63386 0.82555 0.28320 -0.13100
H 	H 	0.63670 0.81750 0.25030 0.08000
C 	C 	0.60652 0.86618 0.29579 0.06300
H 	H 	0.59150 0.88500 0.27170 0.02600
C 	C 	0.68528 0.75288 0.30319 0.03100
C 	C 	0.72618 0.73820 0.32935 -0.09800
H 	H 	0.73600 0.75580 0.35670 0.06600
O 	O 	0.55248 0.94624 0.32824 -0.46700
O 	O 	0.57431 0.93735 0.40341 -0.25900
Mg	Mg	0.67218 0.50000 -0.00000 1.46300
Mg	Mg	0.32782 0.50000 -0.00000 1.46300
Mg	Mg	0.00000 0.67218 0.50000 1.46300
Mg	Mg	0.00000 0.32782 0.50000 1.46300
Mg	Mg	0.50000 0.00000 0.67218 1.46300
Mg	Mg	0.50000 0.00000 0.32782 1.46300
