data_crystal

_cell_length_a 14.00860
_cell_length_b 16.33200
_cell_length_c 16.62200
_cell_angle_alpha 90.00000
_cell_angle_beta  90.00000
_cell_angle_gamma 90.00000

_symmetry_space_group_name_	'P 1'
_symmetry_space_group_name_H-M	'P 1'

loop_
_symmetry_equiv_pos_as_xyz
  x,y,z

loop_
_atom_site_label
_atom_site_type_symbol
_atom_site_fract_x
_atom_site_fract_y
_atom_site_fract_z
_atom_site_charge
Ni	Ni	0.97368 0.17556 0.61066 1.14900
C 	C 	0.75260 0.99679 0.65727 0.00400
C 	C 	0.71905 0.92024 0.63312 -0.02200
H 	H 	0.74550 0.89420 0.58710 0.06100
C 	C 	0.64662 0.88192 0.67670 -0.04100
C 	C 	0.60947 0.92028 0.74457 -0.01100
H 	H 	0.56370 0.89250 0.77670 0.05900
C 	C 	0.63842 0.99841 0.76579 0.00800
C 	C 	0.71062 0.03695 0.72173 -0.07900
H 	H 	0.73090 0.09060 0.73590 0.09100
C 	C 	0.83818 0.03560 0.61566 0.31500
C 	C 	0.60771 0.79961 0.65169 0.28800
C 	C 	0.59061 0.03946 0.83615 0.29400
O 	O 	0.87360 0.09738 0.65006 -0.38700
O 	O 	0.86694 0.00046 0.55263 -0.38000
O 	O 	0.63326 0.76855 0.58595 -0.33700
O 	O 	0.54746 0.76484 0.69616 -0.36200
O 	O 	0.56128 0.99269 0.88931 -0.34500
O 	O 	0.58225 0.11670 0.83378 -0.37700
C 	C 	0.91843 0.80620 0.60873 -1.06900
H 	H 	0.84870 0.80200 0.60990 0.36300
H 	H 	0.94640 0.75740 0.63360 0.38000
H 	H 	0.93850 0.85500 0.63860 0.38100
C 	C 	0.95185 0.81271 0.52286 0.71600
O 	O 	0.93247 0.75818 0.47240 -0.42400
O 	O 	0.00420 0.87123 0.50144 -0.64400
Ni	Ni	0.52632 0.82444 0.11066 1.12200
C 	C 	0.74740 0.00321 0.15727 -0.20800
C 	C 	0.78095 0.07976 0.13312 0.09900
H 	H 	0.75450 0.10580 0.08710 0.00800
C 	C 	0.85338 0.11808 0.17670 -0.13800
C 	C 	0.89053 0.07972 0.24457 0.11500
H 	H 	0.93630 0.10750 0.27670 0.02800
C 	C 	0.86158 0.00159 0.26579 -0.21100
C 	C 	0.78938 0.96305 0.22173 0.18000
H 	H 	0.76910 0.90940 0.23590 0.00800
C 	C 	0.66182 0.96440 0.11566 0.41300
C 	C 	0.89229 0.20039 0.15169 0.32000
C 	C 	0.90939 0.96054 0.33615 0.45400
O 	O 	0.62640 0.90262 0.15006 -0.42200
O 	O 	0.63306 0.99954 0.05263 -0.41000
O 	O 	0.86674 0.23145 0.08595 -0.35700
O 	O 	0.95254 0.23516 0.19616 -0.35000
O 	O 	0.93872 0.00731 0.38931 -0.42100
O 	O 	0.91775 0.88330 0.33378 -0.39600
C 	C 	0.58157 0.19380 0.10873 -0.87900
H 	H 	0.65130 0.19800 0.10990 0.29800
H 	H 	0.55360 0.24260 0.13360 0.30100
H 	H 	0.56150 0.14500 0.13860 0.30300
C 	C 	0.54815 0.18729 0.02286 0.50600
O 	O 	0.56753 0.24182 0.97240 -0.34100
O 	O 	0.49580 0.12877 0.00144 -0.58600
Ni	Ni	0.02632 0.67556 0.88934 1.12000
C 	C 	0.24740 0.49679 0.84273 -0.10500
C 	C 	0.28095 0.42024 0.86688 0.03800
H 	H 	0.25450 0.39420 0.91290 0.04400
C 	C 	0.35338 0.38192 0.82330 -0.09100
C 	C 	0.39053 0.42028 0.75543 0.05600
H 	H 	0.43630 0.39250 0.72330 0.03400
C 	C 	0.36158 0.49841 0.73421 -0.11500
C 	C 	0.28938 0.53695 0.77827 0.05600
H 	H 	0.26910 0.59060 0.76410 0.04100
C 	C 	0.16182 0.53560 0.88434 0.36300
C 	C 	0.39229 0.29961 0.84831 0.30100
C 	C 	0.40939 0.53946 0.66385 0.38300
O 	O 	0.12640 0.59738 0.84994 -0.41700
O 	O 	0.13306 0.50046 0.94737 -0.37800
O 	O 	0.36674 0.26855 0.91405 -0.32700
O 	O 	0.45254 0.26484 0.80384 -0.36900
O 	O 	0.43872 0.49269 0.61069 -0.41600
O 	O 	0.41775 0.61670 0.66622 -0.40600
C 	C 	0.08157 0.30620 0.89127 -0.91800
H 	H 	0.15130 0.30200 0.89010 0.31800
H 	H 	0.05360 0.25740 0.86640 0.30700
H 	H 	0.06150 0.35500 0.86140 0.29300
C 	C 	0.04815 0.31271 0.97714 0.58700
O 	O 	0.06753 0.25818 0.02760 -0.49400
O 	O 	0.99580 0.37123 0.99856 -0.46500
Ni	Ni	0.47368 0.32444 0.38934 1.13000
C 	C 	0.25260 0.50321 0.34273 -0.11900
C 	C 	0.21905 0.57976 0.36688 0.04700
H 	H 	0.24550 0.60580 0.41290 0.03100
C 	C 	0.14662 0.61808 0.32330 -0.11300
C 	C 	0.10947 0.57972 0.25543 0.06500
H 	H 	0.06370 0.60750 0.22330 0.01500
C 	C 	0.13842 0.50159 0.23421 -0.13400
C 	C 	0.21062 0.46305 0.27827 0.06400
H 	H 	0.23090 0.40940 0.26410 0.03500
C 	C 	0.33818 0.46440 0.38434 0.36800
C 	C 	0.10771 0.70039 0.34831 0.30900
C 	C 	0.09061 0.46054 0.16385 0.38500
O 	O 	0.37360 0.40262 0.34994 -0.41500
O 	O 	0.36694 0.49954 0.44737 -0.40000
O 	O 	0.13326 0.73145 0.41405 -0.35500
O 	O 	0.04746 0.73516 0.30384 -0.39300
O 	O 	0.06128 0.50731 0.11069 -0.44700
O 	O 	0.08225 0.38330 0.16622 -0.44100
C 	C 	0.41843 0.69380 0.39127 -0.96700
H 	H 	0.34870 0.69800 0.39010 0.32900
H 	H 	0.44640 0.74260 0.36640 0.33500
H 	H 	0.43850 0.64500 0.36140 0.32900
C 	C 	0.45185 0.68729 0.47714 0.61400
O 	O 	0.43247 0.74182 0.52760 -0.42300
O 	O 	0.50420 0.62877 0.49856 -0.57600
Ni	Ni	0.02632 0.82444 0.38934 1.11500
C 	C 	0.24740 0.00321 0.34273 -0.23500
C 	C 	0.28095 0.07976 0.36688 0.11400
H 	H 	0.25450 0.10580 0.41290 0.00700
C 	C 	0.35338 0.11808 0.32330 -0.15800
C 	C 	0.39053 0.07972 0.25543 0.13400
H 	H 	0.43630 0.10750 0.22330 0.00500
C 	C 	0.36158 0.00159 0.23421 -0.25100
C 	C 	0.28938 0.96305 0.27827 0.21100
H 	H 	0.26910 0.90940 0.26410 -0.00900
C 	C 	0.16182 0.96440 0.38434 0.42300
C 	C 	0.39229 0.20039 0.34831 0.32400
C 	C 	0.40939 0.96054 0.16385 0.47300
O 	O 	0.12640 0.90262 0.34994 -0.43300
O 	O 	0.13306 0.99954 0.44737 -0.40000
O 	O 	0.36674 0.23145 0.41405 -0.35100
O 	O 	0.45254 0.23516 0.30384 -0.37700
O 	O 	0.43872 0.00731 0.11069 -0.47200
O 	O 	0.41775 0.88330 0.16622 -0.43400
C 	C 	0.08157 0.19380 0.39127 -0.84900
H 	H 	0.15130 0.19800 0.39010 0.29200
H 	H 	0.05360 0.24260 0.36640 0.28300
H 	H 	0.06150 0.14500 0.36140 0.27200
C 	C 	0.04815 0.18729 0.47714 0.49800
O 	O 	0.06753 0.24182 0.52760 -0.42100
O 	O 	0.99580 0.12877 0.49856 -0.49000
Ni	Ni	0.47368 0.17556 0.88934 1.13800
C 	C 	0.25260 0.99679 0.84273 0.01800
C 	C 	0.21905 0.92024 0.86688 -0.03300
H 	H 	0.24550 0.89420 0.91290 0.06900
C 	C 	0.14662 0.88192 0.82330 -0.04300
C 	C 	0.10947 0.92028 0.75543 -0.02000
H 	H 	0.06370 0.89250 0.72330 0.04600
C 	C 	0.13842 0.99841 0.73421 0.01300
C 	C 	0.21062 0.03695 0.77827 -0.10200
H 	H 	0.23090 0.09060 0.76410 0.08900
C 	C 	0.33818 0.03560 0.88434 0.30500
C 	C 	0.10771 0.79961 0.84831 0.28500
C 	C 	0.09061 0.03946 0.66385 0.28200
O 	O 	0.37360 0.09738 0.84994 -0.39600
O 	O 	0.36694 0.00046 0.94737 -0.37100
O 	O 	0.13326 0.76855 0.91405 -0.33100
O 	O 	0.04746 0.76484 0.80384 -0.38700
O 	O 	0.06128 0.99269 0.61069 -0.38300
O 	O 	0.08225 0.11670 0.66622 -0.41200
C 	C 	0.41843 0.80620 0.89127 -1.04800
H 	H 	0.34870 0.80200 0.89010 0.35900
H 	H 	0.44640 0.75740 0.86640 0.36500
H 	H 	0.43850 0.85500 0.86140 0.35400
C 	C 	0.45185 0.81271 0.97714 0.71700
O 	O 	0.43247 0.75818 0.02760 -0.50400
O 	O 	0.50420 0.87123 0.99856 -0.55300
Ni	Ni	0.97368 0.32444 0.11066 1.13800
C 	C 	0.75260 0.50321 0.15727 -0.11300
C 	C 	0.71905 0.57976 0.13312 0.04500
H 	H 	0.74550 0.60580 0.08710 0.02600
C 	C 	0.64662 0.61808 0.17670 -0.10500
C 	C 	0.60947 0.57972 0.24457 0.06100
H 	H 	0.56370 0.60750 0.27670 0.03100
C 	C 	0.63842 0.50159 0.26579 -0.11900
C 	C 	0.71062 0.46305 0.22173 0.06100
H 	H 	0.73090 0.40940 0.23590 0.04400
C 	C 	0.83818 0.46440 0.11566 0.36700
C 	C 	0.60771 0.70039 0.15169 0.30900
C 	C 	0.59061 0.46054 0.33615 0.38500
O 	O 	0.87360 0.40262 0.15006 -0.40400
O 	O 	0.86694 0.49954 0.05263 -0.40300
O 	O 	0.63326 0.73145 0.08595 -0.36200
O 	O 	0.54746 0.73516 0.19616 -0.37000
O 	O 	0.56128 0.50731 0.38931 -0.41400
O 	O 	0.58225 0.38330 0.33378 -0.40600
C 	C 	0.91843 0.69380 0.10873 -0.97200
H 	H 	0.84870 0.69800 0.10990 0.32700
H 	H 	0.94640 0.74260 0.13360 0.34400
H 	H 	0.93850 0.64500 0.13860 0.35100
C 	C 	0.95185 0.68729 0.02286 0.59600
O 	O 	0.93247 0.74182 0.97240 -0.33400
O 	O 	0.00420 0.62877 0.00144 -0.64900
Ni	Ni	0.52632 0.67556 0.61066 1.13000
C 	C 	0.74740 0.49679 0.65727 -0.09900
C 	C 	0.78095 0.42024 0.63312 0.03500
H 	H 	0.75450 0.39420 0.58710 0.04100
C 	C 	0.85338 0.38192 0.67670 -0.08000
C 	C 	0.89053 0.42028 0.74457 0.04800
H 	H 	0.93630 0.39250 0.77670 0.05400
C 	C 	0.86158 0.49841 0.76579 -0.09600
C 	C 	0.78938 0.53695 0.72173 0.05200
H 	H 	0.76910 0.59060 0.73590 0.05100
C 	C 	0.66182 0.53560 0.61566 0.36500
C 	C 	0.89229 0.29961 0.65169 0.30000
C 	C 	0.90939 0.53946 0.83615 0.37800
O 	O 	0.62640 0.59738 0.65006 -0.40800
O 	O 	0.63306 0.50046 0.55263 -0.39400
O 	O 	0.86674 0.26855 0.58595 -0.33200
O 	O 	0.95254 0.26484 0.69616 -0.34100
O 	O 	0.93872 0.49269 0.88931 -0.36000
O 	O 	0.91775 0.61670 0.83378 -0.36700
C 	C 	0.58157 0.30620 0.60873 -0.96600
H 	H 	0.65130 0.30200 0.60990 0.32900
H 	H 	0.55360 0.25740 0.63360 0.33100
H 	H 	0.56150 0.35500 0.63860 0.32900
C 	C 	0.54815 0.31271 0.52286 0.61400
O 	O 	0.56753 0.25818 0.47240 -0.42400
O 	O 	0.49580 0.37123 0.50144 -0.57700
Ni	Ni	0.00000 0.00000 0.50000 1.10400
Ni	Ni	0.50000 0.00000 -0.00000 1.10500
Ni	Ni	-0.00000 0.50000 -0.00000 1.09000
Ni	Ni	0.50000 0.50000 0.50000 1.14600
