data_crystal

_cell_length_a 10.71100
_cell_length_b 13.79630
_cell_length_c 18.75110
_cell_angle_alpha 90.00000
_cell_angle_beta  98.15800
_cell_angle_gamma 90.00000

_symmetry_space_group_name_	'P 1'
_symmetry_space_group_name_H-M	'P 1'

loop_
_symmetry_equiv_pos_as_xyz
  x,y,z

loop_
_atom_site_label
_atom_site_type_symbol
_atom_site_fract_x
_atom_site_fract_y
_atom_site_fract_z
_atom_site_charge
Ni	Ni	0.39800 0.26770 0.52411 1.14800
C 	C 	0.40950 0.13530 0.33316 -0.05200
C 	C 	0.41630 0.14610 0.25982 0.03200
H 	H 	0.38540 0.20370 0.23580 0.06800
C 	C 	0.46760 0.07360 0.22147 -0.11400
C 	C 	0.51850 0.99090 0.25747 0.07000
H 	H 	0.55410 0.94120 0.23170 0.06700
C 	C 	0.51700 0.98150 0.33119 -0.04100
C 	C 	0.45760 0.05300 0.36822 -0.01600
H 	H 	0.45080 0.04420 0.41780 0.07400
C 	C 	0.35580 0.21730 0.37298 0.30900
C 	C 	0.47060 0.08530 0.14124 0.38200
C 	C 	0.58370 0.89990 0.37268 0.31800
O 	O 	0.31788 0.19516 0.43240 -0.31700
O 	O 	0.35450 0.30043 0.34731 -0.21300
O 	O 	0.47010 0.17183 0.11897 -0.40300
O 	O 	0.47321 0.00972 0.10483 -0.40700
O 	O 	0.68100 0.86617 0.34414 -0.19800
O 	O 	0.55058 0.86767 0.42758 -0.33500
C 	C 	0.22090 0.76690 0.97319 -0.07800
C 	C 	0.10550 0.81190 0.97071 0.03600
H 	H 	0.10220 0.87960 0.97940 0.08400
C 	C 	0.99230 0.75910 0.95544 -0.05100
C 	C 	0.99770 0.65970 0.94158 0.02000
H 	H 	0.92210 0.62370 0.92960 0.08400
C 	C 	0.11370 0.61400 0.94532 -0.04300
C 	C 	0.22450 0.66690 0.96119 0.03000
H 	H 	0.30360 0.63490 0.96390 0.07100
C 	C 	0.34470 0.81820 0.99093 0.40500
C 	C 	0.86910 0.80710 0.96075 0.32100
C 	C 	0.12090 0.50640 0.93342 0.28800
O 	O 	0.43681 0.76484 0.01428 -0.43400
O 	O 	0.34687 0.90802 0.98147 -0.35200
O 	O 	0.86810 0.89016 0.98774 -0.19000
O 	O 	0.76999 0.75869 0.93853 -0.32900
O 	O 	0.03820 0.45939 0.90137 -0.19900
O 	O 	0.23160 0.47105 0.96491 -0.17300
O 	O 	0.64169 0.89703 0.03023 -0.33900
Ni	Ni	0.60200 0.76770 0.97589 1.16100
C 	C 	0.59050 0.63530 0.16684 -0.06000
C 	C 	0.58370 0.64610 0.24018 0.02700
H 	H 	0.61460 0.70370 0.26420 0.07100
C 	C 	0.53240 0.57360 0.27853 -0.07500
C 	C 	0.48150 0.49090 0.24253 0.03200
H 	H 	0.44590 0.44120 0.26830 0.07200
C 	C 	0.48300 0.48150 0.16881 -0.07300
C 	C 	0.54240 0.55300 0.13178 0.02700
H 	H 	0.54920 0.54420 0.08220 0.06300
C 	C 	0.64420 0.71730 0.12702 0.31400
C 	C 	0.52940 0.58530 0.35876 0.37200
C 	C 	0.41630 0.39990 0.12732 0.32400
O 	O 	0.68212 0.69516 0.06760 -0.32900
O 	O 	0.64550 0.80043 0.15269 -0.21000
O 	O 	0.52990 0.67183 0.38103 -0.39500
O 	O 	0.52679 0.50972 0.39517 -0.38200
O 	O 	0.31900 0.36617 0.15586 -0.20600
O 	O 	0.44942 0.36767 0.07242 -0.35300
C 	C 	0.77910 0.26690 0.52681 -0.07000
C 	C 	0.89450 0.31190 0.52929 0.02000
H 	H 	0.89780 0.37960 0.52060 0.07500
C 	C 	0.00770 0.25910 0.54456 -0.05000
C 	C 	0.00230 0.15970 0.55842 0.01200
H 	H 	0.07790 0.12370 0.57040 0.07800
C 	C 	0.88630 0.11400 0.55468 -0.03500
C 	C 	0.77550 0.16690 0.53881 0.01000
H 	H 	0.69640 0.13490 0.53610 0.06400
C 	C 	0.65530 0.31820 0.50907 0.36100
C 	C 	0.13090 0.30710 0.53925 0.31900
C 	C 	0.87910 0.00640 0.56658 0.20800
O 	O 	0.56319 0.26484 0.48572 -0.39500
O 	O 	0.65313 0.40802 0.51853 -0.36900
O 	O 	0.13190 0.39016 0.51226 -0.21500
O 	O 	0.23001 0.25869 0.56147 -0.33700
O 	O 	0.96180 0.95939 0.59863 -0.16200
O 	O 	0.76840 0.97105 0.53509 -0.14700
O 	O 	0.35831 0.39703 0.46977 -0.33600
Ni	Ni	0.60200 0.73230 0.47589 1.14700
C 	C 	0.59050 0.86470 0.66684 -0.06100
C 	C 	0.58370 0.85390 0.74018 0.02000
H 	H 	0.61460 0.79630 0.76420 0.07400
C 	C 	0.53240 0.92640 0.77853 -0.03800
C 	C 	0.48150 0.00910 0.74253 -0.00200
H 	H 	0.44590 0.05880 0.76830 0.07800
C 	C 	0.48300 0.01850 0.66881 -0.09300
C 	C 	0.54240 0.94700 0.63178 0.06100
H 	H 	0.54920 0.95580 0.58220 0.06600
C 	C 	0.64420 0.78270 0.62702 0.31500
C 	C 	0.52940 0.91470 0.85876 0.36000
C 	C 	0.41630 0.10010 0.62732 0.32600
O 	O 	0.68212 0.80484 0.56760 -0.31700
O 	O 	0.64550 0.69957 0.65269 -0.21300
O 	O 	0.52990 0.82817 0.88103 -0.38700
O 	O 	0.52679 0.99028 0.89517 -0.35000
O 	O 	0.31900 0.13383 0.65586 -0.20600
O 	O 	0.44942 0.13233 0.57242 -0.34700
C 	C 	0.77910 0.23310 0.02681 -0.07300
C 	C 	0.89450 0.18810 0.02929 0.02300
H 	H 	0.89780 0.12040 0.02060 0.06100
C 	C 	0.00770 0.24090 0.04456 -0.06400
C 	C 	0.00230 0.34030 0.05842 0.02400
H 	H 	0.07790 0.37630 0.07040 0.07200
C 	C 	0.88630 0.38600 0.05468 -0.06000
C 	C 	0.77550 0.33310 0.03881 0.01800
H 	H 	0.69640 0.36510 0.03610 0.05900
C 	C 	0.65530 0.18180 0.00907 0.31500
C 	C 	0.13090 0.19290 0.03925 0.32200
C 	C 	0.87910 0.49360 0.06658 0.28800
O 	O 	0.56319 0.23516 0.98572 -0.34600
O 	O 	0.65313 0.09198 0.01853 -0.37800
O 	O 	0.13190 0.10984 0.01226 -0.24300
O 	O 	0.23001 0.24131 0.06147 -0.34700
O 	O 	0.96180 0.54061 0.09863 -0.21700
O 	O 	0.76840 0.52895 0.03509 -0.20000
O 	O 	0.35831 0.10297 0.96977 -0.31700
Ni	Ni	0.39800 0.23230 0.02411 1.13100
C 	C 	0.40950 0.36470 0.83316 -0.05200
C 	C 	0.41630 0.35390 0.75982 0.02300
H 	H 	0.38540 0.29630 0.73580 0.07200
C 	C 	0.46760 0.42640 0.72147 -0.07100
C 	C 	0.51850 0.50910 0.75747 0.02800
H 	H 	0.55410 0.55880 0.73170 0.07400
C 	C 	0.51700 0.51850 0.83119 -0.06200
C 	C 	0.45760 0.44700 0.86822 0.02000
H 	H 	0.45080 0.45580 0.91780 0.07700
C 	C 	0.35580 0.28270 0.87298 0.30900
C 	C 	0.47060 0.41470 0.64124 0.37000
C 	C 	0.58370 0.60010 0.87268 0.32000
O 	O 	0.31788 0.30484 0.93240 -0.30200
O 	O 	0.35450 0.19957 0.84731 -0.21300
O 	O 	0.47010 0.32817 0.61897 -0.39500
O 	O 	0.47321 0.49028 0.60483 -0.38100
O 	O 	0.68100 0.63383 0.84414 -0.20000
O 	O 	0.55058 0.63233 0.92758 -0.32900
C 	C 	0.22090 0.73310 0.47319 -0.08400
C 	C 	0.10550 0.68810 0.47071 0.04000
H 	H 	0.10220 0.62040 0.47940 0.07000
C 	C 	0.99230 0.74090 0.45544 -0.06700
C 	C 	0.99770 0.84030 0.44158 0.03900
H 	H 	0.92210 0.87630 0.42960 0.07700
C 	C 	0.11370 0.88600 0.44532 -0.07400
C 	C 	0.22450 0.83310 0.46119 0.04100
H 	H 	0.30360 0.86510 0.46390 0.06500
C 	C 	0.34470 0.68180 0.49093 0.36700
C 	C 	0.86910 0.69290 0.46075 0.32500
C 	C 	0.12090 0.99360 0.43342 0.36300
O 	O 	0.43681 0.73516 0.51428 -0.39400
O 	O 	0.34687 0.59198 0.48147 -0.37000
O 	O 	0.86810 0.60984 0.48774 -0.21700
O 	O 	0.76999 0.74131 0.43853 -0.33800
O 	O 	0.03820 0.04061 0.40137 -0.25200
O 	O 	0.23160 0.02895 0.46491 -0.22400
O 	O 	0.64169 0.60297 0.53023 -0.33600
Ni	Ni	0.50000 0.00000 -0.00000 1.10800
Ni	Ni	0.50000 0.50000 0.50000 1.13800
