data_crystal

_cell_length_a 14.13490
_cell_length_b 16.29610
_cell_length_c 16.52400
_cell_angle_alpha 90.00000
_cell_angle_beta  90.00000
_cell_angle_gamma 90.00000

_symmetry_space_group_name_	'P 1'
_symmetry_space_group_name_H-M	'P 1'

loop_
_symmetry_equiv_pos_as_xyz
  x,y,z

loop_
_atom_site_label
_atom_site_type_symbol
_atom_site_fract_x
_atom_site_fract_y
_atom_site_fract_z
_atom_site_charge
Ni	Ni	0.97272 0.67263 0.11398 1.15100
C 	C 	0.13894 0.49671 0.23520 -0.13300
C 	C 	0.11333 0.41695 0.25374 0.06500
H 	H 	0.07000 0.38860 0.21980 0.01300
C 	C 	0.15028 0.37775 0.32145 -0.11600
C 	C 	0.22011 0.41706 0.36651 0.05000
H 	H 	0.24580 0.39080 0.41290 0.02900
C 	C 	0.25244 0.49409 0.34428 -0.12200
C 	C 	0.20818 0.53592 0.28068 0.06500
H 	H 	0.22540 0.59090 0.26870 0.03500
C 	C 	0.08987 0.53910 0.16545 0.38100
C 	C 	0.11163 0.29506 0.34502 0.30300
C 	C 	0.33821 0.53209 0.38431 0.37100
O 	O 	0.08198 0.61616 0.16901 -0.43900
O 	O 	0.05962 0.49238 0.11133 -0.45000
O 	O 	0.05129 0.26097 0.29906 -0.39800
O 	O 	0.13573 0.26241 0.41087 -0.35800
O 	O 	0.36667 0.49921 0.44907 -0.39800
O 	O 	0.37515 0.59115 0.34715 -0.41400
C 	C 	0.92299 0.30552 0.10718 -0.91300
H 	H 	0.85390 0.30130 0.11000 0.31000
H 	H 	0.95150 0.25620 0.13070 0.32800
H 	H 	0.94390 0.35390 0.13750 0.33400
C 	C 	0.95300 0.31344 0.02050 0.51900
O 	O 	0.93346 0.25958 0.96925 -0.32300
O 	O 	0.00589 0.37319 0.99895 -0.54700
Ni	Ni	0.52728 0.32737 0.61398 1.13000
C 	C 	0.36106 0.50329 0.73520 -0.11200
C 	C 	0.38667 0.58305 0.75374 0.05300
H 	H 	0.43000 0.61140 0.71980 0.03500
C 	C 	0.34972 0.62225 0.82145 -0.09100
C 	C 	0.27989 0.58294 0.86651 0.03900
H 	H 	0.25420 0.60920 0.91290 0.04200
C 	C 	0.24756 0.50591 0.84428 -0.10700
C 	C 	0.29182 0.46408 0.78068 0.05600
H 	H 	0.27460 0.40910 0.76870 0.04200
C 	C 	0.41013 0.46090 0.66545 0.37700
C 	C 	0.38837 0.70494 0.84502 0.29500
C 	C 	0.16179 0.46791 0.88431 0.36400
O 	O 	0.41802 0.38384 0.66901 -0.40700
O 	O 	0.44038 0.50762 0.61133 -0.41400
O 	O 	0.44871 0.73903 0.79906 -0.36200
O 	O 	0.36427 0.73759 0.91087 -0.33100
O 	O 	0.13333 0.50079 0.94907 -0.37900
O 	O 	0.12485 0.40885 0.84715 -0.42100
C 	C 	0.57701 0.69448 0.60718 -0.96700
H 	H 	0.64610 0.69870 0.61000 0.33000
H 	H 	0.54850 0.74380 0.63070 0.33600
H 	H 	0.55610 0.64610 0.63750 0.33000
C 	C 	0.54700 0.68656 0.52050 0.60300
O 	O 	0.56654 0.74042 0.46925 -0.41600
O 	O 	0.49411 0.62681 0.49895 -0.57300
Ni	Ni	0.02728 0.17263 0.38602 1.10700
C 	C 	0.86106 0.99671 0.26480 0.01900
C 	C 	0.88667 0.91695 0.24626 -0.02500
H 	H 	0.93000 0.88860 0.28020 0.07900
C 	C 	0.84972 0.87775 0.17855 -0.02900
C 	C 	0.77989 0.91706 0.13349 -0.03300
H 	H 	0.75420 0.89080 0.08710 0.05900
C 	C 	0.74756 0.99409 0.15572 0.01200
C 	C 	0.79182 0.03592 0.21932 -0.09100
H 	H 	0.77460 0.09090 0.23130 0.08900
C 	C 	0.91013 0.03910 0.33455 0.29100
C 	C 	0.88837 0.79506 0.15498 0.27700
C 	C 	0.66179 0.03209 0.11569 0.28000
O 	O 	0.91802 0.11616 0.33099 -0.36000
O 	O 	0.94038 0.99238 0.38867 -0.33900
O 	O 	0.94871 0.76097 0.20094 -0.33200
O 	O 	0.86427 0.76241 0.08913 -0.33700
O 	O 	0.63333 0.99921 0.05093 -0.36100
O 	O 	0.62485 0.09115 0.15285 -0.39300
C 	C 	0.07701 0.80552 0.39282 -0.84400
H 	H 	0.14610 0.80130 0.39000 0.29000
H 	H 	0.04850 0.75620 0.36930 0.28100
H 	H 	0.05610 0.85390 0.36250 0.27100
C 	C 	0.04700 0.81344 0.47950 0.48500
O 	O 	0.06654 0.75958 0.53075 -0.41600
O 	O 	0.99411 0.87319 0.50105 -0.47900
Ni	Ni	0.47272 0.82737 0.88602 1.13200
C 	C 	0.63894 0.00329 0.76480 -0.19500
C 	C 	0.61333 0.08305 0.74626 0.11000
H 	H 	0.57000 0.11140 0.78020 0.01700
C 	C 	0.65028 0.12225 0.67855 -0.13600
C 	C 	0.72011 0.08294 0.63349 0.09800
H 	H 	0.74580 0.10920 0.58710 0.01500
C 	C 	0.75244 0.00591 0.65572 -0.19600
C 	C 	0.70818 0.96408 0.71932 0.16700
H 	H 	0.72540 0.90910 0.73130 0.01600
C 	C 	0.58987 0.96090 0.83455 0.43600
C 	C 	0.61163 0.20494 0.65498 0.31200
C 	C 	0.83821 0.96791 0.61569 0.43400
O 	O 	0.58198 0.88384 0.83099 -0.41100
O 	O 	0.55962 0.00762 0.88867 -0.41700
O 	O 	0.55129 0.23903 0.70094 -0.36800
O 	O 	0.63573 0.23759 0.58913 -0.34700
O 	O 	0.86667 0.00079 0.55093 -0.40800
O 	O 	0.87515 0.90885 0.65285 -0.40500
C 	C 	0.42299 0.19448 0.89282 -1.12900
H 	H 	0.35390 0.19870 0.89000 0.38000
H 	H 	0.45150 0.24380 0.86930 0.38900
H 	H 	0.44390 0.14610 0.86250 0.38100
C 	C 	0.45300 0.18656 0.97950 0.80200
O 	O 	0.43346 0.24042 0.03075 -0.52300
O 	O 	0.50589 0.12681 0.00105 -0.67400
Ni	Ni	0.02728 0.32737 0.88602 1.10900
C 	C 	0.86106 0.50329 0.76480 -0.09100
C 	C 	0.88667 0.58305 0.74626 0.04500
H 	H 	0.93000 0.61140 0.78020 0.05600
C 	C 	0.84972 0.62225 0.67855 -0.07700
C 	C 	0.77989 0.58294 0.63349 0.03700
H 	H 	0.75420 0.60920 0.58710 0.04100
C 	C 	0.74756 0.50591 0.65572 -0.10000
C 	C 	0.79182 0.46408 0.71932 0.05100
H 	H 	0.77460 0.40910 0.73130 0.05100
C 	C 	0.91013 0.46090 0.83455 0.36900
C 	C 	0.88837 0.70494 0.65498 0.29300
C 	C 	0.66179 0.46791 0.61569 0.36700
O 	O 	0.91802 0.38384 0.83099 -0.36900
O 	O 	0.94038 0.50762 0.88867 -0.35700
O 	O 	0.94871 0.73903 0.70094 -0.33300
O 	O 	0.86427 0.73759 0.58913 -0.32900
O 	O 	0.63333 0.50079 0.55093 -0.39200
O 	O 	0.62485 0.40885 0.65285 -0.40700
C 	C 	0.07701 0.69448 0.89282 -0.99400
H 	H 	0.14610 0.69870 0.89000 0.33900
H 	H 	0.04850 0.74380 0.86930 0.33200
H 	H 	0.05610 0.64610 0.86250 0.31800
C 	C 	0.04700 0.68656 0.97950 0.66400
O 	O 	0.06654 0.74042 0.03075 -0.50400
O 	O 	0.99411 0.62681 0.00105 -0.57200
Ni	Ni	0.47272 0.67263 0.38602 1.12900
C 	C 	0.63894 0.49671 0.26480 -0.11500
C 	C 	0.61333 0.41695 0.24626 0.05800
H 	H 	0.57000 0.38860 0.28020 0.03300
C 	C 	0.65028 0.37775 0.17855 -0.10300
C 	C 	0.72011 0.41706 0.13349 0.04700
H 	H 	0.74580 0.39080 0.08710 0.02700
C 	C 	0.75244 0.49409 0.15572 -0.11500
C 	C 	0.70818 0.53592 0.21932 0.06100
H 	H 	0.72540 0.59090 0.23130 0.04400
C 	C 	0.58987 0.53910 0.33455 0.37900
C 	C 	0.61163 0.29506 0.15498 0.30100
C 	C 	0.83821 0.53209 0.11569 0.37100
O 	O 	0.58198 0.61616 0.33099 -0.40600
O 	O 	0.55962 0.49238 0.38867 -0.41200
O 	O 	0.55129 0.26097 0.20094 -0.36900
O 	O 	0.63573 0.26241 0.08913 -0.35700
O 	O 	0.86667 0.49921 0.05093 -0.39300
O 	O 	0.87515 0.59115 0.15285 -0.39600
C 	C 	0.42299 0.30552 0.39282 -0.95900
H 	H 	0.35390 0.30130 0.39000 0.32400
H 	H 	0.45150 0.25620 0.36930 0.33000
H 	H 	0.44390 0.35390 0.36250 0.32600
C 	C 	0.45300 0.31344 0.47950 0.60000
O 	O 	0.43346 0.25958 0.53075 -0.42300
O 	O 	0.50589 0.37319 0.50105 -0.57100
Ni	Ni	0.97272 0.82737 0.61398 1.15200
C 	C 	0.13894 0.00329 0.73520 -0.22200
C 	C 	0.11333 0.08305 0.75374 0.12000
H 	H 	0.07000 0.11140 0.71980 -0.00500
C 	C 	0.15028 0.12225 0.82145 -0.15000
C 	C 	0.22011 0.08294 0.86651 0.10100
H 	H 	0.24580 0.10920 0.91290 0.01800
C 	C 	0.25244 0.00591 0.84428 -0.20100
C 	C 	0.20818 0.96408 0.78068 0.17400
H 	H 	0.22540 0.90910 0.76870 0.00600
C 	C 	0.08987 0.96090 0.66545 0.45000
C 	C 	0.11163 0.20494 0.84502 0.31400
C 	C 	0.33821 0.96791 0.88431 0.42600
O 	O 	0.08198 0.88384 0.66901 -0.44800
O 	O 	0.05962 0.00762 0.61133 -0.47100
O 	O 	0.05129 0.23903 0.79906 -0.39700
O 	O 	0.13573 0.23759 0.91087 -0.34800
O 	O 	0.36667 0.00079 0.94907 -0.40000
O 	O 	0.37515 0.90885 0.84715 -0.42000
C 	C 	0.92299 0.19448 0.60718 -1.08300
H 	H 	0.85390 0.19870 0.61000 0.36600
H 	H 	0.95150 0.24380 0.63070 0.38700
H 	H 	0.94390 0.14610 0.63750 0.38800
C 	C 	0.95300 0.18656 0.52050 0.71900
O 	O 	0.93346 0.24042 0.46925 -0.42200
O 	O 	0.00589 0.12681 0.49895 -0.65500
Ni	Ni	0.52728 0.17263 0.11398 1.12700
C 	C 	0.36106 0.99671 0.23520 0.00700
C 	C 	0.38667 0.91695 0.25374 -0.02200
H 	H 	0.43000 0.88860 0.21980 0.06000
C 	C 	0.34972 0.87775 0.32145 -0.04100
C 	C 	0.27989 0.91706 0.36651 -0.03200
H 	H 	0.25420 0.89080 0.41290 0.06100
C 	C 	0.24756 0.99409 0.34428 0.00500
C 	C 	0.29182 0.03592 0.28068 -0.09100
H 	H 	0.27460 0.09090 0.26870 0.08200
C 	C 	0.41013 0.03910 0.16545 0.28500
C 	C 	0.38837 0.79506 0.34502 0.27800
C 	C 	0.16179 0.03209 0.38431 0.28300
O 	O 	0.41802 0.11616 0.16901 -0.39400
O 	O 	0.44038 0.99238 0.11133 -0.38000
O 	O 	0.44871 0.76097 0.29906 -0.36100
O 	O 	0.36427 0.76241 0.41087 -0.33900
O 	O 	0.13333 0.99921 0.44907 -0.36100
O 	O 	0.12485 0.09115 0.34715 -0.41000
C 	C 	0.57701 0.80552 0.10718 -0.81500
H 	H 	0.64610 0.80130 0.11000 0.28000
H 	H 	0.54850 0.75620 0.13070 0.28300
H 	H 	0.55610 0.85390 0.13750 0.28300
C 	C 	0.54700 0.81344 0.02050 0.42400
O 	O 	0.56654 0.75958 0.96925 -0.32700
O 	O 	0.49411 0.87319 0.99895 -0.47400
Ni	Ni	-0.00000 0.50000 -0.00000 1.09200
Ni	Ni	0.50000 0.50000 0.50000 1.14800
Ni	Ni	-0.00000 0.00000 0.50000 1.10800
Ni	Ni	0.50000 0.00000 -0.00000 1.10800
