data_crystal

_cell_length_a 11.62840
_cell_length_b 16.31480
_cell_length_c 17.88610
_cell_angle_alpha 90.00000
_cell_angle_beta  90.00000
_cell_angle_gamma 90.00000

_symmetry_space_group_name_	'P 1'
_symmetry_space_group_name_H-M	'P 1'

loop_
_symmetry_equiv_pos_as_xyz
  x,y,z

loop_
_atom_site_label
_atom_site_type_symbol
_atom_site_fract_x
_atom_site_fract_y
_atom_site_fract_z
_atom_site_charge
Mn	Mn	0.50000 0.11042 0.18173 1.21200
Mn	Mn	0.50000 0.88958 0.81827 1.22200
Mn	Mn	0.50000 0.38958 0.68173 1.21700
Mn	Mn	0.50000 0.61042 0.31827 1.21700
Mn	Mn	0.50000 0.50000 -0.00000 1.18200
Mn	Mn	0.50000 0.00000 0.50000 1.18200
Fe	Fe	0.50000 0.19794 0.90044 1.17200
Fe	Fe	0.50000 0.80206 0.09956 1.16300
Fe	Fe	0.50000 0.30206 0.40044 1.16700
Fe	Fe	0.50000 0.69794 0.59956 1.16600
H 	H 	0.28400 0.17210 0.27610 -0.02600
H 	H 	0.08860 0.16790 0.28240 0.07500
H 	H 	0.28590 0.04120 0.09550 -0.02900
H 	H 	0.08970 0.03360 0.09550 0.06700
H 	H 	0.71550 0.42530 0.91760 -0.04200
H 	H 	0.91100 0.42360 0.91470 0.07300
H 	H 	0.28400 0.82790 0.72390 -0.02500
H 	H 	0.08860 0.83210 0.71760 0.07700
H 	H 	0.28590 0.95880 0.90450 -0.00900
H 	H 	0.08970 0.96640 0.90450 0.08600
H 	H 	0.71550 0.57470 0.08240 -0.03900
H 	H 	0.91100 0.57640 0.08530 0.07600
H 	H 	0.71600 0.32790 0.77610 -0.02500
H 	H 	0.91140 0.33210 0.78240 0.07600
H 	H 	0.71410 0.45880 0.59550 -0.01900
H 	H 	0.91030 0.46640 0.59550 0.07600
H 	H 	0.28450 0.07470 0.41760 -0.03900
H 	H 	0.08900 0.07640 0.41470 0.07500
H 	H 	0.71600 0.67210 0.22390 -0.02500
H 	H 	0.91140 0.66790 0.21760 0.07600
H 	H 	0.71410 0.54120 0.40450 -0.01900
H 	H 	0.91030 0.53360 0.40450 0.07600
H 	H 	0.28450 0.92530 0.58240 -0.04200
H 	H 	0.08900 0.92360 0.58530 0.07300
H 	H 	0.71600 0.82790 0.72390 -0.02500
H 	H 	0.91140 0.83210 0.71760 0.07700
H 	H 	0.71410 0.95880 0.90450 -0.00900
H 	H 	0.91030 0.96640 0.90450 0.08600
H 	H 	0.28450 0.57470 0.08240 -0.03900
H 	H 	0.08900 0.57640 0.08530 0.07600
H 	H 	0.71600 0.17210 0.27610 -0.02600
H 	H 	0.91140 0.16790 0.28240 0.07500
H 	H 	0.71410 0.04120 0.09550 -0.02900
H 	H 	0.91030 0.03360 0.09550 0.06700
H 	H 	0.28450 0.42530 0.91760 -0.04200
H 	H 	0.08900 0.42360 0.91470 0.07300
H 	H 	0.28400 0.67210 0.22390 -0.02500
H 	H 	0.08860 0.66790 0.21760 0.07600
H 	H 	0.28590 0.54120 0.40450 -0.01900
H 	H 	0.08970 0.53360 0.40450 0.07600
H 	H 	0.71550 0.92530 0.58240 -0.04200
H 	H 	0.91100 0.92360 0.58530 0.07300
H 	H 	0.28400 0.32790 0.77610 -0.02500
H 	H 	0.08860 0.33210 0.78240 0.07600
H 	H 	0.28590 0.45880 0.59550 -0.01900
H 	H 	0.08970 0.46640 0.59550 0.07600
H 	H 	0.71550 0.07470 0.41760 -0.03900
H 	H 	0.91100 0.07640 0.41470 0.07500
C 	C 	0.66900 0.19730 0.90160 -0.20700
C 	C 	0.24420 0.14390 0.23910 0.07100
C 	C 	0.12650 0.14180 0.24330 -0.14200
C 	C 	0.24550 0.06750 0.13340 0.07200
C 	C 	0.12710 0.06250 0.13310 -0.14000
C 	C 	0.06410 0.10060 0.18880 0.05200
C 	C 	0.75510 0.45690 0.95230 0.10600
C 	C 	0.87350 0.45540 0.95030 -0.12600
C 	C 	0.66900 0.80270 0.09840 -0.21400
C 	C 	0.24420 0.85610 0.76090 0.07600
C 	C 	0.12650 0.85820 0.75670 -0.14100
C 	C 	0.24550 0.93250 0.86660 0.08000
C 	C 	0.12710 0.93750 0.86690 -0.13500
C 	C 	0.06410 0.89940 0.81120 0.05900
C 	C 	0.75510 0.54310 0.04770 0.07900
C 	C 	0.87350 0.54460 0.04970 -0.14900
C 	C 	0.33100 0.30270 0.40160 -0.21200
C 	C 	0.75580 0.35610 0.73910 0.07300
C 	C 	0.87350 0.35820 0.74330 -0.14200
C 	C 	0.75450 0.43250 0.63340 0.07600
C 	C 	0.87290 0.43750 0.63310 -0.13800
C 	C 	0.93590 0.39940 0.68880 0.05500
C 	C 	0.24490 0.04310 0.45230 0.07900
C 	C 	0.12650 0.04460 0.45030 -0.14900
C 	C 	0.33100 0.69730 0.59840 -0.21000
C 	C 	0.75580 0.64390 0.26090 0.07400
C 	C 	0.87350 0.64180 0.25670 -0.14100
C 	C 	0.75450 0.56750 0.36660 0.07700
C 	C 	0.87290 0.56250 0.36690 -0.13800
C 	C 	0.93590 0.60060 0.31120 0.05600
C 	C 	0.24490 0.95690 0.54770 0.10700
C 	C 	0.12650 0.95540 0.54970 -0.12500
C 	C 	0.33100 0.80270 0.09840 -0.21400
C 	C 	0.75580 0.85610 0.76090 0.07600
C 	C 	0.87350 0.85820 0.75670 -0.14100
C 	C 	0.75450 0.93250 0.86660 0.08000
C 	C 	0.87290 0.93750 0.86690 -0.13500
C 	C 	0.93590 0.89940 0.81120 0.05900
C 	C 	0.24490 0.54310 0.04770 0.07900
C 	C 	0.12650 0.54460 0.04970 -0.14900
C 	C 	0.33100 0.19730 0.90160 -0.20700
C 	C 	0.75580 0.14390 0.23910 0.07100
C 	C 	0.87350 0.14180 0.24330 -0.14200
C 	C 	0.75450 0.06750 0.13340 0.07200
C 	C 	0.87290 0.06250 0.13310 -0.14000
C 	C 	0.93590 0.10060 0.18880 0.05200
C 	C 	0.24490 0.45690 0.95230 0.10600
C 	C 	0.12650 0.45540 0.95030 -0.12600
C 	C 	0.66900 0.69730 0.59840 -0.21000
C 	C 	0.24420 0.64390 0.26090 0.07400
C 	C 	0.12650 0.64180 0.25670 -0.14100
C 	C 	0.24550 0.56750 0.36660 0.07700
C 	C 	0.12710 0.56250 0.36690 -0.13800
C 	C 	0.06410 0.60060 0.31120 0.05600
C 	C 	0.75510 0.95690 0.54770 0.10700
C 	C 	0.87350 0.95540 0.54970 -0.12500
C 	C 	0.66900 0.30270 0.40160 -0.21200
C 	C 	0.24420 0.35610 0.73910 0.07300
C 	C 	0.12650 0.35820 0.74330 -0.14200
C 	C 	0.24550 0.43250 0.63340 0.07600
C 	C 	0.12710 0.43750 0.63310 -0.13800
C 	C 	0.06410 0.39940 0.68880 0.05500
C 	C 	0.75510 0.04310 0.45230 0.07900
C 	C 	0.87350 0.04460 0.45030 -0.14900
C 	C 	0.50000 0.16440 0.00380 -0.22400
C 	C 	0.50000 0.31030 0.93370 -0.20400
C 	C 	0.50000 0.23840 0.79810 -0.21900
C 	C 	0.50000 0.08560 0.86740 -0.20000
C 	C 	0.50000 0.83560 0.99620 -0.16800
C 	C 	0.50000 0.68970 0.06630 -0.22000
C 	C 	0.50000 0.76160 0.20190 -0.21200
C 	C 	0.50000 0.91440 0.13260 -0.19800
C 	C 	0.50000 0.33560 0.50380 -0.19700
C 	C 	0.50000 0.18970 0.43370 -0.21400
C 	C 	0.50000 0.26160 0.29810 -0.21700
C 	C 	0.50000 0.41440 0.36740 -0.20000
C 	C 	0.50000 0.66440 0.49620 -0.19500
C 	C 	0.50000 0.81030 0.56630 -0.21100
C 	C 	0.50000 0.73840 0.70190 -0.21400
C 	C 	0.50000 0.58560 0.63260 -0.19900
C 	C 	0.93590 0.50000 -0.00000 0.04000
C 	C 	0.06410 0.00000 0.50000 0.03900
C 	C 	0.06410 0.50000 -0.00000 0.04000
C 	C 	0.93590 0.00000 0.50000 0.03900
N 	N 	0.76820 0.19780 0.90230 -0.06300
N 	N 	0.30500 0.10792 0.18530 -0.26600
N 	N 	0.76820 0.80220 0.09770 -0.06200
N 	N 	0.30500 0.89208 0.81470 -0.26100
N 	N 	0.23180 0.30220 0.40230 -0.06300
N 	N 	0.69500 0.39208 0.68530 -0.26400
N 	N 	0.23180 0.69780 0.59770 -0.06200
N 	N 	0.69500 0.60792 0.31470 -0.26400
N 	N 	0.23180 0.80220 0.09770 -0.06200
N 	N 	0.69500 0.89208 0.81470 -0.26100
N 	N 	0.23180 0.19780 0.90230 -0.06300
N 	N 	0.69500 0.10792 0.18530 -0.26600
N 	N 	0.76820 0.69780 0.59770 -0.06200
N 	N 	0.30500 0.60792 0.31470 -0.26400
N 	N 	0.76820 0.30220 0.40230 -0.06300
N 	N 	0.30500 0.39208 0.68530 -0.26400
N 	N 	0.50000 0.14850 0.06620 -0.21200
N 	N 	0.50000 0.37830 0.95000 -0.22500
N 	N 	0.50000 0.27060 0.74060 -0.21200
N 	N 	0.50000 0.01910 0.84860 -0.22500
N 	N 	0.50000 0.85150 0.93380 -0.21100
N 	N 	0.50000 0.62170 0.05000 -0.23300
N 	N 	0.50000 0.72940 0.25940 -0.21000
N 	N 	0.50000 0.98090 0.15140 -0.20300
N 	N 	0.50000 0.35150 0.56620 -0.21200
N 	N 	0.50000 0.12170 0.45000 -0.23400
N 	N 	0.50000 0.22940 0.24060 -0.21300
N 	N 	0.50000 0.48090 0.34860 -0.21500
N 	N 	0.50000 0.64850 0.43380 -0.21100
N 	N 	0.50000 0.87830 0.55000 -0.22500
N 	N 	0.50000 0.77060 0.75940 -0.20900
N 	N 	0.50000 0.51910 0.65140 -0.21400
N 	N 	0.69480 0.50000 -0.00000 -0.29800
N 	N 	0.30520 0.00000 0.50000 -0.29800
N 	N 	0.30520 0.50000 -0.00000 -0.29800
N 	N 	0.69480 0.00000 0.50000 -0.29800
