data_crystal

_cell_length_a 23.36200
_cell_length_b 22.49100
_cell_length_c 22.73800
_cell_angle_alpha 90.00000
_cell_angle_beta  90.00000
_cell_angle_gamma 90.00000

_symmetry_space_group_name_	'P 1'
_symmetry_space_group_name_H-M	'P 1'

loop_
_symmetry_equiv_pos_as_xyz
  x,y,z

loop_
_atom_site_label
_atom_site_type_symbol
_atom_site_fract_x
_atom_site_fract_y
_atom_site_fract_z
_atom_site_charge
Co	Co	0.51148 0.61571 0.11014 1.14100
Co	Co	0.52874 0.64602 0.24645 1.13900
O 	O 	0.48650 0.61700 0.00670 -0.35500
O 	O 	0.54910 0.55920 0.04900 -0.42600
O 	O 	0.68940 0.45600 0.93980 -0.50200
O 	O 	0.67460 0.42670 0.84780 -0.41900
O 	O 	0.52220 0.57980 0.78730 -0.24100
O 	O 	0.45090 0.57630 0.52330 -0.32100
O 	O 	0.30310 0.42210 0.47410 -0.43900
O 	O 	0.30510 0.41770 0.37640 -0.46400
O 	O 	0.49980 0.59680 0.31180 -0.48100
O 	O 	0.44570 0.53270 0.26410 -0.46700
O 	O 	0.54220 0.57730 0.18560 -0.63800
C 	C 	0.52300 0.58060 0.00400 0.37500
C 	C 	0.54660 0.55940 0.94400 -0.08700
C 	C 	0.52550 0.57420 0.89570 -0.09700
H 	H 	0.49240 0.59720 0.89640 0.07500
C 	C 	0.54770 0.55880 0.84070 0.18100
C 	C 	0.58800 0.52010 0.83810 -0.14100
H 	H 	0.59950 0.50430 0.80220 0.10100
C 	C 	0.61360 0.50250 0.88930 -0.04200
C 	C 	0.59170 0.52090 0.94400 -0.00800
H 	H 	0.60750 0.50730 0.97900 0.02000
C 	C 	0.66360 0.45710 0.89310 0.36000
C 	C 	0.55370 0.58500 0.73500 0.13200
H 	H 	0.55990 0.54630 0.71730 0.00100
H 	H 	0.59050 0.60360 0.74230 0.00000
C 	C 	0.51580 0.62500 0.69460 -0.26500
H 	H 	0.47590 0.62190 0.70610 0.12600
H 	H 	0.52740 0.66630 0.69800 0.11600
C 	C 	0.52370 0.60310 0.63020 0.08500
H 	H 	0.56280 0.61000 0.61750 0.01000
H 	H 	0.51600 0.56080 0.62780 0.01900
C 	C 	0.48170 0.63780 0.59010 -0.33300
H 	H 	0.44270 0.63150 0.60370 0.14900
H 	H 	0.48990 0.68000 0.59230 0.13400
C 	C 	0.48730 0.61650 0.52610 0.30600
H 	H 	0.47880 0.64830 0.49860 -0.06100
H 	H 	0.52540 0.60130 0.51820 -0.05000
C 	C 	0.43210 0.55110 0.47270 0.22700
C 	C 	0.45480 0.56670 0.41900 -0.15100
H 	H 	0.48430 0.59440 0.41690 0.09900
C 	C 	0.43410 0.54120 0.36890 -0.03300
C 	C 	0.39070 0.49980 0.36870 -0.01300
H 	H 	0.37710 0.48450 0.33340 0.05100
C 	C 	0.36730 0.48100 0.42200 -0.07100
C 	C 	0.38930 0.50860 0.47440 -0.13300
H 	H 	0.37420 0.49750 0.51060 0.09900
C 	C 	0.32460 0.43900 0.42490 0.34800
C 	C 	0.46210 0.55770 0.30930 0.38200
Co	Co	0.51148 0.11571 0.61014 1.13700
Co	Co	0.52874 0.14602 0.74645 1.13700
O 	O 	0.48650 0.11700 0.50670 -0.36400
O 	O 	0.54910 0.05920 0.54900 -0.43300
O 	O 	0.68940 0.95600 0.43980 -0.48900
O 	O 	0.67460 0.92670 0.34780 -0.41400
O 	O 	0.52220 0.07980 0.28730 -0.25800
O 	O 	0.45090 0.07630 0.02330 -0.35400
O 	O 	0.30310 0.92210 0.97410 -0.45100
O 	O 	0.30510 0.91770 0.87640 -0.45600
O 	O 	0.49980 0.09680 0.81180 -0.48300
O 	O 	0.44570 0.03270 0.76410 -0.47600
O 	O 	0.54220 0.07730 0.68560 -0.64500
C 	C 	0.52300 0.08060 0.50400 0.29400
C 	C 	0.54660 0.05940 0.44400 0.02100
C 	C 	0.52550 0.07420 0.39570 -0.17700
H 	H 	0.49240 0.09720 0.39640 0.11000
C 	C 	0.54770 0.05880 0.34070 0.22400
C 	C 	0.58800 0.02010 0.33810 -0.17800
H 	H 	0.59950 0.00430 0.30220 0.10800
C 	C 	0.61360 0.00250 0.38930 -0.02500
C 	C 	0.59170 0.02090 0.44400 -0.06300
H 	H 	0.60750 0.00730 0.47900 0.05200
C 	C 	0.66360 0.95710 0.39310 0.36800
C 	C 	0.55370 0.08500 0.23500 0.16200
H 	H 	0.55990 0.04630 0.21730 -0.01200
H 	H 	0.59050 0.10360 0.24230 -0.00900
C 	C 	0.51580 0.12500 0.19460 -0.31100
H 	H 	0.47590 0.12190 0.20610 0.13800
H 	H 	0.52740 0.16630 0.19800 0.13100
C 	C 	0.52370 0.10310 0.13020 0.15900
H 	H 	0.56280 0.11000 0.11750 -0.00900
H 	H 	0.51600 0.06080 0.12780 -0.00500
C 	C 	0.48170 0.13780 0.09010 -0.45500
H 	H 	0.44270 0.13150 0.10370 0.18900
H 	H 	0.48990 0.18000 0.09230 0.17900
C 	C 	0.48730 0.11650 0.02610 0.51600
H 	H 	0.47880 0.14830 0.99860 -0.16900
H 	H 	0.52540 0.10130 0.01820 -0.09400
C 	C 	0.43210 0.05110 0.97270 0.27000
C 	C 	0.45480 0.06670 0.91900 -0.18600
H 	H 	0.48430 0.09440 0.91690 0.10300
C 	C 	0.43410 0.04120 0.86890 -0.02700
C 	C 	0.39070 0.99980 0.86870 -0.03600
H 	H 	0.37710 0.98450 0.83340 0.06300
C 	C 	0.36730 0.98100 0.92200 0.02200
C 	C 	0.38930 0.00860 0.97440 -0.35000
H 	H 	0.37420 0.99750 0.01060 0.23300
C 	C 	0.32460 0.93900 0.92490 0.30800
C 	C 	0.46210 0.05770 0.80930 0.37700
Co	Co	0.01148 0.61571 0.61014 1.13200
Co	Co	0.02874 0.64602 0.74645 1.13000
O 	O 	0.98650 0.61700 0.50670 -0.33400
O 	O 	0.04910 0.55920 0.54900 -0.42100
O 	O 	0.18940 0.45600 0.43980 -0.48800
O 	O 	0.17460 0.42670 0.34780 -0.41300
O 	O 	0.02220 0.57980 0.28730 -0.28000
O 	O 	0.95090 0.57630 0.02330 -0.35000
O 	O 	0.80310 0.42210 0.97410 -0.45700
O 	O 	0.80510 0.41770 0.87640 -0.46000
O 	O 	0.99980 0.59680 0.81180 -0.47100
O 	O 	0.94570 0.53270 0.76410 -0.46000
O 	O 	0.04220 0.57730 0.68560 -0.64600
C 	C 	0.02300 0.58060 0.50400 0.24800
C 	C 	0.04660 0.55940 0.44400 0.08700
C 	C 	0.02550 0.57420 0.39570 -0.27000
H 	H 	0.99240 0.59720 0.39640 0.15600
C 	C 	0.04770 0.55880 0.34070 0.28000
C 	C 	0.08800 0.52010 0.33810 -0.23400
H 	H 	0.09950 0.50430 0.30220 0.13200
C 	C 	0.11360 0.50250 0.38930 0.03300
C 	C 	0.09170 0.52090 0.44400 -0.11600
H 	H 	0.10750 0.50730 0.47900 0.07600
C 	C 	0.16360 0.45710 0.39310 0.33600
C 	C 	0.05370 0.58500 0.23500 0.19000
H 	H 	0.05990 0.54630 0.21730 -0.01800
H 	H 	0.09050 0.60360 0.24230 -0.01700
C 	C 	0.01580 0.62500 0.19460 -0.35800
H 	H 	0.97590 0.62190 0.20610 0.16600
H 	H 	0.02740 0.66630 0.19800 0.14100
C 	C 	0.02370 0.60310 0.13020 0.16700
H 	H 	0.06280 0.61000 0.11750 -0.01200
H 	H 	0.01600 0.56080 0.12780 -0.00900
C 	C 	0.98170 0.63780 0.09010 -0.46100
H 	H 	0.94270 0.63150 0.10370 0.19400
H 	H 	0.98990 0.68000 0.09230 0.18600
C 	C 	0.98730 0.61650 0.02610 0.55300
H 	H 	0.97880 0.64830 0.99860 -0.17600
H 	H 	0.02540 0.60130 0.01820 -0.11300
C 	C 	0.93210 0.55110 0.97270 0.25400
C 	C 	0.95480 0.56670 0.91900 -0.17900
H 	H 	0.98430 0.59440 0.91690 0.10600
C 	C 	0.93410 0.54120 0.86890 -0.00600
C 	C 	0.89070 0.49980 0.86870 -0.04900
H 	H 	0.87710 0.48450 0.83340 0.06300
C 	C 	0.86730 0.48100 0.92200 -0.01600
C 	C 	0.88930 0.50860 0.97440 -0.27500
H 	H 	0.87420 0.49750 0.01060 0.19400
C 	C 	0.82460 0.43900 0.92490 0.32200
C 	C 	0.96210 0.55770 0.80930 0.37400
Co	Co	0.01148 0.11571 0.11014 1.13200
Co	Co	0.02874 0.14602 0.24645 1.13000
O 	O 	0.98650 0.11700 0.00670 -0.33000
O 	O 	0.04910 0.05920 0.04900 -0.42600
O 	O 	0.18940 0.95600 0.93980 -0.49900
O 	O 	0.17460 0.92670 0.84780 -0.41800
O 	O 	0.02220 0.07980 0.78730 -0.26600
O 	O 	0.95090 0.07630 0.52330 -0.35300
O 	O 	0.80310 0.92210 0.47410 -0.43200
O 	O 	0.80510 0.91770 0.37640 -0.45800
O 	O 	0.99980 0.09680 0.31180 -0.47100
O 	O 	0.94570 0.03270 0.26410 -0.46800
O 	O 	0.04220 0.07730 0.18560 -0.64700
C 	C 	0.02300 0.08060 0.00400 0.33000
C 	C 	0.04660 0.05940 0.94400 -0.04800
C 	C 	0.02550 0.07420 0.89570 -0.17200
H 	H 	0.99240 0.09720 0.89640 0.11200
C 	C 	0.04770 0.05880 0.84070 0.20900
C 	C 	0.08800 0.02010 0.83810 -0.16100
H 	H 	0.09950 0.00430 0.80220 0.10000
C 	C 	0.11360 0.00250 0.88930 -0.04800
C 	C 	0.09170 0.02090 0.94400 -0.03100
H 	H 	0.10750 0.00730 0.97900 0.02100
C 	C 	0.16360 0.95710 0.89310 0.37600
C 	C 	0.05370 0.08500 0.73500 0.17100
H 	H 	0.05990 0.04630 0.71730 -0.01700
H 	H 	0.09050 0.10360 0.74230 -0.01300
C 	C 	0.01580 0.12500 0.69460 -0.33300
H 	H 	0.97590 0.12190 0.70610 0.15700
H 	H 	0.02740 0.16630 0.69800 0.13200
C 	C 	0.02370 0.10310 0.63020 0.11600
H 	H 	0.06280 0.11000 0.61750 -0.00200
H 	H 	0.01600 0.06080 0.62780 -0.00100
C 	C 	0.98170 0.13780 0.59010 -0.36700
H 	H 	0.94270 0.13150 0.60370 0.16000
H 	H 	0.98990 0.18000 0.59230 0.15100
C 	C 	0.98730 0.11650 0.52610 0.38600
H 	H 	0.97880 0.14830 0.49860 -0.08200
H 	H 	0.02540 0.10130 0.51820 -0.08900
C 	C 	0.93210 0.05110 0.47270 0.26900
C 	C 	0.95480 0.06670 0.41900 -0.17200
H 	H 	0.98430 0.09440 0.41690 0.11100
C 	C 	0.93410 0.04120 0.36890 -0.03600
C 	C 	0.89070 0.99980 0.36870 -0.01000
H 	H 	0.87710 0.98450 0.33340 0.05600
C 	C 	0.86730 0.98100 0.42200 -0.02500
C 	C 	0.88930 0.00860 0.47440 -0.21700
H 	H 	0.87420 0.99750 0.51060 0.14100
C 	C 	0.82460 0.93900 0.42490 0.33200
C 	C 	0.96210 0.05770 0.30930 0.38000
Co	Co	0.48852 0.38429 0.11014 1.14000
Co	Co	0.47126 0.35398 0.24645 1.13800
O 	O 	0.51350 0.38300 0.00670 -0.35600
O 	O 	0.45090 0.44080 0.04900 -0.42700
O 	O 	0.31060 0.54400 0.93980 -0.50300
O 	O 	0.32540 0.57330 0.84780 -0.42000
O 	O 	0.47780 0.42020 0.78730 -0.24100
O 	O 	0.54910 0.42370 0.52330 -0.32100
O 	O 	0.69690 0.57790 0.47410 -0.43900
O 	O 	0.69490 0.58230 0.37640 -0.46400
O 	O 	0.50020 0.40320 0.31180 -0.48100
O 	O 	0.55430 0.46730 0.26410 -0.46700
O 	O 	0.45780 0.42270 0.18560 -0.63800
C 	C 	0.47700 0.41940 0.00400 0.37500
C 	C 	0.45340 0.44060 0.94400 -0.08700
C 	C 	0.47450 0.42580 0.89570 -0.09700
H 	H 	0.50760 0.40280 0.89640 0.07500
C 	C 	0.45230 0.44120 0.84070 0.18100
C 	C 	0.41200 0.47990 0.83810 -0.14100
H 	H 	0.40050 0.49570 0.80220 0.10100
C 	C 	0.38640 0.49750 0.88930 -0.04200
C 	C 	0.40830 0.47910 0.94400 -0.00800
H 	H 	0.39250 0.49270 0.97900 0.02000
C 	C 	0.33640 0.54290 0.89310 0.36000
C 	C 	0.44630 0.41500 0.73500 0.13200
H 	H 	0.44010 0.45370 0.71730 0.00100
H 	H 	0.40950 0.39640 0.74230 0.00000
C 	C 	0.48420 0.37500 0.69460 -0.26500
H 	H 	0.52410 0.37810 0.70610 0.12600
H 	H 	0.47260 0.33370 0.69800 0.11600
C 	C 	0.47630 0.39690 0.63020 0.08500
H 	H 	0.43720 0.39000 0.61750 0.01000
H 	H 	0.48400 0.43920 0.62780 0.01900
C 	C 	0.51830 0.36220 0.59010 -0.33300
H 	H 	0.55730 0.36850 0.60370 0.14900
H 	H 	0.51010 0.32000 0.59230 0.13500
C 	C 	0.51270 0.38350 0.52610 0.30600
H 	H 	0.52120 0.35170 0.49860 -0.06100
H 	H 	0.47460 0.39870 0.51820 -0.05000
C 	C 	0.56790 0.44890 0.47270 0.22700
C 	C 	0.54520 0.43330 0.41900 -0.15100
H 	H 	0.51570 0.40560 0.41690 0.09900
C 	C 	0.56590 0.45880 0.36890 -0.03300
C 	C 	0.60930 0.50020 0.36870 -0.01300
H 	H 	0.62290 0.51550 0.33340 0.05100
C 	C 	0.63270 0.51900 0.42200 -0.07100
C 	C 	0.61070 0.49140 0.47440 -0.13300
H 	H 	0.62580 0.50250 0.51060 0.09900
C 	C 	0.67540 0.56100 0.42490 0.34800
C 	C 	0.53790 0.44230 0.30930 0.38200
Co	Co	0.48852 0.88429 0.61014 1.13900
Co	Co	0.47126 0.85398 0.74645 1.13700
O 	O 	0.51350 0.88300 0.50670 -0.35700
O 	O 	0.45090 0.94080 0.54900 -0.42000
O 	O 	0.31060 0.04400 0.43980 -0.49200
O 	O 	0.32540 0.07330 0.34780 -0.41400
O 	O 	0.47780 0.92020 0.28730 -0.25700
O 	O 	0.54910 0.92370 0.02330 -0.32000
O 	O 	0.69690 0.07790 0.97410 -0.46400
O 	O 	0.69490 0.08230 0.87640 -0.46700
O 	O 	0.50020 0.90320 0.81180 -0.47900
O 	O 	0.55430 0.96730 0.76410 -0.45500
O 	O 	0.45780 0.92270 0.68560 -0.63300
C 	C 	0.47700 0.91940 0.50400 0.28600
C 	C 	0.45340 0.94060 0.44400 0.05600
C 	C 	0.47450 0.92580 0.39570 -0.20500
H 	H 	0.50760 0.90280 0.39640 0.12400
C 	C 	0.45230 0.94120 0.34070 0.25800
C 	C 	0.41200 0.97990 0.33810 -0.22000
H 	H 	0.40050 0.99570 0.30220 0.13500
C 	C 	0.38640 0.99750 0.38930 0.04300
C 	C 	0.40830 0.97910 0.44400 -0.09900
H 	H 	0.39250 0.99270 0.47900 0.07800
C 	C 	0.33640 0.04290 0.39310 0.31900
C 	C 	0.44630 0.91500 0.23500 0.15500
H 	H 	0.44010 0.95370 0.21730 -0.00100
H 	H 	0.40950 0.89640 0.24230 -0.00600
C 	C 	0.48420 0.87500 0.19460 -0.29700
H 	H 	0.52410 0.87810 0.20610 0.13900
H 	H 	0.47260 0.83370 0.19800 0.12700
C 	C 	0.47630 0.89690 0.13020 0.13900
H 	H 	0.43720 0.89000 0.11750 -0.00000
H 	H 	0.48400 0.93920 0.12780 0.01000
C 	C 	0.51830 0.86220 0.09010 -0.43000
H 	H 	0.55730 0.86850 0.10370 0.18400
H 	H 	0.51010 0.82000 0.09230 0.17200
C 	C 	0.51270 0.88350 0.02610 0.48100
H 	H 	0.52120 0.85170 0.99860 -0.15700
H 	H 	0.47460 0.89870 0.01820 -0.07800
C 	C 	0.56790 0.94890 0.97270 0.21200
C 	C 	0.54520 0.93330 0.91900 -0.15800
H 	H 	0.51570 0.90560 0.91690 0.09500
C 	C 	0.56590 0.95880 0.86890 -0.00200
C 	C 	0.60930 0.00020 0.86870 -0.05400
H 	H 	0.62290 0.01550 0.83340 0.05800
C 	C 	0.63270 0.01900 0.92200 -0.06300
C 	C 	0.61070 0.99140 0.97440 -0.18700
H 	H 	0.62580 0.00250 0.01060 0.15000
C 	C 	0.67540 0.06100 0.92490 0.33900
C 	C 	0.53790 0.94230 0.80930 0.37500
Co	Co	0.98852 0.38429 0.61014 1.14500
Co	Co	0.97126 0.35398 0.74645 1.14400
O 	O 	0.01350 0.38300 0.50670 -0.38800
O 	O 	0.95090 0.44080 0.54900 -0.43300
O 	O 	0.81060 0.54400 0.43980 -0.49200
O 	O 	0.82540 0.57330 0.34780 -0.41600
O 	O 	0.97780 0.42020 0.28730 -0.23300
O 	O 	0.04910 0.42370 0.02330 -0.32100
O 	O 	0.19690 0.57790 0.97410 -0.45900
O 	O 	0.19490 0.58230 0.87640 -0.46300
O 	O 	0.00020 0.40320 0.81180 -0.49100
O 	O 	0.05430 0.46730 0.76410 -0.47100
O 	O 	0.95780 0.42270 0.68560 -0.63300
C 	C 	0.97700 0.41940 0.50400 0.33500
C 	C 	0.95340 0.44060 0.44400 -0.01300
C 	C 	0.97450 0.42580 0.39570 -0.10800
H 	H 	0.00760 0.40280 0.39640 0.07700
C 	C 	0.95230 0.44120 0.34070 0.19800
C 	C 	0.91200 0.47990 0.33810 -0.16000
H 	H 	0.90050 0.49570 0.30220 0.10900
C 	C 	0.88640 0.49750 0.38930 -0.01800
C 	C 	0.90830 0.47910 0.44400 -0.04300
H 	H 	0.89250 0.49270 0.47900 0.05300
C 	C 	0.83640 0.54290 0.39310 0.35300
C 	C 	0.94630 0.41500 0.23500 0.12500
H 	H 	0.94010 0.45370 0.21730 0.00600
H 	H 	0.90950 0.39640 0.24230 0.00400
C 	C 	0.98420 0.37500 0.19460 -0.24600
H 	H 	0.02410 0.37810 0.20610 0.10900
H 	H 	0.97260 0.33370 0.19800 0.11600
C 	C 	0.97630 0.39690 0.13020 0.12800
H 	H 	0.93720 0.39000 0.11750 0.00300
H 	H 	0.98400 0.43920 0.12780 0.01500
C 	C 	0.01830 0.36220 0.09010 -0.42100
H 	H 	0.05730 0.36850 0.10370 0.17800
H 	H 	0.01010 0.32000 0.09230 0.16300
C 	C 	0.01270 0.38350 0.02610 0.43800
H 	H 	0.02120 0.35170 0.99860 -0.14700
H 	H 	0.97460 0.39870 0.01820 -0.05600
C 	C 	0.06790 0.44890 0.97270 0.22800
C 	C 	0.04520 0.43330 0.91900 -0.16400
H 	H 	0.01570 0.40560 0.91690 0.09200
C 	C 	0.06590 0.45880 0.86890 -0.02200
C 	C 	0.10930 0.50020 0.86870 -0.04100
H 	H 	0.12290 0.51550 0.83340 0.05800
C 	C 	0.13270 0.51900 0.92200 -0.02600
C 	C 	0.11070 0.49140 0.97440 -0.26200
H 	H 	0.12580 0.50250 0.01060 0.18800
C 	C 	0.17540 0.56100 0.92490 0.32500
C 	C 	0.03790 0.44230 0.80930 0.37800
Co	Co	0.98852 0.88429 0.11014 1.14700
Co	Co	0.97126 0.85398 0.24645 1.14500
O 	O 	0.01350 0.88300 0.00670 -0.37600
O 	O 	0.95090 0.94080 0.04900 -0.42600
O 	O 	0.81060 0.04400 0.93980 -0.50600
O 	O 	0.82540 0.07330 0.84780 -0.42100
O 	O 	0.97780 0.92020 0.78730 -0.21900
O 	O 	0.04910 0.92370 0.52330 -0.29000
O 	O 	0.19690 0.07790 0.47410 -0.44700
O 	O 	0.19490 0.08230 0.37640 -0.47200
O 	O 	0.00020 0.90320 0.31180 -0.48700
O 	O 	0.05430 0.96730 0.26410 -0.45800
O 	O 	0.95780 0.92270 0.18560 -0.62400
C 	C 	0.97700 0.91940 0.00400 0.40800
C 	C 	0.95340 0.94060 0.94400 -0.11200
C 	C 	0.97450 0.92580 0.89570 -0.04000
H 	H 	0.00760 0.90280 0.89640 0.04900
C 	C 	0.95230 0.94120 0.84070 0.16100
C 	C 	0.91200 0.97990 0.83810 -0.12800
H 	H 	0.90050 0.99570 0.80220 0.10400
C 	C 	0.88640 0.99750 0.88930 -0.03300
C 	C 	0.90830 0.97910 0.94400 0.00600
H 	H 	0.89250 0.99270 0.97900 0.02300
C 	C 	0.83640 0.04290 0.89310 0.34500
C 	C 	0.94630 0.91500 0.73500 0.09900
H 	H 	0.94010 0.95370 0.71730 0.01700
H 	H 	0.90950 0.89640 0.74230 0.01100
C 	C 	0.98420 0.87500 0.69460 -0.20700
H 	H 	0.02410 0.87810 0.70610 0.10100
H 	H 	0.97260 0.83370 0.69800 0.10300
C 	C 	0.97630 0.89690 0.63020 0.05700
H 	H 	0.93720 0.89000 0.61750 0.02100
H 	H 	0.98400 0.93920 0.62780 0.03700
C 	C 	0.01830 0.86220 0.59010 -0.30200
H 	H 	0.05730 0.86850 0.60370 0.13900
H 	H 	0.01010 0.82000 0.59230 0.12000
C 	C 	0.01270 0.88350 0.52610 0.23500
H 	H 	0.02120 0.85170 0.49860 -0.04200
H 	H 	0.97460 0.89870 0.51820 -0.01600
C 	C 	0.06790 0.94890 0.47270 0.18500
C 	C 	0.04520 0.93330 0.41900 -0.13000
H 	H 	0.01570 0.90560 0.41690 0.08900
C 	C 	0.06590 0.95880 0.36890 -0.02600
C 	C 	0.10930 0.00020 0.36870 -0.02000
H 	H 	0.12290 0.01550 0.33340 0.04600
C 	C 	0.13270 0.01900 0.42200 -0.12100
C 	C 	0.11070 0.99140 0.47440 -0.03900
H 	H 	0.12580 0.00250 0.51060 0.05100
C 	C 	0.17540 0.06100 0.42490 0.36600
C 	C 	0.03790 0.94230 0.30930 0.38200
Co	Co	0.76148 0.63429 0.36014 1.13800
Co	Co	0.77874 0.60398 0.49645 1.13800
O 	O 	0.73650 0.63300 0.25670 -0.35900
O 	O 	0.79910 0.69080 0.29900 -0.42600
O 	O 	0.93940 0.79400 0.18980 -0.48600
O 	O 	0.92460 0.82330 0.09780 -0.40200
O 	O 	0.77220 0.67020 0.03730 -0.19200
O 	O 	0.70090 0.67370 0.77330 -0.31800
O 	O 	0.55310 0.82790 0.72410 -0.43900
O 	O 	0.55510 0.83230 0.62640 -0.46400
O 	O 	0.74980 0.65320 0.56180 -0.48100
O 	O 	0.69570 0.71730 0.51410 -0.46800
O 	O 	0.79220 0.67270 0.43560 -0.64000
C 	C 	0.77300 0.66940 0.25400 0.29200
C 	C 	0.79660 0.69060 0.19400 0.03400
C 	C 	0.77550 0.67580 0.14570 -0.18100
H 	H 	0.74240 0.65280 0.14640 0.11700
C 	C 	0.79770 0.69120 0.09070 0.23000
C 	C 	0.83800 0.72990 0.08810 -0.18900
H 	H 	0.84950 0.74570 0.05220 0.13400
C 	C 	0.86360 0.74750 0.13930 0.00800
C 	C 	0.84170 0.72910 0.19400 -0.07800
H 	H 	0.85750 0.74270 0.22900 0.06500
C 	C 	0.91360 0.79290 0.14310 0.34400
C 	C 	0.80370 0.66500 0.98500 0.04000
H 	H 	0.80990 0.70370 0.96730 0.01200
H 	H 	0.84050 0.64640 0.99230 0.01000
C 	C 	0.76580 0.62500 0.94460 -0.21400
H 	H 	0.72590 0.62810 0.95610 0.09700
H 	H 	0.77740 0.58370 0.94800 0.09400
C 	C 	0.77370 0.64690 0.88020 0.05300
H 	H 	0.81280 0.64000 0.86750 0.01900
H 	H 	0.76600 0.68920 0.87780 0.02500
C 	C 	0.73170 0.61220 0.84010 -0.31300
H 	H 	0.69270 0.61850 0.85370 0.14100
H 	H 	0.73990 0.57000 0.84230 0.12800
C 	C 	0.73730 0.63350 0.77610 0.29300
H 	H 	0.72880 0.60170 0.74860 -0.05700
H 	H 	0.77540 0.64870 0.76820 -0.04600
C 	C 	0.68210 0.69890 0.72270 0.22500
C 	C 	0.70480 0.68330 0.66900 -0.14900
H 	H 	0.73430 0.65560 0.66690 0.09800
C 	C 	0.68410 0.70880 0.61890 -0.03500
C 	C 	0.64070 0.75020 0.61870 -0.01200
H 	H 	0.62710 0.76550 0.58340 0.05000
C 	C 	0.61730 0.76900 0.67200 -0.07200
C 	C 	0.63930 0.74140 0.72440 -0.13100
H 	H 	0.62420 0.75250 0.76060 0.09700
C 	C 	0.57460 0.81100 0.67490 0.34900
C 	C 	0.71210 0.69230 0.55930 0.38300
Co	Co	0.76148 0.13429 0.86014 1.13700
Co	Co	0.77874 0.10398 0.99645 1.11600
O 	O 	0.73650 0.13300 0.75670 -0.36400
O 	O 	0.79910 0.19080 0.79900 -0.42900
O 	O 	0.93940 0.29400 0.68980 -0.48700
O 	O 	0.92460 0.32330 0.59780 -0.41100
O 	O 	0.77220 0.17020 0.53730 -0.25400
O 	O 	0.70090 0.17370 0.27330 -0.32100
O 	O 	0.55310 0.32790 0.22410 -0.43800
O 	O 	0.55510 0.33230 0.12640 -0.45800
O 	O 	0.74980 0.15320 0.06180 -0.45500
O 	O 	0.69570 0.21730 0.01410 -0.43200
O 	O 	0.79220 0.17270 0.93560 -0.65800
C 	C 	0.77300 0.16940 0.75400 0.29200
C 	C 	0.79660 0.19060 0.69400 0.03400
C 	C 	0.77550 0.17580 0.64570 -0.18800
H 	H 	0.74240 0.15280 0.64640 0.11500
C 	C 	0.79770 0.19120 0.59070 0.23600
C 	C 	0.83800 0.22990 0.58810 -0.19500
H 	H 	0.84950 0.24570 0.55220 0.12000
C 	C 	0.86360 0.24750 0.63930 0.00700
C 	C 	0.84170 0.22910 0.69400 -0.07900
H 	H 	0.85750 0.24270 0.72900 0.06400
C 	C 	0.91360 0.29290 0.64310 0.34400
C 	C 	0.80370 0.16500 0.48500 0.13900
H 	H 	0.80990 0.20370 0.46730 -0.00100
H 	H 	0.84050 0.14640 0.49230 -0.00200
C 	C 	0.76580 0.12500 0.44460 -0.26500
H 	H 	0.72590 0.12810 0.45610 0.12500
H 	H 	0.77740 0.08370 0.44800 0.11300
C 	C 	0.77370 0.14690 0.38020 0.08200
H 	H 	0.81280 0.14000 0.36750 0.01000
H 	H 	0.76600 0.18920 0.37780 0.02000
C 	C 	0.73170 0.11220 0.34010 -0.33000
H 	H 	0.69270 0.11850 0.35370 0.14700
H 	H 	0.73990 0.07000 0.34230 0.13000
C 	C 	0.73730 0.13350 0.27610 0.30400
H 	H 	0.72880 0.10170 0.24860 -0.06100
H 	H 	0.77540 0.14870 0.26820 -0.05000
C 	C 	0.68210 0.19890 0.22270 0.23200
C 	C 	0.70480 0.18330 0.16900 -0.15700
H 	H 	0.73430 0.15560 0.16690 0.10200
C 	C 	0.68410 0.20880 0.11890 -0.02200
C 	C 	0.64070 0.25020 0.11870 -0.02100
H 	H 	0.62710 0.26550 0.08340 0.06100
C 	C 	0.61730 0.26900 0.17200 -0.06400
C 	C 	0.63930 0.24140 0.22440 -0.13700
H 	H 	0.62420 0.25250 0.26060 0.10000
C 	C 	0.57460 0.31100 0.17490 0.34500
C 	C 	0.71210 0.19230 0.05930 0.37300
Co	Co	0.26148 0.63429 0.86014 1.13700
Co	Co	0.27874 0.60398 0.99645 1.11700
O 	O 	0.23650 0.63300 0.75670 -0.36200
O 	O 	0.29910 0.69080 0.79900 -0.42900
O 	O 	0.43940 0.79400 0.68980 -0.49100
O 	O 	0.42460 0.82330 0.59780 -0.41500
O 	O 	0.27220 0.67020 0.53730 -0.25400
O 	O 	0.20090 0.67370 0.27330 -0.32200
O 	O 	0.05310 0.82790 0.22410 -0.44300
O 	O 	0.05510 0.83230 0.12640 -0.46300
O 	O 	0.24980 0.65320 0.06180 -0.45300
O 	O 	0.19570 0.71730 0.01410 -0.43300
O 	O 	0.29220 0.67270 0.93560 -0.65900
C 	C 	0.27300 0.66940 0.75400 0.29200
C 	C 	0.29660 0.69060 0.69400 0.03500
C 	C 	0.27550 0.67580 0.64570 -0.18700
H 	H 	0.24240 0.65280 0.64640 0.11600
C 	C 	0.29770 0.69120 0.59070 0.23700
C 	C 	0.33800 0.72990 0.58810 -0.19500
H 	H 	0.34950 0.74570 0.55220 0.12000
C 	C 	0.36360 0.74750 0.63930 0.00600
C 	C 	0.34170 0.72910 0.69400 -0.07800
H 	H 	0.35750 0.74270 0.72900 0.06300
C 	C 	0.41360 0.79290 0.64310 0.34500
C 	C 	0.30370 0.66500 0.48500 0.14200
H 	H 	0.30990 0.70370 0.46730 -0.00300
H 	H 	0.34050 0.64640 0.49230 -0.00300
C 	C 	0.26580 0.62500 0.44460 -0.27000
H 	H 	0.22590 0.62810 0.45610 0.12800
H 	H 	0.27740 0.58370 0.44800 0.11800
C 	C 	0.27370 0.64690 0.38020 0.08800
H 	H 	0.31280 0.64000 0.36750 0.00900
H 	H 	0.26600 0.68920 0.37780 0.01800
C 	C 	0.23170 0.61220 0.34010 -0.33500
H 	H 	0.19270 0.61850 0.35370 0.14900
H 	H 	0.23990 0.57000 0.34230 0.13500
C 	C 	0.23730 0.63350 0.27610 0.30600
H 	H 	0.22880 0.60170 0.24860 -0.05900
H 	H 	0.27540 0.64870 0.26820 -0.05000
C 	C 	0.18210 0.69890 0.22270 0.23200
C 	C 	0.20480 0.68330 0.16900 -0.15700
H 	H 	0.23430 0.65560 0.16690 0.10300
C 	C 	0.18410 0.70880 0.11890 -0.02200
C 	C 	0.14070 0.75020 0.11870 -0.02100
H 	H 	0.12710 0.76550 0.08340 0.06000
C 	C 	0.11730 0.76900 0.17200 -0.06600
C 	C 	0.13930 0.74140 0.22440 -0.13700
H 	H 	0.12420 0.75250 0.26060 0.09900
C 	C 	0.07460 0.81100 0.17490 0.34600
C 	C 	0.21210 0.69230 0.05930 0.37300
Co	Co	0.26148 0.13429 0.36014 1.13800
Co	Co	0.27874 0.10398 0.49645 1.13600
O 	O 	0.23650 0.13300 0.25670 -0.36300
O 	O 	0.29910 0.19080 0.29900 -0.42800
O 	O 	0.43940 0.29400 0.18980 -0.49100
O 	O 	0.42460 0.32330 0.09780 -0.40600
O 	O 	0.27220 0.17020 0.03730 -0.19200
O 	O 	0.20090 0.17370 0.77330 -0.31700
O 	O 	0.05310 0.32790 0.72410 -0.44700
O 	O 	0.05510 0.33230 0.62640 -0.47200
O 	O 	0.24980 0.15320 0.56180 -0.48300
O 	O 	0.19570 0.21730 0.51410 -0.47000
O 	O 	0.29220 0.17270 0.43560 -0.64100
C 	C 	0.27300 0.16940 0.25400 0.29300
C 	C 	0.29660 0.19060 0.19400 0.03000
C 	C 	0.27550 0.17580 0.14570 -0.17800
H 	H 	0.24240 0.15280 0.14640 0.11400
C 	C 	0.29770 0.19120 0.09070 0.22600
C 	C 	0.33800 0.22990 0.08810 -0.18600
H 	H 	0.34950 0.24570 0.05220 0.13300
C 	C 	0.36360 0.24750 0.13930 0.00500
C 	C 	0.34170 0.22910 0.19400 -0.07500
H 	H 	0.35750 0.24270 0.22900 0.06300
C 	C 	0.41360 0.29290 0.14310 0.34500
C 	C 	0.30370 0.16500 0.98500 0.03800
H 	H 	0.30990 0.20370 0.96730 0.01300
H 	H 	0.34050 0.14640 0.99230 0.00900
C 	C 	0.26580 0.12500 0.94460 -0.20900
H 	H 	0.22590 0.12810 0.95610 0.09400
H 	H 	0.27740 0.08370 0.94800 0.08900
C 	C 	0.27370 0.14690 0.88020 0.04800
H 	H 	0.31280 0.14000 0.86750 0.01900
H 	H 	0.26600 0.18920 0.87780 0.02600
C 	C 	0.23170 0.11220 0.84010 -0.30900
H 	H 	0.19270 0.11850 0.85370 0.13900
H 	H 	0.23990 0.07000 0.84230 0.12200
C 	C 	0.23730 0.13350 0.77610 0.29100
H 	H 	0.22880 0.10170 0.74860 -0.05900
H 	H 	0.27540 0.14870 0.76820 -0.04700
C 	C 	0.18210 0.19890 0.72270 0.22300
C 	C 	0.20480 0.18330 0.66900 -0.14700
H 	H 	0.23430 0.15560 0.66690 0.09600
C 	C 	0.18410 0.20880 0.61890 -0.03700
C 	C 	0.14070 0.25020 0.61870 -0.01000
H 	H 	0.12710 0.26550 0.58340 0.04800
C 	C 	0.11730 0.26900 0.67200 -0.07600
C 	C 	0.13930 0.24140 0.72440 -0.12900
H 	H 	0.12420 0.25250 0.76060 0.09500
C 	C 	0.07460 0.31100 0.67490 0.35000
C 	C 	0.21210 0.19230 0.55930 0.38400
Co	Co	0.73852 0.86571 0.36014 1.13800
Co	Co	0.72126 0.89602 0.49645 1.14000
O 	O 	0.76350 0.86700 0.25670 -0.35600
O 	O 	0.70090 0.80920 0.29900 -0.42600
O 	O 	0.56060 0.70600 0.18980 -0.49000
O 	O 	0.57540 0.67670 0.09780 -0.40600
O 	O 	0.72780 0.82980 0.03730 -0.19200
O 	O 	0.79910 0.82630 0.77330 -0.31900
O 	O 	0.94690 0.67210 0.72410 -0.43300
O 	O 	0.94490 0.66770 0.62640 -0.45700
O 	O 	0.75020 0.84680 0.56180 -0.47900
O 	O 	0.80430 0.78270 0.51410 -0.46700
O 	O 	0.70780 0.82730 0.43560 -0.64000
C 	C 	0.72700 0.83060 0.25400 0.29100
C 	C 	0.70340 0.80940 0.19400 0.03500
C 	C 	0.72450 0.82420 0.14570 -0.18100
H 	H 	0.75760 0.84720 0.14640 0.11900
C 	C 	0.70230 0.80880 0.09070 0.23100
C 	C 	0.66200 0.77010 0.08810 -0.18900
H 	H 	0.65050 0.75430 0.05220 0.13400
C 	C 	0.63640 0.75250 0.13930 0.00800
C 	C 	0.65830 0.77090 0.19400 -0.07800
H 	H 	0.64250 0.75730 0.22900 0.06400
C 	C 	0.58640 0.70710 0.14310 0.34400
C 	C 	0.69630 0.83500 0.98500 0.04400
H 	H 	0.69010 0.79630 0.96730 0.01100
H 	H 	0.65950 0.85360 0.99230 0.00900
C 	C 	0.73420 0.87500 0.94460 -0.22000
H 	H 	0.77410 0.87190 0.95610 0.10000
H 	H 	0.72260 0.91630 0.94800 0.10000
C 	C 	0.72630 0.85310 0.88020 0.05900
H 	H 	0.68720 0.86000 0.86750 0.01800
H 	H 	0.73400 0.81080 0.87780 0.02300
C 	C 	0.76830 0.88780 0.84010 -0.31800
H 	H 	0.80730 0.88150 0.85370 0.14300
H 	H 	0.76010 0.93000 0.84230 0.13400
C 	C 	0.76270 0.86650 0.77610 0.29600
H 	H 	0.77120 0.89830 0.74860 -0.05500
H 	H 	0.72460 0.85130 0.76820 -0.04600
C 	C 	0.81790 0.80110 0.72270 0.22600
C 	C 	0.79520 0.81670 0.66900 -0.15000
H 	H 	0.76570 0.84440 0.66690 0.10000
C 	C 	0.81590 0.79120 0.61890 -0.03300
C 	C 	0.85930 0.74980 0.61870 -0.01300
H 	H 	0.87290 0.73450 0.58340 0.05200
C 	C 	0.88270 0.73100 0.67200 -0.06900
C 	C 	0.86070 0.75860 0.72440 -0.13300
H 	H 	0.87580 0.74750 0.76060 0.09800
C 	C 	0.92540 0.68900 0.67490 0.34800
C 	C 	0.78790 0.80770 0.55930 0.38200
Co	Co	0.73852 0.36571 0.86014 1.13700
Co	Co	0.72126 0.39602 0.99645 1.11700
O 	O 	0.76350 0.36700 0.75670 -0.36100
O 	O 	0.70090 0.30920 0.79900 -0.42900
O 	O 	0.56060 0.20600 0.68980 -0.49100
O 	O 	0.57540 0.17670 0.59780 -0.41500
O 	O 	0.72780 0.32980 0.53730 -0.25300
O 	O 	0.79910 0.32630 0.27330 -0.32200
O 	O 	0.94690 0.17210 0.22410 -0.43100
O 	O 	0.94490 0.16770 0.12640 -0.45100
O 	O 	0.75020 0.34680 0.06180 -0.45300
O 	O 	0.80430 0.28270 0.01410 -0.43100
O 	O 	0.70780 0.32730 0.93560 -0.65900
C 	C 	0.72700 0.33060 0.75400 0.29200
C 	C 	0.70340 0.30940 0.69400 0.03600
C 	C 	0.72450 0.32420 0.64570 -0.18800
H 	H 	0.75760 0.34720 0.64640 0.11600
C 	C 	0.70230 0.30880 0.59070 0.23700
C 	C 	0.66200 0.27010 0.58810 -0.19500
H 	H 	0.65050 0.25430 0.55220 0.11900
C 	C 	0.63640 0.25250 0.63930 0.00600
C 	C 	0.65830 0.27090 0.69400 -0.07800
H 	H 	0.64250 0.25730 0.72900 0.06300
C 	C 	0.58640 0.20710 0.64310 0.34500
C 	C 	0.69630 0.33500 0.48500 0.14200
H 	H 	0.69010 0.29630 0.46730 -0.00300
H 	H 	0.65950 0.35360 0.49230 -0.00300
C 	C 	0.73420 0.37500 0.44460 -0.27100
H 	H 	0.77410 0.37190 0.45610 0.12900
H 	H 	0.72260 0.41630 0.44800 0.11900
C 	C 	0.72630 0.35310 0.38020 0.08800
H 	H 	0.68720 0.36000 0.36750 0.00900
H 	H 	0.73400 0.31080 0.37780 0.01800
C 	C 	0.76830 0.38780 0.34010 -0.33500
H 	H 	0.80730 0.38150 0.35370 0.15000
H 	H 	0.76010 0.43000 0.34230 0.13500
C 	C 	0.76270 0.36650 0.27610 0.30700
H 	H 	0.77120 0.39830 0.24860 -0.06000
H 	H 	0.72460 0.35130 0.26820 -0.05000
C 	C 	0.81790 0.30110 0.22270 0.23300
C 	C 	0.79520 0.31670 0.16900 -0.15900
H 	H 	0.76570 0.34440 0.16690 0.10400
C 	C 	0.81590 0.29120 0.11890 -0.02000
C 	C 	0.85930 0.24980 0.11870 -0.02200
H 	H 	0.87290 0.23450 0.08340 0.06300
C 	C 	0.88270 0.23100 0.17200 -0.06100
C 	C 	0.86070 0.25860 0.22440 -0.13900
H 	H 	0.87580 0.24750 0.26060 0.10200
C 	C 	0.92540 0.18900 0.17490 0.34400
C 	C 	0.78790 0.30770 0.05930 0.37200
Co	Co	0.23852 0.86571 0.86014 1.13700
Co	Co	0.22126 0.89602 0.99645 1.11900
O 	O 	0.26350 0.86700 0.75670 -0.35900
O 	O 	0.20090 0.80920 0.79900 -0.42900
O 	O 	0.06060 0.70600 0.68980 -0.49500
O 	O 	0.07540 0.67670 0.59780 -0.41800
O 	O 	0.22780 0.82980 0.53730 -0.25300
O 	O 	0.29910 0.82630 0.27330 -0.32300
O 	O 	0.44690 0.67210 0.22410 -0.43800
O 	O 	0.44490 0.66770 0.12640 -0.45800
O 	O 	0.25020 0.84680 0.06180 -0.45200
O 	O 	0.30430 0.78270 0.01410 -0.43200
O 	O 	0.20780 0.82730 0.93560 -0.65900
C 	C 	0.22700 0.83060 0.75400 0.29100
C 	C 	0.20340 0.80940 0.69400 0.03700
C 	C 	0.22450 0.82420 0.64570 -0.18800
H 	H 	0.25760 0.84720 0.64640 0.11800
C 	C 	0.20230 0.80880 0.59070 0.23800
C 	C 	0.16200 0.77010 0.58810 -0.19500
H 	H 	0.15050 0.75430 0.55220 0.11900
C 	C 	0.13640 0.75250 0.63930 0.00600
C 	C 	0.15830 0.77090 0.69400 -0.07800
H 	H 	0.14250 0.75730 0.72900 0.06200
C 	C 	0.08640 0.70710 0.64310 0.34600
C 	C 	0.19630 0.83500 0.48500 0.14600
H 	H 	0.19010 0.79630 0.46730 -0.00400
H 	H 	0.15950 0.85360 0.49230 -0.00300
C 	C 	0.23420 0.87500 0.44460 -0.27700
H 	H 	0.27410 0.87190 0.45610 0.13100
H 	H 	0.22260 0.91630 0.44800 0.12500
C 	C 	0.22630 0.85310 0.38020 0.09400
H 	H 	0.18720 0.86000 0.36750 0.00800
H 	H 	0.23400 0.81080 0.37780 0.01600
C 	C 	0.26830 0.88780 0.34010 -0.34000
H 	H 	0.30730 0.88150 0.35370 0.15200
H 	H 	0.26010 0.93000 0.34230 0.14200
C 	C 	0.26270 0.86650 0.27610 0.30900
H 	H 	0.27120 0.89830 0.24860 -0.05800
H 	H 	0.22460 0.85130 0.26820 -0.04900
C 	C 	0.31790 0.80110 0.22270 0.23400
C 	C 	0.29520 0.81670 0.16900 -0.15900
H 	H 	0.26570 0.84440 0.16690 0.10500
C 	C 	0.31590 0.79120 0.11890 -0.02000
C 	C 	0.35930 0.74980 0.11870 -0.02200
H 	H 	0.37290 0.73450 0.08340 0.06200
C 	C 	0.38270 0.73100 0.17200 -0.06300
C 	C 	0.36070 0.75860 0.22440 -0.13900
H 	H 	0.37580 0.74750 0.26060 0.10100
C 	C 	0.42540 0.68900 0.17490 0.34500
C 	C 	0.28790 0.80770 0.05930 0.37200
Co	Co	0.23852 0.36571 0.36014 1.13800
Co	Co	0.22126 0.39602 0.49645 1.13800
O 	O 	0.26350 0.36700 0.25670 -0.36000
O 	O 	0.20090 0.30920 0.29900 -0.42800
O 	O 	0.06060 0.20600 0.18980 -0.49500
O 	O 	0.07540 0.17670 0.09780 -0.41000
O 	O 	0.22780 0.32980 0.03730 -0.19200
O 	O 	0.29910 0.32630 0.77330 -0.31800
O 	O 	0.44690 0.17210 0.72410 -0.44000
O 	O 	0.44490 0.16770 0.62640 -0.46600
O 	O 	0.25020 0.34680 0.56180 -0.48100
O 	O 	0.30430 0.28270 0.51410 -0.46900
O 	O 	0.20780 0.32730 0.43560 -0.64100
C 	C 	0.22700 0.33060 0.25400 0.29300
C 	C 	0.20340 0.30940 0.19400 0.03100
C 	C 	0.22450 0.32420 0.14570 -0.17800
H 	H 	0.25760 0.34720 0.14640 0.11600
C 	C 	0.20230 0.30880 0.09070 0.22800
C 	C 	0.16200 0.27010 0.08810 -0.18600
H 	H 	0.15050 0.25430 0.05220 0.13200
C 	C 	0.13640 0.25250 0.13930 0.00400
C 	C 	0.15830 0.27090 0.19400 -0.07500
H 	H 	0.14250 0.25730 0.22900 0.06200
C 	C 	0.08640 0.20710 0.14310 0.34600
C 	C 	0.19630 0.33500 0.98500 0.04100
H 	H 	0.19010 0.29630 0.96730 0.01100
H 	H 	0.15950 0.35360 0.99230 0.00900
C 	C 	0.23420 0.37500 0.94460 -0.21500
H 	H 	0.27410 0.37190 0.95610 0.09700
H 	H 	0.22260 0.41630 0.94800 0.09500
C 	C 	0.22630 0.35310 0.88020 0.05400
H 	H 	0.18720 0.36000 0.86750 0.01800
H 	H 	0.23400 0.31080 0.87780 0.02400
C 	C 	0.26830 0.38780 0.84010 -0.31400
H 	H 	0.30730 0.38150 0.85370 0.14100
H 	H 	0.26010 0.43000 0.84230 0.12800
C 	C 	0.26270 0.36650 0.77610 0.29400
H 	H 	0.27120 0.39830 0.74860 -0.05700
H 	H 	0.22460 0.35130 0.76820 -0.04700
C 	C 	0.31790 0.30110 0.72270 0.22400
C 	C 	0.29520 0.31670 0.66900 -0.14800
H 	H 	0.26570 0.34440 0.66690 0.09800
C 	C 	0.31590 0.29120 0.61890 -0.03500
C 	C 	0.35930 0.24980 0.61870 -0.01100
H 	H 	0.37290 0.23450 0.58340 0.04900
C 	C 	0.38270 0.23100 0.67200 -0.07300
C 	C 	0.36070 0.25860 0.72440 -0.13100
H 	H 	0.37580 0.24750 0.76060 0.09600
C 	C 	0.42540 0.18900 0.67490 0.34900
C 	C 	0.28790 0.30770 0.55930 0.38300
Co	Co	0.50000 0.50000 0.19978 1.10800
Co	Co	0.50000 0.00000 0.69978 1.09700
Co	Co	0.00000 0.50000 0.69978 1.09900
Co	Co	0.00000 0.00000 0.19978 1.09100
Co	Co	0.75000 0.75000 0.44978 1.10700
Co	Co	0.75000 0.25000 0.94978 1.08500
Co	Co	0.25000 0.75000 0.94978 1.08500
Co	Co	0.25000 0.25000 0.44978 1.10600
