data_crystal

_cell_length_a 28.58930
_cell_length_b 41.96180
_cell_length_c 12.06420
_cell_angle_alpha 90.00000
_cell_angle_beta  90.00000
_cell_angle_gamma 90.00000

_symmetry_space_group_name_	'P 1'
_symmetry_space_group_name_H-M	'P 1'

loop_
_symmetry_equiv_pos_as_xyz
  x,y,z

loop_
_atom_site_label
_atom_site_type_symbol
_atom_site_fract_x
_atom_site_fract_y
_atom_site_fract_z
_atom_site_charge
Cd	Cd	0.25318 0.17596 0.26386 1.18100
N 	N 	0.19192 0.20297 0.17270 -0.26300
N 	N 	0.19700 0.14527 0.35770 -0.25900
O 	O 	0.25363 0.13621 0.12600 -0.40800
N 	N 	0.31102 0.14672 0.35930 -0.27100
N 	N 	0.30996 0.20338 0.16050 -0.23600
C 	C 	0.19272 0.23414 0.16190 0.11100
C 	C 	0.15753 0.18800 0.12200 0.11200
C 	C 	0.19802 0.11356 0.35960 0.10000
C 	C 	0.16274 0.15896 0.41540 0.09900
H 	H 	0.23770 0.11770 0.15320 0.15300
H 	H 	0.21590 0.24540 0.19930 -0.04900
C 	C 	0.16136 0.25123 0.09860 -0.20400
C 	C 	0.12431 0.20314 0.05620 -0.19500
H 	H 	0.15530 0.16600 0.13070 -0.02700
H 	H 	0.22150 0.10320 0.32020 -0.02900
C 	C 	0.16573 0.09492 0.41750 -0.18500
C 	C 	0.13029 0.14263 0.47670 -0.18700
H 	H 	0.16070 0.18110 0.41400 -0.03500
H 	H 	0.16400 0.27330 0.09440 0.08900
C 	C 	0.12614 0.23599 0.04140 0.13800
H 	H 	0.10090 0.19130 0.02220 0.09700
H 	H 	0.16760 0.07280 0.41460 0.09200
C 	C 	0.13100 0.10940 0.47900 0.12600
H 	H 	0.10780 0.15370 0.51680 0.09200
C 	C 	0.09223 0.25296 0.97050 -0.11400
C 	C 	0.09638 0.09134 0.54450 -0.08900
C 	C 	0.10020 0.28348 0.93370 0.07300
C 	C 	0.05169 0.23883 0.93290 0.06700
C 	C 	0.10532 0.06082 0.58320 0.04500
C 	C 	0.05345 0.10416 0.57160 0.04600
H 	H 	0.12690 0.29420 0.95720 -0.01000
C 	C 	0.06979 0.29855 0.86330 -0.19600
C 	C 	0.02088 0.25407 0.86370 -0.18800
H 	H 	0.04500 0.21810 0.95540 0.00300
H 	H 	0.13330 0.05090 0.56440 0.01100
C 	C 	0.07352 0.04487 0.64890 -0.16900
C 	C 	0.02131 0.08864 0.63590 -0.16600
H 	H 	0.04600 0.12430 0.54480 0.01000
H 	H 	0.07640 0.31930 0.84120 0.10200
C 	C 	0.02999 0.28412 0.82420 0.17000
H 	H 	0.99330 0.24390 0.84320 0.09200
H 	H 	0.08040 0.02440 0.67310 0.09200
C 	C 	0.03162 0.05882 0.67930 0.14900
H 	H 	0.99250 0.09810 0.65060 0.08600
C 	C 	0.02086 0.35038 0.66480 -0.12700
C 	C 	0.98092 0.99156 0.66360 -0.13300
H 	H 	0.03500 0.33930 0.60690 0.07600
C 	C 	0.02091 0.38369 0.66440 -0.01900
H 	H 	0.96810 0.00260 0.60410 0.07800
C 	C 	0.98033 0.95873 0.66340 -0.02000
H 	H 	0.03510 0.39460 0.60630 0.03500
H 	H 	0.96660 0.94780 0.60470 0.04100
C 	C 	0.03682 0.45328 0.70560 -0.00500
C 	C 	0.95901 0.88903 0.73620 -0.00700
H 	H 	0.06200 0.44240 0.67490 0.02800
C 	C 	0.03718 0.48614 0.70570 -0.13900
H 	H 	0.93100 0.89990 0.72630 0.03400
C 	C 	0.95872 0.85647 0.73690 -0.13900
H 	H 	0.06260 0.49690 0.67570 0.08100
H 	H 	0.93060 0.84560 0.72850 0.08200
C 	C 	0.96901 0.55469 0.81850 0.17100
C 	C 	0.96869 0.78860 0.67960 0.13900
C 	C 	0.94107 0.57740 0.77150 -0.19700
C 	C 	0.96653 0.55044 0.92960 -0.20000
C 	C 	0.96025 0.79848 0.57170 -0.16000
C 	C 	0.94598 0.76174 0.71820 -0.16000
H 	H 	0.94250 0.58090 0.69550 0.10000
C 	C 	0.91078 0.59529 0.83540 0.07900
C 	C 	0.93666 0.56883 0.99310 0.07600
H 	H 	0.98510 0.53500 0.96340 0.10000
H 	H 	0.97530 0.81650 0.54460 0.08400
C 	C 	0.92998 0.78206 0.50450 0.03100
C 	C 	0.91551 0.74545 0.65020 0.03400
H 	H 	0.95130 0.75470 0.79010 0.09200
H 	H 	0.89190 0.61040 0.80110 -0.00300
C 	C 	0.90782 0.59138 0.94670 -0.12200
H 	H 	0.93610 0.56580 0.06940 0.00300
H 	H 	0.92490 0.78910 0.43240 0.00700
C 	C 	0.90680 0.75504 0.54310 -0.07200
H 	H 	0.90040 0.72750 0.67750 0.01300
C 	C 	0.87512 0.61062 0.01430 0.16700
C 	C 	0.87381 0.73693 0.47060 0.08500
C 	C 	0.83885 0.62682 0.96870 -0.22100
C 	C 	0.87837 0.61367 0.12680 -0.22200
C 	C 	0.85570 0.75040 0.37580 -0.23700
C 	C 	0.86620 0.70530 0.48460 0.11900
H 	H 	0.83430 0.62590 0.89250 0.10400
C 	C 	0.80847 0.64466 0.03310 0.12600
C 	C 	0.84614 0.63165 0.18550 0.13100
H 	H 	0.90250 0.60350 0.16450 0.10800
H 	H 	0.86490 0.77080 0.35470 0.10200
C 	C 	0.82400 0.73390 0.31240 0.06100
C 	C 	0.83350 0.69020 0.41760 -0.18300
H 	H 	0.88250 0.69390 0.53810 -0.01500
H 	H 	0.78480 0.65590 0.99740 -0.05300
H 	H 	0.84980 0.63310 0.26200 -0.03000
H 	H 	0.81170 0.74350 0.24940 -0.02600
H 	H 	0.82820 0.66870 0.43050 0.07800
C 	C 	0.87620 0.73540 0.36180 0.07200
H 	H 	0.90040 0.74570 0.32480 0.01000
C 	C 	0.84280 0.71850 0.30140 0.01600
H 	H 	0.84580 0.71880 0.22460 -0.01000
C 	C 	0.80500 0.70430 0.45510 0.23900
H 	H 	0.77970 0.69400 0.48750 -0.07200
C 	C 	0.83600 0.71980 0.52150 -0.29100
H 	H 	0.83280 0.71920 0.59820 0.12100
Cd	Cd	0.74682 0.17596 0.23614 1.18100
N 	N 	0.80808 0.20297 0.32730 -0.26400
N 	N 	0.80300 0.14527 0.14230 -0.25900
O 	O 	0.74637 0.13621 0.37400 -0.40800
N 	N 	0.68898 0.14672 0.14070 -0.27100
N 	N 	0.69004 0.20338 0.33950 -0.23600
C 	C 	0.80728 0.23414 0.33810 0.11200
C 	C 	0.84247 0.18800 0.37800 0.11300
C 	C 	0.80198 0.11356 0.14040 0.10100
C 	C 	0.83726 0.15896 0.08460 0.10000
H 	H 	0.76230 0.11770 0.34680 0.15300
H 	H 	0.78410 0.24540 0.30070 -0.04900
C 	C 	0.83864 0.25123 0.40140 -0.20600
C 	C 	0.87569 0.20314 0.44380 -0.19700
H 	H 	0.84470 0.16600 0.36930 -0.02700
H 	H 	0.77850 0.10320 0.17980 -0.02900
C 	C 	0.83427 0.09492 0.08250 -0.18700
C 	C 	0.86971 0.14263 0.02330 -0.18800
H 	H 	0.83930 0.18110 0.08600 -0.03500
H 	H 	0.83600 0.27330 0.40560 0.09000
C 	C 	0.87386 0.23599 0.45860 0.14200
H 	H 	0.89910 0.19130 0.47780 0.09700
H 	H 	0.83240 0.07280 0.08540 0.09300
C 	C 	0.86900 0.10940 0.02100 0.12900
H 	H 	0.89220 0.15370 0.98320 0.09300
C 	C 	0.90777 0.25296 0.52950 -0.12100
C 	C 	0.90362 0.09134 0.95550 -0.09600
C 	C 	0.89980 0.28348 0.56630 0.07900
C 	C 	0.94831 0.23883 0.56710 0.07900
C 	C 	0.89468 0.06082 0.91680 0.05100
C 	C 	0.94655 0.10416 0.92840 0.05700
H 	H 	0.87310 0.29420 0.54280 -0.01200
C 	C 	0.93021 0.29855 0.63670 -0.20200
C 	C 	0.97912 0.25407 0.63630 -0.20700
H 	H 	0.95500 0.21810 0.54460 -0.00300
H 	H 	0.86670 0.05090 0.93560 0.00800
C 	C 	0.92648 0.04487 0.85110 -0.17400
C 	C 	0.97869 0.08864 0.86410 -0.18400
H 	H 	0.95400 0.12430 0.95520 0.00500
H 	H 	0.92360 0.31930 0.65880 0.10300
C 	C 	0.97001 0.28412 0.67580 0.17500
H 	H 	0.00670 0.24390 0.65680 0.10300
H 	H 	0.91960 0.02440 0.82690 0.09300
C 	C 	0.96838 0.05882 0.82070 0.15300
H 	H 	0.00750 0.09810 0.84940 0.09700
C 	C 	0.97914 0.35038 0.83520 -0.13000
C 	C 	0.01908 0.99156 0.83640 -0.12900
H 	H 	0.96500 0.33930 0.89310 0.07600
C 	C 	0.97909 0.38369 0.83560 -0.02200
H 	H 	0.03190 0.00260 0.89590 0.07900
C 	C 	0.01967 0.95873 0.83660 -0.01700
H 	H 	0.96490 0.39460 0.89370 0.03500
H 	H 	0.03340 0.94780 0.89530 0.04100
C 	C 	0.96318 0.45328 0.79440 -0.00800
C 	C 	0.04099 0.88903 0.76380 -0.00400
H 	H 	0.93800 0.44240 0.82510 0.02900
C 	C 	0.96282 0.48614 0.79430 -0.14200
H 	H 	0.06900 0.89990 0.77370 0.03400
C 	C 	0.04128 0.85647 0.76310 -0.13600
H 	H 	0.93740 0.49690 0.82430 0.08200
H 	H 	0.06940 0.84560 0.77150 0.08200
C 	C 	0.03099 0.55469 0.68150 0.17600
C 	C 	0.03131 0.78860 0.82040 0.14400
C 	C 	0.05893 0.57740 0.72850 -0.20000
C 	C 	0.03347 0.55044 0.57040 -0.20300
C 	C 	0.03975 0.79848 0.92830 -0.16300
C 	C 	0.05402 0.76174 0.78180 -0.16200
H 	H 	0.05750 0.58090 0.80450 0.10200
C 	C 	0.08922 0.59529 0.66460 0.08300
C 	C 	0.06334 0.56883 0.50690 0.08000
H 	H 	0.01490 0.53500 0.53660 0.10300
H 	H 	0.02470 0.81650 0.95540 0.08600
C 	C 	0.07002 0.78206 0.99550 0.03400
C 	C 	0.08449 0.74545 0.84980 0.03700
H 	H 	0.04870 0.75470 0.70990 0.09400
H 	H 	0.10810 0.61040 0.69890 -0.00400
C 	C 	0.09218 0.59138 0.55330 -0.12400
H 	H 	0.06390 0.56580 0.43060 0.00300
H 	H 	0.07510 0.78910 0.06760 0.00700
C 	C 	0.09320 0.75504 0.95690 -0.07400
H 	H 	0.09960 0.72750 0.82250 0.01200
C 	C 	0.12488 0.61062 0.48570 0.16800
C 	C 	0.12619 0.73693 0.02940 0.08600
C 	C 	0.16115 0.62682 0.53130 -0.22300
C 	C 	0.12163 0.61367 0.37320 -0.22300
C 	C 	0.14430 0.75040 0.12420 -0.23800
C 	C 	0.13380 0.70530 0.01540 0.12000
H 	H 	0.16570 0.62590 0.60750 0.10500
C 	C 	0.19153 0.64466 0.46690 0.12700
C 	C 	0.15386 0.63165 0.31450 0.13100
H 	H 	0.09750 0.60350 0.33550 0.10900
H 	H 	0.13510 0.77080 0.14530 0.10200
C 	C 	0.17600 0.73390 0.18760 0.06100
C 	C 	0.16650 0.69020 0.08240 -0.18500
H 	H 	0.11750 0.69390 0.96190 -0.01500
H 	H 	0.21520 0.65590 0.50260 -0.05300
H 	H 	0.15020 0.63310 0.23800 -0.03000
H 	H 	0.18830 0.74350 0.25060 -0.02600
H 	H 	0.17180 0.66870 0.06950 0.07900
C 	C 	0.12380 0.73540 0.13820 0.07300
H 	H 	0.09960 0.74570 0.17520 0.01000
C 	C 	0.15720 0.71850 0.19860 0.01700
H 	H 	0.15420 0.71880 0.27540 -0.01000
C 	C 	0.19500 0.70430 0.04490 0.24200
H 	H 	0.22030 0.69400 0.01250 -0.07300
C 	C 	0.16400 0.71980 0.97850 -0.29300
H 	H 	0.16720 0.71920 0.90180 0.12200
Cd	Cd	0.75318 0.67596 0.23614 1.18100
N 	N 	0.69192 0.70297 0.32730 -0.26400
N 	N 	0.69700 0.64527 0.14230 -0.25900
O 	O 	0.75363 0.63621 0.37400 -0.40800
N 	N 	0.81102 0.64672 0.14070 -0.27100
N 	N 	0.80996 0.70338 0.33950 -0.23600
C 	C 	0.69272 0.73414 0.33810 0.11100
C 	C 	0.65753 0.68800 0.37800 0.11300
C 	C 	0.69802 0.61356 0.14040 0.10000
C 	C 	0.66274 0.65896 0.08460 0.09900
H 	H 	0.73770 0.61770 0.34680 0.15300
H 	H 	0.71590 0.74540 0.30070 -0.04900
C 	C 	0.66136 0.75123 0.40140 -0.20500
C 	C 	0.62431 0.70314 0.44380 -0.19600
H 	H 	0.65530 0.66600 0.36930 -0.02700
H 	H 	0.72150 0.60320 0.17980 -0.02900
C 	C 	0.66573 0.59492 0.08250 -0.18600
C 	C 	0.63029 0.64263 0.02330 -0.18800
H 	H 	0.66070 0.68110 0.08600 -0.03500
H 	H 	0.66400 0.77330 0.40560 0.09000
C 	C 	0.62614 0.73599 0.45860 0.14000
H 	H 	0.60090 0.69130 0.47780 0.09700
H 	H 	0.66760 0.57280 0.08540 0.09200
C 	C 	0.63100 0.60940 0.02100 0.12800
H 	H 	0.60780 0.65370 0.98320 0.09300
C 	C 	0.59223 0.75296 0.52950 -0.11800
C 	C 	0.59638 0.59134 0.95550 -0.09300
C 	C 	0.60020 0.78348 0.56630 0.07700
C 	C 	0.55169 0.73883 0.56710 0.07400
C 	C 	0.60532 0.56082 0.91680 0.04900
C 	C 	0.55345 0.60416 0.92840 0.05300
H 	H 	0.62690 0.79420 0.54280 -0.01100
C 	C 	0.56979 0.79855 0.63670 -0.20000
C 	C 	0.52088 0.75407 0.63630 -0.19800
H 	H 	0.54500 0.71810 0.54460 -0.00000
H 	H 	0.63330 0.55090 0.93560 0.00900
C 	C 	0.57352 0.54487 0.85110 -0.17300
C 	C 	0.52131 0.58864 0.86410 -0.17600
H 	H 	0.54600 0.62430 0.95520 0.00700
H 	H 	0.57640 0.81930 0.65880 0.10300
C 	C 	0.52999 0.78412 0.67580 0.17400
H 	H 	0.49330 0.74390 0.65680 0.09800
H 	H 	0.58040 0.52440 0.82690 0.09300
C 	C 	0.53162 0.55882 0.82070 0.15300
H 	H 	0.49250 0.59810 0.84940 0.09200
C 	C 	0.52086 0.85038 0.83520 -0.12600
C 	C 	0.48092 0.49156 0.83640 -0.12900
H 	H 	0.53500 0.83930 0.89310 0.07500
C 	C 	0.52091 0.88369 0.83560 -0.01900
H 	H 	0.46810 0.50260 0.89590 0.07800
C 	C 	0.48033 0.45873 0.83660 -0.01800
H 	H 	0.53510 0.89460 0.89370 0.03500
H 	H 	0.46660 0.44780 0.89530 0.04100
C 	C 	0.53682 0.95328 0.79440 -0.00500
C 	C 	0.45901 0.38903 0.76380 -0.00400
H 	H 	0.56200 0.94240 0.82510 0.02800
C 	C 	0.53718 0.98614 0.79430 -0.13800
H 	H 	0.43100 0.39990 0.77370 0.03400
C 	C 	0.45872 0.35647 0.76310 -0.13500
H 	H 	0.56260 0.99690 0.82430 0.08100
H 	H 	0.43060 0.34560 0.77150 0.08100
C 	C 	0.46901 0.05469 0.68150 0.17500
C 	C 	0.46869 0.28860 0.82040 0.14300
C 	C 	0.44107 0.07740 0.72850 -0.19900
C 	C 	0.46653 0.05044 0.57040 -0.20300
C 	C 	0.46025 0.29848 0.92830 -0.16200
C 	C 	0.44598 0.26174 0.78180 -0.16200
H 	H 	0.44250 0.08090 0.80450 0.10200
C 	C 	0.41078 0.09529 0.66460 0.08200
C 	C 	0.43666 0.06883 0.50690 0.07900
H 	H 	0.48510 0.03500 0.53660 0.10200
H 	H 	0.47530 0.31650 0.95540 0.08600
C 	C 	0.42998 0.28206 0.99550 0.03300
C 	C 	0.41551 0.24545 0.84980 0.03600
H 	H 	0.45130 0.25470 0.70990 0.09400
H 	H 	0.39190 0.11040 0.69890 -0.00400
C 	C 	0.40782 0.09138 0.55330 -0.12400
H 	H 	0.43610 0.06580 0.43060 0.00300
H 	H 	0.42490 0.28910 0.06760 0.00700
C 	C 	0.40680 0.25504 0.95690 -0.07400
H 	H 	0.40040 0.22750 0.82250 0.01200
C 	C 	0.37512 0.11062 0.48570 0.16800
C 	C 	0.37381 0.23693 0.02940 0.08600
C 	C 	0.33885 0.12682 0.53130 -0.22200
C 	C 	0.37837 0.11367 0.37320 -0.22300
C 	C 	0.35570 0.25040 0.12420 -0.23800
C 	C 	0.36620 0.20530 0.01540 0.12000
H 	H 	0.33430 0.12590 0.60750 0.10500
C 	C 	0.30847 0.14466 0.46690 0.12700
C 	C 	0.34614 0.13165 0.31450 0.13100
H 	H 	0.40250 0.10350 0.33550 0.10900
H 	H 	0.36490 0.27080 0.14530 0.10200
C 	C 	0.32400 0.23390 0.18760 0.06100
C 	C 	0.33350 0.19020 0.08240 -0.18400
H 	H 	0.38250 0.19390 0.96190 -0.01500
H 	H 	0.28480 0.15590 0.50260 -0.05300
H 	H 	0.34980 0.13310 0.23800 -0.03000
H 	H 	0.31170 0.24350 0.25060 -0.02600
H 	H 	0.32820 0.16870 0.06950 0.07900
C 	C 	0.37620 0.23540 0.13820 0.07200
H 	H 	0.40040 0.24570 0.17520 0.01000
C 	C 	0.34280 0.21850 0.19860 0.01700
H 	H 	0.34580 0.21880 0.27540 -0.01000
C 	C 	0.30500 0.20430 0.04490 0.24100
H 	H 	0.27970 0.19400 0.01250 -0.07300
C 	C 	0.33600 0.21980 0.97850 -0.29200
H 	H 	0.33280 0.21920 0.90180 0.12200
Cd	Cd	0.24682 0.67596 0.26386 1.18100
N 	N 	0.30808 0.70297 0.17270 -0.26400
N 	N 	0.30300 0.64527 0.35770 -0.25900
O 	O 	0.24637 0.63621 0.12600 -0.40800
N 	N 	0.18898 0.64672 0.35930 -0.27100
N 	N 	0.19004 0.70338 0.16050 -0.23600
C 	C 	0.30728 0.73414 0.16190 0.11100
C 	C 	0.34247 0.68800 0.12200 0.11300
C 	C 	0.30198 0.61356 0.35960 0.10000
C 	C 	0.33726 0.65896 0.41540 0.10000
H 	H 	0.26230 0.61770 0.15320 0.15300
H 	H 	0.28410 0.74540 0.19930 -0.04900
C 	C 	0.33864 0.75123 0.09860 -0.20500
C 	C 	0.37569 0.70314 0.05620 -0.19600
H 	H 	0.34470 0.66600 0.13070 -0.02700
H 	H 	0.27850 0.60320 0.32020 -0.02900
C 	C 	0.33427 0.59492 0.41750 -0.18600
C 	C 	0.36971 0.64263 0.47670 -0.18800
H 	H 	0.33930 0.68110 0.41400 -0.03500
H 	H 	0.33600 0.77330 0.09440 0.09000
C 	C 	0.37386 0.73599 0.04140 0.14100
H 	H 	0.39910 0.69130 0.02220 0.09700
H 	H 	0.33240 0.57280 0.41460 0.09200
C 	C 	0.36900 0.60940 0.47900 0.12800
H 	H 	0.39220 0.65370 0.51680 0.09300
C 	C 	0.40777 0.75296 0.97050 -0.11800
C 	C 	0.40362 0.59134 0.54450 -0.09300
C 	C 	0.39980 0.78348 0.93370 0.07700
C 	C 	0.44831 0.73883 0.93290 0.07400
C 	C 	0.39468 0.56082 0.58320 0.04900
C 	C 	0.44655 0.60416 0.57160 0.05200
H 	H 	0.37310 0.79420 0.95720 -0.01100
C 	C 	0.43021 0.79855 0.86330 -0.20000
C 	C 	0.47912 0.75407 0.86370 -0.19900
H 	H 	0.45500 0.71810 0.95540 -0.00000
H 	H 	0.36670 0.55090 0.56440 0.00900
C 	C 	0.42648 0.54487 0.64890 -0.17300
C 	C 	0.47869 0.58864 0.63590 -0.17600
H 	H 	0.45400 0.62430 0.54480 0.00700
H 	H 	0.42360 0.81930 0.84120 0.10300
C 	C 	0.47001 0.78412 0.82420 0.17400
H 	H 	0.50670 0.74390 0.84320 0.09800
H 	H 	0.41960 0.52440 0.67310 0.09300
C 	C 	0.46838 0.55882 0.67930 0.15300
H 	H 	0.50750 0.59810 0.65060 0.09200
C 	C 	0.47914 0.85038 0.66480 -0.12600
C 	C 	0.51908 0.49156 0.66360 -0.12900
H 	H 	0.46500 0.83930 0.60690 0.07500
C 	C 	0.47909 0.88369 0.66440 -0.01900
H 	H 	0.53190 0.50260 0.60410 0.07800
C 	C 	0.51967 0.45873 0.66340 -0.01800
H 	H 	0.46490 0.89460 0.60630 0.03500
H 	H 	0.53340 0.44780 0.60470 0.04100
C 	C 	0.46318 0.95328 0.70560 -0.00500
C 	C 	0.54099 0.38903 0.73620 -0.00400
H 	H 	0.43800 0.94240 0.67490 0.02800
C 	C 	0.46282 0.98614 0.70570 -0.13800
H 	H 	0.56900 0.39990 0.72630 0.03400
C 	C 	0.54128 0.35647 0.73690 -0.13500
H 	H 	0.43740 0.99690 0.67570 0.08100
H 	H 	0.56940 0.34560 0.72850 0.08100
C 	C 	0.53099 0.05469 0.81850 0.17500
C 	C 	0.53131 0.28860 0.67960 0.14300
C 	C 	0.55893 0.07740 0.77150 -0.19900
C 	C 	0.53347 0.05044 0.92960 -0.20200
C 	C 	0.53975 0.29848 0.57170 -0.16200
C 	C 	0.55402 0.26174 0.71820 -0.16200
H 	H 	0.55750 0.08090 0.69550 0.10200
C 	C 	0.58922 0.09529 0.83540 0.08200
C 	C 	0.56334 0.06883 0.99310 0.07900
H 	H 	0.51490 0.03500 0.96340 0.10200
H 	H 	0.52470 0.31650 0.54460 0.08500
C 	C 	0.57002 0.28206 0.50450 0.03300
C 	C 	0.58449 0.24545 0.65020 0.03600
H 	H 	0.54870 0.25470 0.79010 0.09400
H 	H 	0.60810 0.11040 0.80110 -0.00400
C 	C 	0.59218 0.09138 0.94670 -0.12400
H 	H 	0.56390 0.06580 0.06940 0.00300
H 	H 	0.57510 0.28910 0.43240 0.00700
C 	C 	0.59320 0.25504 0.54310 -0.07400
H 	H 	0.59960 0.22750 0.67750 0.01200
C 	C 	0.62488 0.11062 0.01430 0.16800
C 	C 	0.62619 0.23693 0.47060 0.08600
C 	C 	0.66115 0.12682 0.96870 -0.22200
C 	C 	0.62163 0.11367 0.12680 -0.22200
C 	C 	0.64430 0.25040 0.37580 -0.23700
C 	C 	0.63380 0.20530 0.48460 0.11900
H 	H 	0.66570 0.12590 0.89250 0.10400
C 	C 	0.69153 0.14466 0.03310 0.12700
C 	C 	0.65386 0.13165 0.18550 0.13100
H 	H 	0.59750 0.10350 0.16450 0.10900
H 	H 	0.63510 0.27080 0.35470 0.10200
C 	C 	0.67600 0.23390 0.31240 0.06100
C 	C 	0.66650 0.19020 0.41760 -0.18300
H 	H 	0.61750 0.19390 0.53810 -0.01500
H 	H 	0.71520 0.15590 0.99740 -0.05300
H 	H 	0.65020 0.13310 0.26200 -0.03000
H 	H 	0.68830 0.24350 0.24940 -0.02600
H 	H 	0.67180 0.16870 0.43050 0.07800
C 	C 	0.62380 0.23540 0.36180 0.07200
H 	H 	0.59960 0.24570 0.32480 0.01000
C 	C 	0.65720 0.21850 0.30140 0.01700
H 	H 	0.65420 0.21880 0.22460 -0.01000
C 	C 	0.69500 0.20430 0.45510 0.23900
H 	H 	0.72030 0.19400 0.48750 -0.07200
C 	C 	0.66400 0.21980 0.52150 -0.29100
H 	H 	0.66720 0.21920 0.59820 0.12100
N 	N 	0.00000 0.29967 0.75000 -0.18700
C 	C 	0.00000 0.33371 0.75000 0.12200
C 	C 	0.00000 0.40082 0.75000 -0.00700
C 	C 	-0.00000 0.43605 0.75000 -0.01700
C 	C 	-0.00000 0.50353 0.75000 0.13400
N 	N 	0.00000 0.53675 0.75000 -0.18700
N 	N 	0.50000 0.79967 0.75000 -0.18900
C 	C 	0.50000 0.83371 0.75000 0.11800
C 	C 	0.50000 0.90082 0.75000 -0.00900
C 	C 	0.50000 0.93605 0.75000 -0.01900
C 	C 	0.50000 0.00353 0.75000 0.13000
N 	N 	0.50000 0.03675 0.75000 -0.18900
N 	N 	-0.00000 0.04254 0.75000 -0.17600
C 	C 	0.00000 0.00815 0.75000 0.12400
C 	C 	-0.00000 0.94213 0.75000 -0.00100
C 	C 	0.00000 0.90638 0.75000 -0.01400
C 	C 	-0.00000 0.83944 0.75000 0.13000
N 	N 	0.00000 0.80585 0.75000 -0.17400
N 	N 	0.50000 0.54254 0.75000 -0.17800
C 	C 	0.50000 0.50815 0.75000 0.11900
C 	C 	0.50000 0.44213 0.75000 -0.00300
C 	C 	0.50000 0.40638 0.75000 -0.01600
C 	C 	0.50000 0.33944 0.75000 0.12600
N 	N 	0.50000 0.30585 0.75000 -0.17600
Cd	Cd	0.24682 0.32404 0.76386 1.18100
N 	N 	0.30808 0.29703 0.67270 -0.26400
N 	N 	0.30300 0.35473 0.85770 -0.25900
O 	O 	0.24637 0.36379 0.62600 -0.40800
N 	N 	0.18898 0.35328 0.85930 -0.27100
N 	N 	0.19004 0.29662 0.66050 -0.23600
C 	C 	0.30728 0.26586 0.66190 0.11100
C 	C 	0.34247 0.31200 0.62200 0.11300
C 	C 	0.30198 0.38644 0.85960 0.10000
C 	C 	0.33726 0.34104 0.91540 0.10000
H 	H 	0.26230 0.38230 0.65320 0.15300
H 	H 	0.28410 0.25460 0.69930 -0.04900
C 	C 	0.33864 0.24877 0.59860 -0.20500
C 	C 	0.37569 0.29686 0.55620 -0.19600
H 	H 	0.34470 0.33400 0.63070 -0.02700
H 	H 	0.27850 0.39680 0.82020 -0.02900
C 	C 	0.33427 0.40508 0.91750 -0.18600
C 	C 	0.36971 0.35737 0.97670 -0.18800
H 	H 	0.33930 0.31890 0.91400 -0.03500
H 	H 	0.33600 0.22670 0.59440 0.09000
C 	C 	0.37386 0.26401 0.54140 0.14000
H 	H 	0.39910 0.30870 0.52220 0.09700
H 	H 	0.33240 0.42720 0.91460 0.09200
C 	C 	0.36900 0.39060 0.97900 0.12800
H 	H 	0.39220 0.34630 0.01680 0.09300
C 	C 	0.40777 0.24704 0.47050 -0.11800
C 	C 	0.40362 0.40866 0.04450 -0.09300
C 	C 	0.39980 0.21652 0.43370 0.07700
C 	C 	0.44831 0.26117 0.43290 0.07400
C 	C 	0.39468 0.43918 0.08320 0.04800
C 	C 	0.44655 0.39584 0.07160 0.05200
H 	H 	0.37310 0.20580 0.45720 -0.01100
C 	C 	0.43021 0.20145 0.36330 -0.20000
C 	C 	0.47912 0.24593 0.36370 -0.19800
H 	H 	0.45500 0.28190 0.45540 -0.00000
H 	H 	0.36670 0.44910 0.06440 0.00900
C 	C 	0.42648 0.45513 0.14890 -0.17300
C 	C 	0.47869 0.41136 0.13590 -0.17600
H 	H 	0.45400 0.37570 0.04480 0.00700
H 	H 	0.42360 0.18070 0.34120 0.10300
C 	C 	0.47001 0.21588 0.32420 0.17400
H 	H 	0.50670 0.25610 0.34320 0.09800
H 	H 	0.41960 0.47560 0.17310 0.09300
C 	C 	0.46838 0.44118 0.17930 0.15300
H 	H 	0.50750 0.40190 0.15060 0.09200
C 	C 	0.47914 0.14962 0.16480 -0.12600
C 	C 	0.51908 0.50844 0.16360 -0.12900
H 	H 	0.46500 0.16070 0.10690 0.07500
C 	C 	0.47909 0.11631 0.16440 -0.01900
H 	H 	0.53190 0.49740 0.10410 0.07800
C 	C 	0.51967 0.54127 0.16340 -0.01800
H 	H 	0.46490 0.10540 0.10630 0.03500
H 	H 	0.53340 0.55220 0.10470 0.04100
C 	C 	0.46318 0.04672 0.20560 -0.00500
C 	C 	0.54099 0.61097 0.23620 -0.00400
H 	H 	0.43800 0.05760 0.17490 0.02800
C 	C 	0.46282 0.01386 0.20570 -0.13800
H 	H 	0.56900 0.60010 0.22630 0.03400
C 	C 	0.54128 0.64353 0.23690 -0.13500
H 	H 	0.43740 0.00310 0.17570 0.08100
H 	H 	0.56940 0.65440 0.22850 0.08100
C 	C 	0.53099 0.94531 0.31850 0.17500
C 	C 	0.53131 0.71140 0.17960 0.14300
C 	C 	0.55893 0.92260 0.27150 -0.19900
C 	C 	0.53347 0.94956 0.42960 -0.20300
C 	C 	0.53975 0.70152 0.07170 -0.16200
C 	C 	0.55402 0.73826 0.21820 -0.16200
H 	H 	0.55750 0.91910 0.19550 0.10200
C 	C 	0.58922 0.90471 0.33540 0.08200
C 	C 	0.56334 0.93117 0.49310 0.07900
H 	H 	0.51490 0.96500 0.46340 0.10200
H 	H 	0.52470 0.68350 0.04460 0.08600
C 	C 	0.57002 0.71794 0.00450 0.03300
C 	C 	0.58449 0.75455 0.15020 0.03600
H 	H 	0.54870 0.74530 0.29010 0.09400
H 	H 	0.60810 0.88960 0.30110 -0.00400
C 	C 	0.59218 0.90862 0.44670 -0.12400
H 	H 	0.56390 0.93420 0.56940 0.00300
H 	H 	0.57510 0.71090 0.93240 0.00700
C 	C 	0.59320 0.74496 0.04310 -0.07300
H 	H 	0.59960 0.77250 0.17750 0.01200
C 	C 	0.62488 0.88938 0.51430 0.16800
C 	C 	0.62619 0.76307 0.97060 0.08600
C 	C 	0.66115 0.87318 0.46870 -0.22200
C 	C 	0.62163 0.88633 0.62680 -0.22300
C 	C 	0.64430 0.74960 0.87580 -0.23800
C 	C 	0.63380 0.79470 0.98460 0.12200
H 	H 	0.66570 0.87410 0.39250 0.10500
C 	C 	0.69153 0.85534 0.53310 0.12700
C 	C 	0.65386 0.86835 0.68550 0.13100
H 	H 	0.59750 0.89650 0.66450 0.10900
H 	H 	0.63510 0.72920 0.85470 0.10200
C 	C 	0.67600 0.76610 0.81240 0.06200
C 	C 	0.66650 0.80980 0.91760 -0.18600
H 	H 	0.61750 0.80610 0.03810 -0.01600
H 	H 	0.71520 0.84410 0.49740 -0.05300
H 	H 	0.65020 0.86690 0.76200 -0.03000
H 	H 	0.68830 0.75650 0.74940 -0.02700
H 	H 	0.67180 0.83130 0.93050 0.08000
C 	C 	0.62380 0.76460 0.86180 0.07300
H 	H 	0.59960 0.75430 0.82480 0.01000
C 	C 	0.65720 0.78150 0.80140 0.01600
H 	H 	0.65420 0.78120 0.72460 -0.01000
C 	C 	0.69500 0.79570 0.95510 0.24300
H 	H 	0.72030 0.80600 0.98750 -0.07400
C 	C 	0.66400 0.78020 0.02150 -0.29400
H 	H 	0.66720 0.78080 0.09820 0.12200
Cd	Cd	0.75318 0.32404 0.73614 1.18100
N 	N 	0.69192 0.29703 0.82730 -0.26400
N 	N 	0.69700 0.35473 0.64230 -0.25900
O 	O 	0.75363 0.36379 0.87400 -0.40800
N 	N 	0.81102 0.35328 0.64070 -0.27100
N 	N 	0.80996 0.29662 0.83950 -0.23500
C 	C 	0.69272 0.26586 0.83810 0.11100
C 	C 	0.65753 0.31200 0.87800 0.11300
C 	C 	0.69802 0.38644 0.64040 0.10000
C 	C 	0.66274 0.34104 0.58460 0.10000
H 	H 	0.73770 0.38230 0.84680 0.15300
H 	H 	0.71590 0.25460 0.80070 -0.04900
C 	C 	0.66136 0.24877 0.90140 -0.20500
C 	C 	0.62431 0.29686 0.94380 -0.19600
H 	H 	0.65530 0.33400 0.86930 -0.02700
H 	H 	0.72150 0.39680 0.67980 -0.02900
C 	C 	0.66573 0.40508 0.58250 -0.18600
C 	C 	0.63029 0.35737 0.52330 -0.18800
H 	H 	0.66070 0.31890 0.58600 -0.03500
H 	H 	0.66400 0.22670 0.90560 0.09000
C 	C 	0.62614 0.26401 0.95860 0.14000
H 	H 	0.60090 0.30870 0.97780 0.09700
H 	H 	0.66760 0.42720 0.58540 0.09200
C 	C 	0.63100 0.39060 0.52100 0.12800
H 	H 	0.60780 0.34630 0.48320 0.09300
C 	C 	0.59223 0.24704 0.02950 -0.11800
C 	C 	0.59638 0.40866 0.45550 -0.09300
C 	C 	0.60020 0.21652 0.06630 0.07700
C 	C 	0.55169 0.26117 0.06710 0.07400
C 	C 	0.60532 0.43918 0.41680 0.04900
C 	C 	0.55345 0.39584 0.42840 0.05200
H 	H 	0.62690 0.20580 0.04280 -0.01100
C 	C 	0.56979 0.20145 0.13670 -0.20000
C 	C 	0.52088 0.24593 0.13630 -0.19800
H 	H 	0.54500 0.28190 0.04460 -0.00000
H 	H 	0.63330 0.44910 0.43560 0.00900
C 	C 	0.57352 0.45513 0.35110 -0.17300
C 	C 	0.52131 0.41136 0.36410 -0.17600
H 	H 	0.54600 0.37570 0.45520 0.00700
H 	H 	0.57640 0.18070 0.15880 0.10300
C 	C 	0.52999 0.21588 0.17580 0.17400
H 	H 	0.49330 0.25610 0.15680 0.09800
H 	H 	0.58040 0.47560 0.32690 0.09300
C 	C 	0.53162 0.44118 0.32070 0.15300
H 	H 	0.49250 0.40190 0.34940 0.09200
C 	C 	0.52086 0.14962 0.33520 -0.12600
C 	C 	0.48092 0.50844 0.33640 -0.12900
H 	H 	0.53500 0.16070 0.39310 0.07500
C 	C 	0.52091 0.11631 0.33560 -0.01900
H 	H 	0.46810 0.49740 0.39590 0.07800
C 	C 	0.48033 0.54127 0.33660 -0.01800
H 	H 	0.53510 0.10540 0.39370 0.03500
H 	H 	0.46660 0.55220 0.39530 0.04100
C 	C 	0.53682 0.04672 0.29440 -0.00500
C 	C 	0.45901 0.61097 0.26380 -0.00400
H 	H 	0.56200 0.05760 0.32510 0.02800
C 	C 	0.53718 0.01386 0.29430 -0.13800
H 	H 	0.43100 0.60010 0.27370 0.03400
C 	C 	0.45872 0.64353 0.26310 -0.13500
H 	H 	0.56260 0.00310 0.32430 0.08100
H 	H 	0.43060 0.65440 0.27150 0.08100
C 	C 	0.46901 0.94531 0.18150 0.17500
C 	C 	0.46869 0.71140 0.32040 0.14300
C 	C 	0.44107 0.92260 0.22850 -0.19900
C 	C 	0.46653 0.94956 0.07040 -0.20200
C 	C 	0.46025 0.70152 0.42830 -0.16200
C 	C 	0.44598 0.73826 0.28180 -0.16200
H 	H 	0.44250 0.91910 0.30450 0.10200
C 	C 	0.41078 0.90471 0.16460 0.08200
C 	C 	0.43666 0.93117 0.00690 0.07900
H 	H 	0.48510 0.96500 0.03660 0.10200
H 	H 	0.47530 0.68350 0.45540 0.08500
C 	C 	0.42998 0.71794 0.49550 0.03300
C 	C 	0.41551 0.75455 0.34980 0.03600
H 	H 	0.45130 0.74530 0.20990 0.09400
H 	H 	0.39190 0.88960 0.19890 -0.00300
C 	C 	0.40782 0.90862 0.05330 -0.12300
H 	H 	0.43610 0.93420 0.93060 0.00300
H 	H 	0.42490 0.71090 0.56760 0.00700
C 	C 	0.40680 0.74496 0.45690 -0.07400
H 	H 	0.40040 0.77250 0.32250 0.01200
C 	C 	0.37512 0.88938 0.98570 0.16700
C 	C 	0.37381 0.76307 0.52940 0.08600
C 	C 	0.33885 0.87318 0.03130 -0.22100
C 	C 	0.37837 0.88633 0.87320 -0.22200
C 	C 	0.35570 0.74960 0.62420 -0.23700
C 	C 	0.36620 0.79470 0.51540 0.11900
H 	H 	0.33430 0.87410 0.10750 0.10400
C 	C 	0.30847 0.85534 0.96690 0.12600
C 	C 	0.34614 0.86835 0.81450 0.13100
H 	H 	0.40250 0.89650 0.83550 0.10900
H 	H 	0.36490 0.72920 0.64530 0.10200
C 	C 	0.32400 0.76610 0.68760 0.06100
C 	C 	0.33350 0.80980 0.58240 -0.18300
H 	H 	0.38250 0.80610 0.46190 -0.01500
H 	H 	0.28480 0.84410 0.00260 -0.05300
H 	H 	0.34980 0.86690 0.73800 -0.03000
H 	H 	0.31170 0.75650 0.75060 -0.02600
H 	H 	0.32820 0.83130 0.56950 0.07800
C 	C 	0.37620 0.76460 0.63820 0.07200
H 	H 	0.40040 0.75430 0.67520 0.01000
C 	C 	0.34280 0.78150 0.69860 0.01700
H 	H 	0.34580 0.78120 0.77540 -0.01000
C 	C 	0.30500 0.79570 0.54490 0.23900
H 	H 	0.27970 0.80600 0.51250 -0.07200
C 	C 	0.33600 0.78020 0.47850 -0.29100
H 	H 	0.33280 0.78080 0.40180 0.12100
Cd	Cd	0.74682 0.82404 0.73614 1.18100
N 	N 	0.80808 0.79703 0.82730 -0.26400
N 	N 	0.80300 0.85473 0.64230 -0.26000
O 	O 	0.74637 0.86379 0.87400 -0.40800
N 	N 	0.68898 0.85328 0.64070 -0.27100
N 	N 	0.69004 0.79662 0.83950 -0.23500
C 	C 	0.80728 0.76586 0.83810 0.11200
C 	C 	0.84247 0.81200 0.87800 0.11300
C 	C 	0.80198 0.88644 0.64040 0.10100
C 	C 	0.83726 0.84104 0.58460 0.10000
H 	H 	0.76230 0.88230 0.84680 0.15300
H 	H 	0.78410 0.75460 0.80070 -0.04900
C 	C 	0.83864 0.74877 0.90140 -0.20600
C 	C 	0.87569 0.79686 0.94380 -0.19700
H 	H 	0.84470 0.83400 0.86930 -0.02700
H 	H 	0.77850 0.89680 0.67980 -0.03000
C 	C 	0.83427 0.90508 0.58250 -0.18700
C 	C 	0.86971 0.85737 0.52330 -0.18900
H 	H 	0.83930 0.81890 0.58600 -0.03500
H 	H 	0.83600 0.72670 0.90560 0.09000
C 	C 	0.87386 0.76401 0.95860 0.14200
H 	H 	0.89910 0.80870 0.97780 0.09700
H 	H 	0.83240 0.92720 0.58540 0.09300
C 	C 	0.86900 0.89060 0.52100 0.12900
H 	H 	0.89220 0.84630 0.48320 0.09300
C 	C 	0.90777 0.74704 0.02950 -0.12100
C 	C 	0.90362 0.90866 0.45550 -0.09600
C 	C 	0.89980 0.71652 0.06630 0.07900
C 	C 	0.94831 0.76117 0.06710 0.07900
C 	C 	0.89468 0.93918 0.41680 0.05000
C 	C 	0.94655 0.89584 0.42840 0.05700
H 	H 	0.87310 0.70580 0.04280 -0.01200
C 	C 	0.93021 0.70145 0.13670 -0.20200
C 	C 	0.97912 0.74593 0.13630 -0.20700
H 	H 	0.95500 0.78190 0.04460 -0.00300
H 	H 	0.86670 0.94910 0.43560 0.00800
C 	C 	0.92648 0.95513 0.35110 -0.17400
C 	C 	0.97869 0.91136 0.36410 -0.18400
H 	H 	0.95400 0.87570 0.45520 0.00500
H 	H 	0.92360 0.68070 0.15880 0.10300
C 	C 	0.97001 0.71588 0.17580 0.17500
H 	H 	0.00670 0.75610 0.15680 0.10300
H 	H 	0.91960 0.97560 0.32690 0.09300
C 	C 	0.96838 0.94118 0.32070 0.15300
H 	H 	0.00750 0.90190 0.34940 0.09700
C 	C 	0.97914 0.64962 0.33520 -0.13000
C 	C 	0.01908 0.00844 0.33640 -0.12900
H 	H 	0.96500 0.66070 0.39310 0.07600
C 	C 	0.97909 0.61631 0.33560 -0.02200
H 	H 	0.03190 0.99740 0.39590 0.07900
C 	C 	0.01967 0.04127 0.33660 -0.01700
H 	H 	0.96490 0.60540 0.39370 0.03500
H 	H 	0.03340 0.05220 0.39530 0.04100
C 	C 	0.96318 0.54672 0.29440 -0.00800
C 	C 	0.04099 0.11097 0.26380 -0.00400
H 	H 	0.93800 0.55760 0.32510 0.02900
C 	C 	0.96282 0.51386 0.29430 -0.14200
H 	H 	0.06900 0.10010 0.27370 0.03400
C 	C 	0.04128 0.14353 0.26310 -0.13600
H 	H 	0.93740 0.50310 0.32430 0.08200
H 	H 	0.06940 0.15440 0.27150 0.08200
C 	C 	0.03099 0.44531 0.18150 0.17600
C 	C 	0.03131 0.21140 0.32040 0.14400
C 	C 	0.05893 0.42260 0.22850 -0.19900
C 	C 	0.03347 0.44956 0.07040 -0.20300
C 	C 	0.03975 0.20152 0.42830 -0.16300
C 	C 	0.05402 0.23826 0.28180 -0.16200
H 	H 	0.05750 0.41910 0.30450 0.10200
C 	C 	0.08922 0.40471 0.16460 0.08200
C 	C 	0.06334 0.43117 0.00690 0.08000
H 	H 	0.01490 0.46500 0.03660 0.10300
H 	H 	0.02470 0.18350 0.45540 0.08600
C 	C 	0.07002 0.21794 0.49550 0.03300
C 	C 	0.08449 0.25455 0.34980 0.03700
H 	H 	0.04870 0.24530 0.20990 0.09400
H 	H 	0.10810 0.38960 0.19890 -0.00400
C 	C 	0.09218 0.40862 0.05330 -0.12400
H 	H 	0.06390 0.43420 0.93060 0.00300
H 	H 	0.07510 0.21090 0.56760 0.00700
C 	C 	0.09320 0.24496 0.45690 -0.07400
H 	H 	0.09960 0.27250 0.32250 0.01200
C 	C 	0.12488 0.38938 0.98570 0.16800
C 	C 	0.12619 0.26307 0.52940 0.08600
C 	C 	0.16115 0.37318 0.03130 -0.22200
C 	C 	0.12163 0.38633 0.87320 -0.22200
C 	C 	0.14430 0.24960 0.62420 -0.23700
C 	C 	0.13380 0.29470 0.51540 0.11900
H 	H 	0.16570 0.37410 0.10750 0.10400
C 	C 	0.19153 0.35534 0.96690 0.12600
C 	C 	0.15386 0.36835 0.81450 0.13100
H 	H 	0.09750 0.39650 0.83550 0.10900
H 	H 	0.13510 0.22920 0.64530 0.10200
C 	C 	0.17600 0.26610 0.68760 0.06100
C 	C 	0.16650 0.30980 0.58240 -0.18300
H 	H 	0.11750 0.30610 0.46190 -0.01500
H 	H 	0.21520 0.34410 0.00260 -0.05300
H 	H 	0.15020 0.36690 0.73800 -0.03000
H 	H 	0.18830 0.25650 0.75060 -0.02600
H 	H 	0.17180 0.33130 0.56950 0.07800
C 	C 	0.12380 0.26460 0.63820 0.07200
H 	H 	0.09960 0.25430 0.67520 0.01000
C 	C 	0.15720 0.28150 0.69860 0.01700
H 	H 	0.15420 0.28120 0.77540 -0.01000
C 	C 	0.19500 0.29570 0.54490 0.23900
H 	H 	0.22030 0.30600 0.51250 -0.07200
C 	C 	0.16400 0.28020 0.47850 -0.29100
H 	H 	0.16720 0.28080 0.40180 0.12100
Cd	Cd	0.25318 0.82404 0.76386 1.18100
N 	N 	0.19192 0.79703 0.67270 -0.26300
N 	N 	0.19700 0.85473 0.85770 -0.25900
O 	O 	0.25363 0.86379 0.62600 -0.40800
N 	N 	0.31102 0.85328 0.85930 -0.27100
N 	N 	0.30996 0.79662 0.66050 -0.23600
C 	C 	0.19272 0.76586 0.66190 0.11000
C 	C 	0.15753 0.81200 0.62200 0.11200
C 	C 	0.19802 0.88644 0.85960 0.10000
C 	C 	0.16274 0.84104 0.91540 0.09900
H 	H 	0.23770 0.88230 0.65320 0.15300
H 	H 	0.21590 0.75460 0.69930 -0.04900
C 	C 	0.16136 0.74877 0.59860 -0.20400
C 	C 	0.12431 0.79686 0.55620 -0.19500
H 	H 	0.15530 0.83400 0.63070 -0.02700
H 	H 	0.22150 0.89680 0.82020 -0.02900
C 	C 	0.16573 0.90508 0.91750 -0.18500
C 	C 	0.13029 0.85737 0.97670 -0.18700
H 	H 	0.16070 0.81890 0.91400 -0.03500
H 	H 	0.16400 0.72670 0.59440 0.08900
C 	C 	0.12614 0.76401 0.54140 0.13800
H 	H 	0.10090 0.80870 0.52220 0.09600
H 	H 	0.16760 0.92720 0.91460 0.09200
C 	C 	0.13100 0.89060 0.97900 0.12600
H 	H 	0.10780 0.84630 0.01680 0.09200
C 	C 	0.09223 0.74704 0.47050 -0.11300
C 	C 	0.09638 0.90866 0.04450 -0.08900
C 	C 	0.10020 0.71652 0.43370 0.07300
C 	C 	0.05169 0.76117 0.43290 0.06700
C 	C 	0.10532 0.93918 0.08320 0.04500
C 	C 	0.05345 0.89584 0.07160 0.04600
H 	H 	0.12690 0.70580 0.45720 -0.01000
C 	C 	0.06979 0.70145 0.36330 -0.19600
C 	C 	0.02088 0.74593 0.36370 -0.18800
H 	H 	0.04500 0.78190 0.45540 0.00300
H 	H 	0.13330 0.94910 0.06440 0.01000
C 	C 	0.07352 0.95513 0.14890 -0.16900
C 	C 	0.02131 0.91136 0.13590 -0.16600
H 	H 	0.04600 0.87570 0.04480 0.01000
H 	H 	0.07640 0.68070 0.34120 0.10200
C 	C 	0.02999 0.71588 0.32420 0.17000
H 	H 	0.99330 0.75610 0.34320 0.09200
H 	H 	0.08040 0.97560 0.17310 0.09200
C 	C 	0.03162 0.94118 0.17930 0.14900
H 	H 	0.99250 0.90190 0.15060 0.08600
C 	C 	0.02086 0.64962 0.16480 -0.12700
C 	C 	0.98092 0.00844 0.16360 -0.13200
H 	H 	0.03500 0.66070 0.10690 0.07600
C 	C 	0.02091 0.61631 0.16440 -0.01900
H 	H 	0.96810 0.99740 0.10410 0.07800
C 	C 	0.98033 0.04127 0.16340 -0.02000
H 	H 	0.03510 0.60540 0.10630 0.03500
H 	H 	0.96660 0.05220 0.10470 0.04100
C 	C 	0.03682 0.54672 0.20560 -0.00500
C 	C 	0.95901 0.11097 0.23620 -0.00700
H 	H 	0.06200 0.55760 0.17490 0.02800
C 	C 	0.03718 0.51386 0.20570 -0.13900
H 	H 	0.93100 0.10010 0.22630 0.03400
C 	C 	0.95872 0.14353 0.23690 -0.13900
H 	H 	0.06260 0.50310 0.17570 0.08100
H 	H 	0.93060 0.15440 0.22850 0.08200
C 	C 	0.96901 0.44531 0.31850 0.17100
C 	C 	0.96869 0.21140 0.17960 0.13900
C 	C 	0.94107 0.42260 0.27150 -0.19700
C 	C 	0.96653 0.44956 0.42960 -0.20000
C 	C 	0.96025 0.20152 0.07170 -0.16100
C 	C 	0.94598 0.23826 0.21820 -0.16000
H 	H 	0.94250 0.41910 0.19550 0.10000
C 	C 	0.91078 0.40471 0.33540 0.07900
C 	C 	0.93666 0.43117 0.49310 0.07600
H 	H 	0.98510 0.46500 0.46340 0.10000
H 	H 	0.97530 0.18350 0.04460 0.08400
C 	C 	0.92998 0.21794 0.00450 0.03100
C 	C 	0.91551 0.25455 0.15020 0.03400
H 	H 	0.95130 0.24530 0.29010 0.09200
H 	H 	0.89190 0.38960 0.30110 -0.00300
C 	C 	0.90782 0.40862 0.44670 -0.12200
H 	H 	0.93610 0.43420 0.56940 0.00300
H 	H 	0.92490 0.21090 0.93240 0.00700
C 	C 	0.90680 0.24496 0.04310 -0.07200
H 	H 	0.90040 0.27250 0.17750 0.01300
C 	C 	0.87512 0.38938 0.51430 0.16700
C 	C 	0.87381 0.26307 0.97060 0.08500
C 	C 	0.83885 0.37318 0.46870 -0.22200
C 	C 	0.87837 0.38633 0.62680 -0.22200
C 	C 	0.85570 0.24960 0.87580 -0.23800
C 	C 	0.86620 0.29470 0.98460 0.12200
H 	H 	0.83430 0.37410 0.39250 0.10400
C 	C 	0.80847 0.35534 0.53310 0.12600
C 	C 	0.84614 0.36835 0.68550 0.13100
H 	H 	0.90250 0.39650 0.66450 0.10800
H 	H 	0.86490 0.22920 0.85470 0.10200
C 	C 	0.82400 0.26610 0.81240 0.06200
C 	C 	0.83350 0.30980 0.91760 -0.18700
H 	H 	0.88250 0.30610 0.03810 -0.01600
H 	H 	0.78480 0.34410 0.49740 -0.05300
H 	H 	0.84980 0.36690 0.76200 -0.03000
H 	H 	0.81170 0.25650 0.74940 -0.02700
H 	H 	0.82820 0.33130 0.93050 0.08000
C 	C 	0.87620 0.26460 0.86180 0.07300
H 	H 	0.90040 0.25430 0.82480 0.00900
C 	C 	0.84280 0.28150 0.80140 0.01600
H 	H 	0.84580 0.28120 0.72460 -0.01000
C 	C 	0.80500 0.29570 0.95510 0.24300
H 	H 	0.77970 0.30600 0.98750 -0.07400
C 	C 	0.83600 0.28020 0.02150 -0.29400
H 	H 	0.83280 0.28080 0.09820 0.12200
N 	N 	0.50000 0.20033 0.25000 -0.18900
C 	C 	0.50000 0.16629 0.25000 0.11800
C 	C 	0.50000 0.09918 0.25000 -0.00900
C 	C 	0.50000 0.06395 0.25000 -0.01900
C 	C 	0.50000 0.99647 0.25000 0.13000
N 	N 	0.50000 0.96325 0.25000 -0.18900
N 	N 	-0.00000 0.70033 0.25000 -0.18700
C 	C 	-0.00000 0.66629 0.25000 0.12200
C 	C 	0.00000 0.59918 0.25000 -0.00700
C 	C 	0.00000 0.56395 0.25000 -0.01700
C 	C 	0.00000 0.49647 0.25000 0.13400
N 	N 	0.00000 0.46325 0.25000 -0.18700
N 	N 	0.50000 0.45746 0.25000 -0.17800
C 	C 	0.50000 0.49185 0.25000 0.11900
C 	C 	0.50000 0.55787 0.25000 -0.00300
C 	C 	0.50000 0.59362 0.25000 -0.01600
C 	C 	0.50000 0.66056 0.25000 0.12600
N 	N 	0.50000 0.69415 0.25000 -0.17600
N 	N 	-0.00000 0.95746 0.25000 -0.17600
C 	C 	-0.00000 0.99185 0.25000 0.12400
C 	C 	-0.00000 0.05787 0.25000 -0.00100
C 	C 	0.00000 0.09362 0.25000 -0.01400
C 	C 	0.00000 0.16056 0.25000 0.13000
N 	N 	0.00000 0.19415 0.25000 -0.17400
