data_crystal

_cell_length_a 13.73550
_cell_length_b 40.62400
_cell_length_c 20.83030
_cell_angle_alpha 90.00000
_cell_angle_beta  90.00000
_cell_angle_gamma 90.00000

_symmetry_space_group_name_	'P 1'
_symmetry_space_group_name_H-M	'P 1'

loop_
_symmetry_equiv_pos_as_xyz
  x,y,z

loop_
_atom_site_label
_atom_site_type_symbol
_atom_site_fract_x
_atom_site_fract_y
_atom_site_fract_z
_atom_site_charge
C 	C 	0.27100 0.68750 0.74400 0.45800
C 	C 	0.35590 0.66270 0.73460 0.45400
C 	C 	0.90350 0.89787 0.35660 0.11500
H 	H 	0.91250 0.89350 0.31320 -0.00900
C 	C 	0.97230 0.91686 0.38790 -0.20500
H 	H 	0.02490 0.92510 0.36480 0.10200
C 	C 	0.96520 0.92382 0.45160 0.16500
C 	C 	0.88360 0.91110 0.47980 -0.21300
H 	H 	0.87290 0.91490 0.52320 0.10700
C 	C 	0.81750 0.89303 0.44590 0.13000
H 	H 	0.76270 0.88540 0.46750 -0.02000
C 	C 	0.03740 0.94372 0.48600 -0.11400
C 	C 	0.12800 0.94791 0.46060 0.07300
H 	H 	0.14320 0.93800 0.42160 0.00100
C 	C 	0.19860 0.96678 0.49170 -0.19500
H 	H 	0.25960 0.96930 0.47310 0.09800
C 	C 	0.17920 0.98161 0.54920 0.17000
C 	C 	0.08570 0.97785 0.57450 -0.19400
H 	H 	0.06940 0.98820 0.61280 0.10100
C 	C 	0.01840 0.95910 0.54350 0.08100
H 	H 	0.95720 0.95660 0.56190 -0.00300
C 	C 	0.25480 0.02873 0.68450 -0.12500
H 	H 	0.25690 0.04870 0.66280 0.07200
C 	C 	0.25660 0.02850 0.75070 -0.01800
H 	H 	0.26250 0.04840 0.77250 0.03900
C 	C 	0.24680 0.02866 0.89250 0.01100
H 	H 	0.24480 0.04870 0.87090 0.02800
C 	C 	0.24640 0.02893 0.95810 -0.15600
H 	H 	0.24380 0.04880 0.98020 0.08900
C 	C 	0.18420 0.02054 0.09430 0.16200
C 	C 	0.21120 0.03479 0.15060 -0.18400
H 	H 	0.27380 0.03130 0.16620 0.09900
C 	C 	0.14800 0.05424 0.18470 0.05800
H 	H 	0.16940 0.06440 0.22210 0.01000
C 	C 	0.05290 0.05900 0.16460 -0.09200
C 	C 	0.02660 0.04461 0.10630 0.05700
H 	H 	0.96400 0.04770 0.09040 0.01200
C 	C 	0.09140 0.02613 0.07230 -0.18000
H 	H 	0.07230 0.01710 0.03330 0.09600
C 	C 	0.98580 0.07831 0.20390 0.12900
C 	C 	0.99090 0.07797 0.27080 -0.17300
H 	H 	0.03770 0.06520 0.29150 0.09100
C 	C 	0.92530 0.09688 0.30650 0.09800
H 	H 	0.93020 0.09660 0.35100 -0.00900
C 	C 	0.84950 0.11446 0.21610 0.11200
H 	H 	0.80030 0.12680 0.19720 -0.01000
C 	C 	0.91020 0.09666 0.17690 -0.18400
H 	H 	0.90090 0.09680 0.13270 0.09700
C 	C 	0.61660 0.83670 0.43240 0.35400
C 	C 	0.57250 0.81209 0.47880 -0.10800
C 	C 	0.50300 0.82131 0.51820 0.04300
H 	H 	0.48260 0.84310 0.51710 0.03300
C 	C 	0.45920 0.80020 0.56090 -0.10500
H 	H 	0.41040 0.80800 0.58790 0.06600
C 	C 	0.48710 0.76780 0.56400 0.04400
C 	C 	0.55980 0.75930 0.52670 -0.10600
H 	H 	0.58290 0.73780 0.52990 0.06800
C 	C 	0.60470 0.78005 0.48280 0.04100
H 	H 	0.65510 0.77250 0.45680 0.03500
C 	C 	0.43662 0.74409 0.60583 0.06900
C 	C 	0.34786 0.75170 0.63425 -0.14100
H 	H 	0.31670 0.77140 0.62430 0.09200
C 	C 	0.30570 0.72992 0.67757 0.09200
H 	H 	0.24640 0.73500 0.69660 0.01400
C 	C 	0.35240 0.70053 0.69248 -0.22200
C 	C 	0.44110 0.69292 0.66407 0.09200
H 	H 	0.47230 0.67330 0.67400 0.00300
C 	C 	0.48320 0.71470 0.62074 -0.14100
H 	H 	0.54260 0.70960 0.60170 0.08100
N 	N 	0.82642 0.88579 0.38479 -0.28400
N 	N 	0.85740 0.11491 0.28002 -0.27100
O 	O 	0.68247 0.82435 0.39717 -0.44900
O 	O 	0.59319 0.86514 0.43381 -0.33200
O 	O 	0.31120 0.66984 0.77706 -0.69800
Zn	Zn	0.73236 0.85604 0.33508 1.22300
O 	O 	0.37580 0.63420 0.72290 -0.33200
O 	O 	0.18530 0.68950 0.75270 -0.35400
C 	C 	0.22900 0.31250 0.74400 0.45900
C 	C 	0.14410 0.33730 0.73460 0.45500
C 	C 	0.59650 0.10213 0.35660 0.11700
H 	H 	0.58750 0.10650 0.31320 -0.00800
C 	C 	0.52770 0.08314 0.38790 -0.20500
H 	H 	0.47510 0.07490 0.36480 0.10400
C 	C 	0.53480 0.07618 0.45160 0.16600
C 	C 	0.61640 0.08890 0.47980 -0.21200
H 	H 	0.62710 0.08510 0.52320 0.10800
C 	C 	0.68250 0.10697 0.44590 0.13100
H 	H 	0.73730 0.11460 0.46750 -0.01900
C 	C 	0.46260 0.05628 0.48600 -0.11400
C 	C 	0.37200 0.05209 0.46060 0.07500
H 	H 	0.35680 0.06200 0.42160 0.00200
C 	C 	0.30140 0.03322 0.49170 -0.19400
H 	H 	0.24040 0.03070 0.47310 0.09900
C 	C 	0.32080 0.01839 0.54920 0.17200
C 	C 	0.41430 0.02215 0.57450 -0.19400
H 	H 	0.43060 0.01180 0.61280 0.10200
C 	C 	0.48160 0.04090 0.54350 0.08300
H 	H 	0.54280 0.04340 0.56190 -0.00200
C 	C 	0.24520 0.97127 0.68450 -0.12400
H 	H 	0.24310 0.95130 0.66280 0.07300
C 	C 	0.24340 0.97150 0.75070 -0.01800
H 	H 	0.23750 0.95160 0.77250 0.04000
C 	C 	0.25320 0.97134 0.89250 0.01100
H 	H 	0.25520 0.95130 0.87090 0.02900
C 	C 	0.25360 0.97107 0.95810 -0.15600
H 	H 	0.25620 0.95120 0.98020 0.08900
C 	C 	0.31580 0.97946 0.09430 0.16100
C 	C 	0.28880 0.96521 0.15060 -0.18400
H 	H 	0.22620 0.96870 0.16620 0.09800
C 	C 	0.35200 0.94576 0.18470 0.05700
H 	H 	0.33060 0.93560 0.22210 0.01000
C 	C 	0.44710 0.94100 0.16460 -0.09200
C 	C 	0.47340 0.95539 0.10630 0.05700
H 	H 	0.53600 0.95230 0.09040 0.01100
C 	C 	0.40860 0.97387 0.07230 -0.17900
H 	H 	0.42770 0.98290 0.03330 0.09600
C 	C 	0.51420 0.92169 0.20390 0.12900
C 	C 	0.50910 0.92203 0.27080 -0.17400
H 	H 	0.46230 0.93480 0.29150 0.09100
C 	C 	0.57470 0.90312 0.30650 0.09800
H 	H 	0.56980 0.90340 0.35100 -0.00900
C 	C 	0.65050 0.88554 0.21610 0.11200
H 	H 	0.69970 0.87320 0.19720 -0.01000
C 	C 	0.58980 0.90334 0.17690 -0.18300
H 	H 	0.59910 0.90320 0.13270 0.09700
C 	C 	0.88340 0.16330 0.43240 0.35300
C 	C 	0.92750 0.18791 0.47880 -0.10700
C 	C 	0.99700 0.17869 0.51820 0.04200
H 	H 	0.01740 0.15690 0.51710 0.03300
C 	C 	0.04080 0.19980 0.56090 -0.10400
H 	H 	0.08960 0.19200 0.58790 0.06600
C 	C 	0.01290 0.23220 0.56400 0.04400
C 	C 	0.94020 0.24070 0.52670 -0.10600
H 	H 	0.91710 0.26220 0.52990 0.06800
C 	C 	0.89530 0.21995 0.48280 0.04100
H 	H 	0.84490 0.22750 0.45680 0.03500
C 	C 	0.06338 0.25591 0.60583 0.06900
C 	C 	0.15214 0.24830 0.63425 -0.14100
H 	H 	0.18330 0.22860 0.62430 0.09100
C 	C 	0.19430 0.27008 0.67757 0.09200
H 	H 	0.25360 0.26500 0.69660 0.01400
C 	C 	0.14760 0.29947 0.69248 -0.22200
C 	C 	0.05890 0.30708 0.66407 0.09100
H 	H 	0.02770 0.32670 0.67400 0.00400
C 	C 	0.01680 0.28530 0.62074 -0.13900
H 	H 	0.95740 0.29040 0.60170 0.08000
N 	N 	0.67358 0.11421 0.38479 -0.28400
N 	N 	0.64260 0.88509 0.28002 -0.27100
O 	O 	0.81753 0.17565 0.39717 -0.44900
O 	O 	0.90681 0.13486 0.43381 -0.33200
O 	O 	0.18880 0.33016 0.77706 -0.69800
Zn	Zn	0.76764 0.14396 0.33508 1.22300
O 	O 	0.12420 0.36580 0.72290 -0.33200
O 	O 	0.31470 0.31050 0.75270 -0.35400
C 	C 	0.77100 0.81250 0.24400 0.45900
C 	C 	0.85590 0.83730 0.23460 0.45500
C 	C 	0.40350 0.60213 0.85660 0.11700
H 	H 	0.41250 0.60650 0.81320 -0.00800
C 	C 	0.47230 0.58314 0.88790 -0.20500
H 	H 	0.52490 0.57490 0.86480 0.10400
C 	C 	0.46520 0.57618 0.95160 0.16600
C 	C 	0.38360 0.58890 0.97980 -0.21200
H 	H 	0.37290 0.58510 0.02320 0.10800
C 	C 	0.31750 0.60697 0.94590 0.13100
H 	H 	0.26270 0.61460 0.96750 -0.01900
C 	C 	0.53740 0.55628 0.98600 -0.11400
C 	C 	0.62800 0.55209 0.96060 0.07500
H 	H 	0.64320 0.56200 0.92160 0.00200
C 	C 	0.69860 0.53322 0.99170 -0.19500
H 	H 	0.75960 0.53070 0.97310 0.09900
C 	C 	0.67920 0.51839 0.04920 0.17200
C 	C 	0.58570 0.52215 0.07450 -0.19400
H 	H 	0.56940 0.51180 0.11280 0.10200
C 	C 	0.51840 0.54090 0.04350 0.08300
H 	H 	0.45720 0.54340 0.06190 -0.00200
C 	C 	0.75480 0.47127 0.18450 -0.12400
H 	H 	0.75690 0.45130 0.16280 0.07300
C 	C 	0.75660 0.47150 0.25070 -0.01700
H 	H 	0.76250 0.45160 0.27250 0.04000
C 	C 	0.74680 0.47134 0.39250 0.01100
H 	H 	0.74480 0.45130 0.37090 0.02900
C 	C 	0.74640 0.47107 0.45810 -0.15500
H 	H 	0.74380 0.45120 0.48020 0.08900
C 	C 	0.68420 0.47946 0.59430 0.16200
C 	C 	0.71120 0.46521 0.65060 -0.18400
H 	H 	0.77380 0.46870 0.66620 0.09900
C 	C 	0.64800 0.44576 0.68470 0.05800
H 	H 	0.66940 0.43560 0.72210 0.01000
C 	C 	0.55290 0.44100 0.66460 -0.09200
C 	C 	0.52660 0.45539 0.60630 0.05800
H 	H 	0.46400 0.45230 0.59040 0.01100
C 	C 	0.59140 0.47387 0.57230 -0.18000
H 	H 	0.57230 0.48290 0.53330 0.09600
C 	C 	0.48580 0.42169 0.70390 0.12900
C 	C 	0.49090 0.42203 0.77080 -0.17400
H 	H 	0.53770 0.43480 0.79150 0.09100
C 	C 	0.42530 0.40312 0.80650 0.09800
H 	H 	0.43020 0.40340 0.85100 -0.00900
C 	C 	0.34950 0.38554 0.71610 0.11200
H 	H 	0.30030 0.37320 0.69720 -0.01000
C 	C 	0.41020 0.40334 0.67690 -0.18400
H 	H 	0.40090 0.40320 0.63270 0.09700
C 	C 	0.11660 0.66330 0.93240 0.35300
C 	C 	0.07250 0.68791 0.97880 -0.10500
C 	C 	0.00300 0.67869 0.01820 0.03800
H 	H 	0.98260 0.65690 0.01710 0.03500
C 	C 	0.95920 0.69980 0.06090 -0.10200
H 	H 	0.91040 0.69200 0.08790 0.06500
C 	C 	0.98710 0.73220 0.06400 0.04400
C 	C 	0.05980 0.74070 0.02670 -0.10700
H 	H 	0.08290 0.76220 0.02990 0.06800
C 	C 	0.10470 0.71995 0.98280 0.04100
H 	H 	0.15510 0.72750 0.95680 0.03500
C 	C 	0.93662 0.75591 0.10583 0.06800
C 	C 	0.84786 0.74830 0.13425 -0.14100
H 	H 	0.81670 0.72860 0.12430 0.09100
C 	C 	0.80570 0.77008 0.17757 0.09200
H 	H 	0.74640 0.76500 0.19660 0.01400
C 	C 	0.85240 0.79947 0.19248 -0.22200
C 	C 	0.94110 0.80708 0.16407 0.09100
H 	H 	0.97230 0.82670 0.17400 0.00400
C 	C 	0.98320 0.78530 0.12074 -0.13900
H 	H 	0.04260 0.79040 0.10170 0.07900
N 	N 	0.32642 0.61421 0.88479 -0.28400
N 	N 	0.35740 0.38509 0.78002 -0.27100
O 	O 	0.18247 0.67565 0.89717 -0.44800
O 	O 	0.09319 0.63486 0.93381 -0.33200
O 	O 	0.81120 0.83016 0.27706 -0.69800
Zn	Zn	0.23236 0.64396 0.83508 1.22300
O 	O 	0.87580 0.86580 0.22290 -0.33200
O 	O 	0.68530 0.81050 0.25270 -0.35400
C 	C 	0.72900 0.18750 0.24400 0.45900
C 	C 	0.64410 0.16270 0.23460 0.45500
C 	C 	0.09650 0.39787 0.85660 0.11700
H 	H 	0.08750 0.39350 0.81320 -0.00800
C 	C 	0.02770 0.41686 0.88790 -0.20500
H 	H 	0.97510 0.42510 0.86480 0.10300
C 	C 	0.03480 0.42382 0.95160 0.16700
C 	C 	0.11640 0.41110 0.97980 -0.21200
H 	H 	0.12710 0.41490 0.02320 0.10800
C 	C 	0.18250 0.39303 0.94590 0.13100
H 	H 	0.23730 0.38540 0.96750 -0.01900
C 	C 	0.96260 0.44372 0.98600 -0.11700
C 	C 	0.87200 0.44791 0.96060 0.07700
H 	H 	0.85680 0.43800 0.92160 0.00100
C 	C 	0.80140 0.46678 0.99170 -0.19700
H 	H 	0.74040 0.46930 0.97310 0.10000
C 	C 	0.82080 0.48161 0.04920 0.17400
C 	C 	0.91430 0.47785 0.07450 -0.19600
H 	H 	0.93060 0.48820 0.11280 0.10300
C 	C 	0.98160 0.45910 0.04350 0.08700
H 	H 	0.04280 0.45660 0.06190 -0.00400
C 	C 	0.74520 0.52873 0.18450 -0.12400
H 	H 	0.74310 0.54870 0.16280 0.07300
C 	C 	0.74340 0.52850 0.25070 -0.01700
H 	H 	0.73750 0.54840 0.27250 0.04000
C 	C 	0.75320 0.52866 0.39250 0.01100
H 	H 	0.75520 0.54870 0.37090 0.02900
C 	C 	0.75360 0.52893 0.45810 -0.15500
H 	H 	0.75620 0.54880 0.48020 0.08900
C 	C 	0.81580 0.52054 0.59430 0.16200
C 	C 	0.78880 0.53479 0.65060 -0.18400
H 	H 	0.72620 0.53130 0.66620 0.09900
C 	C 	0.85200 0.55424 0.68470 0.05800
H 	H 	0.83060 0.56440 0.72210 0.01000
C 	C 	0.94710 0.55900 0.66460 -0.09200
C 	C 	0.97340 0.54461 0.60630 0.05800
H 	H 	0.03600 0.54770 0.59040 0.01100
C 	C 	0.90860 0.52613 0.57230 -0.18000
H 	H 	0.92770 0.51710 0.53330 0.09600
C 	C 	0.01420 0.57831 0.70390 0.12900
C 	C 	0.00910 0.57797 0.77080 -0.17300
H 	H 	0.96230 0.56520 0.79150 0.09100
C 	C 	0.07470 0.59688 0.80650 0.09800
H 	H 	0.06980 0.59660 0.85100 -0.00900
C 	C 	0.15050 0.61446 0.71610 0.11200
H 	H 	0.19970 0.62680 0.69720 -0.01000
C 	C 	0.08980 0.59666 0.67690 -0.18300
H 	H 	0.09910 0.59680 0.63270 0.09700
C 	C 	0.38340 0.33670 0.93240 0.35400
C 	C 	0.42750 0.31209 0.97880 -0.10800
C 	C 	0.49700 0.32131 0.01820 0.04300
H 	H 	0.51740 0.34310 0.01710 0.03300
C 	C 	0.54080 0.30020 0.06090 -0.10500
H 	H 	0.58960 0.30800 0.08790 0.06600
C 	C 	0.51290 0.26780 0.06400 0.04400
C 	C 	0.44020 0.25930 0.02670 -0.10600
H 	H 	0.41710 0.23780 0.02990 0.06800
C 	C 	0.39530 0.28005 0.98280 0.04200
H 	H 	0.34490 0.27250 0.95680 0.03500
C 	C 	0.56338 0.24409 0.10583 0.06900
C 	C 	0.65214 0.25170 0.13425 -0.14100
H 	H 	0.68330 0.27140 0.12430 0.09100
C 	C 	0.69430 0.22992 0.17757 0.09200
H 	H 	0.75360 0.23500 0.19660 0.01400
C 	C 	0.64760 0.20053 0.19248 -0.22200
C 	C 	0.55890 0.19292 0.16407 0.09200
H 	H 	0.52770 0.17330 0.17400 0.00300
C 	C 	0.51680 0.21470 0.12074 -0.14000
H 	H 	0.45740 0.20960 0.10170 0.08000
N 	N 	0.17358 0.38579 0.88479 -0.28400
N 	N 	0.14260 0.61491 0.78002 -0.27100
O 	O 	0.31753 0.32435 0.89717 -0.44900
O 	O 	0.40681 0.36514 0.93381 -0.33200
O 	O 	0.68880 0.16984 0.27706 -0.69800
Zn	Zn	0.26764 0.35604 0.83508 1.22300
O 	O 	0.62420 0.13420 0.22290 -0.33200
O 	O 	0.81470 0.18950 0.25270 -0.35400
C 	C 	0.25000 0.00000 0.65040 0.12400
C 	C 	0.25000 0.00000 0.78560 0.00400
C 	C 	0.25000 -0.00000 0.85660 -0.02500
C 	C 	0.25000 0.00000 0.99100 0.14600
N 	N 	0.25000 0.00000 0.58192 -0.18500
N 	N 	0.25000 0.00000 0.05929 -0.18400
C 	C 	0.75000 0.50000 0.15040 0.12300
C 	C 	0.75000 0.50000 0.28560 0.00300
C 	C 	0.75000 0.50000 0.35660 -0.02500
C 	C 	0.75000 0.50000 0.49100 0.14400
N 	N 	0.75000 0.50000 0.08192 -0.18600
N 	N 	0.75000 0.50000 0.55929 -0.18400
C 	C 	0.22900 0.18750 0.75600 0.45900
C 	C 	0.14410 0.16270 0.76540 0.45500
C 	C 	0.59650 0.39787 0.14340 0.11700
H 	H 	0.58750 0.39350 0.18680 -0.00800
C 	C 	0.52770 0.41686 0.11210 -0.20500
H 	H 	0.47510 0.42510 0.13520 0.10400
C 	C 	0.53480 0.42382 0.04840 0.16600
C 	C 	0.61640 0.41110 0.02020 -0.21200
H 	H 	0.62710 0.41490 0.97680 0.10800
C 	C 	0.68250 0.39303 0.05410 0.13100
H 	H 	0.73730 0.38540 0.03250 -0.01900
C 	C 	0.46260 0.44372 0.01400 -0.11400
C 	C 	0.37200 0.44791 0.03940 0.07500
H 	H 	0.35680 0.43800 0.07840 0.00200
C 	C 	0.30140 0.46678 0.00830 -0.19500
H 	H 	0.24040 0.46930 0.02690 0.09900
C 	C 	0.32080 0.48161 0.95080 0.17200
C 	C 	0.41430 0.47785 0.92550 -0.19400
H 	H 	0.43060 0.48820 0.88720 0.10200
C 	C 	0.48160 0.45910 0.95650 0.08300
H 	H 	0.54280 0.45660 0.93810 -0.00200
C 	C 	0.24520 0.52873 0.81550 -0.12400
H 	H 	0.24310 0.54870 0.83720 0.07300
C 	C 	0.24340 0.52850 0.74930 -0.01700
H 	H 	0.23750 0.54840 0.72750 0.04000
C 	C 	0.25320 0.52866 0.60750 0.01100
H 	H 	0.25520 0.54870 0.62910 0.02900
C 	C 	0.25360 0.52893 0.54190 -0.15500
H 	H 	0.25620 0.54880 0.51980 0.08900
C 	C 	0.31580 0.52054 0.40570 0.16200
C 	C 	0.28880 0.53479 0.34940 -0.18400
H 	H 	0.22620 0.53130 0.33380 0.09900
C 	C 	0.35200 0.55424 0.31530 0.05800
H 	H 	0.33060 0.56440 0.27790 0.01000
C 	C 	0.44710 0.55900 0.33540 -0.09200
C 	C 	0.47340 0.54461 0.39370 0.05800
H 	H 	0.53600 0.54770 0.40960 0.01100
C 	C 	0.40860 0.52613 0.42770 -0.18000
H 	H 	0.42770 0.51710 0.46670 0.09600
C 	C 	0.51420 0.57831 0.29610 0.12900
C 	C 	0.50910 0.57797 0.22920 -0.17400
H 	H 	0.46230 0.56520 0.20850 0.09100
C 	C 	0.57470 0.59688 0.19350 0.09800
H 	H 	0.56980 0.59660 0.14900 -0.00900
C 	C 	0.65050 0.61446 0.28390 0.11200
H 	H 	0.69970 0.62680 0.30280 -0.01000
C 	C 	0.58980 0.59666 0.32310 -0.18400
H 	H 	0.59910 0.59680 0.36730 0.09700
C 	C 	0.88340 0.33670 0.06760 0.35300
C 	C 	0.92750 0.31209 0.02120 -0.10500
C 	C 	0.99700 0.32131 0.98180 0.03800
H 	H 	0.01740 0.34310 0.98290 0.03500
C 	C 	0.04080 0.30020 0.93910 -0.10200
H 	H 	0.08960 0.30800 0.91210 0.06500
C 	C 	0.01290 0.26780 0.93600 0.04400
C 	C 	0.94020 0.25930 0.97330 -0.10700
H 	H 	0.91710 0.23780 0.97010 0.06800
C 	C 	0.89530 0.28005 0.01720 0.04100
H 	H 	0.84490 0.27250 0.04320 0.03500
C 	C 	0.06338 0.24409 0.89417 0.06800
C 	C 	0.15214 0.25170 0.86575 -0.14100
H 	H 	0.18330 0.27140 0.87570 0.09100
C 	C 	0.19430 0.22992 0.82243 0.09200
H 	H 	0.25360 0.23500 0.80340 0.01400
C 	C 	0.14760 0.20053 0.80752 -0.22200
C 	C 	0.05890 0.19292 0.83593 0.09100
H 	H 	0.02770 0.17330 0.82600 0.00400
C 	C 	0.01680 0.21470 0.87926 -0.13900
H 	H 	0.95740 0.20960 0.89830 0.07900
N 	N 	0.67358 0.38579 0.11521 -0.28400
N 	N 	0.64260 0.61491 0.21998 -0.27100
O 	O 	0.81753 0.32435 0.10283 -0.44800
O 	O 	0.90681 0.36514 0.06619 -0.33200
O 	O 	0.18880 0.16984 0.72294 -0.69800
Zn	Zn	0.76764 0.35604 0.16492 1.22300
O 	O 	0.12420 0.13420 0.77710 -0.33200
O 	O 	0.31470 0.18950 0.74730 -0.35400
C 	C 	0.27100 0.81250 0.75600 0.45900
C 	C 	0.35590 0.83730 0.76540 0.45500
C 	C 	0.90350 0.60213 0.14340 0.11700
H 	H 	0.91250 0.60650 0.18680 -0.00800
C 	C 	0.97230 0.58314 0.11210 -0.20500
H 	H 	0.02490 0.57490 0.13520 0.10300
C 	C 	0.96520 0.57618 0.04840 0.16700
C 	C 	0.88360 0.58890 0.02020 -0.21200
H 	H 	0.87290 0.58510 0.97680 0.10800
C 	C 	0.81750 0.60697 0.05410 0.13100
H 	H 	0.76270 0.61460 0.03250 -0.01900
C 	C 	0.03740 0.55628 0.01400 -0.11700
C 	C 	0.12800 0.55209 0.03940 0.07700
H 	H 	0.14320 0.56200 0.07840 0.00100
C 	C 	0.19860 0.53322 0.00830 -0.19700
H 	H 	0.25960 0.53070 0.02690 0.10000
C 	C 	0.17920 0.51839 0.95080 0.17400
C 	C 	0.08570 0.52215 0.92550 -0.19600
H 	H 	0.06940 0.51180 0.88720 0.10300
C 	C 	0.01840 0.54090 0.95650 0.08700
H 	H 	0.95720 0.54340 0.93810 -0.00400
C 	C 	0.25480 0.47127 0.81550 -0.12400
H 	H 	0.25690 0.45130 0.83720 0.07300
C 	C 	0.25660 0.47150 0.74930 -0.01700
H 	H 	0.26250 0.45160 0.72750 0.04000
C 	C 	0.24680 0.47134 0.60750 0.01100
H 	H 	0.24480 0.45130 0.62910 0.02900
C 	C 	0.24640 0.47107 0.54190 -0.15500
H 	H 	0.24380 0.45120 0.51980 0.08900
C 	C 	0.18420 0.47946 0.40570 0.16200
C 	C 	0.21120 0.46521 0.34940 -0.18400
H 	H 	0.27380 0.46870 0.33380 0.09900
C 	C 	0.14800 0.44576 0.31530 0.05800
H 	H 	0.16940 0.43560 0.27790 0.01000
C 	C 	0.05290 0.44100 0.33540 -0.09200
C 	C 	0.02660 0.45539 0.39370 0.05800
H 	H 	0.96400 0.45230 0.40960 0.01100
C 	C 	0.09140 0.47387 0.42770 -0.18000
H 	H 	0.07230 0.48290 0.46670 0.09600
C 	C 	0.98580 0.42169 0.29610 0.12900
C 	C 	0.99090 0.42203 0.22920 -0.17300
H 	H 	0.03770 0.43480 0.20850 0.09100
C 	C 	0.92530 0.40312 0.19350 0.09800
H 	H 	0.93020 0.40340 0.14900 -0.00900
C 	C 	0.84950 0.38554 0.28390 0.11200
H 	H 	0.80030 0.37320 0.30280 -0.01000
C 	C 	0.91020 0.40334 0.32310 -0.18300
H 	H 	0.90090 0.40320 0.36730 0.09700
C 	C 	0.61660 0.66330 0.06760 0.35400
C 	C 	0.57250 0.68791 0.02120 -0.10800
C 	C 	0.50300 0.67869 0.98180 0.04300
H 	H 	0.48260 0.65690 0.98290 0.03300
C 	C 	0.45920 0.69980 0.93910 -0.10500
H 	H 	0.41040 0.69200 0.91210 0.06600
C 	C 	0.48710 0.73220 0.93600 0.04400
C 	C 	0.55980 0.74070 0.97330 -0.10600
H 	H 	0.58290 0.76220 0.97010 0.06800
C 	C 	0.60470 0.71995 0.01720 0.04200
H 	H 	0.65510 0.72750 0.04320 0.03500
C 	C 	0.43662 0.75591 0.89417 0.06900
C 	C 	0.34786 0.74830 0.86575 -0.14100
H 	H 	0.31670 0.72860 0.87570 0.09100
C 	C 	0.30570 0.77008 0.82243 0.09200
H 	H 	0.24640 0.76500 0.80340 0.01400
C 	C 	0.35240 0.79947 0.80752 -0.22200
C 	C 	0.44110 0.80708 0.83593 0.09200
H 	H 	0.47230 0.82670 0.82600 0.00300
C 	C 	0.48320 0.78530 0.87926 -0.14000
H 	H 	0.54260 0.79040 0.89830 0.08000
N 	N 	0.82642 0.61421 0.11521 -0.28400
N 	N 	0.85740 0.38509 0.21998 -0.27100
O 	O 	0.68247 0.67565 0.10283 -0.44900
O 	O 	0.59319 0.63486 0.06619 -0.33200
O 	O 	0.31120 0.83016 0.72294 -0.69800
Zn	Zn	0.73236 0.64396 0.16492 1.22300
O 	O 	0.37580 0.86580 0.77710 -0.33200
O 	O 	0.18530 0.81050 0.74730 -0.35400
C 	C 	0.72900 0.31250 0.25600 0.45900
C 	C 	0.64410 0.33730 0.26540 0.45500
C 	C 	0.09650 0.10213 0.64340 0.11600
H 	H 	0.08750 0.10650 0.68680 -0.00800
C 	C 	0.02770 0.08314 0.61210 -0.20500
H 	H 	0.97510 0.07490 0.63520 0.10300
C 	C 	0.03480 0.07618 0.54840 0.16600
C 	C 	0.11640 0.08890 0.52020 -0.21200
H 	H 	0.12710 0.08510 0.47680 0.10800
C 	C 	0.18250 0.10697 0.55410 0.13100
H 	H 	0.23730 0.11460 0.53250 -0.01900
C 	C 	0.96260 0.05628 0.51400 -0.11400
C 	C 	0.87200 0.05209 0.53940 0.07500
H 	H 	0.85680 0.06200 0.57840 0.00200
C 	C 	0.80140 0.03322 0.50830 -0.19400
H 	H 	0.74040 0.03070 0.52690 0.09900
C 	C 	0.82080 0.01839 0.45080 0.17200
C 	C 	0.91430 0.02215 0.42550 -0.19400
H 	H 	0.93060 0.01180 0.38720 0.10200
C 	C 	0.98160 0.04090 0.45650 0.08300
H 	H 	0.04280 0.04340 0.43810 -0.00200
C 	C 	0.74520 0.97127 0.31550 -0.12400
H 	H 	0.74310 0.95130 0.33720 0.07300
C 	C 	0.74340 0.97150 0.24930 -0.01800
H 	H 	0.73750 0.95160 0.22750 0.04000
C 	C 	0.75320 0.97134 0.10750 0.01100
H 	H 	0.75520 0.95130 0.12910 0.02900
C 	C 	0.75360 0.97107 0.04190 -0.15600
H 	H 	0.75620 0.95120 0.01980 0.08900
C 	C 	0.81580 0.97946 0.90570 0.16100
C 	C 	0.78880 0.96521 0.84940 -0.18400
H 	H 	0.72620 0.96870 0.83380 0.09800
C 	C 	0.85200 0.94576 0.81530 0.05700
H 	H 	0.83060 0.93560 0.77790 0.01000
C 	C 	0.94710 0.94100 0.83540 -0.09200
C 	C 	0.97340 0.95539 0.89370 0.05600
H 	H 	0.03600 0.95230 0.90960 0.01200
C 	C 	0.90860 0.97387 0.92770 -0.17900
H 	H 	0.92770 0.98290 0.96670 0.09600
C 	C 	0.01420 0.92169 0.79610 0.12800
C 	C 	0.00910 0.92203 0.72920 -0.17300
H 	H 	0.96230 0.93480 0.70850 0.09100
C 	C 	0.07470 0.90312 0.69350 0.09800
H 	H 	0.06980 0.90340 0.64900 -0.00900
C 	C 	0.15050 0.88554 0.78390 0.11200
H 	H 	0.19970 0.87320 0.80280 -0.01000
C 	C 	0.08980 0.90334 0.82310 -0.18300
H 	H 	0.09910 0.90320 0.86730 0.09700
C 	C 	0.38340 0.16330 0.56760 0.35400
C 	C 	0.42750 0.18791 0.52120 -0.10800
C 	C 	0.49700 0.17869 0.48180 0.04300
H 	H 	0.51740 0.15690 0.48290 0.03300
C 	C 	0.54080 0.19980 0.43910 -0.10500
H 	H 	0.58960 0.19200 0.41210 0.06600
C 	C 	0.51290 0.23220 0.43600 0.04400
C 	C 	0.44020 0.24070 0.47330 -0.10600
H 	H 	0.41710 0.26220 0.47010 0.06800
C 	C 	0.39530 0.21995 0.51720 0.04100
H 	H 	0.34490 0.22750 0.54320 0.03500
C 	C 	0.56338 0.25591 0.39417 0.06900
C 	C 	0.65214 0.24830 0.36575 -0.14100
H 	H 	0.68330 0.22860 0.37570 0.09200
C 	C 	0.69430 0.27008 0.32243 0.09200
H 	H 	0.75360 0.26500 0.30340 0.01400
C 	C 	0.64760 0.29947 0.30752 -0.22200
C 	C 	0.55890 0.30708 0.33593 0.09200
H 	H 	0.52770 0.32670 0.32600 0.00300
C 	C 	0.51680 0.28530 0.37926 -0.14100
H 	H 	0.45740 0.29040 0.39830 0.08100
N 	N 	0.17358 0.11421 0.61521 -0.28400
N 	N 	0.14260 0.88509 0.71998 -0.27100
O 	O 	0.31753 0.17565 0.60283 -0.44900
O 	O 	0.40681 0.13486 0.56619 -0.33200
O 	O 	0.68880 0.33016 0.22294 -0.69800
Zn	Zn	0.26764 0.14396 0.66492 1.22300
O 	O 	0.62420 0.36580 0.27710 -0.33200
O 	O 	0.81470 0.31050 0.24730 -0.35400
C 	C 	0.77100 0.68750 0.25600 0.45900
C 	C 	0.85590 0.66270 0.26540 0.45500
C 	C 	0.40350 0.89787 0.64340 0.11700
H 	H 	0.41250 0.89350 0.68680 -0.00800
C 	C 	0.47230 0.91686 0.61210 -0.20500
H 	H 	0.52490 0.92510 0.63520 0.10400
C 	C 	0.46520 0.92382 0.54840 0.16600
C 	C 	0.38360 0.91110 0.52020 -0.21200
H 	H 	0.37290 0.91490 0.47680 0.10800
C 	C 	0.31750 0.89303 0.55410 0.13100
H 	H 	0.26270 0.88540 0.53250 -0.01900
C 	C 	0.53740 0.94372 0.51400 -0.11300
C 	C 	0.62800 0.94791 0.53940 0.07400
H 	H 	0.64320 0.93800 0.57840 0.00200
C 	C 	0.69860 0.96678 0.50830 -0.19400
H 	H 	0.75960 0.96930 0.52690 0.09900
C 	C 	0.67920 0.98161 0.45080 0.17100
C 	C 	0.58570 0.97785 0.42550 -0.19300
H 	H 	0.56940 0.98820 0.38720 0.10200
C 	C 	0.51840 0.95910 0.45650 0.08300
H 	H 	0.45720 0.95660 0.43810 -0.00200
C 	C 	0.75480 0.02873 0.31550 -0.12400
H 	H 	0.75690 0.04870 0.33720 0.07300
C 	C 	0.75660 0.02850 0.24930 -0.01700
H 	H 	0.76250 0.04840 0.22750 0.04000
C 	C 	0.74680 0.02866 0.10750 0.01200
H 	H 	0.74480 0.04870 0.12910 0.02900
C 	C 	0.74640 0.02893 0.04190 -0.15500
H 	H 	0.74380 0.04880 0.01980 0.08900
C 	C 	0.68420 0.02054 0.90570 0.16200
C 	C 	0.71120 0.03479 0.84940 -0.18400
H 	H 	0.77380 0.03130 0.83380 0.09900
C 	C 	0.64800 0.05424 0.81530 0.05800
H 	H 	0.66940 0.06440 0.77790 0.01000
C 	C 	0.55290 0.05900 0.83540 -0.09200
C 	C 	0.52660 0.04461 0.89370 0.05800
H 	H 	0.46400 0.04770 0.90960 0.01100
C 	C 	0.59140 0.02613 0.92770 -0.18000
H 	H 	0.57230 0.01710 0.96670 0.09700
C 	C 	0.48580 0.07831 0.79610 0.12900
C 	C 	0.49090 0.07797 0.72920 -0.17400
H 	H 	0.53770 0.06520 0.70850 0.09100
C 	C 	0.42530 0.09688 0.69350 0.09800
H 	H 	0.43020 0.09660 0.64900 -0.00900
C 	C 	0.34950 0.11446 0.78390 0.11200
H 	H 	0.30030 0.12680 0.80280 -0.01000
C 	C 	0.41020 0.09666 0.82310 -0.18400
H 	H 	0.40090 0.09680 0.86730 0.09700
C 	C 	0.11660 0.83670 0.56760 0.35300
C 	C 	0.07250 0.81209 0.52120 -0.10700
C 	C 	0.00300 0.82131 0.48180 0.04200
H 	H 	0.98260 0.84310 0.48290 0.03300
C 	C 	0.95920 0.80020 0.43910 -0.10400
H 	H 	0.91040 0.80800 0.41210 0.06600
C 	C 	0.98710 0.76780 0.43600 0.04400
C 	C 	0.05980 0.75930 0.47330 -0.10600
H 	H 	0.08290 0.73780 0.47010 0.06800
C 	C 	0.10470 0.78005 0.51720 0.04100
H 	H 	0.15510 0.77250 0.54320 0.03500
C 	C 	0.93662 0.74409 0.39417 0.06900
C 	C 	0.84786 0.75170 0.36575 -0.14100
H 	H 	0.81670 0.77140 0.37570 0.09100
C 	C 	0.80570 0.72992 0.32243 0.09200
H 	H 	0.74640 0.73500 0.30340 0.01400
C 	C 	0.85240 0.70053 0.30752 -0.22200
C 	C 	0.94110 0.69292 0.33593 0.09100
H 	H 	0.97230 0.67330 0.32600 0.00400
C 	C 	0.98320 0.71470 0.37926 -0.13900
H 	H 	0.04260 0.70960 0.39830 0.08000
N 	N 	0.32642 0.88579 0.61521 -0.28400
N 	N 	0.35740 0.11491 0.71998 -0.27100
O 	O 	0.18247 0.82435 0.60283 -0.44900
O 	O 	0.09319 0.86514 0.56619 -0.33200
O 	O 	0.81120 0.66984 0.22294 -0.69800
Zn	Zn	0.23236 0.85604 0.66492 1.22300
O 	O 	0.87580 0.63420 0.27710 -0.33200
O 	O 	0.68530 0.68950 0.24730 -0.35400
C 	C 	0.25000 0.50000 0.84960 0.12300
C 	C 	0.25000 0.50000 0.71440 0.00300
C 	C 	0.25000 0.50000 0.64340 -0.02500
C 	C 	0.25000 0.50000 0.50900 0.14400
N 	N 	0.25000 0.50000 0.91808 -0.18600
N 	N 	0.25000 0.50000 0.44071 -0.18400
C 	C 	0.75000 0.00000 0.34960 0.12400
C 	C 	0.75000 -0.00000 0.21440 0.00400
C 	C 	0.75000 0.00000 0.14340 -0.02500
C 	C 	0.75000 0.00000 0.00900 0.14600
N 	N 	0.75000 0.00000 0.41808 -0.18500
N 	N 	0.75000 -0.00000 0.94071 -0.18400
