data_crystal

_cell_length_a 17.76400
_cell_length_b 17.76400
_cell_length_c 15.35500
_cell_angle_alpha 90.00000
_cell_angle_beta  90.00000
_cell_angle_gamma 90.00000

_symmetry_space_group_name_	'P 1'
_symmetry_space_group_name_H-M	'P 1'

loop_
_symmetry_equiv_pos_as_xyz
  x,y,z

loop_
_atom_site_label
_atom_site_type_symbol
_atom_site_fract_x
_atom_site_fract_y
_atom_site_fract_z
_atom_site_charge
C 	C 	0.32770 0.50020 0.11250 0.48400
C 	C 	0.78310 0.91680 0.43600 -0.42900
H 	H 	0.74480 0.89990 0.39610 0.14800
H 	H 	0.76650 0.90890 0.49450 0.15300
H 	H 	0.82850 0.88890 0.42570 0.14800
O 	O 	0.63440 0.03750 0.40710 -0.49200
O 	O 	0.99080 0.91000 0.13450 -0.57500
Ho	Ho	0.97160 0.48908 0.13841 1.94000
O 	O 	0.07000 0.48760 0.02170 -0.63400
O 	O 	0.93090 0.00870 0.38340 -0.57500
O 	O 	0.36400 0.49340 0.04370 -0.52300
C 	C 	0.99500 0.64120 0.19910 0.39600
C 	C 	0.12170 0.49680 0.07830 0.45600
O 	O 	0.98510 0.62400 0.12120 -0.44700
O 	O 	0.64000 0.00830 0.54910 -0.53400
C 	C 	0.98960 0.85930 0.19070 0.39800
O 	O 	0.99770 0.58870 0.25650 -0.57400
C 	C 	0.99760 0.72170 0.22990 -0.07800
C 	C 	0.99400 0.77720 0.16200 -0.09100
O 	O 	0.35750 0.51680 0.18520 -0.54600
O 	O 	0.90170 0.02520 0.51930 -0.44500
C 	C 	0.79830 0.00200 0.42080 -0.03500
H 	H 	0.78820 0.01590 0.36010 0.04500
C 	C 	0.88120 0.01020 0.44130 0.38000
C 	C 	0.67100 0.02620 0.47910 0.43900
C 	C 	0.19990 0.48390 0.05230 -0.25500
H 	H 	0.21230 0.50130 0.99350 0.15300
C 	C 	0.75260 0.04910 0.48160 -0.10400
H 	H 	0.77100 0.03910 0.54060 0.08800
C 	C 	0.76740 0.13250 0.46200 -0.35400
H 	H 	0.76220 0.14150 0.40090 0.13100
H 	H 	0.81740 0.14550 0.48050 0.13700
H 	H 	0.73160 0.16290 0.49340 0.13100
O 	O 	0.99500 0.87630 0.26970 -0.43100
O 	O 	0.10030 0.49010 0.15660 -0.47700
C 	C 	0.24640 0.51400 0.11950 -0.16500
H 	H 	0.22620 0.50740 0.17830 0.11000
C 	C 	0.67230 0.49980 0.61250 0.50500
C 	C 	0.21690 0.08320 0.93600 -0.38900
H 	H 	0.25520 0.10010 0.89610 0.14000
H 	H 	0.23350 0.09110 0.99450 0.16200
H 	H 	0.17150 0.11110 0.92570 0.14500
O 	O 	0.36560 0.96250 0.90710 -0.49400
O 	O 	0.00920 0.09000 0.63450 -0.58400
Ho	Ho	0.02840 0.51092 0.63841 1.94900
O 	O 	0.93000 0.51240 0.52170 -0.59000
O 	O 	0.06910 0.99130 0.88340 -0.58300
O 	O 	0.63600 0.50660 0.54370 -0.51800
C 	C 	0.00500 0.35880 0.69910 0.39900
C 	C 	0.87830 0.50320 0.57830 0.42200
O 	O 	0.01490 0.37600 0.62120 -0.43100
O 	O 	0.36000 0.99170 0.04910 -0.57500
C 	C 	0.01040 0.14070 0.69070 0.40400
O 	O 	0.00230 0.41130 0.75650 -0.57900
C 	C 	0.00240 0.27830 0.72990 -0.07600
C 	C 	0.00600 0.22280 0.66200 -0.07400
O 	O 	0.64250 0.48320 0.68520 -0.55000
O 	O 	0.09830 0.97480 0.01930 -0.49000
C 	C 	0.20170 0.99800 0.92080 -0.10800
H 	H 	0.21180 0.98410 0.86010 0.06400
C 	C 	0.11880 0.98980 0.94130 0.45900
C 	C 	0.32900 0.97380 0.97910 0.46200
C 	C 	0.80010 0.51610 0.55230 -0.13800
H 	H 	0.78770 0.49870 0.49350 0.07700
C 	C 	0.24740 0.95090 0.98160 0.03600
H 	H 	0.22900 0.96090 0.04060 0.00800
C 	C 	0.23260 0.86750 0.96200 -0.50300
H 	H 	0.23780 0.85850 0.90090 0.17600
H 	H 	0.18260 0.85450 0.98050 0.19700
H 	H 	0.26840 0.83710 0.99340 0.19100
O 	O 	0.00500 0.12370 0.76970 -0.43200
O 	O 	0.89970 0.50990 0.65660 -0.46500
C 	C 	0.75360 0.48600 0.61950 -0.19700
H 	H 	0.77380 0.49260 0.67830 0.12300
C 	C 	0.99980 0.82770 0.86250 0.49600
C 	C 	0.58320 0.28310 0.18600 -0.43100
H 	H 	0.60010 0.24480 0.14610 0.14300
H 	H 	0.59110 0.26650 0.24450 0.15200
H 	H 	0.61110 0.32850 0.17570 0.14400
O 	O 	0.46250 0.13440 0.15710 -0.49600
O 	O 	0.59000 0.49080 0.88450 -0.58300
Ho	Ho	0.01092 0.47160 0.88841 2.00500
O 	O 	0.01240 0.57000 0.77170 -0.59600
O 	O 	0.49130 0.43090 0.13340 -0.56600
O 	O 	0.00660 0.86400 0.79370 -0.51600
C 	C 	0.85880 0.49500 0.94910 0.47500
C 	C 	0.00320 0.62170 0.82830 0.42400
O 	O 	0.87600 0.48510 0.87120 -0.44200
O 	O 	0.49170 0.14000 0.29910 -0.53600
C 	C 	0.64070 0.48960 0.94070 0.49000
O 	O 	0.91130 0.49770 0.00650 -0.65100
C 	C 	0.77830 0.49760 0.97990 -0.04300
C 	C 	0.72280 0.49400 0.91200 -0.08500
O 	O 	0.98320 0.85750 0.93520 -0.49600
O 	O 	0.47480 0.40170 0.26930 -0.44500
C 	C 	0.49800 0.29830 0.17080 -0.02700
H 	H 	0.48410 0.28820 0.11010 0.03500
C 	C 	0.48980 0.38120 0.19130 0.36900
C 	C 	0.47380 0.17100 0.22910 0.44300
C 	C 	0.01610 0.69990 0.80230 -0.15500
H 	H 	0.99870 0.71230 0.74350 0.08800
C 	C 	0.45090 0.25260 0.23160 -0.11800
H 	H 	0.46090 0.27100 0.29060 0.09100
C 	C 	0.36750 0.26740 0.21200 -0.32600
H 	H 	0.35850 0.26220 0.15090 0.11400
H 	H 	0.35450 0.31740 0.23050 0.12600
H 	H 	0.33710 0.23160 0.24340 0.11900
O 	O 	0.62370 0.49500 0.01970 -0.49300
O 	O 	0.00990 0.60030 0.90660 -0.45600
C 	C 	0.98600 0.74640 0.86950 -0.17900
H 	H 	0.99260 0.72620 0.92830 0.13400
C 	C 	0.00020 0.17230 0.36250 0.50300
C 	C 	0.41680 0.71690 0.68600 -0.43200
H 	H 	0.39990 0.75520 0.64610 0.14900
H 	H 	0.40890 0.73350 0.74450 0.15500
H 	H 	0.38890 0.67150 0.67570 0.14800
O 	O 	0.53750 0.86560 0.65710 -0.49300
O 	O 	0.41000 0.50920 0.38450 -0.58300
Ho	Ho	0.98908 0.52840 0.38841 1.95400
O 	O 	0.98760 0.43000 0.27170 -0.59100
O 	O 	0.50870 0.56910 0.63340 -0.57900
O 	O 	0.99340 0.13600 0.29370 -0.51500
C 	C 	0.14120 0.50500 0.44910 0.39600
C 	C 	0.99680 0.37830 0.32830 0.42200
O 	O 	0.12400 0.51490 0.37120 -0.43000
O 	O 	0.50830 0.86000 0.79910 -0.53000
C 	C 	0.35930 0.51040 0.44070 0.40300
O 	O 	0.08870 0.50230 0.50650 -0.57300
C 	C 	0.22170 0.50240 0.47990 -0.07600
C 	C 	0.27720 0.50600 0.41200 -0.07500
O 	O 	0.01680 0.14250 0.43520 -0.55000
O 	O 	0.52520 0.59830 0.76930 -0.44500
C 	C 	0.50200 0.70170 0.67080 -0.03500
H 	H 	0.51590 0.71180 0.61010 0.04500
C 	C 	0.51020 0.61880 0.69130 0.37900
C 	C 	0.52620 0.82900 0.72910 0.44000
C 	C 	0.98390 0.30010 0.30230 -0.13800
H 	H 	0.00130 0.28770 0.24350 0.08000
C 	C 	0.54910 0.74740 0.73160 -0.10300
H 	H 	0.53910 0.72900 0.79060 0.09200
C 	C 	0.63250 0.73260 0.71200 -0.35800
H 	H 	0.64150 0.73780 0.65090 0.13200
H 	H 	0.64550 0.68260 0.73050 0.14000
H 	H 	0.66290 0.76840 0.74340 0.13500
O 	O 	0.37630 0.50500 0.51970 -0.43200
O 	O 	0.99010 0.39970 0.40660 -0.46700
C 	C 	0.01400 0.25360 0.36950 -0.19700
H 	H 	0.00740 0.27380 0.42830 0.12100
C 	C 	0.17230 0.00020 0.63750 0.50300
C 	C 	0.71690 0.41680 0.31400 -0.42400
H 	H 	0.75520 0.39990 0.35390 0.14700
H 	H 	0.73350 0.40890 0.25550 0.14800
H 	H 	0.67150 0.38890 0.32430 0.14500
O 	O 	0.86560 0.53750 0.34290 -0.49300
O 	O 	0.50920 0.41000 0.61550 -0.58400
Ho	Ho	0.52840 0.98908 0.61159 1.95300
O 	O 	0.43000 0.98760 0.72830 -0.59300
O 	O 	0.56910 0.50870 0.36660 -0.57800
O 	O 	0.13600 0.99340 0.70630 -0.51700
C 	C 	0.50500 0.14120 0.55090 0.39600
C 	C 	0.37830 0.99680 0.67170 0.42200
O 	O 	0.51490 0.12400 0.62880 -0.42900
O 	O 	0.86000 0.50830 0.20090 -0.54000
C 	C 	0.51040 0.35930 0.55930 0.40400
O 	O 	0.50230 0.08870 0.49350 -0.57300
C 	C 	0.50240 0.22170 0.52010 -0.07600
C 	C 	0.50600 0.27720 0.58800 -0.07400
O 	O 	0.14250 0.01680 0.56480 -0.55000
O 	O 	0.59830 0.52520 0.23070 -0.45000
C 	C 	0.70170 0.50200 0.32920 -0.03900
H 	H 	0.71180 0.51590 0.38990 0.04600
C 	C 	0.61880 0.51020 0.30870 0.38100
C 	C 	0.82900 0.52620 0.27090 0.43900
C 	C 	0.30010 0.98390 0.69770 -0.13900
H 	H 	0.28770 0.00130 0.75650 0.07700
C 	C 	0.74740 0.54910 0.26840 -0.10500
H 	H 	0.72900 0.53910 0.20940 0.08100
C 	C 	0.73260 0.63250 0.28800 -0.34700
H 	H 	0.73780 0.64150 0.34910 0.12800
H 	H 	0.68260 0.64550 0.26950 0.13100
H 	H 	0.76840 0.66290 0.25660 0.12400
O 	O 	0.50500 0.37630 0.48030 -0.43300
O 	O 	0.39970 0.99010 0.59340 -0.46800
C 	C 	0.25360 0.01400 0.63050 -0.19700
H 	H 	0.27380 0.00740 0.57170 0.12100
C 	C 	0.82770 0.99980 0.13750 0.49700
C 	C 	0.28310 0.58320 0.81400 -0.43800
H 	H 	0.24480 0.60010 0.85390 0.15600
H 	H 	0.26650 0.59110 0.75550 0.15500
H 	H 	0.32850 0.61110 0.82430 0.15500
O 	O 	0.13440 0.46250 0.84290 -0.48900
O 	O 	0.49080 0.59000 0.11550 -0.55600
Ho	Ho	0.47160 0.01092 0.11159 1.87400
O 	O 	0.57000 0.01240 0.22830 -0.59000
O 	O 	0.43090 0.49130 0.86660 -0.54400
O 	O 	0.86400 0.00660 0.20630 -0.51500
C 	C 	0.49500 0.85880 0.05090 0.32900
C 	C 	0.62170 0.00320 0.17170 0.42600
O 	O 	0.48510 0.87600 0.12880 -0.41400
O 	O 	0.14000 0.49170 0.70090 -0.53500
C 	C 	0.48960 0.64070 0.05930 0.31600
O 	O 	0.49770 0.91130 0.99350 -0.50300
C 	C 	0.49760 0.77830 0.02010 -0.10700
C 	C 	0.49400 0.72280 0.08800 -0.06200
O 	O 	0.85750 0.98320 0.06480 -0.54800
O 	O 	0.40170 0.47480 0.73070 -0.44700
C 	C 	0.29830 0.49800 0.82920 -0.03300
H 	H 	0.28820 0.48410 0.88990 0.05500
C 	C 	0.38120 0.48980 0.80870 0.37200
C 	C 	0.17100 0.47380 0.77090 0.43700
C 	C 	0.69990 0.01610 0.19770 -0.14800
H 	H 	0.71230 0.99870 0.25650 0.08100
C 	C 	0.25260 0.45090 0.76840 -0.09600
H 	H 	0.27100 0.46090 0.70940 0.08400
C 	C 	0.26740 0.36750 0.78800 -0.37200
H 	H 	0.26220 0.35850 0.84910 0.14500
H 	H 	0.31740 0.35450 0.76950 0.14300
H 	H 	0.23160 0.33710 0.75660 0.13700
O 	O 	0.49500 0.62370 0.98030 -0.34000
O 	O 	0.60030 0.00990 0.09340 -0.48600
C 	C 	0.74640 0.98600 0.13050 -0.19300
H 	H 	0.72620 0.99260 0.07170 0.10800
C 	C 	0.50020 0.32770 0.88750 0.51000
C 	C 	0.91680 0.78310 0.56400 -0.42600
H 	H 	0.89990 0.74480 0.60390 0.14800
H 	H 	0.90890 0.76650 0.50550 0.15100
H 	H 	0.88890 0.82850 0.57430 0.14700
O 	O 	0.03750 0.63440 0.59290 -0.49300
O 	O 	0.91000 0.99080 0.86550 -0.54500
Ho	Ho	0.48908 0.97160 0.86159 1.95800
O 	O 	0.48760 0.07000 0.97830 -0.54000
O 	O 	0.00870 0.93090 0.61660 -0.57800
O 	O 	0.49340 0.36400 0.95630 -0.46600
C 	C 	0.64120 0.99500 0.80090 0.39800
C 	C 	0.49680 0.12170 0.92170 0.38400
O 	O 	0.62400 0.98510 0.87880 -0.41400
O 	O 	0.00830 0.64000 0.45090 -0.53500
C 	C 	0.85930 0.98960 0.80930 0.39200
O 	O 	0.58870 0.99770 0.74350 -0.57300
C 	C 	0.72170 0.99760 0.77010 -0.07700
C 	C 	0.77720 0.99400 0.83800 -0.04800
O 	O 	0.51680 0.35750 0.81480 -0.54600
O 	O 	0.02520 0.90170 0.48070 -0.44700
C 	C 	0.00200 0.79830 0.57920 -0.03800
H 	H 	0.01590 0.78820 0.63990 0.04500
C 	C 	0.01020 0.88120 0.55870 0.38100
C 	C 	0.02620 0.67100 0.52090 0.43900
C 	C 	0.48390 0.19990 0.94770 -0.01200
H 	H 	0.50130 0.21230 0.00650 -0.00600
C 	C 	0.04910 0.75260 0.51840 -0.10400
H 	H 	0.03910 0.77100 0.45940 0.08700
C 	C 	0.13250 0.76740 0.53800 -0.35200
H 	H 	0.14150 0.76220 0.59910 0.13000
H 	H 	0.14550 0.81740 0.51950 0.13500
H 	H 	0.16290 0.73160 0.50660 0.12900
O 	O 	0.87630 0.99500 0.73030 -0.42600
O 	O 	0.49010 0.10030 0.84340 -0.45600
C 	C 	0.51400 0.24640 0.88050 -0.22500
H 	H 	0.50740 0.22620 0.82170 0.13100
C 	C 	0.49980 0.67230 0.38750 0.50400
C 	C 	0.08320 0.21690 0.06400 -0.48900
H 	H 	0.10010 0.25520 0.10390 0.16200
H 	H 	0.09110 0.23350 0.00550 0.14700
H 	H 	0.11110 0.17150 0.07430 0.15500
O 	O 	0.96250 0.36560 0.09290 -0.49100
O 	O 	0.09000 0.00920 0.36550 -0.58300
Ho	Ho	0.51092 0.02840 0.36159 1.95200
O 	O 	0.51240 0.93000 0.47830 -0.59200
O 	O 	0.99130 0.06910 0.11660 -0.54100
O 	O 	0.50660 0.63600 0.45630 -0.51700
C 	C 	0.35880 0.00500 0.30090 0.39300
C 	C 	0.50320 0.87830 0.42170 0.42200
O 	O 	0.37600 0.01490 0.37880 -0.42900
O 	O 	0.99170 0.36000 0.95090 -0.47400
C 	C 	0.14070 0.01040 0.30930 0.40300
O 	O 	0.41130 0.00230 0.24350 -0.56700
C 	C 	0.27830 0.00240 0.27010 -0.08000
C 	C 	0.22280 0.00600 0.33800 -0.07500
O 	O 	0.48320 0.64250 0.31480 -0.55100
O 	O 	0.97480 0.09830 0.98070 -0.33600
C 	C 	0.99800 0.20170 0.07920 0.06200
H 	H 	0.98410 0.21180 0.13990 0.01900
C 	C 	0.98980 0.11880 0.05870 0.26100
C 	C 	0.97380 0.32900 0.02090 0.40800
C 	C 	0.51610 0.80010 0.44770 -0.13900
H 	H 	0.49870 0.78770 0.50650 0.07700
C 	C 	0.95090 0.24740 0.01840 -0.29000
H 	H 	0.96090 0.22900 0.95940 0.19200
C 	C 	0.86750 0.23260 0.03800 -0.15700
H 	H 	0.85850 0.23780 0.09910 0.07200
H 	H 	0.85450 0.18260 0.01950 0.05700
H 	H 	0.83710 0.26840 0.00660 0.05100
O 	O 	0.12370 0.00500 0.23030 -0.43500
O 	O 	0.50990 0.89970 0.34340 -0.46900
C 	C 	0.48600 0.75360 0.38050 -0.19800
H 	H 	0.49260 0.77380 0.32170 0.12000
Ho	Ho	0.03160 0.03160 0.50000 1.96900
Ho	Ho	0.96840 0.96840 -0.00000 1.80000
Ho	Ho	0.46840 0.53160 0.25000 1.96500
Ho	Ho	0.53160 0.46840 0.75000 1.98400
Ho	Ho	0.98919 0.01081 0.25000 1.90300
Ho	Ho	0.01081 0.98919 0.75000 1.91200
Ho	Ho	0.48919 0.48919 -0.00000 1.75000
Ho	Ho	0.51081 0.51081 0.50000 1.90800
