data_crystal

_cell_length_a 6.41900
_cell_length_b 7.93610
_cell_length_c 8.91100
_cell_angle_alpha 103.75700
_cell_angle_beta  104.13700
_cell_angle_gamma 106.94500

_symmetry_space_group_name_	'P 1'
_symmetry_space_group_name_H-M	'P 1'

loop_
_symmetry_equiv_pos_as_xyz
  x,y,z

loop_
_atom_site_label
_atom_site_type_symbol
_atom_site_fract_x
_atom_site_fract_y
_atom_site_fract_z
_atom_site_charge
Ba	Ba	0.15118 0.27066 0.42750 1.87700
O 	O 	0.16470 0.57820 0.68498 -0.57800
O 	O 	0.19800 0.33990 0.76488 -0.42900
O 	O 	0.38300 0.57930 0.36247 -0.62000
O 	O 	0.37210 0.81020 0.26313 -0.44000
C 	C 	0.16310 0.48950 0.78730 0.32300
C 	C 	0.10850 0.57200 0.93770 -0.09200
H 	H 	0.17970 0.71150 0.97730 0.00300
C 	C 	0.31880 0.63930 0.24690 0.39000
C 	C 	0.15800 0.49640 0.08200 -0.15100
H 	H 	0.20780 0.38830 0.05290 0.01900
O 	O 	0.21770 0.95890 0.50826 -0.98100
H 	H 	0.26100 0.90800 0.43500 0.33800
H 	H 	0.34400 0.01500 0.58200 0.34000
Ba	Ba	0.84882 0.72934 0.57250 1.87800
O 	O 	0.83530 0.42180 0.31502 -0.57700
O 	O 	0.80200 0.66010 0.23512 -0.42900
O 	O 	0.61700 0.42070 0.63753 -0.62000
O 	O 	0.62790 0.18980 0.73687 -0.44000
C 	C 	0.83690 0.51050 0.21270 0.32300
C 	C 	0.89150 0.42800 0.06230 -0.09200
H 	H 	0.82030 0.28850 0.02270 0.00300
C 	C 	0.68120 0.36070 0.75310 0.39000
C 	C 	0.84200 0.50360 0.91800 -0.15100
H 	H 	0.79220 0.61170 0.94710 0.01900
O 	O 	0.78230 0.04110 0.49174 -0.98100
H 	H 	0.73900 0.09200 0.56500 0.33800
H 	H 	0.65600 0.98500 0.41800 0.34000
