data_crystal

_cell_length_a 24.20960
_cell_length_b 24.20960
_cell_length_c 24.20960
_cell_angle_alpha 90.00000
_cell_angle_beta  90.00000
_cell_angle_gamma 90.00000

_symmetry_space_group_name_	'P 1'
_symmetry_space_group_name_H-M	'P 1'

loop_
_symmetry_equiv_pos_as_xyz
  x,y,z

loop_
_atom_site_label
_atom_site_type_symbol
_atom_site_fract_x
_atom_site_fract_y
_atom_site_fract_z
_atom_site_charge
C 	C 	0.43900 0.35290 0.50270 -0.97000
H 	H 	0.47030 0.37600 0.51390 0.30200
H 	H 	0.42030 0.36990 0.47100 0.27200
H 	H 	0.45250 0.31610 0.49230 0.29100
C 	C 	0.34150 0.32960 0.53230 -0.95600
H 	H 	0.33330 0.34380 0.49530 0.27600
H 	H 	0.31450 0.34410 0.55860 0.28500
H 	H 	0.33960 0.28920 0.53190 0.28400
C 	C 	0.42330 0.30640 0.58590 -1.03100
H 	H 	0.42740 0.27150 0.56570 0.30600
H 	H 	0.39890 0.30080 0.61770 0.30900
H 	H 	0.45950 0.31890 0.59880 0.33100
C 	C 	0.39960 0.34780 0.54950 0.69400
C 	C 	0.39550 0.40300 0.57870 -0.02400
C 	C 	0.35100 0.43960 0.57540 -0.21300
H 	H 	0.31910 0.42620 0.55690 0.07100
C 	C 	0.34760 0.49120 0.59510 0.23200
C 	C 	0.30130 0.52620 0.58420 -0.09800
C 	C 	0.30310 0.58020 0.59960 0.00200
H 	H 	0.33390 0.59390 0.61960 0.02700
C 	C 	0.25900 0.61580 0.58590 -0.09000
H 	H 	0.26350 0.65380 0.59430 0.03700
C 	C 	0.21030 0.60030 0.56160 0.00900
C 	C 	0.21090 0.54390 0.54790 -0.09000
H 	H 	0.17860 0.52950 0.53080 0.04300
C 	C 	0.25370 0.50740 0.55690 -0.00700
H 	H 	0.25110 0.47020 0.54480 0.00300
C 	C 	0.16520 0.63890 0.55050 0.03700
C 	C 	0.16110 0.68550 0.57480 -0.10500
H 	H 	0.18990 0.69640 0.59910 0.04500
C 	C 	0.11710 0.72100 0.56760 0.00400
H 	H 	0.11180 0.75160 0.59150 0.02800
C 	C 	0.07990 0.71040 0.52340 -0.08800
C 	C 	0.08890 0.66400 0.49190 0.00600
H 	H 	0.06600 0.65700 0.46070 0.00600
C 	C 	0.13110 0.62680 0.50500 -0.10400
H 	H 	0.13660 0.59430 0.48380 0.04700
C 	C 	0.03330 0.75040 0.51460 0.23000
C 	C 	0.99470 0.74050 0.47100 -0.23000
H 	H 	0.00070 0.70890 0.44840 0.08400
C 	C 	0.94930 0.77330 0.45910 0.06100
C 	C 	0.91220 0.75990 0.41320 0.43800
C 	C 	0.91940 0.80400 0.37070 -0.77700
H 	H 	0.91510 0.84030 0.38810 0.25300
H 	H 	0.89150 0.79950 0.34170 0.23700
H 	H 	0.95630 0.80120 0.35440 0.23800
C 	C 	0.85250 0.76170 0.43820 -0.70700
H 	H 	0.84560 0.79830 0.45410 0.22900
H 	H 	0.84900 0.73360 0.46700 0.21300
H 	H 	0.82540 0.75440 0.40890 0.20700
C 	C 	0.92460 0.70280 0.38740 -0.70900
H 	H 	0.89470 0.69260 0.36210 0.20300
H 	H 	0.92760 0.67510 0.41680 0.20900
H 	H 	0.95960 0.70460 0.36700 0.20700
O 	O 	0.43980 0.41420 0.60570 -0.33500
O 	O 	0.38490 0.51142 0.62520 -0.38400
O 	O 	0.03327 0.79210 0.54380 -0.38800
O 	O 	0.93959 0.81810 0.48470 -0.34700
Cu	Cu	0.45256 0.47829 0.65056 0.91700
C 	C 	0.49730 0.93900 0.14710 -0.97000
H 	H 	0.48610 0.97030 0.12400 0.30100
H 	H 	0.52900 0.92030 0.13010 0.27100
H 	H 	0.50770 0.95250 0.18390 0.29000
C 	C 	0.46770 0.84150 0.17040 -0.95700
H 	H 	0.50470 0.83330 0.15620 0.27500
H 	H 	0.44140 0.81450 0.15590 0.28400
H 	H 	0.46810 0.83960 0.21080 0.28300
C 	C 	0.41410 0.92330 0.19360 -1.03100
H 	H 	0.43430 0.92740 0.22850 0.30500
H 	H 	0.38230 0.89890 0.19920 0.30800
H 	H 	0.40120 0.95950 0.18110 0.32900
C 	C 	0.45050 0.89960 0.15220 0.69200
C 	C 	0.42130 0.89550 0.09700 -0.02500
C 	C 	0.42460 0.85100 0.06040 -0.21300
H 	H 	0.44310 0.81910 0.07380 0.07000
C 	C 	0.40490 0.84760 0.00880 0.22900
C 	C 	0.41580 0.80130 0.97380 -0.09800
C 	C 	0.40040 0.80310 0.91980 0.00100
H 	H 	0.38040 0.83390 0.90610 0.02600
C 	C 	0.41410 0.75900 0.88420 -0.09100
H 	H 	0.40570 0.76350 0.84620 0.03700
C 	C 	0.43840 0.71030 0.89970 0.00900
C 	C 	0.45210 0.71090 0.95610 -0.09100
H 	H 	0.46920 0.67860 0.97050 0.04300
C 	C 	0.44310 0.75370 0.99260 -0.00700
H 	H 	0.45520 0.75110 0.02980 0.00300
C 	C 	0.44950 0.66520 0.86110 0.03700
C 	C 	0.42520 0.66110 0.81450 -0.10500
H 	H 	0.40090 0.68990 0.80360 0.04500
C 	C 	0.43240 0.61710 0.77900 0.00500
H 	H 	0.40850 0.61180 0.74840 0.02800
C 	C 	0.47660 0.57990 0.78960 -0.08900
C 	C 	0.50810 0.58890 0.83600 0.00700
H 	H 	0.53930 0.56600 0.84300 0.00600
C 	C 	0.49500 0.63110 0.87320 -0.10400
H 	H 	0.51620 0.63660 0.90570 0.04700
C 	C 	0.48540 0.53330 0.74960 0.23200
C 	C 	0.52900 0.49470 0.75950 -0.23200
H 	H 	0.55160 0.50070 0.79110 0.08500
C 	C 	0.54090 0.44930 0.72670 0.06200
C 	C 	0.58680 0.41220 0.74010 0.43700
C 	C 	0.62930 0.41940 0.69600 -0.77600
H 	H 	0.61190 0.41510 0.65970 0.25200
H 	H 	0.65830 0.39150 0.70050 0.23600
H 	H 	0.64560 0.45630 0.69880 0.23800
C 	C 	0.56180 0.35250 0.73830 -0.70600
H 	H 	0.54590 0.34560 0.70170 0.22800
H 	H 	0.53300 0.34900 0.76640 0.21200
H 	H 	0.59110 0.32540 0.74560 0.20600
C 	C 	0.61260 0.42460 0.79720 -0.70900
H 	H 	0.63790 0.39470 0.80740 0.20200
H 	H 	0.58320 0.42760 0.82490 0.20900
H 	H 	0.63300 0.45960 0.79540 0.20700
O 	O 	0.39430 0.93980 0.08580 -0.33500
O 	O 	0.37480 0.88490 0.98858 -0.38300
O 	O 	0.45620 0.53327 0.70790 -0.38800
O 	O 	0.51530 0.43959 0.68190 -0.34800
Cu	Cu	0.34944 0.95256 0.02171 0.91600
C 	C 	0.85290 0.99730 0.56100 -0.95700
H 	H 	0.87600 0.98610 0.52970 0.29800
H 	H 	0.86990 0.02900 0.57970 0.26700
H 	H 	0.81610 0.00770 0.54750 0.28500
C 	C 	0.82960 0.96770 0.65850 -0.94600
H 	H 	0.84380 0.00470 0.66670 0.27100
H 	H 	0.84410 0.94140 0.68550 0.28100
H 	H 	0.78920 0.96810 0.66040 0.28000
C 	C 	0.80640 0.91410 0.57670 -1.02400
H 	H 	0.77150 0.93430 0.57260 0.30300
H 	H 	0.80080 0.88230 0.60110 0.30600
H 	H 	0.81890 0.90120 0.54050 0.32800
C 	C 	0.84780 0.95050 0.60040 0.68400
C 	C 	0.90300 0.92130 0.60450 -0.02100
C 	C 	0.93960 0.92460 0.64900 -0.21700
H 	H 	0.92620 0.94310 0.68090 0.07200
C 	C 	0.99120 0.90490 0.65240 0.23600
C 	C 	0.02620 0.91580 0.69870 -0.10100
C 	C 	0.08020 0.90040 0.69690 0.00200
H 	H 	0.09390 0.88040 0.66610 0.02600
C 	C 	0.11580 0.91410 0.74100 -0.09100
H 	H 	0.15380 0.90570 0.73650 0.03700
C 	C 	0.10030 0.93840 0.78970 0.00900
C 	C 	0.04390 0.95210 0.78910 -0.08900
H 	H 	0.02950 0.96920 0.82140 0.04200
C 	C 	0.00740 0.94310 0.74630 -0.01000
H 	H 	0.97020 0.95520 0.74890 0.00600
C 	C 	0.13890 0.94950 0.83480 0.03600
C 	C 	0.18550 0.92520 0.83890 -0.10400
H 	H 	0.19640 0.90090 0.81010 0.04500
C 	C 	0.22100 0.93240 0.88290 0.00300
H 	H 	0.25160 0.90850 0.88820 0.02900
C 	C 	0.21040 0.97660 0.92010 -0.08700
C 	C 	0.16400 0.00810 0.91110 0.00400
H 	H 	0.15700 0.03930 0.93400 0.00600
C 	C 	0.12680 0.99500 0.86890 -0.10200
H 	H 	0.09430 0.01620 0.86340 0.04600
C 	C 	0.25040 0.98540 0.96670 0.22800
C 	C 	0.24050 0.02900 0.00530 -0.22500
H 	H 	0.20890 0.05160 0.99930 0.08100
C 	C 	0.27330 0.04090 0.05070 0.05900
C 	C 	0.25990 0.08680 0.08780 0.44000
C 	C 	0.30400 0.12930 0.08060 -0.77900
H 	H 	0.34030 0.11190 0.08490 0.25300
H 	H 	0.29950 0.15830 0.10850 0.23700
H 	H 	0.30120 0.14560 0.04370 0.23900
C 	C 	0.26170 0.06180 0.14750 -0.70800
H 	H 	0.29830 0.04590 0.15440 0.22900
H 	H 	0.23360 0.03300 0.15100 0.21300
H 	H 	0.25440 0.09110 0.17460 0.20700
C 	C 	0.20280 0.11260 0.07540 -0.71100
H 	H 	0.19260 0.13790 0.10530 0.20300
H 	H 	0.17510 0.08320 0.07240 0.21000
H 	H 	0.20460 0.13300 0.04040 0.20800
O 	O 	0.91420 0.89430 0.56020 -0.33500
O 	O 	0.01142 0.87480 0.61510 -0.38600
O 	O 	0.29210 0.95620 0.96673 -0.38700
O 	O 	0.31810 0.01530 0.06041 -0.34600
Cu	Cu	0.97829 0.84944 0.54744 0.91800
C 	C 	0.06100 0.64710 0.00270 -0.96300
H 	H 	0.02970 0.62400 0.01390 0.29900
H 	H 	0.07970 0.63010 0.97100 0.26900
H 	H 	0.04750 0.68390 0.99230 0.28700
C 	C 	0.15850 0.67040 0.03230 -0.95200
H 	H 	0.16670 0.65620 0.99530 0.27400
H 	H 	0.18550 0.65590 0.05860 0.28300
H 	H 	0.16040 0.71080 0.03190 0.28100
C 	C 	0.07670 0.69360 0.08590 -1.02800
H 	H 	0.07260 0.72850 0.06570 0.30400
H 	H 	0.10110 0.69920 0.11770 0.30700
H 	H 	0.04050 0.68110 0.09880 0.32900
C 	C 	0.10040 0.65220 0.04950 0.68900
C 	C 	0.10450 0.59700 0.07870 -0.02300
C 	C 	0.14900 0.56040 0.07540 -0.21500
H 	H 	0.18090 0.57380 0.05690 0.07100
C 	C 	0.15240 0.50880 0.09510 0.23200
C 	C 	0.19870 0.47380 0.08420 -0.10000
C 	C 	0.19690 0.41980 0.09960 0.00200
H 	H 	0.16610 0.40610 0.11960 0.02600
C 	C 	0.24100 0.38420 0.08590 -0.09200
H 	H 	0.23650 0.34620 0.09430 0.03700
C 	C 	0.28970 0.39970 0.06160 0.01100
C 	C 	0.28910 0.45610 0.04790 -0.09100
H 	H 	0.32140 0.47050 0.03080 0.04300
C 	C 	0.24630 0.49260 0.05690 -0.00700
H 	H 	0.24890 0.52980 0.04480 0.00300
C 	C 	0.33480 0.36110 0.05050 0.03500
C 	C 	0.33890 0.31450 0.07480 -0.10300
H 	H 	0.31010 0.30360 0.09910 0.04400
C 	C 	0.38290 0.27900 0.06760 0.00300
H 	H 	0.38820 0.24840 0.09150 0.02900
C 	C 	0.42010 0.28960 0.02340 -0.08600
C 	C 	0.41110 0.33600 0.99190 0.00300
H 	H 	0.43400 0.34300 0.96070 0.00700
C 	C 	0.36890 0.37320 0.00500 -0.10000
H 	H 	0.36340 0.40570 0.98380 0.04500
C 	C 	0.46670 0.24960 0.01460 0.23200
C 	C 	0.50530 0.25950 0.97100 -0.23300
H 	H 	0.49930 0.29110 0.94840 0.08500
C 	C 	0.55070 0.22670 0.95910 0.06200
C 	C 	0.58780 0.24010 0.91320 0.43700
C 	C 	0.58060 0.19600 0.87070 -0.77500
H 	H 	0.58490 0.15970 0.88810 0.25200
H 	H 	0.60850 0.20050 0.84170 0.23600
H 	H 	0.54370 0.19880 0.85440 0.23700
C 	C 	0.64750 0.23830 0.93820 -0.70500
H 	H 	0.65440 0.20170 0.95410 0.22800
H 	H 	0.65100 0.26640 0.96700 0.21200
H 	H 	0.67460 0.24560 0.90890 0.20600
C 	C 	0.57540 0.29720 0.88740 -0.70800
H 	H 	0.60530 0.30740 0.86210 0.20200
H 	H 	0.57240 0.32490 0.91680 0.20800
H 	H 	0.54040 0.29540 0.86700 0.20600
O 	O 	0.06020 0.58580 0.10570 -0.33500
O 	O 	0.11510 0.48858 0.12520 -0.38400
O 	O 	0.46673 0.20790 0.04380 -0.38700
O 	O 	0.56041 0.18190 0.98470 -0.34800
Cu	Cu	0.04744 0.52171 0.15056 0.91700
C 	C 	0.00270 0.06100 0.64710 -0.96300
H 	H 	0.01390 0.02970 0.62400 0.29900
H 	H 	0.97100 0.07970 0.63010 0.26900
H 	H 	0.99230 0.04750 0.68390 0.28700
C 	C 	0.03230 0.15850 0.67040 -0.95200
H 	H 	0.99530 0.16670 0.65620 0.27400
H 	H 	0.05860 0.18550 0.65590 0.28300
H 	H 	0.03190 0.16040 0.71080 0.28100
C 	C 	0.08590 0.07670 0.69360 -1.02800
H 	H 	0.06570 0.07260 0.72850 0.30400
H 	H 	0.11770 0.10110 0.69920 0.30700
H 	H 	0.09880 0.04050 0.68110 0.32900
C 	C 	0.04950 0.10040 0.65220 0.68900
C 	C 	0.07870 0.10450 0.59700 -0.02300
C 	C 	0.07540 0.14900 0.56040 -0.21500
H 	H 	0.05690 0.18090 0.57380 0.07100
C 	C 	0.09510 0.15240 0.50880 0.23200
C 	C 	0.08420 0.19870 0.47380 -0.10000
C 	C 	0.09960 0.19690 0.41980 0.00200
H 	H 	0.11960 0.16610 0.40610 0.02600
C 	C 	0.08590 0.24100 0.38420 -0.09200
H 	H 	0.09430 0.23650 0.34620 0.03700
C 	C 	0.06160 0.28970 0.39970 0.01100
C 	C 	0.04790 0.28910 0.45610 -0.09100
H 	H 	0.03080 0.32140 0.47050 0.04300
C 	C 	0.05690 0.24630 0.49260 -0.00700
H 	H 	0.04480 0.24890 0.52980 0.00300
C 	C 	0.05050 0.33480 0.36110 0.03500
C 	C 	0.07480 0.33890 0.31450 -0.10300
H 	H 	0.09910 0.31010 0.30360 0.04400
C 	C 	0.06760 0.38290 0.27900 0.00300
H 	H 	0.09150 0.38820 0.24840 0.02900
C 	C 	0.02340 0.42010 0.28960 -0.08600
C 	C 	0.99190 0.41110 0.33600 0.00300
H 	H 	0.96070 0.43400 0.34300 0.00700
C 	C 	0.00500 0.36890 0.37320 -0.10000
H 	H 	0.98380 0.36340 0.40570 0.04500
C 	C 	0.01460 0.46670 0.24960 0.23200
C 	C 	0.97100 0.50530 0.25950 -0.23300
H 	H 	0.94840 0.49930 0.29110 0.08500
C 	C 	0.95910 0.55070 0.22670 0.06200
C 	C 	0.91320 0.58780 0.24010 0.43700
C 	C 	0.87070 0.58060 0.19600 -0.77500
H 	H 	0.88810 0.58490 0.15970 0.25200
H 	H 	0.84170 0.60850 0.20050 0.23600
H 	H 	0.85440 0.54370 0.19880 0.23700
C 	C 	0.93820 0.64750 0.23830 -0.70500
H 	H 	0.95410 0.65440 0.20170 0.22800
H 	H 	0.96700 0.65100 0.26640 0.21200
H 	H 	0.90890 0.67460 0.24560 0.20600
C 	C 	0.88740 0.57540 0.29720 -0.70800
H 	H 	0.86210 0.60530 0.30740 0.20200
H 	H 	0.91680 0.57240 0.32490 0.20800
H 	H 	0.86700 0.54040 0.29540 0.20600
O 	O 	0.10570 0.06020 0.58580 -0.33500
O 	O 	0.12520 0.11510 0.48858 -0.38400
O 	O 	0.04380 0.46673 0.20790 -0.38700
O 	O 	0.98470 0.56041 0.18190 -0.34800
Cu	Cu	0.15056 0.04744 0.52171 0.91700
C 	C 	0.64710 0.00270 0.06100 -0.96300
H 	H 	0.62400 0.01390 0.02970 0.29900
H 	H 	0.63010 0.97100 0.07970 0.26900
H 	H 	0.68390 0.99230 0.04750 0.28700
C 	C 	0.67040 0.03230 0.15850 -0.95200
H 	H 	0.65620 0.99530 0.16670 0.27400
H 	H 	0.65590 0.05860 0.18550 0.28300
H 	H 	0.71080 0.03190 0.16040 0.28100
C 	C 	0.69360 0.08590 0.07670 -1.02800
H 	H 	0.72850 0.06570 0.07260 0.30400
H 	H 	0.69920 0.11770 0.10110 0.30700
H 	H 	0.68110 0.09880 0.04050 0.32900
C 	C 	0.65220 0.04950 0.10040 0.68900
C 	C 	0.59700 0.07870 0.10450 -0.02300
C 	C 	0.56040 0.07540 0.14900 -0.21500
H 	H 	0.57380 0.05690 0.18090 0.07100
C 	C 	0.50880 0.09510 0.15240 0.23200
C 	C 	0.47380 0.08420 0.19870 -0.10000
C 	C 	0.41980 0.09960 0.19690 0.00200
H 	H 	0.40610 0.11960 0.16610 0.02600
C 	C 	0.38420 0.08590 0.24100 -0.09200
H 	H 	0.34620 0.09430 0.23650 0.03700
C 	C 	0.39970 0.06160 0.28970 0.01100
C 	C 	0.45610 0.04790 0.28910 -0.09100
H 	H 	0.47050 0.03080 0.32140 0.04300
C 	C 	0.49260 0.05690 0.24630 -0.00700
H 	H 	0.52980 0.04480 0.24890 0.00300
C 	C 	0.36110 0.05050 0.33480 0.03500
C 	C 	0.31450 0.07480 0.33890 -0.10300
H 	H 	0.30360 0.09910 0.31010 0.04400
C 	C 	0.27900 0.06760 0.38290 0.00300
H 	H 	0.24840 0.09150 0.38820 0.02900
C 	C 	0.28960 0.02340 0.42010 -0.08600
C 	C 	0.33600 0.99190 0.41110 0.00300
H 	H 	0.34300 0.96070 0.43400 0.00700
C 	C 	0.37320 0.00500 0.36890 -0.10000
H 	H 	0.40570 0.98380 0.36340 0.04500
C 	C 	0.24960 0.01460 0.46670 0.23200
C 	C 	0.25950 0.97100 0.50530 -0.23300
H 	H 	0.29110 0.94840 0.49930 0.08500
C 	C 	0.22670 0.95910 0.55070 0.06200
C 	C 	0.24010 0.91320 0.58780 0.43700
C 	C 	0.19600 0.87070 0.58060 -0.77500
H 	H 	0.15970 0.88810 0.58490 0.25200
H 	H 	0.20050 0.84170 0.60850 0.23600
H 	H 	0.19880 0.85440 0.54370 0.23700
C 	C 	0.23830 0.93820 0.64750 -0.70500
H 	H 	0.20170 0.95410 0.65440 0.22800
H 	H 	0.26640 0.96700 0.65100 0.21200
H 	H 	0.24560 0.90890 0.67460 0.20600
C 	C 	0.29720 0.88740 0.57540 -0.70800
H 	H 	0.30740 0.86210 0.60530 0.20200
H 	H 	0.32490 0.91680 0.57240 0.20800
H 	H 	0.29540 0.86700 0.54040 0.20600
O 	O 	0.58580 0.10570 0.06020 -0.33500
O 	O 	0.48858 0.12520 0.11510 -0.38400
O 	O 	0.20790 0.04380 0.46673 -0.38700
O 	O 	0.18190 0.98470 0.56041 -0.34800
Cu	Cu	0.52171 0.15056 0.04744 0.91700
C 	C 	0.56100 0.85290 0.99730 -0.95700
H 	H 	0.52970 0.87600 0.98610 0.29800
H 	H 	0.57970 0.86990 0.02900 0.26700
H 	H 	0.54750 0.81610 0.00770 0.28500
C 	C 	0.65850 0.82960 0.96770 -0.94600
H 	H 	0.66670 0.84380 0.00470 0.27100
H 	H 	0.68550 0.84410 0.94140 0.28100
H 	H 	0.66040 0.78920 0.96810 0.28000
C 	C 	0.57670 0.80640 0.91410 -1.02400
H 	H 	0.57260 0.77150 0.93430 0.30300
H 	H 	0.60110 0.80080 0.88230 0.30600
H 	H 	0.54050 0.81890 0.90120 0.32800
C 	C 	0.60040 0.84780 0.95050 0.68400
C 	C 	0.60450 0.90300 0.92130 -0.02100
C 	C 	0.64900 0.93960 0.92460 -0.21700
H 	H 	0.68090 0.92620 0.94310 0.07200
C 	C 	0.65240 0.99120 0.90490 0.23600
C 	C 	0.69870 0.02620 0.91580 -0.10100
C 	C 	0.69690 0.08020 0.90040 0.00200
H 	H 	0.66610 0.09390 0.88040 0.02600
C 	C 	0.74100 0.11580 0.91410 -0.09100
H 	H 	0.73650 0.15380 0.90570 0.03700
C 	C 	0.78970 0.10030 0.93840 0.00900
C 	C 	0.78910 0.04390 0.95210 -0.08900
H 	H 	0.82140 0.02950 0.96920 0.04200
C 	C 	0.74630 0.00740 0.94310 -0.01000
H 	H 	0.74890 0.97020 0.95520 0.00600
C 	C 	0.83480 0.13890 0.94950 0.03600
C 	C 	0.83890 0.18550 0.92520 -0.10400
H 	H 	0.81010 0.19640 0.90090 0.04500
C 	C 	0.88290 0.22100 0.93240 0.00300
H 	H 	0.88820 0.25160 0.90850 0.02900
C 	C 	0.92010 0.21040 0.97660 -0.08700
C 	C 	0.91110 0.16400 0.00810 0.00400
H 	H 	0.93400 0.15700 0.03930 0.00600
C 	C 	0.86890 0.12680 0.99500 -0.10200
H 	H 	0.86340 0.09430 0.01620 0.04600
C 	C 	0.96670 0.25040 0.98540 0.22800
C 	C 	0.00530 0.24050 0.02900 -0.22500
H 	H 	0.99930 0.20890 0.05160 0.08100
C 	C 	0.05070 0.27330 0.04090 0.05900
C 	C 	0.08780 0.25990 0.08680 0.44000
C 	C 	0.08060 0.30400 0.12930 -0.77900
H 	H 	0.08490 0.34030 0.11190 0.25300
H 	H 	0.10850 0.29950 0.15830 0.23700
H 	H 	0.04370 0.30120 0.14560 0.23900
C 	C 	0.14750 0.26170 0.06180 -0.70800
H 	H 	0.15440 0.29830 0.04590 0.22900
H 	H 	0.15100 0.23360 0.03300 0.21300
H 	H 	0.17460 0.25440 0.09110 0.20700
C 	C 	0.07540 0.20280 0.11260 -0.71100
H 	H 	0.10530 0.19260 0.13790 0.20300
H 	H 	0.07240 0.17510 0.08320 0.21000
H 	H 	0.04040 0.20460 0.13300 0.20800
O 	O 	0.56020 0.91420 0.89430 -0.33500
O 	O 	0.61510 0.01142 0.87480 -0.38600
O 	O 	0.96673 0.29210 0.95620 -0.38700
O 	O 	0.06041 0.31810 0.01530 -0.34600
Cu	Cu	0.54744 0.97829 0.84944 0.91800
C 	C 	0.50270 0.43900 0.35290 -0.97100
H 	H 	0.51390 0.47030 0.37600 0.30100
H 	H 	0.47100 0.42030 0.36990 0.27100
H 	H 	0.49230 0.45250 0.31610 0.29000
C 	C 	0.53230 0.34150 0.32960 -0.95700
H 	H 	0.49530 0.33330 0.34380 0.27500
H 	H 	0.55860 0.31450 0.34410 0.28400
H 	H 	0.53190 0.33960 0.28920 0.28300
C 	C 	0.58590 0.42330 0.30640 -1.03200
H 	H 	0.56570 0.42740 0.27150 0.30500
H 	H 	0.61770 0.39890 0.30080 0.30800
H 	H 	0.59880 0.45950 0.31890 0.33000
C 	C 	0.54950 0.39960 0.34780 0.69300
C 	C 	0.57870 0.39550 0.40300 -0.02500
C 	C 	0.57540 0.35100 0.43960 -0.21400
H 	H 	0.55690 0.31910 0.42620 0.07000
C 	C 	0.59510 0.34760 0.49120 0.23100
C 	C 	0.58420 0.30130 0.52620 -0.09900
C 	C 	0.59960 0.30310 0.58020 0.00100
H 	H 	0.61960 0.33390 0.59390 0.02600
C 	C 	0.58590 0.25900 0.61580 -0.09100
H 	H 	0.59430 0.26350 0.65380 0.03700
C 	C 	0.56160 0.21030 0.60030 0.00900
C 	C 	0.54790 0.21090 0.54390 -0.09000
H 	H 	0.53080 0.17860 0.52950 0.04300
C 	C 	0.55690 0.25370 0.50740 -0.00700
H 	H 	0.54480 0.25110 0.47020 0.00300
C 	C 	0.55050 0.16520 0.63890 0.03700
C 	C 	0.57480 0.16110 0.68550 -0.10500
H 	H 	0.59910 0.18990 0.69640 0.04500
C 	C 	0.56760 0.11710 0.72100 0.00400
H 	H 	0.59150 0.11180 0.75160 0.02800
C 	C 	0.52340 0.07990 0.71040 -0.08800
C 	C 	0.49190 0.08890 0.66400 0.00600
H 	H 	0.46070 0.06600 0.65700 0.00600
C 	C 	0.50500 0.13110 0.62680 -0.10400
H 	H 	0.48380 0.13660 0.59430 0.04700
C 	C 	0.51460 0.03330 0.75040 0.23000
C 	C 	0.47100 0.99470 0.74050 -0.23000
H 	H 	0.44840 0.00070 0.70890 0.08400
C 	C 	0.45910 0.94930 0.77330 0.06100
C 	C 	0.41320 0.91220 0.75990 0.43800
C 	C 	0.37070 0.91940 0.80400 -0.77700
H 	H 	0.38810 0.91510 0.84030 0.25300
H 	H 	0.34170 0.89150 0.79950 0.23700
H 	H 	0.35440 0.95630 0.80120 0.23800
C 	C 	0.43820 0.85250 0.76170 -0.70700
H 	H 	0.45410 0.84560 0.79830 0.22900
H 	H 	0.46700 0.84900 0.73360 0.21300
H 	H 	0.40890 0.82540 0.75440 0.20700
C 	C 	0.38740 0.92460 0.70280 -0.70900
H 	H 	0.36210 0.89470 0.69260 0.20300
H 	H 	0.41680 0.92760 0.67510 0.20900
H 	H 	0.36700 0.95960 0.70460 0.20700
O 	O 	0.60570 0.43980 0.41420 -0.33500
O 	O 	0.62520 0.38490 0.51142 -0.38400
O 	O 	0.54380 0.03327 0.79210 -0.38800
O 	O 	0.48470 0.93959 0.81810 -0.34700
Cu	Cu	0.65056 0.45256 0.47829 0.91700
C 	C 	0.14710 0.49730 0.93900 -0.97000
H 	H 	0.12400 0.48610 0.97030 0.30100
H 	H 	0.13010 0.52900 0.92030 0.27100
H 	H 	0.18390 0.50770 0.95250 0.29000
C 	C 	0.17040 0.46770 0.84150 -0.95700
H 	H 	0.15620 0.50470 0.83330 0.27500
H 	H 	0.15590 0.44140 0.81450 0.28400
H 	H 	0.21080 0.46810 0.83960 0.28300
C 	C 	0.19360 0.41410 0.92330 -1.03100
H 	H 	0.22850 0.43430 0.92740 0.30500
H 	H 	0.19920 0.38230 0.89890 0.30800
H 	H 	0.18110 0.40120 0.95950 0.32900
C 	C 	0.15220 0.45050 0.89960 0.69200
C 	C 	0.09700 0.42130 0.89550 -0.02500
C 	C 	0.06040 0.42460 0.85100 -0.21300
H 	H 	0.07380 0.44310 0.81910 0.07000
C 	C 	0.00880 0.40490 0.84760 0.22900
C 	C 	0.97380 0.41580 0.80130 -0.09800
C 	C 	0.91980 0.40040 0.80310 0.00100
H 	H 	0.90610 0.38040 0.83390 0.02600
C 	C 	0.88420 0.41410 0.75900 -0.09100
H 	H 	0.84620 0.40570 0.76350 0.03700
C 	C 	0.89970 0.43840 0.71030 0.00900
C 	C 	0.95610 0.45210 0.71090 -0.09100
H 	H 	0.97050 0.46920 0.67860 0.04300
C 	C 	0.99260 0.44310 0.75370 -0.00700
H 	H 	0.02980 0.45520 0.75110 0.00300
C 	C 	0.86110 0.44950 0.66520 0.03700
C 	C 	0.81450 0.42520 0.66110 -0.10500
H 	H 	0.80360 0.40090 0.68990 0.04500
C 	C 	0.77900 0.43240 0.61710 0.00500
H 	H 	0.74840 0.40850 0.61180 0.02800
C 	C 	0.78960 0.47660 0.57990 -0.08900
C 	C 	0.83600 0.50810 0.58890 0.00700
H 	H 	0.84300 0.53930 0.56600 0.00600
C 	C 	0.87320 0.49500 0.63110 -0.10400
H 	H 	0.90570 0.51620 0.63660 0.04700
C 	C 	0.74960 0.48540 0.53330 0.23200
C 	C 	0.75950 0.52900 0.49470 -0.23200
H 	H 	0.79110 0.55160 0.50070 0.08500
C 	C 	0.72670 0.54090 0.44930 0.06200
C 	C 	0.74010 0.58680 0.41220 0.43700
C 	C 	0.69600 0.62930 0.41940 -0.77600
H 	H 	0.65970 0.61190 0.41510 0.25200
H 	H 	0.70050 0.65830 0.39150 0.23600
H 	H 	0.69880 0.64560 0.45630 0.23800
C 	C 	0.73830 0.56180 0.35250 -0.70600
H 	H 	0.70170 0.54590 0.34560 0.22800
H 	H 	0.76640 0.53300 0.34900 0.21200
H 	H 	0.74560 0.59110 0.32540 0.20600
C 	C 	0.79720 0.61260 0.42460 -0.70900
H 	H 	0.80740 0.63790 0.39470 0.20200
H 	H 	0.82490 0.58320 0.42760 0.20900
H 	H 	0.79540 0.63300 0.45960 0.20700
O 	O 	0.08580 0.39430 0.93980 -0.33500
O 	O 	0.98858 0.37480 0.88490 -0.38300
O 	O 	0.70790 0.45620 0.53327 -0.38800
O 	O 	0.68190 0.51530 0.43959 -0.34800
Cu	Cu	0.02171 0.34944 0.95256 0.91600
C 	C 	0.93900 0.14710 0.49730 -0.97000
H 	H 	0.97030 0.12400 0.48610 0.30100
H 	H 	0.92030 0.13010 0.52900 0.27100
H 	H 	0.95250 0.18390 0.50770 0.29000
C 	C 	0.84150 0.17040 0.46770 -0.95700
H 	H 	0.83330 0.15620 0.50470 0.27500
H 	H 	0.81450 0.15590 0.44140 0.28400
H 	H 	0.83960 0.21080 0.46810 0.28300
C 	C 	0.92330 0.19360 0.41410 -1.03100
H 	H 	0.92740 0.22850 0.43430 0.30500
H 	H 	0.89890 0.19920 0.38230 0.30800
H 	H 	0.95950 0.18110 0.40120 0.32900
C 	C 	0.89960 0.15220 0.45050 0.69200
C 	C 	0.89550 0.09700 0.42130 -0.02500
C 	C 	0.85100 0.06040 0.42460 -0.21300
H 	H 	0.81910 0.07380 0.44310 0.07000
C 	C 	0.84760 0.00880 0.40490 0.22900
C 	C 	0.80130 0.97380 0.41580 -0.09800
C 	C 	0.80310 0.91980 0.40040 0.00100
H 	H 	0.83390 0.90610 0.38040 0.02600
C 	C 	0.75900 0.88420 0.41410 -0.09100
H 	H 	0.76350 0.84620 0.40570 0.03700
C 	C 	0.71030 0.89970 0.43840 0.00900
C 	C 	0.71090 0.95610 0.45210 -0.09100
H 	H 	0.67860 0.97050 0.46920 0.04300
C 	C 	0.75370 0.99260 0.44310 -0.00700
H 	H 	0.75110 0.02980 0.45520 0.00300
C 	C 	0.66520 0.86110 0.44950 0.03700
C 	C 	0.66110 0.81450 0.42520 -0.10500
H 	H 	0.68990 0.80360 0.40090 0.04500
C 	C 	0.61710 0.77900 0.43240 0.00500
H 	H 	0.61180 0.74840 0.40850 0.02800
C 	C 	0.57990 0.78960 0.47660 -0.08900
C 	C 	0.58890 0.83600 0.50810 0.00700
H 	H 	0.56600 0.84300 0.53930 0.00600
C 	C 	0.63110 0.87320 0.49500 -0.10400
H 	H 	0.63660 0.90570 0.51620 0.04700
C 	C 	0.53330 0.74960 0.48540 0.23200
C 	C 	0.49470 0.75950 0.52900 -0.23200
H 	H 	0.50070 0.79110 0.55160 0.08500
C 	C 	0.44930 0.72670 0.54090 0.06200
C 	C 	0.41220 0.74010 0.58680 0.43700
C 	C 	0.41940 0.69600 0.62930 -0.77600
H 	H 	0.41510 0.65970 0.61190 0.25200
H 	H 	0.39150 0.70050 0.65830 0.23600
H 	H 	0.45630 0.69880 0.64560 0.23800
C 	C 	0.35250 0.73830 0.56180 -0.70600
H 	H 	0.34560 0.70170 0.54590 0.22800
H 	H 	0.34900 0.76640 0.53300 0.21200
H 	H 	0.32540 0.74560 0.59110 0.20600
C 	C 	0.42460 0.79720 0.61260 -0.70900
H 	H 	0.39470 0.80740 0.63790 0.20200
H 	H 	0.42760 0.82490 0.58320 0.20900
H 	H 	0.45960 0.79540 0.63300 0.20700
O 	O 	0.93980 0.08580 0.39430 -0.33500
O 	O 	0.88490 0.98858 0.37480 -0.38300
O 	O 	0.53327 0.70790 0.45620 -0.38800
O 	O 	0.43959 0.68190 0.51530 -0.34800
Cu	Cu	0.95256 0.02171 0.34944 0.91600
C 	C 	0.99730 0.56100 0.85290 -0.95700
H 	H 	0.98610 0.52970 0.87600 0.29800
H 	H 	0.02900 0.57970 0.86990 0.26700
H 	H 	0.00770 0.54750 0.81610 0.28500
C 	C 	0.96770 0.65850 0.82960 -0.94600
H 	H 	0.00470 0.66670 0.84380 0.27100
H 	H 	0.94140 0.68550 0.84410 0.28100
H 	H 	0.96810 0.66040 0.78920 0.28000
C 	C 	0.91410 0.57670 0.80640 -1.02400
H 	H 	0.93430 0.57260 0.77150 0.30300
H 	H 	0.88230 0.60110 0.80080 0.30600
H 	H 	0.90120 0.54050 0.81890 0.32800
C 	C 	0.95050 0.60040 0.84780 0.68400
C 	C 	0.92130 0.60450 0.90300 -0.02100
C 	C 	0.92460 0.64900 0.93960 -0.21700
H 	H 	0.94310 0.68090 0.92620 0.07200
C 	C 	0.90490 0.65240 0.99120 0.23600
C 	C 	0.91580 0.69870 0.02620 -0.10100
C 	C 	0.90040 0.69690 0.08020 0.00200
H 	H 	0.88040 0.66610 0.09390 0.02600
C 	C 	0.91410 0.74100 0.11580 -0.09100
H 	H 	0.90570 0.73650 0.15380 0.03700
C 	C 	0.93840 0.78970 0.10030 0.00900
C 	C 	0.95210 0.78910 0.04390 -0.08900
H 	H 	0.96920 0.82140 0.02950 0.04200
C 	C 	0.94310 0.74630 0.00740 -0.01000
H 	H 	0.95520 0.74890 0.97020 0.00600
C 	C 	0.94950 0.83480 0.13890 0.03600
C 	C 	0.92520 0.83890 0.18550 -0.10400
H 	H 	0.90090 0.81010 0.19640 0.04500
C 	C 	0.93240 0.88290 0.22100 0.00300
H 	H 	0.90850 0.88820 0.25160 0.02900
C 	C 	0.97660 0.92010 0.21040 -0.08700
C 	C 	0.00810 0.91110 0.16400 0.00400
H 	H 	0.03930 0.93400 0.15700 0.00600
C 	C 	0.99500 0.86890 0.12680 -0.10200
H 	H 	0.01620 0.86340 0.09430 0.04600
C 	C 	0.98540 0.96670 0.25040 0.22800
C 	C 	0.02900 0.00530 0.24050 -0.22500
H 	H 	0.05160 0.99930 0.20890 0.08100
C 	C 	0.04090 0.05070 0.27330 0.05900
C 	C 	0.08680 0.08780 0.25990 0.44000
C 	C 	0.12930 0.08060 0.30400 -0.77900
H 	H 	0.11190 0.08490 0.34030 0.25300
H 	H 	0.15830 0.10850 0.29950 0.23700
H 	H 	0.14560 0.04370 0.30120 0.23900
C 	C 	0.06180 0.14750 0.26170 -0.70800
H 	H 	0.04590 0.15440 0.29830 0.22900
H 	H 	0.03300 0.15100 0.23360 0.21300
H 	H 	0.09110 0.17460 0.25440 0.20700
C 	C 	0.11260 0.07540 0.20280 -0.71100
H 	H 	0.13790 0.10530 0.19260 0.20300
H 	H 	0.08320 0.07240 0.17510 0.21000
H 	H 	0.13300 0.04040 0.20460 0.20800
O 	O 	0.89430 0.56020 0.91420 -0.33500
O 	O 	0.87480 0.61510 0.01142 -0.38600
O 	O 	0.95620 0.96673 0.29210 -0.38700
O 	O 	0.01530 0.06041 0.31810 -0.34600
Cu	Cu	0.84944 0.54744 0.97829 0.91800
C 	C 	0.35290 0.50270 0.43900 -0.97100
H 	H 	0.37600 0.51390 0.47030 0.30100
H 	H 	0.36990 0.47100 0.42030 0.27100
H 	H 	0.31610 0.49230 0.45250 0.29000
C 	C 	0.32960 0.53230 0.34150 -0.95700
H 	H 	0.34380 0.49530 0.33330 0.27500
H 	H 	0.34410 0.55860 0.31450 0.28400
H 	H 	0.28920 0.53190 0.33960 0.28300
C 	C 	0.30640 0.58590 0.42330 -1.03200
H 	H 	0.27150 0.56570 0.42740 0.30500
H 	H 	0.30080 0.61770 0.39890 0.30800
H 	H 	0.31890 0.59880 0.45950 0.33000
C 	C 	0.34780 0.54950 0.39960 0.69300
C 	C 	0.40300 0.57870 0.39550 -0.02500
C 	C 	0.43960 0.57540 0.35100 -0.21400
H 	H 	0.42620 0.55690 0.31910 0.07000
C 	C 	0.49120 0.59510 0.34760 0.23100
C 	C 	0.52620 0.58420 0.30130 -0.09900
C 	C 	0.58020 0.59960 0.30310 0.00100
H 	H 	0.59390 0.61960 0.33390 0.02600
C 	C 	0.61580 0.58590 0.25900 -0.09100
H 	H 	0.65380 0.59430 0.26350 0.03700
C 	C 	0.60030 0.56160 0.21030 0.00900
C 	C 	0.54390 0.54790 0.21090 -0.09000
H 	H 	0.52950 0.53080 0.17860 0.04300
C 	C 	0.50740 0.55690 0.25370 -0.00700
H 	H 	0.47020 0.54480 0.25110 0.00300
C 	C 	0.63890 0.55050 0.16520 0.03700
C 	C 	0.68550 0.57480 0.16110 -0.10500
H 	H 	0.69640 0.59910 0.18990 0.04500
C 	C 	0.72100 0.56760 0.11710 0.00400
H 	H 	0.75160 0.59150 0.11180 0.02800
C 	C 	0.71040 0.52340 0.07990 -0.08800
C 	C 	0.66400 0.49190 0.08890 0.00600
H 	H 	0.65700 0.46070 0.06600 0.00600
C 	C 	0.62680 0.50500 0.13110 -0.10400
H 	H 	0.59430 0.48380 0.13660 0.04700
C 	C 	0.75040 0.51460 0.03330 0.23000
C 	C 	0.74050 0.47100 0.99470 -0.23000
H 	H 	0.70890 0.44840 0.00070 0.08400
C 	C 	0.77330 0.45910 0.94930 0.06100
C 	C 	0.75990 0.41320 0.91220 0.43800
C 	C 	0.80400 0.37070 0.91940 -0.77700
H 	H 	0.84030 0.38810 0.91510 0.25300
H 	H 	0.79950 0.34170 0.89150 0.23700
H 	H 	0.80120 0.35440 0.95630 0.23800
C 	C 	0.76170 0.43820 0.85250 -0.70700
H 	H 	0.79830 0.45410 0.84560 0.22900
H 	H 	0.73360 0.46700 0.84900 0.21300
H 	H 	0.75440 0.40890 0.82540 0.20700
C 	C 	0.70280 0.38740 0.92460 -0.70900
H 	H 	0.69260 0.36210 0.89470 0.20300
H 	H 	0.67510 0.41680 0.92760 0.20900
H 	H 	0.70460 0.36700 0.95960 0.20700
O 	O 	0.41420 0.60570 0.43980 -0.33500
O 	O 	0.51142 0.62520 0.38490 -0.38400
O 	O 	0.79210 0.54380 0.03327 -0.38800
O 	O 	0.81810 0.48470 0.93959 -0.34700
Cu	Cu	0.47829 0.65056 0.45256 0.91700
