data_crystal

_cell_length_a 5.38810
_cell_length_b 14.11750
_cell_length_c 11.40980
_cell_angle_alpha 90.00000
_cell_angle_beta  101.18700
_cell_angle_gamma 90.00000

_symmetry_space_group_name_	'P 1'
_symmetry_space_group_name_H-M	'P 1'

loop_
_symmetry_equiv_pos_as_xyz
  x,y,z

loop_
_atom_site_label
_atom_site_type_symbol
_atom_site_fract_x
_atom_site_fract_y
_atom_site_fract_z
_atom_site_charge
O 	O 	0.84160 0.43920 0.92720 -0.43000
O 	O 	0.44040 0.39530 0.91360 -0.38900
C 	C 	0.68970 0.30660 0.80610 -0.06100
C 	C 	0.65360 0.38670 0.89020 0.37100
N 	N 	0.72210 0.16420 0.63830 -0.16500
C 	C 	0.55020 0.16090 0.70830 0.03400
H 	H 	0.43780 0.10840 0.70030 0.01600
C 	C 	0.87650 0.30820 0.73870 -0.05200
H 	H 	0.99950 0.35720 0.74940 0.05700
C 	C 	0.88250 0.23710 0.65500 0.03700
H 	H 	0.00790 0.24060 0.60690 0.02100
C 	C 	0.52720 0.22970 0.79180 -0.04900
H 	H 	0.40080 0.22430 0.83890 0.05500
Li	Li	0.20520 0.43660 0.00350 0.55600
O 	O 	0.65840 0.93920 0.57280 -0.43000
O 	O 	0.05960 0.89530 0.58640 -0.38800
C 	C 	0.81030 0.80660 0.69390 -0.06100
C 	C 	0.84640 0.88670 0.60980 0.36900
N 	N 	0.77790 0.66420 0.86170 -0.16400
C 	C 	0.94980 0.66090 0.79170 0.03300
H 	H 	0.06220 0.60840 0.79970 0.01700
C 	C 	0.62350 0.80820 0.76130 -0.05200
H 	H 	0.50050 0.85720 0.75060 0.05700
C 	C 	0.61750 0.73710 0.84500 0.03500
H 	H 	0.49210 0.74060 0.89310 0.02200
C 	C 	0.97280 0.72970 0.70820 -0.05100
H 	H 	0.09920 0.72430 0.66110 0.05600
Li	Li	0.29480 0.93660 0.49650 0.55600
O 	O 	0.15840 0.56080 0.07280 -0.43000
O 	O 	0.55960 0.60470 0.08640 -0.38900
C 	C 	0.31030 0.69340 0.19390 -0.06100
C 	C 	0.34640 0.61330 0.10980 0.37100
N 	N 	0.27790 0.83580 0.36170 -0.16500
C 	C 	0.44980 0.83910 0.29170 0.03400
H 	H 	0.56220 0.89160 0.29970 0.01600
C 	C 	0.12350 0.69180 0.26130 -0.05200
H 	H 	0.00050 0.64280 0.25060 0.05700
C 	C 	0.11750 0.76290 0.34500 0.03700
H 	H 	0.99210 0.75940 0.39310 0.02100
C 	C 	0.47280 0.77030 0.20820 -0.04900
H 	H 	0.59920 0.77570 0.16110 0.05500
Li	Li	0.79480 0.56340 0.99650 0.55600
O 	O 	0.34160 0.06080 0.42720 -0.43000
O 	O 	0.94040 0.10470 0.41360 -0.38800
C 	C 	0.18970 0.19340 0.30610 -0.06100
C 	C 	0.15360 0.11330 0.39020 0.36900
N 	N 	0.22210 0.33580 0.13830 -0.16400
C 	C 	0.05020 0.33910 0.20830 0.03300
H 	H 	0.93780 0.39160 0.20030 0.01700
C 	C 	0.37650 0.19180 0.23870 -0.05200
H 	H 	0.49950 0.14280 0.24940 0.05700
C 	C 	0.38250 0.26290 0.15500 0.03500
H 	H 	0.50790 0.25940 0.10690 0.02200
C 	C 	0.02720 0.27030 0.29180 -0.05100
H 	H 	0.90080 0.27570 0.33890 0.05600
Li	Li	0.70520 0.06340 0.50350 0.55600
