data_crystal

_cell_length_a 10.24020
_cell_length_b 9.50230
_cell_length_c 15.29120
_cell_angle_alpha 90.00000
_cell_angle_beta  98.32800
_cell_angle_gamma 90.00000

_symmetry_space_group_name_	'P 1'
_symmetry_space_group_name_H-M	'P 1'

loop_
_symmetry_equiv_pos_as_xyz
  x,y,z

loop_
_atom_site_label
_atom_site_type_symbol
_atom_site_fract_x
_atom_site_fract_y
_atom_site_fract_z
_atom_site_charge
O 	O 	0.83500 0.07300 0.57340 -0.43900
O 	O 	0.67320 0.87740 0.48430 -0.44600
O 	O 	0.03480 0.16570 0.56980 -0.39100
N 	N 	0.88010 0.43080 0.81840 -0.16400
C 	C 	0.92800 0.15790 0.59940 0.35900
O 	O 	0.46420 0.81190 0.44470 -0.38100
N 	N 	0.70720 0.36340 0.41560 -0.12000
C 	C 	0.90800 0.25640 0.67370 -0.06400
C 	C 	0.62930 0.63870 0.44420 -0.06200
C 	C 	0.78660 0.33870 0.78630 0.02800
H 	H 	0.70940 0.33290 0.81390 0.01900
C 	C 	0.79610 0.25180 0.71550 -0.04200
H 	H 	0.72620 0.18880 0.69510 0.04400
C 	C 	0.00600 0.35200 0.70690 -0.05200
H 	H 	0.08480 0.35890 0.68120 0.05600
C 	C 	0.54010 0.54040 0.40190 -0.04600
H 	H 	0.45100 0.56620 0.38230 0.06000
C 	C 	0.58450 0.78790 0.45860 0.36500
C 	C 	0.75760 0.59500 0.47220 -0.04900
H 	H 	0.82110 0.65810 0.50180 0.05500
C 	C 	0.79100 0.45720 0.45600 0.03400
H 	H 	0.87930 0.42820 0.47490 0.02600
C 	C 	0.98760 0.43660 0.77760 0.03300
H 	H 	0.05470 0.50240 0.79840 0.01200
C 	C 	0.58310 0.40570 0.38900 0.03200
H 	H 	0.52180 0.33980 0.35990 0.03000
Li	Li	0.64910 0.03200 0.56490 0.55500
Li	Li	0.83860 0.96130 0.46470 0.55200
O 	O 	0.66500 0.57300 0.92660 -0.44000
O 	O 	0.82680 0.37740 0.01570 -0.44700
O 	O 	0.46520 0.66570 0.93020 -0.39200
N 	N 	0.61990 0.93080 0.68160 -0.16500
C 	C 	0.57200 0.65790 0.90060 0.35900
O 	O 	0.03580 0.31190 0.05530 -0.38100
N 	N 	0.79280 0.86340 0.08440 -0.12100
C 	C 	0.59200 0.75640 0.82630 -0.06400
C 	C 	0.87070 0.13870 0.05580 -0.06400
C 	C 	0.71340 0.83870 0.71370 0.02900
H 	H 	0.79060 0.83290 0.68610 0.01900
C 	C 	0.70390 0.75180 0.78450 -0.04200
H 	H 	0.77380 0.68880 0.80490 0.04500
C 	C 	0.49400 0.85200 0.79310 -0.05200
H 	H 	0.41520 0.85890 0.81880 0.05600
C 	C 	0.95990 0.04040 0.09810 -0.04500
H 	H 	0.04900 0.06620 0.11770 0.06100
C 	C 	0.91550 0.28790 0.04140 0.36500
C 	C 	0.74240 0.09500 0.02780 -0.04400
H 	H 	0.67890 0.15810 0.99820 0.05200
C 	C 	0.70900 0.95720 0.04400 0.03100
H 	H 	0.62070 0.92820 0.02510 0.02700
C 	C 	0.51240 0.93660 0.72240 0.03400
H 	H 	0.44530 0.00240 0.70160 0.01100
C 	C 	0.91690 0.90570 0.11100 0.03100
H 	H 	0.97820 0.83980 0.14010 0.03000
Li	Li	0.85090 0.53200 0.93510 0.55500
Li	Li	0.66140 0.46130 0.03530 0.55200
O 	O 	0.16500 0.92700 0.42660 -0.44000
O 	O 	0.32680 0.12260 0.51570 -0.44700
O 	O 	0.96520 0.83430 0.43020 -0.39200
N 	N 	0.11990 0.56920 0.18160 -0.16500
C 	C 	0.07200 0.84210 0.40060 0.35800
O 	O 	0.53580 0.18810 0.55530 -0.38200
N 	N 	0.29280 0.63660 0.58440 -0.12100
C 	C 	0.09200 0.74360 0.32630 -0.06500
C 	C 	0.37070 0.36130 0.55580 -0.06200
C 	C 	0.21340 0.66130 0.21370 0.02800
H 	H 	0.29060 0.66710 0.18610 0.01900
C 	C 	0.20390 0.74820 0.28450 -0.04200
H 	H 	0.27380 0.81120 0.30490 0.04400
C 	C 	0.99400 0.64800 0.29310 -0.05200
H 	H 	0.91520 0.64110 0.31880 0.05600
C 	C 	0.45990 0.45960 0.59810 -0.04600
H 	H 	0.54900 0.43380 0.61770 0.06000
C 	C 	0.41550 0.21210 0.54140 0.36500
C 	C 	0.24240 0.40500 0.52780 -0.04900
H 	H 	0.17890 0.34190 0.49820 0.05500
C 	C 	0.20900 0.54280 0.54400 0.03400
H 	H 	0.12070 0.57180 0.52510 0.02600
C 	C 	0.01240 0.56340 0.22240 0.03300
H 	H 	0.94530 0.49760 0.20160 0.01200
C 	C 	0.41690 0.59430 0.61100 0.03200
H 	H 	0.47820 0.66020 0.64010 0.03000
Li	Li	0.35090 0.96800 0.43510 0.55500
Li	Li	0.16140 0.03870 0.53530 0.55200
O 	O 	0.33500 0.42700 0.07340 -0.44000
O 	O 	0.17320 0.62260 0.98430 -0.44700
O 	O 	0.53480 0.33430 0.06980 -0.39200
N 	N 	0.38010 0.06920 0.31840 -0.16500
C 	C 	0.42800 0.34210 0.09940 0.35900
O 	O 	0.96420 0.68810 0.94470 -0.38100
N 	N 	0.20720 0.13660 0.91560 -0.12100
C 	C 	0.40800 0.24360 0.17370 -0.06400
C 	C 	0.12930 0.86130 0.94420 -0.06400
C 	C 	0.28660 0.16130 0.28630 0.02900
H 	H 	0.20940 0.16710 0.31390 0.01900
C 	C 	0.29610 0.24820 0.21550 -0.04200
H 	H 	0.22620 0.31120 0.19510 0.04500
C 	C 	0.50600 0.14800 0.20690 -0.05200
H 	H 	0.58480 0.14110 0.18120 0.05600
C 	C 	0.04010 0.95960 0.90190 -0.04500
H 	H 	0.95100 0.93380 0.88230 0.06100
C 	C 	0.08450 0.71210 0.95860 0.36500
C 	C 	0.25760 0.90500 0.97220 -0.04400
H 	H 	0.32110 0.84190 0.00180 0.05200
C 	C 	0.29100 0.04280 0.95600 0.03100
H 	H 	0.37930 0.07180 0.97490 0.02700
C 	C 	0.48760 0.06340 0.27760 0.03400
H 	H 	0.55470 0.99760 0.29840 0.01100
C 	C 	0.08310 0.09430 0.88900 0.03100
H 	H 	0.02180 0.16020 0.85990 0.03000
Li	Li	0.14910 0.46800 0.06490 0.55500
Li	Li	0.33860 0.53870 0.96470 0.55200
