data_crystal

_cell_length_a 10.41750
_cell_length_b 9.59220
_cell_length_c 15.28770
_cell_angle_alpha 90.00000
_cell_angle_beta  97.47900
_cell_angle_gamma 90.00000

_symmetry_space_group_name_	'P 1'
_symmetry_space_group_name_H-M	'P 1'

loop_
_symmetry_equiv_pos_as_xyz
  x,y,z

loop_
_atom_site_label
_atom_site_type_symbol
_atom_site_fract_x
_atom_site_fract_y
_atom_site_fract_z
_atom_site_charge
O 	O 	0.33254 0.92285 0.07269 -0.44000
O 	O 	0.17441 0.11756 0.98319 -0.44500
O 	O 	0.53378 0.84439 0.07241 -0.39300
O 	O 	0.96956 0.18233 0.94478 -0.38000
N 	N 	0.38107 0.56973 0.31779 -0.16700
C 	C 	0.42631 0.84473 0.09984 0.36300
N 	N 	0.20682 0.62977 0.91973 -0.12100
C 	C 	0.08768 0.20573 0.95850 0.36500
C 	C 	0.13106 0.35464 0.94530 -0.06300
C 	C 	0.04313 0.45330 0.90728 -0.04700
H 	H 	0.95530 0.42850 0.88950 0.06000
C 	C 	0.25720 0.39708 0.97184 -0.04800
H 	H 	0.31990 0.33330 0.99890 0.05300
C 	C 	0.40805 0.74445 0.17436 -0.06200
C 	C 	0.49284 0.58102 0.28552 0.03800
H 	H 	0.56460 0.52860 0.31250 0.00900
C 	C 	0.51019 0.66565 0.21418 -0.05400
H 	H 	0.59190 0.66920 0.19300 0.05600
C 	C 	0.08533 0.58803 0.89575 0.03300
H 	H 	0.02450 0.65430 0.86930 0.02900
Li	Li	0.14899 0.96770 0.06624 0.55500
C 	C 	0.28268 0.64510 0.27831 0.03100
H 	H 	0.20160 0.63820 0.30020 0.01800
C 	C 	0.29002 0.53523 0.95802 0.03100
H 	H 	0.37650 0.56390 0.97690 0.02700
Li	Li	0.33903 0.03320 0.96390 0.55200
C 	C 	0.29123 0.73300 0.20738 -0.04500
H 	H 	0.21790 0.78450 0.18190 0.04600
O 	O 	0.16746 0.42285 0.42731 -0.44100
O 	O 	0.32559 0.61756 0.51681 -0.44600
O 	O 	0.96622 0.34439 0.42759 -0.39400
O 	O 	0.53044 0.68233 0.55522 -0.38200
N 	N 	0.11893 0.06973 0.18221 -0.16600
C 	C 	0.07369 0.34473 0.40016 0.36300
N 	N 	0.29318 0.12977 0.58027 -0.12000
C 	C 	0.41232 0.70573 0.54150 0.36700
C 	C 	0.36894 0.85464 0.55470 -0.06500
C 	C 	0.45687 0.95330 0.59272 -0.04400
H 	H 	0.54470 0.92850 0.61050 0.05900
C 	C 	0.24280 0.89708 0.52816 -0.04600
H 	H 	0.18010 0.83330 0.50110 0.05300
C 	C 	0.09195 0.24445 0.32564 -0.06300
C 	C 	0.00716 0.08102 0.21448 0.03600
H 	H 	0.93540 0.02860 0.18750 0.01100
C 	C 	0.98981 0.16565 0.28582 -0.05200
H 	H 	0.90810 0.16920 0.30700 0.05500
C 	C 	0.41467 0.08803 0.60425 0.03100
H 	H 	0.47550 0.15430 0.63070 0.03000
Li	Li	0.35101 0.46770 0.43376 0.55500
C 	C 	0.21732 0.14510 0.22169 0.03100
H 	H 	0.29840 0.13820 0.19980 0.01900
C 	C 	0.20998 0.03523 0.54198 0.03000
H 	H 	0.12350 0.06390 0.52310 0.02700
Li	Li	0.16097 0.53320 0.53610 0.55200
C 	C 	0.20877 0.23300 0.29262 -0.04500
H 	H 	0.28210 0.28450 0.31810 0.04600
O 	O 	0.66746 0.07715 0.92731 -0.44100
O 	O 	0.82559 0.88244 0.01681 -0.44600
O 	O 	0.46622 0.15561 0.92759 -0.39400
O 	O 	0.03044 0.81767 0.05522 -0.38100
N 	N 	0.61893 0.43027 0.68221 -0.16700
C 	C 	0.57369 0.15527 0.90016 0.36300
N 	N 	0.79318 0.37023 0.08027 -0.12100
C 	C 	0.91232 0.79427 0.04150 0.36500
C 	C 	0.86894 0.64536 0.05470 -0.06300
C 	C 	0.95687 0.54670 0.09272 -0.04700
H 	H 	0.04470 0.57150 0.11050 0.06000
C 	C 	0.74280 0.60292 0.02816 -0.04800
H 	H 	0.68010 0.66670 0.00110 0.05300
C 	C 	0.59195 0.25555 0.82564 -0.06200
C 	C 	0.50716 0.41898 0.71448 0.03800
H 	H 	0.43540 0.47140 0.68750 0.00900
C 	C 	0.48981 0.33435 0.78582 -0.05400
H 	H 	0.40810 0.33080 0.80700 0.05600
C 	C 	0.91467 0.41197 0.10425 0.03300
H 	H 	0.97550 0.34570 0.13070 0.02900
Li	Li	0.85101 0.03230 0.93376 0.55500
C 	C 	0.71732 0.35490 0.72169 0.03100
H 	H 	0.79840 0.36180 0.69980 0.01800
C 	C 	0.70998 0.46477 0.04198 0.03100
H 	H 	0.62350 0.43610 0.02310 0.02700
Li	Li	0.66097 0.96680 0.03610 0.55200
C 	C 	0.70877 0.26700 0.79262 -0.04500
H 	H 	0.78210 0.21550 0.81810 0.04600
O 	O 	0.83254 0.57715 0.57269 -0.44100
O 	O 	0.67441 0.38244 0.48319 -0.44600
O 	O 	0.03378 0.65561 0.57241 -0.39400
O 	O 	0.46956 0.31767 0.44478 -0.38200
N 	N 	0.88107 0.93027 0.81779 -0.16600
C 	C 	0.92631 0.65527 0.59984 0.36300
N 	N 	0.70682 0.87023 0.41973 -0.12000
C 	C 	0.58768 0.29427 0.45850 0.36700
C 	C 	0.63106 0.14536 0.44530 -0.06500
C 	C 	0.54313 0.04670 0.40728 -0.04400
H 	H 	0.45530 0.07150 0.38950 0.05900
C 	C 	0.75720 0.10292 0.47184 -0.04600
H 	H 	0.81990 0.16670 0.49890 0.05300
C 	C 	0.90805 0.75555 0.67436 -0.06300
C 	C 	0.99284 0.91898 0.78552 0.03600
H 	H 	0.06460 0.97140 0.81250 0.01100
C 	C 	0.01019 0.83435 0.71418 -0.05200
H 	H 	0.09190 0.83080 0.69300 0.05500
C 	C 	0.58533 0.91197 0.39575 0.03100
H 	H 	0.52450 0.84570 0.36930 0.03000
Li	Li	0.64899 0.53230 0.56624 0.55500
C 	C 	0.78268 0.85490 0.77831 0.03100
H 	H 	0.70160 0.86180 0.80020 0.01900
C 	C 	0.79002 0.96477 0.45802 0.03000
H 	H 	0.87650 0.93610 0.47690 0.02700
Li	Li	0.83903 0.46680 0.46390 0.55200
C 	C 	0.79123 0.76700 0.70738 -0.04500
H 	H 	0.71790 0.71550 0.68190 0.04600
