data_crystal

_cell_length_a 5.20380
_cell_length_b 14.51600
_cell_length_c 10.29500
_cell_angle_alpha 90.00000
_cell_angle_beta  96.14000
_cell_angle_gamma 90.00000

_symmetry_space_group_name_	'P 1'
_symmetry_space_group_name_H-M	'P 1'

loop_
_symmetry_equiv_pos_as_xyz
  x,y,z

loop_
_atom_site_label
_atom_site_type_symbol
_atom_site_fract_x
_atom_site_fract_y
_atom_site_fract_z
_atom_site_charge
O 	O 	0.38700 0.04630 0.59410 -0.42800
O 	O 	0.00400 0.11530 0.58390 -0.39000
N 	N 	0.56400 0.32800 0.87090 -0.15700
C 	C 	0.67900 0.24760 0.86950 0.03300
H 	H 	0.83370 0.23770 0.92570 0.02600
C 	C 	0.34100 0.18800 0.70860 -0.08200
C 	C 	0.22500 0.11130 0.62440 0.37500
C 	C 	0.23100 0.27010 0.71010 -0.02000
H 	H 	0.07990 0.28140 0.65180 0.04800
C 	C 	0.57900 0.17560 0.78680 -0.04000
H 	H 	0.67120 0.11930 0.78360 0.05100
C 	C 	0.32700 0.34150 0.79440 0.00800
H 	H 	0.23420 0.39750 0.79940 0.02300
Li	Li	0.68500 0.43430 0.99800 0.55600
O 	O 	0.61300 0.54630 0.90590 -0.42900
O 	O 	0.99600 0.61530 0.91610 -0.39200
N 	N 	0.43600 0.82800 0.62910 -0.15800
C 	C 	0.32100 0.74760 0.63050 0.03300
H 	H 	0.16630 0.73770 0.57430 0.02500
C 	C 	0.65900 0.68800 0.79140 -0.08200
C 	C 	0.77500 0.61130 0.87560 0.37500
C 	C 	0.76900 0.77010 0.78990 -0.02000
H 	H 	0.92010 0.78140 0.84820 0.04800
C 	C 	0.42100 0.67560 0.71320 -0.04000
H 	H 	0.32880 0.61930 0.71640 0.05100
C 	C 	0.67300 0.84150 0.70560 0.00800
H 	H 	0.76580 0.89750 0.70060 0.02300
Li	Li	0.31500 0.93430 0.50200 0.55600
O 	O 	0.61300 0.95370 0.40590 -0.42900
O 	O 	0.99600 0.88470 0.41610 -0.39100
N 	N 	0.43600 0.67200 0.12910 -0.15700
C 	C 	0.32100 0.75240 0.13050 0.03300
H 	H 	0.16630 0.76230 0.07430 0.02600
C 	C 	0.65900 0.81200 0.29140 -0.08200
C 	C 	0.77500 0.88870 0.37560 0.37500
C 	C 	0.76900 0.72990 0.28990 -0.02000
H 	H 	0.92010 0.71860 0.34820 0.04800
C 	C 	0.42100 0.82440 0.21320 -0.04000
H 	H 	0.32880 0.88070 0.21640 0.05100
C 	C 	0.67300 0.65850 0.20560 0.00800
H 	H 	0.76580 0.60250 0.20060 0.02300
Li	Li	0.31500 0.56570 0.00200 0.55600
O 	O 	0.38700 0.45370 0.09410 -0.42900
O 	O 	0.00400 0.38470 0.08390 -0.39200
N 	N 	0.56400 0.17200 0.37090 -0.15800
C 	C 	0.67900 0.25240 0.36950 0.03300
H 	H 	0.83370 0.26230 0.42570 0.02500
C 	C 	0.34100 0.31200 0.20860 -0.08200
C 	C 	0.22500 0.38870 0.12440 0.37500
C 	C 	0.23100 0.22990 0.21010 -0.02000
H 	H 	0.07990 0.21860 0.15180 0.04800
C 	C 	0.57900 0.32440 0.28680 -0.04000
H 	H 	0.67120 0.38070 0.28360 0.05100
C 	C 	0.32700 0.15850 0.29440 0.00800
H 	H 	0.23420 0.10250 0.29940 0.02300
Li	Li	0.68500 0.06570 0.49800 0.55600
