data_crystal

_cell_length_a 29.88600
_cell_length_b 28.35000
_cell_length_c 15.27190
_cell_angle_alpha 90.00000
_cell_angle_beta  90.00000
_cell_angle_gamma 90.00000

_symmetry_space_group_name_	'P 1'
_symmetry_space_group_name_H-M	'P 1'

loop_
_symmetry_equiv_pos_as_xyz
  x,y,z

loop_
_atom_site_label
_atom_site_type_symbol
_atom_site_fract_x
_atom_site_fract_y
_atom_site_fract_z
_atom_site_charge
Cu	Cu	0.81631 0.19553 0.94296 0.83000
Cu	Cu	0.18427 0.16410 0.86157 0.83100
Cu	Cu	0.36538 0.47827 0.62619 0.84700
N 	N 	0.88330 0.19130 0.92480 -0.25600
N 	N 	0.11760 0.16720 0.87920 -0.25400
N 	N 	0.21000 0.10230 0.89660 -0.25200
N 	N 	0.29040 0.86820 0.92740 -0.25700
N 	N 	0.21850 0.21400 0.80040 -0.26400
N 	N 	0.33130 0.41660 0.64270 -0.24700
N 	N 	0.32850 0.53510 0.59140 -0.24900
N 	N 	0.21800 0.74950 0.48190 -0.27100
N 	N 	0.42220 0.47690 0.54530 -0.24200
N 	N 	0.60110 0.50760 0.24270 -0.23400
C 	C 	0.90230 0.17700 0.84950 0.07600
H 	H 	0.88340 0.16930 0.80320 -0.02600
C 	C 	0.94770 0.17300 0.83640 -0.14700
H 	H 	0.95890 0.16380 0.78220 0.07200
C 	C 	0.97550 0.18250 0.90360 0.05700
C 	C 	0.95650 0.19690 0.98380 -0.14800
H 	H 	0.97460 0.20390 0.03160 0.07500
C 	C 	0.91060 0.20040 0.99010 0.07700
H 	H 	0.89830 0.20960 0.04340 -0.02900
C 	C 	0.09130 0.17260 0.80910 0.07400
H 	H 	0.10420 0.17230 0.75370 -0.02900
C 	C 	0.04580 0.17840 0.81640 -0.14400
H 	H 	0.02860 0.18280 0.76620 0.07200
C 	C 	0.02540 0.17780 0.89780 0.06300
C 	C 	0.05140 0.17080 0.96840 -0.15400
H 	H 	0.03870 0.16920 0.02400 0.07900
C 	C 	0.09660 0.16630 0.95770 0.07400
H 	H 	0.11410 0.16220 0.00760 -0.02000
C 	C 	0.18320 0.06880 0.93010 0.05200
H 	H 	0.15400 0.07680 0.94510 -0.01200
C 	C 	0.19800 0.02080 0.94380 -0.12500
H 	H 	0.18000 0.99830 0.97070 0.06700
C 	C 	0.24120 0.01030 0.91380 0.04300
C 	C 	0.26810 0.04500 0.88290 -0.14200
H 	H 	0.29760 0.03870 0.86780 0.07100
C 	C 	0.25090 0.08990 0.87410 0.08100
H 	H 	0.26940 0.11300 0.85080 -0.02600
C 	C 	0.24710 0.87700 0.92790 0.09300
H 	H 	0.22720 0.85190 0.93160 -0.02700
C 	C 	0.23040 0.92200 0.92330 -0.16100
H 	H 	0.19960 0.92670 0.92340 0.07800
C 	C 	0.25820 0.95950 0.91850 0.07100
C 	C 	0.30310 0.95160 0.92160 -0.15700
H 	H 	0.32310 0.97670 0.92050 0.06900
C 	C 	0.31820 0.90660 0.92630 0.07100
H 	H 	0.34890 0.90150 0.92890 -0.02300
C 	C 	0.26220 0.21890 0.80540 0.07800
H 	H 	0.27820 0.19530 0.83390 -0.02400
C 	C 	0.28580 0.25640 0.77140 -0.15200
H 	H 	0.31690 0.25740 0.77560 0.07300
C 	C 	0.26290 0.29240 0.73130 0.04900
C 	C 	0.21610 0.28840 0.72950 -0.15900
H 	H 	0.19880 0.31250 0.70620 0.07000
C 	C 	0.19640 0.24930 0.76180 0.05600
H 	H 	0.16550 0.24670 0.75690 -0.02800
C 	C 	0.35210 0.37600 0.65200 0.06800
H 	H 	0.38250 0.37470 0.63940 -0.02500
C 	C 	0.33130 0.33540 0.67940 -0.16500
H 	H 	0.34770 0.30760 0.68470 0.07000
C 	C 	0.28620 0.33560 0.69910 0.04400
C 	C 	0.26410 0.37780 0.68640 -0.14700
H 	H 	0.23360 0.37990 0.69750 0.07100
C 	C 	0.28670 0.41630 0.65780 0.06700
H 	H 	0.27070 0.44400 0.64810 -0.01500
C 	C 	0.34500 0.56660 0.53570 0.06800
H 	H 	0.37200 0.55950 0.50820 -0.01900
C 	C 	0.32460 0.60940 0.51570 -0.14300
H 	H 	0.33930 0.63090 0.47980 0.06800
C 	C 	0.28360 0.62020 0.54790 0.04900
C 	C 	0.26710 0.58840 0.60480 -0.14700
H 	H 	0.24020 0.59490 0.63300 0.07100
C 	C 	0.28920 0.54560 0.62300 0.08000
H 	H 	0.27510 0.52380 0.65920 -0.01900
C 	C 	0.26110 0.74540 0.47350 0.08600
H 	H 	0.27760 0.77110 0.45370 -0.02600
C 	C 	0.28350 0.70330 0.49350 -0.15900
H 	H 	0.31420 0.70110 0.48420 0.07400
C 	C 	0.26080 0.66550 0.52640 0.06500
C 	C 	0.21700 0.67060 0.53630 -0.16800
H 	H 	0.20010 0.64630 0.56040 0.07500
C 	C 	0.19630 0.71280 0.51010 0.05700
H 	H 	0.16520 0.71450 0.51310 -0.04400
C 	C 	0.43240 0.44510 0.48700 0.09900
H 	H 	0.41520 0.41780 0.48610 -0.02600
C 	C 	0.46630 0.44850 0.42690 -0.16200
H 	H 	0.47010 0.42530 0.38460 0.08400
C 	C 	0.49460 0.48670 0.42990 0.06900
C 	C 	0.48630 0.51890 0.49400 -0.15300
H 	H 	0.50570 0.54420 0.50140 0.07600
C 	C 	0.45010 0.51470 0.54700 0.07900
H 	H 	0.44420 0.53890 0.58650 -0.02100
C 	C 	0.58640 0.46330 0.26250 0.06600
H 	H 	0.59980 0.43750 0.23530 -0.02200
C 	C 	0.55210 0.45540 0.32230 -0.13500
H 	H 	0.54240 0.42480 0.33330 0.07400
C 	C 	0.53220 0.49260 0.36540 0.04800
C 	C 	0.54890 0.53700 0.34630 -0.14100
H 	H 	0.53700 0.56320 0.37430 0.07100
C 	C 	0.58250 0.54270 0.28740 0.07700
H 	H 	0.59310 0.57310 0.27770 -0.01900
Cu	Cu	0.18369 0.80447 0.44296 0.83200
Cu	Cu	0.81573 0.83590 0.36157 0.83300
Cu	Cu	0.63462 0.52173 0.12619 0.84900
N 	N 	0.11670 0.80870 0.42480 -0.25600
N 	N 	0.88240 0.83280 0.37920 -0.25300
N 	N 	0.79000 0.89770 0.39660 -0.25100
N 	N 	0.70960 0.13180 0.42740 -0.25600
N 	N 	0.78150 0.78600 0.30040 -0.26200
N 	N 	0.66870 0.58340 0.14270 -0.24700
N 	N 	0.67150 0.46490 0.09140 -0.24600
N 	N 	0.78200 0.25050 0.98190 -0.27600
N 	N 	0.57780 0.52310 0.04530 -0.24300
N 	N 	0.39890 0.49240 0.74270 -0.23300
C 	C 	0.09770 0.82300 0.34950 0.07700
H 	H 	0.11660 0.83070 0.30320 -0.02600
C 	C 	0.05230 0.82700 0.33640 -0.14700
H 	H 	0.04110 0.83620 0.28220 0.07300
C 	C 	0.02450 0.81750 0.40360 0.05700
C 	C 	0.04350 0.80310 0.48380 -0.14400
H 	H 	0.02540 0.79610 0.53160 0.07200
C 	C 	0.08940 0.79960 0.49010 0.08200
H 	H 	0.10170 0.79040 0.54340 -0.03300
C 	C 	0.90870 0.82740 0.30910 0.07300
H 	H 	0.89580 0.82770 0.25370 -0.02800
C 	C 	0.95420 0.82160 0.31640 -0.14300
H 	H 	0.97140 0.81720 0.26620 0.07200
C 	C 	0.97460 0.82220 0.39780 0.06100
C 	C 	0.94860 0.82920 0.46840 -0.14900
H 	H 	0.96130 0.83080 0.52400 0.07400
C 	C 	0.90340 0.83370 0.45770 0.07800
H 	H 	0.88590 0.83780 0.50760 -0.02400
C 	C 	0.81680 0.93120 0.43010 0.05200
H 	H 	0.84600 0.92320 0.44510 -0.01200
C 	C 	0.80200 0.97920 0.44380 -0.12500
H 	H 	0.82000 0.00170 0.47070 0.06800
C 	C 	0.75880 0.98970 0.41380 0.04300
C 	C 	0.73190 0.95500 0.38290 -0.14200
H 	H 	0.70240 0.96130 0.36780 0.07200
C 	C 	0.74910 0.91010 0.37410 0.08100
H 	H 	0.73060 0.88700 0.35080 -0.02600
C 	C 	0.75290 0.12300 0.42790 0.09400
H 	H 	0.77280 0.14810 0.43160 -0.02700
C 	C 	0.76960 0.07800 0.42330 -0.16100
H 	H 	0.80040 0.07330 0.42340 0.07900
C 	C 	0.74180 0.04050 0.41850 0.07100
C 	C 	0.69690 0.04840 0.42160 -0.15700
H 	H 	0.67690 0.02330 0.42050 0.07000
C 	C 	0.68180 0.09340 0.42630 0.07200
H 	H 	0.65110 0.09850 0.42890 -0.02200
C 	C 	0.73780 0.78110 0.30540 0.07900
H 	H 	0.72180 0.80470 0.33390 -0.02300
C 	C 	0.71420 0.74360 0.27140 -0.15200
H 	H 	0.68310 0.74260 0.27560 0.07300
C 	C 	0.73710 0.70760 0.23130 0.05000
C 	C 	0.78390 0.71160 0.22950 -0.15900
H 	H 	0.80120 0.68750 0.20620 0.07000
C 	C 	0.80360 0.75070 0.26180 0.05600
H 	H 	0.83450 0.75330 0.25690 -0.02800
C 	C 	0.64790 0.62400 0.15200 0.06800
H 	H 	0.61750 0.62530 0.13940 -0.02400
C 	C 	0.66870 0.66460 0.17940 -0.16500
H 	H 	0.65230 0.69240 0.18470 0.07000
C 	C 	0.71380 0.66440 0.19910 0.04400
C 	C 	0.73590 0.62220 0.18640 -0.14600
H 	H 	0.76640 0.62010 0.19750 0.07200
C 	C 	0.71330 0.58370 0.15780 0.06800
H 	H 	0.72930 0.55600 0.14810 -0.01400
C 	C 	0.65500 0.43340 0.03570 0.06100
H 	H 	0.62800 0.44050 0.00820 -0.01600
C 	C 	0.67540 0.39060 0.01570 -0.12800
H 	H 	0.66070 0.36910 0.97980 0.06000
C 	C 	0.71640 0.37980 0.04790 0.03800
C 	C 	0.73290 0.41160 0.10480 -0.13900
H 	H 	0.75980 0.40510 0.13300 0.06900
C 	C 	0.71080 0.45440 0.12300 0.07600
H 	H 	0.72490 0.47620 0.15920 -0.01700
C 	C 	0.73890 0.25460 0.97350 0.09200
H 	H 	0.72240 0.22890 0.95370 -0.02900
C 	C 	0.71650 0.29670 0.99350 -0.17200
H 	H 	0.68580 0.29890 0.98420 0.07700
C 	C 	0.73920 0.33450 0.02640 0.07900
C 	C 	0.78300 0.32940 0.03630 -0.17800
H 	H 	0.79990 0.35370 0.06040 0.07900
C 	C 	0.80370 0.28720 0.01010 0.06700
H 	H 	0.83480 0.28550 0.01310 -0.04600
C 	C 	0.56760 0.55490 0.98700 0.09800
H 	H 	0.58480 0.58220 0.98610 -0.02600
C 	C 	0.53370 0.55150 0.92690 -0.16700
H 	H 	0.52990 0.57470 0.88460 0.08600
C 	C 	0.50540 0.51330 0.92990 0.07800
C 	C 	0.51370 0.48110 0.99400 -0.17400
H 	H 	0.49430 0.45580 0.00140 0.08600
C 	C 	0.54990 0.48530 0.04700 0.09400
H 	H 	0.55580 0.46110 0.08650 -0.02500
C 	C 	0.41360 0.53670 0.76250 0.06400
H 	H 	0.40020 0.56250 0.73530 -0.02200
C 	C 	0.44790 0.54460 0.82230 -0.13200
H 	H 	0.45760 0.57520 0.83330 0.07200
C 	C 	0.46780 0.50740 0.86540 0.04300
C 	C 	0.45110 0.46300 0.84630 -0.13800
H 	H 	0.46300 0.43680 0.87430 0.06900
C 	C 	0.41750 0.45730 0.78740 0.07400
H 	H 	0.40690 0.42690 0.77770 -0.01900
Cu	Cu	0.31631 0.80447 0.94296 0.83100
Cu	Cu	0.68427 0.83590 0.86157 0.83200
Cu	Cu	0.86538 0.52173 0.62619 0.84800
N 	N 	0.38330 0.80870 0.92480 -0.25500
N 	N 	0.61760 0.83280 0.87920 -0.25300
N 	N 	0.71000 0.89770 0.89660 -0.25100
N 	N 	0.79040 0.13180 0.92740 -0.25600
N 	N 	0.71850 0.78600 0.80040 -0.26300
N 	N 	0.83130 0.58340 0.64270 -0.24700
N 	N 	0.82850 0.46490 0.59140 -0.24900
N 	N 	0.71800 0.25050 0.48190 -0.27100
N 	N 	0.92220 0.52310 0.54530 -0.24200
N 	N 	0.10110 0.49240 0.24270 -0.23400
C 	C 	0.40230 0.82300 0.84950 0.07700
H 	H 	0.38340 0.83070 0.80320 -0.02600
C 	C 	0.44770 0.82700 0.83640 -0.14800
H 	H 	0.45890 0.83620 0.78220 0.07200
C 	C 	0.47550 0.81750 0.90360 0.05800
C 	C 	0.45650 0.80310 0.98380 -0.14800
H 	H 	0.47460 0.79610 0.03160 0.07600
C 	C 	0.41060 0.79960 0.99010 0.07800
H 	H 	0.39830 0.79040 0.04340 -0.02900
C 	C 	0.59130 0.82740 0.80910 0.07300
H 	H 	0.60420 0.82770 0.75370 -0.02900
C 	C 	0.54580 0.82160 0.81640 -0.14300
H 	H 	0.52860 0.81720 0.76620 0.07200
C 	C 	0.52540 0.82220 0.89780 0.06200
C 	C 	0.55140 0.82920 0.96840 -0.15400
H 	H 	0.53870 0.83080 0.02400 0.07800
C 	C 	0.59660 0.83370 0.95770 0.07400
H 	H 	0.61410 0.83780 0.00760 -0.02000
C 	C 	0.68320 0.93120 0.93010 0.05200
H 	H 	0.65400 0.92320 0.94510 -0.01200
C 	C 	0.69800 0.97920 0.94380 -0.12500
H 	H 	0.68000 0.00170 0.97070 0.06700
C 	C 	0.74120 0.98970 0.91380 0.04300
C 	C 	0.76810 0.95500 0.88290 -0.14200
H 	H 	0.79760 0.96130 0.86780 0.07200
C 	C 	0.75090 0.91010 0.87410 0.08100
H 	H 	0.76940 0.88700 0.85080 -0.02600
C 	C 	0.74710 0.12300 0.92790 0.09300
H 	H 	0.72720 0.14810 0.93160 -0.02700
C 	C 	0.73040 0.07800 0.92330 -0.16100
H 	H 	0.69960 0.07330 0.92340 0.07800
C 	C 	0.75820 0.04050 0.91850 0.07100
C 	C 	0.80310 0.04840 0.92160 -0.15700
H 	H 	0.82310 0.02330 0.92050 0.06900
C 	C 	0.81820 0.09340 0.92630 0.07100
H 	H 	0.84890 0.09850 0.92890 -0.02300
C 	C 	0.76220 0.78110 0.80540 0.07800
H 	H 	0.77820 0.80470 0.83390 -0.02400
C 	C 	0.78580 0.74360 0.77140 -0.15200
H 	H 	0.81690 0.74260 0.77560 0.07300
C 	C 	0.76290 0.70760 0.73130 0.04900
C 	C 	0.71610 0.71160 0.72950 -0.15900
H 	H 	0.69880 0.68750 0.70620 0.07000
C 	C 	0.69640 0.75070 0.76180 0.05600
H 	H 	0.66550 0.75330 0.75690 -0.02800
C 	C 	0.85210 0.62400 0.65200 0.06800
H 	H 	0.88250 0.62530 0.63940 -0.02500
C 	C 	0.83130 0.66460 0.67940 -0.16500
H 	H 	0.84770 0.69240 0.68470 0.07000
C 	C 	0.78620 0.66440 0.69910 0.04400
C 	C 	0.76410 0.62220 0.68640 -0.14700
H 	H 	0.73360 0.62010 0.69750 0.07100
C 	C 	0.78670 0.58370 0.65780 0.06700
H 	H 	0.77070 0.55600 0.64810 -0.01500
C 	C 	0.84500 0.43340 0.53570 0.06800
H 	H 	0.87200 0.44050 0.50820 -0.01900
C 	C 	0.82460 0.39060 0.51570 -0.14300
H 	H 	0.83930 0.36910 0.47980 0.06800
C 	C 	0.78360 0.37980 0.54790 0.04900
C 	C 	0.76710 0.41160 0.60480 -0.14700
H 	H 	0.74020 0.40510 0.63300 0.07100
C 	C 	0.78920 0.45440 0.62300 0.08000
H 	H 	0.77510 0.47620 0.65920 -0.01900
C 	C 	0.76110 0.25460 0.47350 0.08600
H 	H 	0.77760 0.22890 0.45370 -0.02600
C 	C 	0.78350 0.29670 0.49350 -0.15900
H 	H 	0.81420 0.29890 0.48420 0.07400
C 	C 	0.76080 0.33450 0.52640 0.06500
C 	C 	0.71700 0.32940 0.53630 -0.16800
H 	H 	0.70010 0.35370 0.56040 0.07500
C 	C 	0.69630 0.28720 0.51010 0.05700
H 	H 	0.66520 0.28550 0.51310 -0.04400
C 	C 	0.93240 0.55490 0.48700 0.09900
H 	H 	0.91520 0.58220 0.48610 -0.02600
C 	C 	0.96630 0.55150 0.42690 -0.16200
H 	H 	0.97010 0.57470 0.38460 0.08400
C 	C 	0.99460 0.51330 0.42990 0.06900
C 	C 	0.98630 0.48110 0.49400 -0.15400
H 	H 	0.00570 0.45580 0.50140 0.07600
C 	C 	0.95010 0.48530 0.54700 0.08000
H 	H 	0.94420 0.46110 0.58650 -0.02100
C 	C 	0.08640 0.53670 0.26250 0.06600
H 	H 	0.09980 0.56250 0.23530 -0.02200
C 	C 	0.05210 0.54460 0.32230 -0.13600
H 	H 	0.04240 0.57520 0.33330 0.07400
C 	C 	0.03220 0.50740 0.36540 0.04900
C 	C 	0.04890 0.46300 0.34630 -0.14100
H 	H 	0.03700 0.43680 0.37430 0.07100
C 	C 	0.08250 0.45730 0.28740 0.07700
H 	H 	0.09310 0.42690 0.27770 -0.01900
Cu	Cu	0.68369 0.19553 0.44296 0.83200
Cu	Cu	0.31573 0.16410 0.36157 0.83300
Cu	Cu	0.13462 0.47827 0.12619 0.84900
N 	N 	0.61670 0.19130 0.42480 -0.25600
N 	N 	0.38240 0.16720 0.37920 -0.25300
N 	N 	0.29000 0.10230 0.39660 -0.25100
N 	N 	0.20960 0.86820 0.42740 -0.25600
N 	N 	0.28150 0.21400 0.30040 -0.26200
N 	N 	0.16870 0.41660 0.14270 -0.24700
N 	N 	0.17150 0.53510 0.09140 -0.24600
N 	N 	0.28200 0.74950 0.98190 -0.27600
N 	N 	0.07780 0.47690 0.04530 -0.24300
N 	N 	0.89890 0.50760 0.74270 -0.23300
C 	C 	0.59770 0.17700 0.34950 0.07700
H 	H 	0.61660 0.16930 0.30320 -0.02600
C 	C 	0.55230 0.17300 0.33640 -0.14700
H 	H 	0.54110 0.16380 0.28220 0.07300
C 	C 	0.52450 0.18250 0.40360 0.05800
C 	C 	0.54350 0.19690 0.48380 -0.14400
H 	H 	0.52540 0.20390 0.53160 0.07200
C 	C 	0.58940 0.20040 0.49010 0.08200
H 	H 	0.60170 0.20960 0.54340 -0.03300
C 	C 	0.40870 0.17260 0.30910 0.07300
H 	H 	0.39580 0.17230 0.25370 -0.02800
C 	C 	0.45420 0.17840 0.31640 -0.14300
H 	H 	0.47140 0.18280 0.26620 0.07200
C 	C 	0.47460 0.17780 0.39780 0.06100
C 	C 	0.44860 0.17080 0.46840 -0.14900
H 	H 	0.46130 0.16920 0.52400 0.07400
C 	C 	0.40340 0.16630 0.45770 0.07700
H 	H 	0.38590 0.16220 0.50760 -0.02400
C 	C 	0.31680 0.06880 0.43010 0.05200
H 	H 	0.34600 0.07680 0.44510 -0.01200
C 	C 	0.30200 0.02080 0.44380 -0.12500
H 	H 	0.32000 0.99830 0.47070 0.06800
C 	C 	0.25880 0.01030 0.41380 0.04300
C 	C 	0.23190 0.04500 0.38290 -0.14200
H 	H 	0.20240 0.03870 0.36780 0.07200
C 	C 	0.24910 0.08990 0.37410 0.08100
H 	H 	0.23060 0.11300 0.35080 -0.02600
C 	C 	0.25290 0.87700 0.42790 0.09400
H 	H 	0.27280 0.85190 0.43160 -0.02700
C 	C 	0.26960 0.92200 0.42330 -0.16100
H 	H 	0.30040 0.92670 0.42340 0.07900
C 	C 	0.24180 0.95950 0.41850 0.07100
C 	C 	0.19690 0.95160 0.42160 -0.15700
H 	H 	0.17690 0.97670 0.42050 0.07000
C 	C 	0.18180 0.90660 0.42630 0.07200
H 	H 	0.15110 0.90150 0.42890 -0.02200
C 	C 	0.23780 0.21890 0.30540 0.07900
H 	H 	0.22180 0.19530 0.33390 -0.02300
C 	C 	0.21420 0.25640 0.27140 -0.15200
H 	H 	0.18310 0.25740 0.27560 0.07300
C 	C 	0.23710 0.29240 0.23130 0.05000
C 	C 	0.28390 0.28840 0.22950 -0.15900
H 	H 	0.30120 0.31250 0.20620 0.07000
C 	C 	0.30360 0.24930 0.26180 0.05600
H 	H 	0.33450 0.24670 0.25690 -0.02800
C 	C 	0.14790 0.37600 0.15200 0.06800
H 	H 	0.11750 0.37470 0.13940 -0.02400
C 	C 	0.16870 0.33540 0.17940 -0.16500
H 	H 	0.15230 0.30760 0.18470 0.07000
C 	C 	0.21380 0.33560 0.19910 0.04400
C 	C 	0.23590 0.37780 0.18640 -0.14600
H 	H 	0.26640 0.37990 0.19750 0.07200
C 	C 	0.21330 0.41630 0.15780 0.06800
H 	H 	0.22930 0.44400 0.14810 -0.01400
C 	C 	0.15500 0.56660 0.03570 0.06100
H 	H 	0.12800 0.55950 0.00820 -0.01600
C 	C 	0.17540 0.60940 0.01570 -0.12800
H 	H 	0.16070 0.63090 0.97980 0.06000
C 	C 	0.21640 0.62020 0.04790 0.03800
C 	C 	0.23290 0.58840 0.10480 -0.13900
H 	H 	0.25980 0.59490 0.13300 0.06900
C 	C 	0.21080 0.54560 0.12300 0.07600
H 	H 	0.22490 0.52380 0.15920 -0.01700
C 	C 	0.23890 0.74540 0.97350 0.09200
H 	H 	0.22240 0.77110 0.95370 -0.02900
C 	C 	0.21650 0.70330 0.99350 -0.17200
H 	H 	0.18580 0.70110 0.98420 0.07700
C 	C 	0.23920 0.66550 0.02640 0.07900
C 	C 	0.28300 0.67060 0.03630 -0.17800
H 	H 	0.29990 0.64630 0.06040 0.07900
C 	C 	0.30370 0.71280 0.01010 0.06700
H 	H 	0.33480 0.71450 0.01310 -0.04600
C 	C 	0.06760 0.44510 0.98700 0.09800
H 	H 	0.08480 0.41780 0.98610 -0.02600
C 	C 	0.03370 0.44850 0.92690 -0.16700
H 	H 	0.02990 0.42530 0.88460 0.08600
C 	C 	0.00540 0.48670 0.92990 0.07800
C 	C 	0.01370 0.51890 0.99400 -0.17400
H 	H 	0.99430 0.54420 0.00140 0.08600
C 	C 	0.04990 0.51470 0.04700 0.09300
H 	H 	0.05580 0.53890 0.08650 -0.02500
C 	C 	0.91360 0.46330 0.76250 0.06400
H 	H 	0.90020 0.43750 0.73530 -0.02200
C 	C 	0.94790 0.45540 0.82230 -0.13200
H 	H 	0.95760 0.42480 0.83330 0.07200
C 	C 	0.96780 0.49260 0.86540 0.04300
C 	C 	0.95110 0.53700 0.84630 -0.13800
H 	H 	0.96300 0.56320 0.87430 0.06900
C 	C 	0.91750 0.54270 0.78740 0.07400
H 	H 	0.90690 0.57310 0.77770 -0.01900
Cu	Cu	0.67043 0.33158 0.32050 0.82900
Cu	Cu	0.30652 0.31330 0.45730 0.83600
Cu	Cu	0.13396 0.98442 0.65799 0.84700
N 	N 	0.60560 0.32520 0.35150 -0.25300
N 	N 	0.37200 0.31010 0.43090 -0.25100
N 	N 	0.28120 0.37570 0.42990 -0.26300
N 	N 	0.19590 0.60470 0.34920 -0.25500
N 	N 	0.27410 0.25990 0.50690 -0.25600
N 	N 	0.16810 0.04570 0.62880 -0.24400
N 	N 	0.10490 0.99270 0.78090 -0.23500
N 	N 	0.92330 0.01350 0.07980 -0.23500
N 	N 	0.16890 0.92310 0.65460 -0.24200
N 	N 	0.29370 0.71930 0.76460 -0.27400
C 	C 	0.57680 0.31600 0.28580 0.05800
H 	H 	0.58790 0.31400 0.22890 -0.02700
C 	C 	0.53070 0.30930 0.29970 -0.13100
H 	H 	0.51240 0.30000 0.25360 0.06800
C 	C 	0.51260 0.31660 0.38250 0.05100
C 	C 	0.54220 0.32820 0.44860 -0.14000
H 	H 	0.53180 0.33270 0.50530 0.07200
C 	C 	0.58680 0.33300 0.43090 0.07200
H 	H 	0.60550 0.34230 0.47640 -0.02100
C 	C 	0.38880 0.32330 0.35140 0.06100
H 	H 	0.36890 0.33170 0.30740 -0.02100
C 	C 	0.43410 0.32460 0.33320 -0.13400
H 	H 	0.44390 0.33340 0.27780 0.06900
C 	C 	0.46460 0.31300 0.39710 0.05100
C 	C 	0.44770 0.29830 0.47820 -0.13400
H 	H 	0.46720 0.28960 0.52290 0.07000
C 	C 	0.40260 0.29680 0.49150 0.06700
H 	H 	0.39220 0.28590 0.54530 -0.02300
C 	C 	0.30710 0.41380 0.41870 0.09400
H 	H 	0.33780 0.40950 0.42450 -0.03700
C 	C 	0.29320 0.45670 0.40030 -0.17300
H 	H 	0.31350 0.48040 0.38670 0.07800
C 	C 	0.24630 0.46600 0.40170 0.07200
C 	C 	0.21920 0.43010 0.41990 -0.16500
H 	H 	0.18840 0.43440 0.42230 0.08000
C 	C 	0.23780 0.38650 0.43510 0.09100
H 	H 	0.21830 0.36230 0.45040 -0.02700
C 	C 	0.17090 0.57200 0.39280 0.06200
H 	H 	0.14190 0.58010 0.40930 -0.01400
C 	C 	0.18600 0.52770 0.41360 -0.13300
H 	H 	0.16850 0.50700 0.44600 0.07100
C 	C 	0.22890 0.51450 0.38450 0.04800
C 	C 	0.25380 0.54870 0.34600 -0.14900
H 	H 	0.28360 0.54280 0.33240 0.07500
C 	C 	0.23560 0.59200 0.32660 0.09500
H 	H 	0.25310 0.61340 0.29540 -0.03100
C 	C 	0.22880 0.25390 0.50110 0.06100
H 	H 	0.21180 0.27830 0.47740 -0.01600
C 	C 	0.20750 0.21430 0.52800 -0.13400
H 	H 	0.17640 0.21260 0.52470 0.06600
C 	C 	0.23130 0.17620 0.56030 0.03700
C 	C 	0.27650 0.18170 0.56880 -0.14400
H 	H 	0.29370 0.15800 0.59430 0.06400
C 	C 	0.29720 0.22400 0.53800 0.03300
H 	H 	0.32830 0.22630 0.54000 -0.03100
C 	C 	0.14990 0.07600 0.57140 0.07300
H 	H 	0.12300 0.06790 0.54480 -0.01900
C 	C 	0.16910 0.11820 0.55040 -0.15400
H 	H 	0.15470 0.13880 0.51230 0.07400
C 	C 	0.20970 0.13030 0.58550 0.06500
C 	C 	0.22810 0.10020 0.64280 -0.16500
H 	H 	0.25540 0.10750 0.66870 0.07400
C 	C 	0.20700 0.05860 0.66360 0.08000
H 	H 	0.22060 0.03850 0.70370 -0.02000
C 	C 	0.09050 0.03500 0.80470 0.07700
H 	H 	0.10360 0.06160 0.78030 -0.02600
C 	C 	0.05640 0.04040 0.86490 -0.14300
H 	H 	0.04640 0.07060 0.87840 0.07900
C 	C 	0.03650 0.00130 0.90630 0.05500
C 	C 	0.05350 0.95720 0.88280 -0.13800
H 	H 	0.04270 0.92990 0.90930 0.06900
C 	C 	0.08620 0.95460 0.82050 0.06500
H 	H 	0.09640 0.92490 0.80420 -0.01700
C 	C 	0.93230 0.04520 0.01860 0.08500
H 	H 	0.91360 0.07150 0.01660 -0.02200
C 	C 	0.96580 0.04350 0.95840 -0.14300
H 	H 	0.96790 0.06590 0.91400 0.07700
C 	C 	0.99810 0.00550 0.96590 0.04100
C 	C 	0.99100 0.97400 0.03190 -0.12000
H 	H 	0.01130 0.94940 0.04010 0.06500
C 	C 	0.95430 0.97770 0.08710 0.05600
H 	H 	0.95040 0.95520 0.13070 -0.00900
C 	C 	0.14910 0.88150 0.65850 0.06000
H 	H 	0.11830 0.87980 0.65060 -0.02000
C 	C 	0.17290 0.83990 0.67400 -0.13900
H 	H 	0.15760 0.81140 0.67680 0.05700
C 	C 	0.21950 0.84060 0.68550 0.01800
C 	C 	0.24000 0.88530 0.67870 -0.12200
H 	H 	0.27070 0.88850 0.68560 0.06400
C 	C 	0.21370 0.92390 0.66170 0.06200
H 	H 	0.22800 0.95280 0.65450 -0.01400
C 	C 	0.24940 0.72070 0.76600 0.09400
H 	H 	0.23440 0.69430 0.78700 -0.02900
C 	C 	0.22440 0.75790 0.73890 -0.17800
H 	H 	0.19330 0.75570 0.73950 0.08100
C 	C 	0.24370 0.79750 0.71150 0.07700
C 	C 	0.29020 0.79640 0.70940 -0.18600
H 	H 	0.30610 0.82260 0.69020 0.07900
C 	C 	0.31270 0.75670 0.73560 0.08100
H 	H 	0.34380 0.75690 0.73210 -0.04200
Cu	Cu	0.32957 0.66842 0.82050 0.82900
Cu	Cu	0.69348 0.68670 0.95730 0.83500
Cu	Cu	0.86604 0.01558 0.15799 0.84700
N 	N 	0.39440 0.67480 0.85150 -0.25400
N 	N 	0.62800 0.68990 0.93090 -0.25000
N 	N 	0.71880 0.62430 0.92990 -0.26300
N 	N 	0.80410 0.39530 0.84920 -0.25500
N 	N 	0.72590 0.74010 0.00690 -0.25600
N 	N 	0.83190 0.95430 0.12880 -0.24300
N 	N 	0.89510 0.00730 0.28090 -0.23500
N 	N 	0.07670 0.98650 0.57980 -0.23400
N 	N 	0.83110 0.07690 0.15460 -0.24200
N 	N 	0.70630 0.28070 0.26460 -0.27400
C 	C 	0.42320 0.68400 0.78580 0.06000
H 	H 	0.41210 0.68600 0.72890 -0.02800
C 	C 	0.46930 0.69070 0.79970 -0.13300
H 	H 	0.48760 0.70000 0.75360 0.06900
C 	C 	0.48740 0.68340 0.88250 0.05500
C 	C 	0.45780 0.67180 0.94860 -0.15100
H 	H 	0.46820 0.66730 0.00530 0.07900
C 	C 	0.41320 0.66700 0.93090 0.07700
H 	H 	0.39450 0.65770 0.97640 -0.02400
C 	C 	0.61120 0.67670 0.85140 0.06100
H 	H 	0.63110 0.66830 0.80740 -0.02100
C 	C 	0.56590 0.67540 0.83320 -0.13400
H 	H 	0.55610 0.66660 0.77780 0.06800
C 	C 	0.53540 0.68700 0.89710 0.05000
C 	C 	0.55230 0.70170 0.97820 -0.13700
H 	H 	0.53280 0.71040 0.02290 0.07300
C 	C 	0.59740 0.70320 0.99150 0.06200
H 	H 	0.60780 0.71410 0.04530 -0.01900
C 	C 	0.69290 0.58620 0.91870 0.09300
H 	H 	0.66220 0.59050 0.92450 -0.03700
C 	C 	0.70680 0.54330 0.90030 -0.17400
H 	H 	0.68650 0.51960 0.88670 0.07700
C 	C 	0.75370 0.53400 0.90170 0.07100
C 	C 	0.78080 0.56990 0.91990 -0.16500
H 	H 	0.81160 0.56560 0.92230 0.08000
C 	C 	0.76220 0.61350 0.93510 0.09100
H 	H 	0.78170 0.63770 0.95040 -0.02700
C 	C 	0.82910 0.42800 0.89280 0.06100
H 	H 	0.85810 0.41990 0.90930 -0.01400
C 	C 	0.81400 0.47230 0.91360 -0.13300
H 	H 	0.83150 0.49300 0.94600 0.07000
C 	C 	0.77110 0.48550 0.88450 0.04700
C 	C 	0.74620 0.45130 0.84600 -0.14900
H 	H 	0.71640 0.45720 0.83240 0.07400
C 	C 	0.76440 0.40800 0.82660 0.09400
H 	H 	0.74690 0.38660 0.79540 -0.03100
C 	C 	0.77120 0.74610 0.00110 0.07100
H 	H 	0.78820 0.72170 0.97740 -0.02200
C 	C 	0.79250 0.78570 0.02800 -0.13900
H 	H 	0.82360 0.78740 0.02470 0.06900
C 	C 	0.76870 0.82380 0.06030 0.04100
C 	C 	0.72350 0.81830 0.06880 -0.14500
H 	H 	0.70630 0.84200 0.09430 0.06500
C 	C 	0.70280 0.77600 0.03800 0.03500
H 	H 	0.67170 0.77370 0.04000 -0.03000
C 	C 	0.85010 0.92400 0.07140 0.07300
H 	H 	0.87700 0.93210 0.04480 -0.01800
C 	C 	0.83090 0.88180 0.05040 -0.15200
H 	H 	0.84530 0.86120 0.01230 0.07400
C 	C 	0.79030 0.86970 0.08550 0.06400
C 	C 	0.77190 0.89980 0.14280 -0.16400
H 	H 	0.74460 0.89250 0.16870 0.07400
C 	C 	0.79300 0.94140 0.16360 0.08000
H 	H 	0.77940 0.96150 0.20370 -0.01900
C 	C 	0.90950 0.96500 0.30470 0.07700
H 	H 	0.89640 0.93840 0.28030 -0.02500
C 	C 	0.94360 0.95960 0.36490 -0.14200
H 	H 	0.95360 0.92940 0.37840 0.07900
C 	C 	0.96350 0.99870 0.40630 0.05400
C 	C 	0.94650 0.04280 0.38280 -0.13700
H 	H 	0.95730 0.07010 0.40930 0.07000
C 	C 	0.91380 0.04540 0.32050 0.06500
H 	H 	0.90360 0.07510 0.30420 -0.01600
C 	C 	0.06770 0.95480 0.51860 0.07900
H 	H 	0.08640 0.92850 0.51660 -0.02100
C 	C 	0.03420 0.95650 0.45840 -0.13800
H 	H 	0.03210 0.93410 0.41400 0.07600
C 	C 	0.00190 0.99450 0.46590 0.04500
C 	C 	0.00900 0.02600 0.53190 -0.12500
H 	H 	0.98870 0.05060 0.54010 0.06600
C 	C 	0.04570 0.02230 0.58710 0.05700
H 	H 	0.04960 0.04480 0.63070 -0.01000
C 	C 	0.85090 0.11850 0.15850 0.06000
H 	H 	0.88170 0.12020 0.15060 -0.02000
C 	C 	0.82710 0.16010 0.17400 -0.13900
H 	H 	0.84240 0.18860 0.17680 0.05700
C 	C 	0.78050 0.15940 0.18550 0.01900
C 	C 	0.76000 0.11470 0.17870 -0.12200
H 	H 	0.72930 0.11150 0.18560 0.06500
C 	C 	0.78630 0.07610 0.16170 0.06200
H 	H 	0.77200 0.04720 0.15450 -0.01400
C 	C 	0.75060 0.27930 0.26600 0.09400
H 	H 	0.76560 0.30570 0.28700 -0.02900
C 	C 	0.77560 0.24210 0.23890 -0.17800
H 	H 	0.80670 0.24430 0.23950 0.08100
C 	C 	0.75630 0.20250 0.21150 0.07800
C 	C 	0.70980 0.20360 0.20940 -0.18600
H 	H 	0.69390 0.17740 0.19020 0.08000
C 	C 	0.68730 0.24330 0.23560 0.08100
H 	H 	0.65620 0.24310 0.23210 -0.04200
Cu	Cu	0.17043 0.66842 0.32050 0.82900
Cu	Cu	0.80652 0.68670 0.45730 0.83600
Cu	Cu	0.63396 0.01558 0.65799 0.84700
N 	N 	0.10560 0.67480 0.35150 -0.25300
N 	N 	0.87200 0.68990 0.43090 -0.25100
N 	N 	0.78120 0.62430 0.42990 -0.26300
N 	N 	0.69590 0.39530 0.34920 -0.25500
N 	N 	0.77410 0.74010 0.50690 -0.25600
N 	N 	0.66810 0.95430 0.62880 -0.24400
N 	N 	0.60490 0.00730 0.78090 -0.23500
N 	N 	0.42330 0.98650 0.07980 -0.23500
N 	N 	0.66890 0.07690 0.65460 -0.24200
N 	N 	0.79370 0.28070 0.76460 -0.27400
C 	C 	0.07680 0.68400 0.28580 0.05800
H 	H 	0.08790 0.68600 0.22890 -0.02700
C 	C 	0.03070 0.69070 0.29970 -0.13000
H 	H 	0.01240 0.70000 0.25360 0.06800
C 	C 	0.01260 0.68340 0.38250 0.05100
C 	C 	0.04220 0.67180 0.44860 -0.14000
H 	H 	0.03180 0.66730 0.50530 0.07200
C 	C 	0.08680 0.66700 0.43090 0.07200
H 	H 	0.10550 0.65770 0.47640 -0.02100
C 	C 	0.88880 0.67670 0.35140 0.06100
H 	H 	0.86890 0.66830 0.30740 -0.02100
C 	C 	0.93410 0.67540 0.33320 -0.13400
H 	H 	0.94390 0.66660 0.27780 0.06900
C 	C 	0.96460 0.68700 0.39710 0.05100
C 	C 	0.94770 0.70170 0.47820 -0.13400
H 	H 	0.96720 0.71040 0.52290 0.06900
C 	C 	0.90260 0.70320 0.49150 0.06700
H 	H 	0.89220 0.71410 0.54530 -0.02300
C 	C 	0.80710 0.58620 0.41870 0.09400
H 	H 	0.83780 0.59050 0.42450 -0.03700
C 	C 	0.79320 0.54330 0.40030 -0.17300
H 	H 	0.81350 0.51960 0.38670 0.07800
C 	C 	0.74630 0.53400 0.40170 0.07200
C 	C 	0.71920 0.56990 0.41990 -0.16500
H 	H 	0.68840 0.56560 0.42230 0.08000
C 	C 	0.73780 0.61350 0.43510 0.09100
H 	H 	0.71830 0.63770 0.45040 -0.02700
C 	C 	0.67090 0.42800 0.39280 0.06200
H 	H 	0.64190 0.41990 0.40930 -0.01400
C 	C 	0.68600 0.47230 0.41360 -0.13300
H 	H 	0.66850 0.49300 0.44600 0.07100
C 	C 	0.72890 0.48550 0.38450 0.04800
C 	C 	0.75380 0.45130 0.34600 -0.14900
H 	H 	0.78360 0.45720 0.33240 0.07500
C 	C 	0.73560 0.40800 0.32660 0.09500
H 	H 	0.75310 0.38660 0.29540 -0.03100
C 	C 	0.72880 0.74610 0.50110 0.06100
H 	H 	0.71180 0.72170 0.47740 -0.01600
C 	C 	0.70750 0.78570 0.52800 -0.13400
H 	H 	0.67640 0.78740 0.52470 0.06600
C 	C 	0.73130 0.82380 0.56030 0.03700
C 	C 	0.77650 0.81830 0.56880 -0.14400
H 	H 	0.79370 0.84200 0.59430 0.06400
C 	C 	0.79720 0.77600 0.53800 0.03300
H 	H 	0.82830 0.77370 0.54000 -0.03100
C 	C 	0.64990 0.92400 0.57140 0.07300
H 	H 	0.62300 0.93210 0.54480 -0.01900
C 	C 	0.66910 0.88180 0.55040 -0.15400
H 	H 	0.65470 0.86120 0.51230 0.07400
C 	C 	0.70970 0.86970 0.58550 0.06500
C 	C 	0.72810 0.89980 0.64280 -0.16500
H 	H 	0.75540 0.89250 0.66870 0.07500
C 	C 	0.70700 0.94140 0.66360 0.08000
H 	H 	0.72060 0.96150 0.70370 -0.02000
C 	C 	0.59050 0.96500 0.80470 0.07700
H 	H 	0.60360 0.93840 0.78030 -0.02500
C 	C 	0.55640 0.95960 0.86490 -0.14200
H 	H 	0.54640 0.92940 0.87840 0.07900
C 	C 	0.53650 0.99870 0.90630 0.05300
C 	C 	0.55350 0.04280 0.88280 -0.13700
H 	H 	0.54270 0.07010 0.90930 0.06900
C 	C 	0.58620 0.04540 0.82050 0.06500
H 	H 	0.59640 0.07510 0.80420 -0.01600
C 	C 	0.43230 0.95480 0.01860 0.08600
H 	H 	0.41360 0.92850 0.01660 -0.02200
C 	C 	0.46580 0.95650 0.95840 -0.14400
H 	H 	0.46790 0.93410 0.91400 0.07700
C 	C 	0.49810 0.99450 0.96590 0.04300
C 	C 	0.49100 0.02600 0.03190 -0.12200
H 	H 	0.51130 0.05060 0.04010 0.06600
C 	C 	0.45430 0.02230 0.08710 0.05600
H 	H 	0.45040 0.04480 0.13070 -0.01000
C 	C 	0.64910 0.11850 0.65850 0.06000
H 	H 	0.61830 0.12020 0.65060 -0.02000
C 	C 	0.67290 0.16010 0.67400 -0.13900
H 	H 	0.65760 0.18860 0.67680 0.05700
C 	C 	0.71950 0.15940 0.68550 0.01800
C 	C 	0.74000 0.11470 0.67870 -0.12200
H 	H 	0.77070 0.11150 0.68560 0.06400
C 	C 	0.71370 0.07610 0.66170 0.06200
H 	H 	0.72800 0.04720 0.65450 -0.01400
C 	C 	0.74940 0.27930 0.76600 0.09400
H 	H 	0.73440 0.30570 0.78700 -0.02900
C 	C 	0.72440 0.24210 0.73890 -0.17800
H 	H 	0.69330 0.24430 0.73950 0.08100
C 	C 	0.74370 0.20250 0.71150 0.07800
C 	C 	0.79020 0.20360 0.70940 -0.18600
H 	H 	0.80610 0.17740 0.69020 0.07900
C 	C 	0.81270 0.24330 0.73560 0.08100
H 	H 	0.84380 0.24310 0.73210 -0.04200
Cu	Cu	0.82957 0.33158 0.82050 0.82900
Cu	Cu	0.19348 0.31330 0.95730 0.83500
Cu	Cu	0.36604 0.98442 0.15799 0.84700
N 	N 	0.89440 0.32520 0.85150 -0.25400
N 	N 	0.12800 0.31010 0.93090 -0.25000
N 	N 	0.21880 0.37570 0.92990 -0.26300
N 	N 	0.30410 0.60470 0.84920 -0.25500
N 	N 	0.22590 0.25990 0.00690 -0.25600
N 	N 	0.33190 0.04570 0.12880 -0.24300
N 	N 	0.39510 0.99270 0.28090 -0.23500
N 	N 	0.57670 0.01350 0.57980 -0.23400
N 	N 	0.33110 0.92310 0.15460 -0.24200
N 	N 	0.20630 0.71930 0.26460 -0.27400
C 	C 	0.92320 0.31600 0.78580 0.06000
H 	H 	0.91210 0.31400 0.72890 -0.02800
C 	C 	0.96930 0.30930 0.79970 -0.13300
H 	H 	0.98760 0.30000 0.75360 0.06900
C 	C 	0.98740 0.31660 0.88250 0.05500
C 	C 	0.95780 0.32820 0.94860 -0.15000
H 	H 	0.96820 0.33270 0.00530 0.07900
C 	C 	0.91320 0.33300 0.93090 0.07700
H 	H 	0.89450 0.34230 0.97640 -0.02400
C 	C 	0.11120 0.32330 0.85140 0.06100
H 	H 	0.13110 0.33170 0.80740 -0.02100
C 	C 	0.06590 0.32460 0.83320 -0.13400
H 	H 	0.05610 0.33340 0.77780 0.06800
C 	C 	0.03540 0.31300 0.89710 0.05000
C 	C 	0.05230 0.29830 0.97820 -0.13800
H 	H 	0.03280 0.28960 0.02290 0.07300
C 	C 	0.09740 0.29680 0.99150 0.06200
H 	H 	0.10780 0.28590 0.04530 -0.01900
C 	C 	0.19290 0.41380 0.91870 0.09300
H 	H 	0.16220 0.40950 0.92450 -0.03700
C 	C 	0.20680 0.45670 0.90030 -0.17400
H 	H 	0.18650 0.48040 0.88670 0.07700
C 	C 	0.25370 0.46600 0.90170 0.07100
C 	C 	0.28080 0.43010 0.91990 -0.16500
H 	H 	0.31160 0.43440 0.92230 0.08000
C 	C 	0.26220 0.38650 0.93510 0.09100
H 	H 	0.28170 0.36230 0.95040 -0.02700
C 	C 	0.32910 0.57200 0.89280 0.06100
H 	H 	0.35810 0.58010 0.90930 -0.01400
C 	C 	0.31400 0.52770 0.91360 -0.13300
H 	H 	0.33150 0.50700 0.94600 0.07000
C 	C 	0.27110 0.51450 0.88450 0.04700
C 	C 	0.24620 0.54870 0.84600 -0.14900
H 	H 	0.21640 0.54280 0.83240 0.07400
C 	C 	0.26440 0.59200 0.82660 0.09400
H 	H 	0.24690 0.61340 0.79540 -0.03100
C 	C 	0.27120 0.25390 0.00110 0.07100
H 	H 	0.28820 0.27830 0.97740 -0.02200
C 	C 	0.29250 0.21430 0.02800 -0.13900
H 	H 	0.32360 0.21260 0.02470 0.06900
C 	C 	0.26870 0.17620 0.06030 0.04100
C 	C 	0.22350 0.18170 0.06880 -0.14500
H 	H 	0.20630 0.15800 0.09430 0.06500
C 	C 	0.20280 0.22400 0.03800 0.03500
H 	H 	0.17170 0.22630 0.04000 -0.03000
C 	C 	0.35010 0.07600 0.07140 0.07300
H 	H 	0.37700 0.06790 0.04480 -0.01800
C 	C 	0.33090 0.11820 0.05040 -0.15200
H 	H 	0.34530 0.13880 0.01230 0.07400
C 	C 	0.29030 0.13030 0.08550 0.06400
C 	C 	0.27190 0.10020 0.14280 -0.16400
H 	H 	0.24460 0.10750 0.16870 0.07400
C 	C 	0.29300 0.05860 0.16360 0.08000
H 	H 	0.27940 0.03850 0.20370 -0.01900
C 	C 	0.40950 0.03500 0.30470 0.07600
H 	H 	0.39640 0.06160 0.28030 -0.02500
C 	C 	0.44360 0.04040 0.36490 -0.14100
H 	H 	0.45360 0.07060 0.37840 0.07900
C 	C 	0.46350 0.00130 0.40630 0.05200
C 	C 	0.44650 0.95720 0.38280 -0.13600
H 	H 	0.45730 0.92990 0.40930 0.06900
C 	C 	0.41380 0.95460 0.32050 0.06500
H 	H 	0.40360 0.92490 0.30420 -0.01600
C 	C 	0.56770 0.04520 0.51860 0.08000
H 	H 	0.58640 0.07150 0.51660 -0.02100
C 	C 	0.53420 0.04350 0.45840 -0.13900
H 	H 	0.53210 0.06590 0.41400 0.07600
C 	C 	0.50190 0.00550 0.46590 0.04600
C 	C 	0.50900 0.97400 0.53190 -0.12700
H 	H 	0.48870 0.94940 0.54010 0.06700
C 	C 	0.54570 0.97770 0.58710 0.05800
H 	H 	0.54960 0.95520 0.63070 -0.01000
C 	C 	0.35090 0.88150 0.15850 0.06000
H 	H 	0.38170 0.87980 0.15060 -0.02000
C 	C 	0.32710 0.83990 0.17400 -0.13900
H 	H 	0.34240 0.81140 0.17680 0.05700
C 	C 	0.28050 0.84060 0.18550 0.01900
C 	C 	0.26000 0.88530 0.17870 -0.12200
H 	H 	0.22930 0.88850 0.18560 0.06500
C 	C 	0.28630 0.92390 0.16170 0.06200
H 	H 	0.27200 0.95280 0.15450 -0.01400
C 	C 	0.25060 0.72070 0.26600 0.09400
H 	H 	0.26560 0.69430 0.28700 -0.02900
C 	C 	0.27560 0.75790 0.23890 -0.17800
H 	H 	0.30670 0.75570 0.23950 0.08100
C 	C 	0.25630 0.79750 0.21150 0.07800
C 	C 	0.20980 0.79640 0.20940 -0.18600
H 	H 	0.19390 0.82260 0.19020 0.08000
C 	C 	0.18730 0.75670 0.23560 0.08100
H 	H 	0.15620 0.75690 0.23210 -0.04200
