data_crystal

_cell_length_a 31.01900
_cell_length_b 7.18570
_cell_length_c 8.10300
_cell_angle_alpha 90.00000
_cell_angle_beta  96.03800
_cell_angle_gamma 90.00000

_symmetry_space_group_name_	'P 1'
_symmetry_space_group_name_H-M	'P 1'

loop_
_symmetry_equiv_pos_as_xyz
  x,y,z

loop_
_atom_site_label
_atom_site_type_symbol
_atom_site_fract_x
_atom_site_fract_y
_atom_site_fract_z
_atom_site_charge
Mo	Mo	0.13035 0.98200 0.05151 0.88400
Mn	Mn	0.14778 0.47970 0.55880 1.16300
C 	C 	0.07530 0.81300 0.06700 -0.33600
C 	C 	0.07670 0.16400 0.99400 -0.00800
C 	C 	0.13930 0.18200 0.86100 -0.07200
C 	C 	0.13660 0.17900 0.25600 -0.15600
C 	C 	0.14770 0.79500 0.25800 -0.33900
C 	C 	0.14650 0.80300 0.85600 -0.29100
C 	C 	0.20070 0.01300 0.08300 0.04600
N 	N 	0.04690 0.70500 0.06530 -0.29000
N 	N 	0.04890 0.26800 0.97600 -0.25900
N 	N 	0.14200 0.28600 0.75500 -0.28900
N 	N 	0.15620 0.27500 0.36650 -0.28600
N 	N 	0.13920 0.69100 0.36400 -0.27800
N 	N 	0.15720 0.70400 0.75570 -0.26800
N 	N 	0.23700 0.95100 0.10060 -0.41900
K 	K 	0.19472 0.48260 0.09130 0.58200
Mo	Mo	0.63035 0.48200 0.05151 1.02300
Mn	Mn	0.64778 0.97970 0.55880 1.07900
C 	C 	0.57530 0.31300 0.06700 -0.21300
C 	C 	0.57670 0.66400 0.99400 -0.14400
C 	C 	0.63930 0.68200 0.86100 -0.18600
C 	C 	0.63660 0.67900 0.25600 -0.28800
C 	C 	0.64770 0.29500 0.25800 -0.19400
C 	C 	0.64650 0.30300 0.85600 -0.14200
C 	C 	0.70070 0.51300 0.08300 -0.28900
N 	N 	0.54690 0.20500 0.06530 -0.21100
N 	N 	0.54890 0.76800 0.97600 -0.28400
N 	N 	0.64200 0.78600 0.75500 -0.32100
N 	N 	0.65620 0.77500 0.36650 -0.32300
N 	N 	0.63920 0.19100 0.36400 -0.20600
N 	N 	0.65720 0.20400 0.75570 -0.19600
N 	N 	0.73700 0.45100 0.10060 -0.19400
K 	K 	0.69472 0.98260 0.09130 0.53600
Mo	Mo	0.86965 0.98200 0.94849 0.94900
Mn	Mn	0.85222 0.47970 0.44120 1.16100
C 	C 	0.92470 0.81300 0.93300 -0.24800
C 	C 	0.92330 0.16400 0.00600 -0.11100
C 	C 	0.86070 0.18200 0.13900 -0.14500
C 	C 	0.86340 0.17900 0.74400 -0.11200
C 	C 	0.85230 0.79500 0.74200 -0.31900
C 	C 	0.85350 0.80300 0.14400 -0.38900
C 	C 	0.79930 0.01300 0.91700 0.11400
N 	N 	0.95310 0.70500 0.93470 -0.24600
N 	N 	0.95110 0.26800 0.02400 -0.27600
N 	N 	0.85800 0.28600 0.24500 -0.28400
N 	N 	0.84380 0.27500 0.63350 -0.28700
N 	N 	0.86080 0.69100 0.63600 -0.27600
N 	N 	0.84280 0.70400 0.24430 -0.26300
N 	N 	0.76300 0.95100 0.89940 -0.39100
K 	K 	0.80528 0.48260 0.90870 0.60900
Mo	Mo	0.36965 0.48200 0.94849 1.08900
Mn	Mn	0.35222 0.97970 0.44120 1.07600
C 	C 	0.42470 0.31300 0.93300 -0.13200
C 	C 	0.42330 0.66400 0.00600 -0.25500
C 	C 	0.36070 0.68200 0.13900 -0.26400
C 	C 	0.36340 0.67900 0.74400 -0.24500
C 	C 	0.35230 0.29500 0.74200 -0.17600
C 	C 	0.35350 0.30300 0.14400 -0.23900
C 	C 	0.29930 0.51300 0.91700 -0.21700
N 	N 	0.45310 0.20500 0.93470 -0.17900
N 	N 	0.45110 0.76800 0.02400 -0.31000
N 	N 	0.35800 0.78600 0.24500 -0.31700
N 	N 	0.34380 0.77500 0.63350 -0.32600
N 	N 	0.36080 0.19100 0.63600 -0.20600
N 	N 	0.34280 0.20400 0.24430 -0.19200
N 	N 	0.26300 0.45100 0.89940 -0.16800
K 	K 	0.30528 0.98260 0.90870 0.56300
Mn	Mn	0.00000 0.48660 -0.00000 1.13100
Mn	Mn	0.50000 0.98660 -0.00000 1.05000
