data_crystal

_cell_length_a 10.03900
_cell_length_b 17.38850
_cell_length_c 16.73560
_cell_angle_alpha 90.00000
_cell_angle_beta  90.00000
_cell_angle_gamma 90.00000

_symmetry_space_group_name_	'P 1'
_symmetry_space_group_name_H-M	'P 1'

loop_
_symmetry_equiv_pos_as_xyz
  x,y,z

loop_
_atom_site_label
_atom_site_type_symbol
_atom_site_fract_x
_atom_site_fract_y
_atom_site_fract_z
_atom_site_charge
Ga	Ga	0.26470 0.57850 0.91670 2.06900
Mn	Mn	0.81130 0.72970 0.91670 1.30300
P 	P 	0.47990 0.69940 0.92420 0.56600
P 	P 	0.19080 0.41040 0.90930 0.57600
P 	P 	0.78900 0.60980 0.75770 0.57100
O 	O 	0.43450 0.61310 0.92520 -0.67900
O 	O 	0.48370 0.72340 0.83430 -0.66600
O 	O 	0.61880 0.70230 0.95980 -0.42500
O 	O 	0.37910 0.74970 0.96560 -0.47800
O 	O 	0.29700 0.47590 0.90820 -0.68400
O 	O 	0.15690 0.39670 0.99890 -0.70900
O 	O 	0.25610 0.34000 0.87320 -0.46000
O 	O 	0.06590 0.43600 0.86800 -0.54800
O 	O 	0.63750 0.58930 0.75930 -0.67700
O 	O 	0.82710 0.61970 0.66760 -0.60800
O 	O 	0.86200 0.54150 0.79270 -0.33800
O 	O 	0.81360 0.68550 0.79820 -0.41500
Ga	Ga	0.76470 0.07850 0.91670 2.07100
Mn	Mn	0.31130 0.22970 0.91670 1.27200
P 	P 	0.97990 0.19940 0.92420 0.72700
P 	P 	0.69080 0.91040 0.90930 0.57700
P 	P 	0.28900 0.10980 0.75770 0.57300
O 	O 	0.93450 0.11310 0.92520 -0.64200
O 	O 	0.98370 0.22340 0.83430 -0.55600
O 	O 	0.11880 0.20230 0.95980 -0.59800
O 	O 	0.87910 0.24970 0.96560 -0.43800
O 	O 	0.79700 0.97590 0.90820 -0.64900
O 	O 	0.65690 0.89670 0.99890 -0.66300
O 	O 	0.75610 0.84000 0.87320 -0.40700
O 	O 	0.56590 0.93600 0.86800 -0.47100
O 	O 	0.13750 0.08930 0.75930 -0.75600
O 	O 	0.32710 0.11970 0.66760 -0.66100
O 	O 	0.36200 0.04150 0.79270 -0.45600
O 	O 	0.31360 0.18550 0.79820 -0.48500
Ga	Ga	0.73530 0.42150 0.41670 2.07200
Mn	Mn	0.18870 0.27030 0.41670 1.25400
P 	P 	0.52010 0.30060 0.42420 0.56800
P 	P 	0.80920 0.58960 0.40930 0.57600
P 	P 	0.21100 0.39020 0.25770 0.56700
O 	O 	0.56550 0.38690 0.42520 -0.68800
O 	O 	0.51630 0.27660 0.33430 -0.65800
O 	O 	0.38120 0.29770 0.45980 -0.44700
O 	O 	0.62090 0.25030 0.46560 -0.45400
O 	O 	0.70300 0.52410 0.40820 -0.68000
O 	O 	0.84310 0.60330 0.49890 -0.61600
O 	O 	0.74390 0.66000 0.37320 -0.40900
O 	O 	0.93410 0.56400 0.36800 -0.35500
O 	O 	0.36250 0.41070 0.25930 -0.68200
O 	O 	0.17290 0.38030 0.16760 -0.70600
O 	O 	0.13800 0.45850 0.29270 -0.50600
O 	O 	0.18640 0.31450 0.29820 -0.51500
Ga	Ga	0.23530 0.92150 0.41670 2.07000
Mn	Mn	0.68870 0.77030 0.41670 1.28600
P 	P 	0.02010 0.80060 0.42420 0.40600
P 	P 	0.30920 0.08960 0.40930 0.57800
P 	P 	0.71100 0.89020 0.25770 0.56800
O 	O 	0.06550 0.88690 0.42520 -0.72400
O 	O 	0.01630 0.77660 0.33430 -0.74400
O 	O 	0.88120 0.79770 0.45980 -0.27200
O 	O 	0.12090 0.75030 0.46560 -0.49400
O 	O 	0.20300 0.02410 0.40820 -0.71400
O 	O 	0.34310 0.10330 0.49890 -0.66100
O 	O 	0.24390 0.16000 0.37320 -0.46600
O 	O 	0.43410 0.06400 0.36800 -0.46200
O 	O 	0.86250 0.91070 0.25930 -0.58700
O 	O 	0.67290 0.88030 0.16760 -0.65800
O 	O 	0.63800 0.95850 0.29270 -0.42000
O 	O 	0.68640 0.81450 0.29820 -0.44200
Ga	Ga	0.73530 0.57850 0.58330 2.07200
Mn	Mn	0.18870 0.72970 0.58330 1.25400
P 	P 	0.52010 0.69940 0.57580 0.56800
P 	P 	0.80920 0.41040 0.59070 0.57600
P 	P 	0.21100 0.60980 0.74230 0.56700
O 	O 	0.56550 0.61310 0.57480 -0.68800
O 	O 	0.51630 0.72340 0.66570 -0.65800
O 	O 	0.38120 0.70230 0.54020 -0.44700
O 	O 	0.62090 0.74970 0.53440 -0.45400
O 	O 	0.70300 0.47590 0.59180 -0.68000
O 	O 	0.84310 0.39670 0.50110 -0.61600
O 	O 	0.74390 0.34000 0.62680 -0.40900
O 	O 	0.93410 0.43600 0.63200 -0.35500
O 	O 	0.36250 0.58930 0.74070 -0.68200
O 	O 	0.17290 0.61970 0.83240 -0.70600
O 	O 	0.13800 0.54150 0.70730 -0.50600
O 	O 	0.18640 0.68550 0.70180 -0.51500
Ga	Ga	0.23530 0.07850 0.58330 2.07000
Mn	Mn	0.68870 0.22970 0.58330 1.28600
P 	P 	0.02010 0.19940 0.57580 0.40600
P 	P 	0.30920 0.91040 0.59070 0.57800
P 	P 	0.71100 0.10980 0.74230 0.56800
O 	O 	0.06550 0.11310 0.57480 -0.72400
O 	O 	0.01630 0.22340 0.66570 -0.74400
O 	O 	0.88120 0.20230 0.54020 -0.27200
O 	O 	0.12090 0.24970 0.53440 -0.49400
O 	O 	0.20300 0.97590 0.59180 -0.71400
O 	O 	0.34310 0.89670 0.50110 -0.66100
O 	O 	0.24390 0.84000 0.62680 -0.46600
O 	O 	0.43410 0.93600 0.63200 -0.46200
O 	O 	0.86250 0.08930 0.74070 -0.58700
O 	O 	0.67290 0.11970 0.83240 -0.65800
O 	O 	0.63800 0.04150 0.70730 -0.42000
O 	O 	0.68640 0.18550 0.70180 -0.44200
Ga	Ga	0.26470 0.42150 0.08330 2.07000
Mn	Mn	0.81130 0.27030 0.08330 1.30400
P 	P 	0.47990 0.30060 0.07580 0.56700
P 	P 	0.19080 0.58960 0.09070 0.57700
P 	P 	0.78900 0.39020 0.24230 0.57200
O 	O 	0.43450 0.38690 0.07480 -0.67800
O 	O 	0.48370 0.27660 0.16570 -0.66500
O 	O 	0.61880 0.29770 0.04020 -0.42400
O 	O 	0.37910 0.25030 0.03440 -0.47700
O 	O 	0.29700 0.52410 0.09180 -0.68300
O 	O 	0.15690 0.60330 0.00110 -0.70800
O 	O 	0.25610 0.66000 0.12680 -0.45900
O 	O 	0.06590 0.56400 0.13200 -0.54700
O 	O 	0.63750 0.41070 0.24070 -0.67600
O 	O 	0.82710 0.38030 0.33240 -0.60800
O 	O 	0.86200 0.45850 0.20730 -0.33800
O 	O 	0.81360 0.31450 0.20180 -0.41500
Ga	Ga	0.76470 0.92150 0.08330 2.07100
Mn	Mn	0.31130 0.77030 0.08330 1.27200
P 	P 	0.97990 0.80060 0.07580 0.72700
P 	P 	0.69080 0.08960 0.09070 0.57700
P 	P 	0.28900 0.89020 0.24230 0.57300
O 	O 	0.93450 0.88690 0.07480 -0.64200
O 	O 	0.98370 0.77660 0.16570 -0.55600
O 	O 	0.11880 0.79770 0.04020 -0.59800
O 	O 	0.87910 0.75030 0.03440 -0.43800
O 	O 	0.79700 0.02410 0.09180 -0.64900
O 	O 	0.65690 0.10330 0.00110 -0.66300
O 	O 	0.75610 0.16000 0.12680 -0.40700
O 	O 	0.56590 0.06400 0.13200 -0.47100
O 	O 	0.13750 0.91070 0.24070 -0.75600
O 	O 	0.32710 0.88030 0.33240 -0.66100
O 	O 	0.36200 0.95850 0.20730 -0.45600
O 	O 	0.31360 0.81450 0.20180 -0.48500
Ga	Ga	0.50000 0.65710 0.75000 2.07000
Ga	Ga	-0.00000 0.15710 0.75000 2.02700
Ga	Ga	0.50000 0.34290 0.25000 2.07000
Ga	Ga	-0.00000 0.84290 0.25000 2.02700
Mn	Mn	-0.00000 0.45920 0.75000 1.19400
Mn	Mn	0.50000 0.95920 0.75000 1.28100
Mn	Mn	-0.00000 0.54080 0.25000 1.19400
Mn	Mn	0.50000 0.04080 0.25000 1.28100
