data_crystal

_cell_length_a 10.03900
_cell_length_b 17.40100
_cell_length_c 16.50300
_cell_angle_alpha 90.00000
_cell_angle_beta  90.00000
_cell_angle_gamma 90.00000

_symmetry_space_group_name_	'P 1'
_symmetry_space_group_name_H-M	'P 1'

loop_
_symmetry_equiv_pos_as_xyz
  x,y,z

loop_
_atom_site_label
_atom_site_type_symbol
_atom_site_fract_x
_atom_site_fract_y
_atom_site_fract_z
_atom_site_charge
Ga	Ga	0.26070 0.57990 0.91670 2.07000
Mn	Mn	0.80340 0.73270 0.91650 1.31300
P 	P 	0.47860 0.70020 0.92650 0.57800
P 	P 	0.18860 0.41070 0.90670 0.57700
P 	P 	0.78990 0.61100 0.76000 0.59000
O 	O 	0.42950 0.61490 0.92720 -0.68100
O 	O 	0.48020 0.72560 0.83640 -0.65900
O 	O 	0.61950 0.70110 0.96020 -0.43500
O 	O 	0.38190 0.75270 0.96790 -0.47800
O 	O 	0.29290 0.47870 0.90480 -0.68600
O 	O 	0.15270 0.39740 0.99720 -0.71300
O 	O 	0.25630 0.34090 0.87090 -0.46500
O 	O 	0.06360 0.43210 0.86270 -0.55500
O 	O 	0.63580 0.59420 0.76040 -0.69000
O 	O 	0.82920 0.62250 0.66960 -0.60200
O 	O 	0.86020 0.54260 0.79430 -0.34800
O 	O 	0.82020 0.68450 0.80230 -0.41800
Ga	Ga	0.76070 0.07990 0.91670 2.07100
Mn	Mn	0.30340 0.23270 0.91650 1.28300
P 	P 	0.97860 0.20020 0.92650 0.73900
P 	P 	0.68860 0.91070 0.90670 0.57700
P 	P 	0.28990 0.11100 0.76000 0.59300
O 	O 	0.92950 0.11490 0.92720 -0.64500
O 	O 	0.98020 0.22560 0.83640 -0.55000
O 	O 	0.11950 0.20110 0.96020 -0.61000
O 	O 	0.88190 0.25270 0.96790 -0.43900
O 	O 	0.79290 0.97870 0.90480 -0.65100
O 	O 	0.65270 0.89740 0.99720 -0.66600
O 	O 	0.75630 0.84090 0.87090 -0.41200
O 	O 	0.56360 0.93210 0.86270 -0.47600
O 	O 	0.13580 0.09420 0.76040 -0.77100
O 	O 	0.32920 0.12250 0.66960 -0.65900
O 	O 	0.36020 0.04260 0.79430 -0.46800
O 	O 	0.32020 0.18450 0.80230 -0.49000
Ga	Ga	0.73930 0.42010 0.41670 2.07200
Mn	Mn	0.19660 0.26730 0.41650 1.26800
P 	P 	0.52140 0.29980 0.42650 0.58000
P 	P 	0.81140 0.58930 0.40670 0.57500
P 	P 	0.21010 0.38900 0.26000 0.59000
O 	O 	0.57050 0.38510 0.42720 -0.69000
O 	O 	0.51980 0.27440 0.33640 -0.65100
O 	O 	0.38050 0.29890 0.46020 -0.45800
O 	O 	0.61810 0.24730 0.46790 -0.45600
O 	O 	0.70710 0.52130 0.40480 -0.68100
O 	O 	0.84730 0.60260 0.49720 -0.61500
O 	O 	0.74370 0.65910 0.37090 -0.41500
O 	O 	0.93640 0.56790 0.36270 -0.35500
O 	O 	0.36420 0.40580 0.26040 -0.69700
O 	O 	0.17080 0.37750 0.16960 -0.70500
O 	O 	0.13980 0.45740 0.29430 -0.51700
O 	O 	0.17980 0.31550 0.30230 -0.52500
Ga	Ga	0.23930 0.92010 0.41670 2.07000
Mn	Mn	0.69660 0.76730 0.41650 1.29700
P 	P 	0.02140 0.79980 0.42650 0.41600
P 	P 	0.31140 0.08930 0.40670 0.57800
P 	P 	0.71010 0.88900 0.26000 0.58800
O 	O 	0.07050 0.88510 0.42720 -0.72600
O 	O 	0.01980 0.77440 0.33640 -0.73700
O 	O 	0.88050 0.79890 0.46020 -0.28300
O 	O 	0.11810 0.74730 0.46790 -0.49700
O 	O 	0.20710 0.02130 0.40480 -0.71600
O 	O 	0.34730 0.10260 0.49720 -0.66300
O 	O 	0.24370 0.15910 0.37090 -0.47100
O 	O 	0.43640 0.06790 0.36270 -0.46700
O 	O 	0.86420 0.90580 0.26040 -0.60000
O 	O 	0.67080 0.87750 0.16960 -0.65500
O 	O 	0.63980 0.95740 0.29430 -0.43100
O 	O 	0.67980 0.81550 0.30230 -0.45100
Ga	Ga	0.73930 0.57990 0.58330 2.07200
Mn	Mn	0.19660 0.73270 0.58350 1.26800
P 	P 	0.52140 0.70020 0.57350 0.58000
P 	P 	0.81140 0.41070 0.59330 0.57500
P 	P 	0.21010 0.61100 0.74000 0.59000
O 	O 	0.57050 0.61490 0.57280 -0.69000
O 	O 	0.51980 0.72560 0.66360 -0.65100
O 	O 	0.38050 0.70110 0.53980 -0.45800
O 	O 	0.61810 0.75270 0.53210 -0.45600
O 	O 	0.70710 0.47870 0.59520 -0.68100
O 	O 	0.84730 0.39740 0.50280 -0.61500
O 	O 	0.74370 0.34090 0.62910 -0.41500
O 	O 	0.93640 0.43210 0.63730 -0.35500
O 	O 	0.36420 0.59420 0.73960 -0.69700
O 	O 	0.17080 0.62250 0.83040 -0.70500
O 	O 	0.13980 0.54260 0.70570 -0.51700
O 	O 	0.17980 0.68450 0.69770 -0.52500
Ga	Ga	0.23930 0.07990 0.58330 2.07000
Mn	Mn	0.69660 0.23270 0.58350 1.29700
P 	P 	0.02140 0.20020 0.57350 0.41600
P 	P 	0.31140 0.91070 0.59330 0.57800
P 	P 	0.71010 0.11100 0.74000 0.58800
O 	O 	0.07050 0.11490 0.57280 -0.72600
O 	O 	0.01980 0.22560 0.66360 -0.73700
O 	O 	0.88050 0.20110 0.53980 -0.28300
O 	O 	0.11810 0.25270 0.53210 -0.49700
O 	O 	0.20710 0.97870 0.59520 -0.71600
O 	O 	0.34730 0.89740 0.50280 -0.66300
O 	O 	0.24370 0.84090 0.62910 -0.47100
O 	O 	0.43640 0.93210 0.63730 -0.46700
O 	O 	0.86420 0.09420 0.73960 -0.60000
O 	O 	0.67080 0.12250 0.83040 -0.65500
O 	O 	0.63980 0.04260 0.70570 -0.43100
O 	O 	0.67980 0.18450 0.69770 -0.45100
Ga	Ga	0.26070 0.42010 0.08330 2.07000
Mn	Mn	0.80340 0.26730 0.08350 1.31300
P 	P 	0.47860 0.29980 0.07350 0.57800
P 	P 	0.18860 0.58930 0.09330 0.57700
P 	P 	0.78990 0.38900 0.24000 0.59000
O 	O 	0.42950 0.38510 0.07280 -0.68100
O 	O 	0.48020 0.27440 0.16360 -0.65900
O 	O 	0.61950 0.29890 0.03980 -0.43500
O 	O 	0.38190 0.24730 0.03210 -0.47800
O 	O 	0.29290 0.52130 0.09520 -0.68600
O 	O 	0.15270 0.60260 0.00280 -0.71300
O 	O 	0.25630 0.65910 0.12910 -0.46500
O 	O 	0.06360 0.56790 0.13730 -0.55500
O 	O 	0.63580 0.40580 0.23960 -0.69000
O 	O 	0.82920 0.37750 0.33040 -0.60200
O 	O 	0.86020 0.45740 0.20570 -0.34800
O 	O 	0.82020 0.31550 0.19770 -0.41800
Ga	Ga	0.76070 0.92010 0.08330 2.07100
Mn	Mn	0.30340 0.76730 0.08350 1.28300
P 	P 	0.97860 0.79980 0.07350 0.73900
P 	P 	0.68860 0.08930 0.09330 0.57700
P 	P 	0.28990 0.88900 0.24000 0.59300
O 	O 	0.92950 0.88510 0.07280 -0.64500
O 	O 	0.98020 0.77440 0.16360 -0.55000
O 	O 	0.11950 0.79890 0.03980 -0.61000
O 	O 	0.88190 0.74730 0.03210 -0.43900
O 	O 	0.79290 0.02130 0.09520 -0.65100
O 	O 	0.65270 0.10260 0.00280 -0.66600
O 	O 	0.75630 0.15910 0.12910 -0.41200
O 	O 	0.56360 0.06790 0.13730 -0.47600
O 	O 	0.13580 0.90580 0.23960 -0.77100
O 	O 	0.32920 0.87750 0.33040 -0.65900
O 	O 	0.36020 0.95740 0.20570 -0.46800
O 	O 	0.32020 0.81550 0.19770 -0.49000
Ga	Ga	0.50000 0.65980 0.75000 2.07400
Ga	Ga	-0.00000 0.15980 0.75000 2.03000
Ga	Ga	0.50000 0.34020 0.25000 2.07400
Ga	Ga	-0.00000 0.84020 0.25000 2.03000
Mn	Mn	-0.00000 0.46490 0.75000 1.20600
Mn	Mn	0.50000 0.96490 0.75000 1.29400
Mn	Mn	0.00000 0.53510 0.25000 1.20600
Mn	Mn	0.50000 0.03510 0.25000 1.29400
