data_crystal

_cell_length_a 40.97790
_cell_length_b 40.97790
_cell_length_c 40.97790
_cell_angle_alpha 90.00000
_cell_angle_beta  90.00000
_cell_angle_gamma 90.00000

_symmetry_space_group_name_	'P 1'
_symmetry_space_group_name_H-M	'P 1'

loop_
_symmetry_equiv_pos_as_xyz
  x,y,z

loop_
_atom_site_label
_atom_site_type_symbol
_atom_site_fract_x
_atom_site_fract_y
_atom_site_fract_z
_atom_site_charge
O 	O 	0.18638 0.43533 0.01030 -0.29300
H 	H 	0.20460 0.32300 0.07440 0.18900
O 	O 	0.24680 0.48930 0.03940 -0.27700
O 	O 	0.18638 0.93533 0.51030 -0.29300
H 	H 	0.20460 0.82300 0.57440 0.18900
O 	O 	0.24680 0.98930 0.53940 -0.27700
O 	O 	0.68638 0.43533 0.51030 -0.29300
H 	H 	0.70460 0.32300 0.57440 0.18900
O 	O 	0.74680 0.48930 0.53940 -0.27700
O 	O 	0.68638 0.93533 0.01030 -0.29300
H 	H 	0.70460 0.82300 0.07440 0.18900
O 	O 	0.74680 0.98930 0.03940 -0.27700
O 	O 	0.81362 0.56467 0.01030 -0.29300
H 	H 	0.79540 0.67700 0.07440 0.18900
O 	O 	0.75320 0.51070 0.03940 -0.27700
O 	O 	0.81362 0.06467 0.51030 -0.29300
H 	H 	0.79540 0.17700 0.57440 0.18900
O 	O 	0.75320 0.01070 0.53940 -0.27800
O 	O 	0.31362 0.56467 0.51030 -0.29300
H 	H 	0.29540 0.67700 0.57440 0.18900
O 	O 	0.25320 0.51070 0.53940 -0.27700
O 	O 	0.31362 0.06467 0.01030 -0.29300
H 	H 	0.29540 0.17700 0.07440 0.18900
O 	O 	0.25320 0.01070 0.03940 -0.27800
O 	O 	0.81362 0.43533 0.98970 -0.29200
H 	H 	0.79540 0.32300 0.92560 0.18900
O 	O 	0.75320 0.48930 0.96060 -0.27700
O 	O 	0.81362 0.93533 0.48970 -0.29300
H 	H 	0.79540 0.82300 0.42560 0.18900
O 	O 	0.75320 0.98930 0.46060 -0.27700
O 	O 	0.31362 0.43533 0.48970 -0.29300
H 	H 	0.29540 0.32300 0.42560 0.18900
O 	O 	0.25320 0.48930 0.46060 -0.27700
O 	O 	0.31362 0.93533 0.98970 -0.29200
H 	H 	0.29540 0.82300 0.92560 0.18900
O 	O 	0.25320 0.98930 0.96060 -0.27700
O 	O 	0.18638 0.56467 0.98970 -0.29200
H 	H 	0.20460 0.67700 0.92560 0.18900
O 	O 	0.24680 0.51070 0.96060 -0.27700
O 	O 	0.18638 0.06467 0.48970 -0.29300
H 	H 	0.20460 0.17700 0.42560 0.18900
O 	O 	0.24680 0.01070 0.46060 -0.27800
O 	O 	0.68638 0.56467 0.48970 -0.29300
H 	H 	0.70460 0.67700 0.42560 0.18900
O 	O 	0.74680 0.51070 0.46060 -0.27700
O 	O 	0.68638 0.06467 0.98970 -0.29200
H 	H 	0.70460 0.17700 0.92560 0.18900
O 	O 	0.74680 0.01070 0.96060 -0.27800
O 	O 	0.01030 0.18638 0.43533 -0.29300
H 	H 	0.07440 0.20460 0.32300 0.18900
O 	O 	0.03940 0.24680 0.48930 -0.27700
O 	O 	0.01030 0.68638 0.93533 -0.29300
H 	H 	0.07440 0.70460 0.82300 0.18900
O 	O 	0.03940 0.74680 0.98930 -0.27700
O 	O 	0.51030 0.18638 0.93533 -0.29300
H 	H 	0.57440 0.20460 0.82300 0.18900
O 	O 	0.53940 0.24680 0.98930 -0.27700
O 	O 	0.51030 0.68638 0.43533 -0.29300
H 	H 	0.57440 0.70460 0.32300 0.18900
O 	O 	0.53940 0.74680 0.48930 -0.27700
O 	O 	0.01030 0.81362 0.56467 -0.29300
H 	H 	0.07440 0.79540 0.67700 0.18900
O 	O 	0.03940 0.75320 0.51070 -0.27700
O 	O 	0.01030 0.31362 0.06467 -0.29300
H 	H 	0.07440 0.29540 0.17700 0.18900
O 	O 	0.03940 0.25320 0.01070 -0.27800
O 	O 	0.51030 0.81362 0.06467 -0.29300
H 	H 	0.57440 0.79540 0.17700 0.18900
O 	O 	0.53940 0.75320 0.01070 -0.27800
O 	O 	0.51030 0.31362 0.56467 -0.29300
H 	H 	0.57440 0.29540 0.67700 0.18900
O 	O 	0.53940 0.25320 0.51070 -0.27700
O 	O 	0.98970 0.81362 0.43533 -0.29200
H 	H 	0.92560 0.79540 0.32300 0.18900
O 	O 	0.96060 0.75320 0.48930 -0.27700
O 	O 	0.98970 0.31362 0.93533 -0.29200
H 	H 	0.92560 0.29540 0.82300 0.18900
O 	O 	0.96060 0.25320 0.98930 -0.27700
O 	O 	0.48970 0.81362 0.93533 -0.29300
H 	H 	0.42560 0.79540 0.82300 0.18900
O 	O 	0.46060 0.75320 0.98930 -0.27700
O 	O 	0.48970 0.31362 0.43533 -0.29300
H 	H 	0.42560 0.29540 0.32300 0.18900
O 	O 	0.46060 0.25320 0.48930 -0.27700
O 	O 	0.98970 0.18638 0.56467 -0.29200
H 	H 	0.92560 0.20460 0.67700 0.18900
O 	O 	0.96060 0.24680 0.51070 -0.27700
O 	O 	0.98970 0.68638 0.06467 -0.29200
H 	H 	0.92560 0.70460 0.17700 0.18900
O 	O 	0.96060 0.74680 0.01070 -0.27800
O 	O 	0.48970 0.18638 0.06467 -0.29300
H 	H 	0.42560 0.20460 0.17700 0.18900
O 	O 	0.46060 0.24680 0.01070 -0.27800
O 	O 	0.48970 0.68638 0.56467 -0.29300
H 	H 	0.42560 0.70460 0.67700 0.18900
O 	O 	0.46060 0.74680 0.51070 -0.27700
O 	O 	0.43533 0.01030 0.18638 -0.29300
H 	H 	0.32300 0.07440 0.20460 0.18900
O 	O 	0.48930 0.03940 0.24680 -0.27700
O 	O 	0.43533 0.51030 0.68638 -0.29300
H 	H 	0.32300 0.57440 0.70460 0.18900
O 	O 	0.48930 0.53940 0.74680 -0.27700
O 	O 	0.93533 0.01030 0.68638 -0.29300
H 	H 	0.82300 0.07440 0.70460 0.18900
O 	O 	0.98930 0.03940 0.74680 -0.27700
O 	O 	0.93533 0.51030 0.18638 -0.29300
H 	H 	0.82300 0.57440 0.20460 0.18900
O 	O 	0.98930 0.53940 0.24680 -0.27700
O 	O 	0.56467 0.01030 0.81362 -0.29300
H 	H 	0.67700 0.07440 0.79540 0.18900
O 	O 	0.51070 0.03940 0.75320 -0.27700
O 	O 	0.56467 0.51030 0.31362 -0.29300
H 	H 	0.67700 0.57440 0.29540 0.18900
O 	O 	0.51070 0.53940 0.25320 -0.27700
O 	O 	0.06467 0.01030 0.31362 -0.29300
H 	H 	0.17700 0.07440 0.29540 0.18900
O 	O 	0.01070 0.03940 0.25320 -0.27800
O 	O 	0.06467 0.51030 0.81362 -0.29300
H 	H 	0.17700 0.57440 0.79540 0.18900
O 	O 	0.01070 0.53940 0.75320 -0.27800
O 	O 	0.43533 0.98970 0.81362 -0.29200
H 	H 	0.32300 0.92560 0.79540 0.18900
O 	O 	0.48930 0.96060 0.75320 -0.27700
O 	O 	0.43533 0.48970 0.31362 -0.29300
H 	H 	0.32300 0.42560 0.29540 0.18900
O 	O 	0.48930 0.46060 0.25320 -0.27700
O 	O 	0.93533 0.98970 0.31362 -0.29200
H 	H 	0.82300 0.92560 0.29540 0.18900
O 	O 	0.98930 0.96060 0.25320 -0.27700
O 	O 	0.93533 0.48970 0.81362 -0.29300
H 	H 	0.82300 0.42560 0.79540 0.18900
O 	O 	0.98930 0.46060 0.75320 -0.27700
O 	O 	0.56467 0.98970 0.18638 -0.29200
H 	H 	0.67700 0.92560 0.20460 0.18900
O 	O 	0.51070 0.96060 0.24680 -0.27700
O 	O 	0.56467 0.48970 0.68638 -0.29300
H 	H 	0.67700 0.42560 0.70460 0.18900
O 	O 	0.51070 0.46060 0.74680 -0.27700
O 	O 	0.06467 0.98970 0.68638 -0.29200
H 	H 	0.17700 0.92560 0.70460 0.18900
O 	O 	0.01070 0.96060 0.74680 -0.27800
O 	O 	0.06467 0.48970 0.18638 -0.29300
H 	H 	0.17700 0.42560 0.20460 0.18900
O 	O 	0.01070 0.46060 0.24680 -0.27800
O 	O 	0.43533 0.18638 0.98970 -0.29200
H 	H 	0.32300 0.20460 0.92560 0.18900
O 	O 	0.48930 0.24680 0.96060 -0.27700
O 	O 	0.43533 0.68638 0.48970 -0.29300
H 	H 	0.32300 0.70460 0.42560 0.18900
O 	O 	0.48930 0.74680 0.46060 -0.27700
O 	O 	0.93533 0.18638 0.48970 -0.29300
H 	H 	0.82300 0.20460 0.42560 0.18900
O 	O 	0.98930 0.24680 0.46060 -0.27700
O 	O 	0.93533 0.68638 0.98970 -0.29200
H 	H 	0.82300 0.70460 0.92560 0.18900
O 	O 	0.98930 0.74680 0.96060 -0.27700
O 	O 	0.56467 0.81362 0.98970 -0.29200
H 	H 	0.67700 0.79540 0.92560 0.18900
O 	O 	0.51070 0.75320 0.96060 -0.27700
O 	O 	0.56467 0.31362 0.48970 -0.29300
H 	H 	0.67700 0.29540 0.42560 0.18900
O 	O 	0.51070 0.25320 0.46060 -0.27700
O 	O 	0.06467 0.81362 0.48970 -0.29300
H 	H 	0.17700 0.79540 0.42560 0.18900
O 	O 	0.01070 0.75320 0.46060 -0.27800
O 	O 	0.06467 0.31362 0.98970 -0.29200
H 	H 	0.17700 0.29540 0.92560 0.18900
O 	O 	0.01070 0.25320 0.96060 -0.27800
O 	O 	0.43533 0.81362 0.01030 -0.29300
H 	H 	0.32300 0.79540 0.07440 0.18900
O 	O 	0.48930 0.75320 0.03940 -0.27700
O 	O 	0.43533 0.31362 0.51030 -0.29300
H 	H 	0.32300 0.29540 0.57440 0.18900
O 	O 	0.48930 0.25320 0.53940 -0.27700
O 	O 	0.93533 0.81362 0.51030 -0.29300
H 	H 	0.82300 0.79540 0.57440 0.18900
O 	O 	0.98930 0.75320 0.53940 -0.27700
O 	O 	0.93533 0.31362 0.01030 -0.29300
H 	H 	0.82300 0.29540 0.07440 0.18900
O 	O 	0.98930 0.25320 0.03940 -0.27700
O 	O 	0.56467 0.18638 0.01030 -0.29300
H 	H 	0.67700 0.20460 0.07440 0.18900
O 	O 	0.51070 0.24680 0.03940 -0.27700
O 	O 	0.56467 0.68638 0.51030 -0.29300
H 	H 	0.67700 0.70460 0.57440 0.18900
O 	O 	0.51070 0.74680 0.53940 -0.27700
O 	O 	0.06467 0.18638 0.51030 -0.29300
H 	H 	0.17700 0.20460 0.57440 0.18900
O 	O 	0.01070 0.24680 0.53940 -0.27800
O 	O 	0.06467 0.68638 0.01030 -0.29300
H 	H 	0.17700 0.70460 0.07440 0.18900
O 	O 	0.01070 0.74680 0.03940 -0.27800
O 	O 	0.18638 0.01030 0.56467 -0.29300
H 	H 	0.20460 0.07440 0.67700 0.18900
O 	O 	0.24680 0.03940 0.51070 -0.27700
O 	O 	0.18638 0.51030 0.06467 -0.29300
H 	H 	0.20460 0.57440 0.17700 0.18900
O 	O 	0.24680 0.53940 0.01070 -0.27800
O 	O 	0.68638 0.01030 0.06467 -0.29200
H 	H 	0.70460 0.07440 0.17700 0.19000
O 	O 	0.74680 0.03940 0.01070 -0.27700
O 	O 	0.68638 0.51030 0.56467 -0.29200
H 	H 	0.70460 0.57440 0.67700 0.19000
O 	O 	0.74680 0.53940 0.51070 -0.27600
O 	O 	0.81362 0.01030 0.43533 -0.29200
H 	H 	0.79540 0.07440 0.32300 0.19000
O 	O 	0.75320 0.03940 0.48930 -0.27600
O 	O 	0.81362 0.51030 0.93533 -0.29200
H 	H 	0.79540 0.57440 0.82300 0.19000
O 	O 	0.75320 0.53940 0.98930 -0.27600
O 	O 	0.31362 0.01030 0.93533 -0.29200
H 	H 	0.29540 0.07440 0.82300 0.19000
O 	O 	0.25320 0.03940 0.98930 -0.27600
O 	O 	0.31362 0.51030 0.43533 -0.29200
H 	H 	0.29540 0.57440 0.32300 0.19000
O 	O 	0.25320 0.53940 0.48930 -0.27600
O 	O 	0.81362 0.98970 0.56467 -0.29100
H 	H 	0.79540 0.92560 0.67700 0.19000
O 	O 	0.75320 0.96060 0.51070 -0.27600
O 	O 	0.81362 0.48970 0.06467 -0.29200
H 	H 	0.79540 0.42560 0.17700 0.19000
O 	O 	0.75320 0.46060 0.01070 -0.27700
O 	O 	0.31362 0.98970 0.06467 -0.29100
H 	H 	0.29540 0.92560 0.17700 0.19000
O 	O 	0.25320 0.96060 0.01070 -0.27700
O 	O 	0.31362 0.48970 0.56467 -0.29200
H 	H 	0.29540 0.42560 0.67700 0.19000
O 	O 	0.25320 0.46060 0.51070 -0.27600
O 	O 	0.18638 0.98970 0.43533 -0.29100
H 	H 	0.20460 0.92560 0.32300 0.19000
O 	O 	0.24680 0.96060 0.48930 -0.27600
O 	O 	0.18638 0.48970 0.93533 -0.29200
H 	H 	0.20460 0.42560 0.82300 0.19000
O 	O 	0.24680 0.46060 0.98930 -0.27600
O 	O 	0.68638 0.98970 0.93533 -0.29100
H 	H 	0.70460 0.92560 0.82300 0.19000
O 	O 	0.74680 0.96060 0.98930 -0.27600
O 	O 	0.68638 0.48970 0.43533 -0.29200
H 	H 	0.70460 0.42560 0.32300 0.19000
O 	O 	0.74680 0.46060 0.48930 -0.27600
O 	O 	0.01030 0.43533 0.81362 -0.29200
H 	H 	0.07440 0.32300 0.79540 0.19000
O 	O 	0.03940 0.48930 0.75320 -0.27600
O 	O 	0.01030 0.93533 0.31362 -0.29200
H 	H 	0.07440 0.82300 0.29540 0.19000
O 	O 	0.03940 0.98930 0.25320 -0.27600
O 	O 	0.51030 0.43533 0.31362 -0.29200
H 	H 	0.57440 0.32300 0.29540 0.19000
O 	O 	0.53940 0.48930 0.25320 -0.27600
O 	O 	0.51030 0.93533 0.81362 -0.29200
H 	H 	0.57440 0.82300 0.79540 0.19000
O 	O 	0.53940 0.98930 0.75320 -0.27600
O 	O 	0.01030 0.56467 0.18638 -0.29200
H 	H 	0.07440 0.67700 0.20460 0.19000
O 	O 	0.03940 0.51070 0.24680 -0.27600
O 	O 	0.01030 0.06467 0.68638 -0.29200
H 	H 	0.07440 0.17700 0.70460 0.19000
O 	O 	0.03940 0.01070 0.74680 -0.27700
O 	O 	0.51030 0.56467 0.68638 -0.29200
H 	H 	0.57440 0.67700 0.70460 0.19000
O 	O 	0.53940 0.51070 0.74680 -0.27600
O 	O 	0.51030 0.06467 0.18638 -0.29200
H 	H 	0.57440 0.17700 0.20460 0.19000
O 	O 	0.53940 0.01070 0.24680 -0.27700
O 	O 	0.98970 0.43533 0.18638 -0.29100
H 	H 	0.92560 0.32300 0.20460 0.19000
O 	O 	0.96060 0.48930 0.24680 -0.27600
O 	O 	0.98970 0.93533 0.68638 -0.29100
H 	H 	0.92560 0.82300 0.70460 0.19000
O 	O 	0.96060 0.98930 0.74680 -0.27600
O 	O 	0.48970 0.43533 0.68638 -0.29200
H 	H 	0.42560 0.32300 0.70460 0.19000
O 	O 	0.46060 0.48930 0.74680 -0.27600
O 	O 	0.48970 0.93533 0.18638 -0.29200
H 	H 	0.42560 0.82300 0.20460 0.19000
O 	O 	0.46060 0.98930 0.24680 -0.27600
O 	O 	0.98970 0.56467 0.81362 -0.29100
H 	H 	0.92560 0.67700 0.79540 0.19000
O 	O 	0.96060 0.51070 0.75320 -0.27600
O 	O 	0.98970 0.06467 0.31362 -0.29100
H 	H 	0.92560 0.17700 0.29540 0.19000
O 	O 	0.96060 0.01070 0.25320 -0.27700
O 	O 	0.48970 0.56467 0.31362 -0.29200
H 	H 	0.42560 0.67700 0.29540 0.19000
O 	O 	0.46060 0.51070 0.25320 -0.27600
O 	O 	0.48970 0.06467 0.81362 -0.29200
H 	H 	0.42560 0.17700 0.79540 0.19000
O 	O 	0.46060 0.01070 0.75320 -0.27700
O 	O 	0.81362 0.56467 0.98970 -0.29100
H 	H 	0.79540 0.67700 0.92560 0.19000
O 	O 	0.75320 0.51070 0.96060 -0.27600
O 	O 	0.81362 0.06467 0.48970 -0.29200
H 	H 	0.79540 0.17700 0.42560 0.19000
O 	O 	0.75320 0.01070 0.46060 -0.27700
O 	O 	0.31362 0.56467 0.48970 -0.29200
H 	H 	0.29540 0.67700 0.42560 0.19000
O 	O 	0.25320 0.51070 0.46060 -0.27600
O 	O 	0.31362 0.06467 0.98970 -0.29100
H 	H 	0.29540 0.17700 0.92560 0.19000
O 	O 	0.25320 0.01070 0.96060 -0.27700
O 	O 	0.18638 0.43533 0.98970 -0.29100
H 	H 	0.20460 0.32300 0.92560 0.19000
O 	O 	0.24680 0.48930 0.96060 -0.27600
O 	O 	0.18638 0.93533 0.48970 -0.29200
H 	H 	0.20460 0.82300 0.42560 0.19000
O 	O 	0.24680 0.98930 0.46060 -0.27600
O 	O 	0.68638 0.43533 0.48970 -0.29200
H 	H 	0.70460 0.32300 0.42560 0.19000
O 	O 	0.74680 0.48930 0.46060 -0.27600
O 	O 	0.68638 0.93533 0.98970 -0.29100
H 	H 	0.70460 0.82300 0.92560 0.19000
O 	O 	0.74680 0.98930 0.96060 -0.27600
O 	O 	0.18638 0.56467 0.01030 -0.29200
H 	H 	0.20460 0.67700 0.07440 0.19000
O 	O 	0.24680 0.51070 0.03940 -0.27600
O 	O 	0.18638 0.06467 0.51030 -0.29200
H 	H 	0.20460 0.17700 0.57440 0.19000
O 	O 	0.24680 0.01070 0.53940 -0.27700
O 	O 	0.68638 0.56467 0.51030 -0.29200
H 	H 	0.70460 0.67700 0.57440 0.19000
O 	O 	0.74680 0.51070 0.53940 -0.27600
O 	O 	0.68638 0.06467 0.01030 -0.29200
H 	H 	0.70460 0.17700 0.07440 0.19000
O 	O 	0.74680 0.01070 0.03940 -0.27700
O 	O 	0.81362 0.43533 0.01030 -0.29200
H 	H 	0.79540 0.32300 0.07440 0.19000
O 	O 	0.75320 0.48930 0.03940 -0.27600
O 	O 	0.81362 0.93533 0.51030 -0.29200
H 	H 	0.79540 0.82300 0.57440 0.19000
O 	O 	0.75320 0.98930 0.53940 -0.27600
O 	O 	0.31362 0.43533 0.51030 -0.29200
H 	H 	0.29540 0.32300 0.57440 0.19000
O 	O 	0.25320 0.48930 0.53940 -0.27600
O 	O 	0.31362 0.93533 0.01030 -0.29200
H 	H 	0.29540 0.82300 0.07440 0.19000
O 	O 	0.25320 0.98930 0.03940 -0.27600
O 	O 	0.98970 0.81362 0.56467 -0.29100
H 	H 	0.92560 0.79540 0.67700 0.19000
O 	O 	0.96060 0.75320 0.51070 -0.27600
O 	O 	0.98970 0.31362 0.06467 -0.29100
H 	H 	0.92560 0.29540 0.17700 0.19000
O 	O 	0.96060 0.25320 0.01070 -0.27700
O 	O 	0.48970 0.81362 0.06467 -0.29200
H 	H 	0.42560 0.79540 0.17700 0.19000
O 	O 	0.46060 0.75320 0.01070 -0.27700
O 	O 	0.48970 0.31362 0.56467 -0.29200
H 	H 	0.42560 0.29540 0.67700 0.19000
O 	O 	0.46060 0.25320 0.51070 -0.27600
O 	O 	0.98970 0.18638 0.43533 -0.29100
H 	H 	0.92560 0.20460 0.32300 0.19000
O 	O 	0.96060 0.24680 0.48930 -0.27600
O 	O 	0.98970 0.68638 0.93533 -0.29100
H 	H 	0.92560 0.70460 0.82300 0.19000
O 	O 	0.96060 0.74680 0.98930 -0.27600
O 	O 	0.48970 0.18638 0.93533 -0.29200
H 	H 	0.42560 0.20460 0.82300 0.19000
O 	O 	0.46060 0.24680 0.98930 -0.27600
O 	O 	0.48970 0.68638 0.43533 -0.29200
H 	H 	0.42560 0.70460 0.32300 0.19000
O 	O 	0.46060 0.74680 0.48930 -0.27600
O 	O 	0.01030 0.18638 0.56467 -0.29200
H 	H 	0.07440 0.20460 0.67700 0.19000
O 	O 	0.03940 0.24680 0.51070 -0.27600
O 	O 	0.01030 0.68638 0.06467 -0.29200
H 	H 	0.07440 0.70460 0.17700 0.19000
O 	O 	0.03940 0.74680 0.01070 -0.27700
O 	O 	0.51030 0.18638 0.06467 -0.29200
H 	H 	0.57440 0.20460 0.17700 0.19000
O 	O 	0.53940 0.24680 0.01070 -0.27700
O 	O 	0.51030 0.68638 0.56467 -0.29200
H 	H 	0.57440 0.70460 0.67700 0.19000
O 	O 	0.53940 0.74680 0.51070 -0.27600
O 	O 	0.01030 0.81362 0.43533 -0.29200
H 	H 	0.07440 0.79540 0.32300 0.19000
O 	O 	0.03940 0.75320 0.48930 -0.27600
O 	O 	0.01030 0.31362 0.93533 -0.29200
H 	H 	0.07440 0.29540 0.82300 0.19000
O 	O 	0.03940 0.25320 0.98930 -0.27600
O 	O 	0.51030 0.81362 0.93533 -0.29200
H 	H 	0.57440 0.79540 0.82300 0.19000
O 	O 	0.53940 0.75320 0.98930 -0.27600
O 	O 	0.51030 0.31362 0.43533 -0.29200
H 	H 	0.57440 0.29540 0.32300 0.19000
O 	O 	0.53940 0.25320 0.48930 -0.27600
O 	O 	0.56467 0.98970 0.81362 -0.29100
H 	H 	0.67700 0.92560 0.79540 0.19000
O 	O 	0.51070 0.96060 0.75320 -0.27600
O 	O 	0.56467 0.48970 0.31362 -0.29200
H 	H 	0.67700 0.42560 0.29540 0.19000
O 	O 	0.51070 0.46060 0.25320 -0.27600
O 	O 	0.06467 0.98970 0.31362 -0.29100
H 	H 	0.17700 0.92560 0.29540 0.19000
O 	O 	0.01070 0.96060 0.25320 -0.27700
O 	O 	0.06467 0.48970 0.81362 -0.29200
H 	H 	0.17700 0.42560 0.79540 0.19000
O 	O 	0.01070 0.46060 0.75320 -0.27700
O 	O 	0.43533 0.98970 0.18638 -0.29100
H 	H 	0.32300 0.92560 0.20460 0.19000
O 	O 	0.48930 0.96060 0.24680 -0.27600
O 	O 	0.43533 0.48970 0.68638 -0.29200
H 	H 	0.32300 0.42560 0.70460 0.19000
O 	O 	0.48930 0.46060 0.74680 -0.27600
O 	O 	0.93533 0.98970 0.68638 -0.29100
H 	H 	0.82300 0.92560 0.70460 0.19000
O 	O 	0.98930 0.96060 0.74680 -0.27600
O 	O 	0.93533 0.48970 0.18638 -0.29200
H 	H 	0.82300 0.42560 0.20460 0.19000
O 	O 	0.98930 0.46060 0.24680 -0.27600
O 	O 	0.56467 0.01030 0.18638 -0.29200
H 	H 	0.67700 0.07440 0.20460 0.19000
O 	O 	0.51070 0.03940 0.24680 -0.27600
O 	O 	0.56467 0.51030 0.68638 -0.29200
H 	H 	0.67700 0.57440 0.70460 0.19000
O 	O 	0.51070 0.53940 0.74680 -0.27600
O 	O 	0.06467 0.01030 0.68638 -0.29200
H 	H 	0.17700 0.07440 0.70460 0.19000
O 	O 	0.01070 0.03940 0.74680 -0.27700
O 	O 	0.06467 0.51030 0.18638 -0.29200
H 	H 	0.17700 0.57440 0.20460 0.19000
O 	O 	0.01070 0.53940 0.24680 -0.27700
O 	O 	0.43533 0.01030 0.81362 -0.29200
H 	H 	0.32300 0.07440 0.79540 0.19000
O 	O 	0.48930 0.03940 0.75320 -0.27600
O 	O 	0.43533 0.51030 0.31362 -0.29200
H 	H 	0.32300 0.57440 0.29540 0.19000
O 	O 	0.48930 0.53940 0.25320 -0.27600
O 	O 	0.93533 0.01030 0.31362 -0.29200
H 	H 	0.82300 0.07440 0.29540 0.19000
O 	O 	0.98930 0.03940 0.25320 -0.27600
O 	O 	0.93533 0.51030 0.81362 -0.29200
H 	H 	0.82300 0.57440 0.79540 0.19000
O 	O 	0.98930 0.53940 0.75320 -0.27600
O 	O 	0.56467 0.81362 0.01030 -0.29200
H 	H 	0.67700 0.79540 0.07440 0.19000
O 	O 	0.51070 0.75320 0.03940 -0.27600
O 	O 	0.56467 0.31362 0.51030 -0.29200
H 	H 	0.67700 0.29540 0.57440 0.19000
O 	O 	0.51070 0.25320 0.53940 -0.27600
O 	O 	0.06467 0.81362 0.51030 -0.29200
H 	H 	0.17700 0.79540 0.57440 0.19000
O 	O 	0.01070 0.75320 0.53940 -0.27700
O 	O 	0.06467 0.31362 0.01030 -0.29200
H 	H 	0.17700 0.29540 0.07440 0.19000
O 	O 	0.01070 0.25320 0.03940 -0.27700
O 	O 	0.43533 0.18638 0.01030 -0.29200
H 	H 	0.32300 0.20460 0.07440 0.19000
O 	O 	0.48930 0.24680 0.03940 -0.27600
O 	O 	0.43533 0.68638 0.51030 -0.29200
H 	H 	0.32300 0.70460 0.57440 0.19000
O 	O 	0.48930 0.74680 0.53940 -0.27600
O 	O 	0.93533 0.18638 0.51030 -0.29200
H 	H 	0.82300 0.20460 0.57440 0.19000
O 	O 	0.98930 0.24680 0.53940 -0.27600
O 	O 	0.93533 0.68638 0.01030 -0.29200
H 	H 	0.82300 0.70460 0.07440 0.19000
O 	O 	0.98930 0.74680 0.03940 -0.27600
O 	O 	0.56467 0.18638 0.98970 -0.29100
H 	H 	0.67700 0.20460 0.92560 0.19000
O 	O 	0.51070 0.24680 0.96060 -0.27600
O 	O 	0.56467 0.68638 0.48970 -0.29200
H 	H 	0.67700 0.70460 0.42560 0.19000
O 	O 	0.51070 0.74680 0.46060 -0.27600
O 	O 	0.06467 0.18638 0.48970 -0.29200
H 	H 	0.17700 0.20460 0.42560 0.19000
O 	O 	0.01070 0.24680 0.46060 -0.27700
O 	O 	0.06467 0.68638 0.98970 -0.29100
H 	H 	0.17700 0.70460 0.92560 0.19000
O 	O 	0.01070 0.74680 0.96060 -0.27700
O 	O 	0.43533 0.81362 0.98970 -0.29100
H 	H 	0.32300 0.79540 0.92560 0.19000
O 	O 	0.48930 0.75320 0.96060 -0.27600
O 	O 	0.43533 0.31362 0.48970 -0.29200
H 	H 	0.32300 0.29540 0.42560 0.19000
O 	O 	0.48930 0.25320 0.46060 -0.27600
O 	O 	0.93533 0.81362 0.48970 -0.29200
H 	H 	0.82300 0.79540 0.42560 0.19000
O 	O 	0.98930 0.75320 0.46060 -0.27600
O 	O 	0.93533 0.31362 0.98970 -0.29100
H 	H 	0.82300 0.29540 0.92560 0.19000
O 	O 	0.98930 0.25320 0.96060 -0.27600
O 	O 	0.81362 0.98970 0.43533 -0.29100
H 	H 	0.79540 0.92560 0.32300 0.19000
O 	O 	0.75320 0.96060 0.48930 -0.27600
O 	O 	0.81362 0.48970 0.93533 -0.29200
H 	H 	0.79540 0.42560 0.82300 0.19000
O 	O 	0.75320 0.46060 0.98930 -0.27600
O 	O 	0.31362 0.98970 0.93533 -0.29100
H 	H 	0.29540 0.92560 0.82300 0.19000
O 	O 	0.25320 0.96060 0.98930 -0.27600
O 	O 	0.31362 0.48970 0.43533 -0.29200
H 	H 	0.29540 0.42560 0.32300 0.19000
O 	O 	0.25320 0.46060 0.48930 -0.27600
O 	O 	0.18638 0.98970 0.56467 -0.29100
H 	H 	0.20460 0.92560 0.67700 0.19000
O 	O 	0.24680 0.96060 0.51070 -0.27600
O 	O 	0.18638 0.48970 0.06467 -0.29200
H 	H 	0.20460 0.42560 0.17700 0.19000
O 	O 	0.24680 0.46060 0.01070 -0.27700
O 	O 	0.68638 0.98970 0.06467 -0.29100
H 	H 	0.70460 0.92560 0.17700 0.19000
O 	O 	0.74680 0.96060 0.01070 -0.27700
O 	O 	0.68638 0.48970 0.56467 -0.29200
H 	H 	0.70460 0.42560 0.67700 0.19000
O 	O 	0.74680 0.46060 0.51070 -0.27600
O 	O 	0.18638 0.01030 0.43533 -0.29200
H 	H 	0.20460 0.07440 0.32300 0.19000
O 	O 	0.24680 0.03940 0.48930 -0.27600
O 	O 	0.18638 0.51030 0.93533 -0.29200
H 	H 	0.20460 0.57440 0.82300 0.19000
O 	O 	0.24680 0.53940 0.98930 -0.27600
O 	O 	0.68638 0.01030 0.93533 -0.29200
H 	H 	0.70460 0.07440 0.82300 0.19000
O 	O 	0.74680 0.03940 0.98930 -0.27600
O 	O 	0.68638 0.51030 0.43533 -0.29200
H 	H 	0.70460 0.57440 0.32300 0.19000
O 	O 	0.74680 0.53940 0.48930 -0.27600
O 	O 	0.81362 0.01030 0.56467 -0.29200
H 	H 	0.79540 0.07440 0.67700 0.19000
O 	O 	0.75320 0.03940 0.51070 -0.27600
O 	O 	0.81362 0.51030 0.06467 -0.29200
H 	H 	0.79540 0.57440 0.17700 0.19000
O 	O 	0.75320 0.53940 0.01070 -0.27700
O 	O 	0.31362 0.01030 0.06467 -0.29200
H 	H 	0.29540 0.07440 0.17700 0.19000
O 	O 	0.25320 0.03940 0.01070 -0.27700
O 	O 	0.31362 0.51030 0.56467 -0.29200
H 	H 	0.29540 0.57440 0.67700 0.19000
O 	O 	0.25320 0.53940 0.51070 -0.27600
O 	O 	0.98970 0.56467 0.18638 -0.29100
H 	H 	0.92560 0.67700 0.20460 0.19000
O 	O 	0.96060 0.51070 0.24680 -0.27600
O 	O 	0.98970 0.06467 0.68638 -0.29100
H 	H 	0.92560 0.17700 0.70460 0.19000
O 	O 	0.96060 0.01070 0.74680 -0.27700
O 	O 	0.48970 0.56467 0.68638 -0.29200
H 	H 	0.42560 0.67700 0.70460 0.19000
O 	O 	0.46060 0.51070 0.74680 -0.27600
O 	O 	0.48970 0.06467 0.18638 -0.29200
H 	H 	0.42560 0.17700 0.20460 0.19000
O 	O 	0.46060 0.01070 0.24680 -0.27700
O 	O 	0.98970 0.43533 0.81362 -0.29100
H 	H 	0.92560 0.32300 0.79540 0.19000
O 	O 	0.96060 0.48930 0.75320 -0.27600
O 	O 	0.98970 0.93533 0.31362 -0.29100
H 	H 	0.92560 0.82300 0.29540 0.19000
O 	O 	0.96060 0.98930 0.25320 -0.27600
O 	O 	0.48970 0.43533 0.31362 -0.29200
H 	H 	0.42560 0.32300 0.29540 0.19000
O 	O 	0.46060 0.48930 0.25320 -0.27600
O 	O 	0.48970 0.93533 0.81362 -0.29200
H 	H 	0.42560 0.82300 0.79540 0.19000
O 	O 	0.46060 0.98930 0.75320 -0.27600
O 	O 	0.01030 0.56467 0.81362 -0.29200
H 	H 	0.07440 0.67700 0.79540 0.19000
O 	O 	0.03940 0.51070 0.75320 -0.27600
O 	O 	0.01030 0.06467 0.31362 -0.29200
H 	H 	0.07440 0.17700 0.29540 0.19000
O 	O 	0.03940 0.01070 0.25320 -0.27700
O 	O 	0.51030 0.56467 0.31362 -0.29200
H 	H 	0.57440 0.67700 0.29540 0.19000
O 	O 	0.53940 0.51070 0.25320 -0.27600
O 	O 	0.51030 0.06467 0.81362 -0.29200
H 	H 	0.57440 0.17700 0.79540 0.19000
O 	O 	0.53940 0.01070 0.75320 -0.27700
O 	O 	0.01030 0.43533 0.18638 -0.29200
H 	H 	0.07440 0.32300 0.20460 0.19000
O 	O 	0.03940 0.48930 0.24680 -0.27600
O 	O 	0.01030 0.93533 0.68638 -0.29200
H 	H 	0.07440 0.82300 0.70460 0.19000
O 	O 	0.03940 0.98930 0.74680 -0.27600
O 	O 	0.51030 0.43533 0.68638 -0.29200
H 	H 	0.57440 0.32300 0.70460 0.19000
O 	O 	0.53940 0.48930 0.74680 -0.27600
O 	O 	0.51030 0.93533 0.18638 -0.29200
H 	H 	0.57440 0.82300 0.20460 0.19000
O 	O 	0.53940 0.98930 0.24680 -0.27600
Ni	Ni	0.13785 0.50000 -0.00000 1.12000
O 	O 	0.18840 0.50000 -0.00000 -0.88900
Ni	Ni	0.63785 0.50000 0.50000 1.12000
O 	O 	0.68840 0.50000 0.50000 -0.88900
Ni	Ni	0.86215 0.50000 -0.00000 1.12000
O 	O 	0.81160 0.50000 -0.00000 -0.88900
Ni	Ni	0.86215 -0.00000 0.50000 1.12000
O 	O 	0.81160 -0.00000 0.50000 -0.88900
Ni	Ni	0.36215 0.50000 0.50000 1.12000
O 	O 	0.31160 0.50000 0.50000 -0.88900
Ni	Ni	0.63785 0.00000 -0.00000 1.12000
O 	O 	0.68840 0.00000 -0.00000 -0.88900
Ni	Ni	-0.00000 0.13785 0.50000 1.12000
O 	O 	-0.00000 0.18840 0.50000 -0.88900
Ni	Ni	-0.00000 0.63785 -0.00000 1.12000
O 	O 	-0.00000 0.68840 -0.00000 -0.88900
Ni	Ni	0.50000 0.63785 0.50000 1.12000
O 	O 	0.50000 0.68840 0.50000 -0.88900
Ni	Ni	0.00000 0.86215 0.50000 1.12000
O 	O 	-0.00000 0.81160 0.50000 -0.88900
Ni	Ni	-0.00000 0.36215 -0.00000 1.12000
O 	O 	-0.00000 0.31160 -0.00000 -0.88900
Ni	Ni	0.50000 0.13785 -0.00000 1.12000
O 	O 	0.50000 0.18840 -0.00000 -0.88900
Ni	Ni	0.50000 -0.00000 0.13785 1.12000
O 	O 	0.50000 -0.00000 0.18840 -0.88900
Ni	Ni	0.50000 0.50000 0.63785 1.12000
O 	O 	0.50000 0.50000 0.68840 -0.88900
Ni	Ni	0.50000 0.00000 0.86215 1.12000
O 	O 	0.50000 -0.00000 0.81160 -0.88900
Ni	Ni	0.50000 0.50000 0.36215 1.12000
O 	O 	0.50000 0.50000 0.31160 -0.88900
Ni	Ni	0.00000 0.50000 0.86215 1.12000
O 	O 	-0.00000 0.50000 0.81160 -0.88900
Ni	Ni	-0.00000 -0.00000 0.63785 1.12000
O 	O 	-0.00000 -0.00000 0.68840 -0.88900
Ni	Ni	0.50000 0.86215 -0.00000 1.12000
O 	O 	0.50000 0.81160 -0.00000 -0.88900
Ni	Ni	0.50000 0.36215 0.50000 1.12000
O 	O 	0.50000 0.31160 0.50000 -0.88900
Ni	Ni	0.13785 -0.00000 0.50000 1.12000
O 	O 	0.18840 -0.00000 0.50000 -0.88900
Ni	Ni	0.36215 0.00000 -0.00000 1.12000
O 	O 	0.31160 0.00000 -0.00000 -0.88900
Ni	Ni	0.00000 0.00000 0.36215 1.12000
O 	O 	-0.00000 -0.00000 0.31160 -0.88900
Ni	Ni	-0.00000 0.50000 0.13785 1.12000
O 	O 	-0.00000 0.50000 0.18840 -0.88900
O 	O 	0.13550 0.44979 -0.00000 -0.45400
C 	C 	0.17144 0.37011 -0.00000 -0.05100
H 	H 	0.19380 0.37610 -0.00000 0.06100
C 	C 	0.14746 0.39410 -0.00000 -0.11200
C 	C 	0.15693 0.42959 -0.00000 0.44300
O 	O 	0.13550 0.94979 0.50000 -0.45300
C 	C 	0.17144 0.87011 0.50000 -0.05100
H 	H 	0.19380 0.87610 0.50000 0.06100
C 	C 	0.14746 0.89410 0.50000 -0.11200
C 	C 	0.15693 0.92959 0.50000 0.44300
O 	O 	0.63550 0.44979 0.50000 -0.45300
C 	C 	0.67144 0.37011 0.50000 -0.05100
H 	H 	0.69380 0.37610 0.50000 0.06100
C 	C 	0.64746 0.39410 0.50000 -0.11200
C 	C 	0.65693 0.42959 0.50000 0.44300
O 	O 	0.63550 0.94979 -0.00000 -0.45300
C 	C 	0.67144 0.87011 -0.00000 -0.05100
H 	H 	0.69380 0.87610 -0.00000 0.06100
C 	C 	0.64746 0.89410 -0.00000 -0.11200
C 	C 	0.65693 0.92959 -0.00000 0.44300
O 	O 	0.86450 0.55021 -0.00000 -0.45400
C 	C 	0.82856 0.62989 -0.00000 -0.05100
H 	H 	0.80620 0.62390 -0.00000 0.06100
C 	C 	0.85254 0.60590 -0.00000 -0.11200
C 	C 	0.84307 0.57041 -0.00000 0.44300
O 	O 	0.86450 0.05021 0.50000 -0.45300
C 	C 	0.82856 0.12989 0.50000 -0.05100
H 	H 	0.80620 0.12390 0.50000 0.06100
C 	C 	0.85254 0.10590 0.50000 -0.11200
C 	C 	0.84307 0.07041 0.50000 0.44300
O 	O 	0.36450 0.55021 0.50000 -0.45300
C 	C 	0.32856 0.62989 0.50000 -0.05100
H 	H 	0.30620 0.62390 0.50000 0.06100
C 	C 	0.35254 0.60590 0.50000 -0.11200
C 	C 	0.34307 0.57041 0.50000 0.44300
O 	O 	0.36450 0.05021 -0.00000 -0.45400
C 	C 	0.32856 0.12989 -0.00000 -0.05100
H 	H 	0.30620 0.12390 -0.00000 0.06100
C 	C 	0.35254 0.10590 -0.00000 -0.11200
C 	C 	0.34307 0.07041 -0.00000 0.44300
O 	O 	0.86450 0.44979 -0.00000 -0.45400
C 	C 	0.82856 0.37011 -0.00000 -0.05100
H 	H 	0.80620 0.37610 -0.00000 0.06100
C 	C 	0.85254 0.39410 -0.00000 -0.11200
C 	C 	0.84307 0.42959 -0.00000 0.44300
O 	O 	0.86450 0.94979 0.50000 -0.45300
C 	C 	0.82856 0.87011 0.50000 -0.05100
H 	H 	0.80620 0.87610 0.50000 0.06100
C 	C 	0.85254 0.89410 0.50000 -0.11200
C 	C 	0.84307 0.92959 0.50000 0.44300
O 	O 	0.36450 0.44979 0.50000 -0.45300
C 	C 	0.32856 0.37011 0.50000 -0.05100
H 	H 	0.30620 0.37610 0.50000 0.06100
C 	C 	0.35254 0.39410 0.50000 -0.11200
C 	C 	0.34307 0.42959 0.50000 0.44300
O 	O 	0.36450 0.94979 -0.00000 -0.45300
C 	C 	0.32856 0.87011 -0.00000 -0.05100
H 	H 	0.30620 0.87610 -0.00000 0.06100
C 	C 	0.35254 0.89410 -0.00000 -0.11200
C 	C 	0.34307 0.92959 -0.00000 0.44300
O 	O 	0.13550 0.55021 -0.00000 -0.45400
C 	C 	0.17144 0.62989 -0.00000 -0.05100
H 	H 	0.19380 0.62390 -0.00000 0.06100
C 	C 	0.14746 0.60590 -0.00000 -0.11200
C 	C 	0.15693 0.57041 -0.00000 0.44300
O 	O 	0.13550 0.05021 0.50000 -0.45400
C 	C 	0.17144 0.12989 0.50000 -0.05100
H 	H 	0.19380 0.12390 0.50000 0.06100
C 	C 	0.14746 0.10590 0.50000 -0.11200
C 	C 	0.15693 0.07041 0.50000 0.44300
O 	O 	0.63550 0.55021 0.50000 -0.45300
C 	C 	0.67144 0.62989 0.50000 -0.05100
H 	H 	0.69380 0.62390 0.50000 0.06100
C 	C 	0.64746 0.60590 0.50000 -0.11200
C 	C 	0.65693 0.57041 0.50000 0.44300
O 	O 	0.63550 0.05021 -0.00000 -0.45400
C 	C 	0.67144 0.12989 -0.00000 -0.05100
H 	H 	0.69380 0.12390 -0.00000 0.06100
C 	C 	0.64746 0.10590 -0.00000 -0.11200
C 	C 	0.65693 0.07041 -0.00000 0.44300
O 	O 	-0.00000 0.13550 0.44979 -0.45400
C 	C 	-0.00000 0.17144 0.37011 -0.05100
H 	H 	-0.00000 0.19380 0.37610 0.06100
C 	C 	-0.00000 0.14746 0.39410 -0.11200
C 	C 	-0.00000 0.15693 0.42959 0.44300
O 	O 	0.00000 0.63550 0.94979 -0.45300
C 	C 	0.00000 0.67144 0.87011 -0.05100
H 	H 	-0.00000 0.69380 0.87610 0.06100
C 	C 	-0.00000 0.64746 0.89410 -0.11200
C 	C 	-0.00000 0.65693 0.92959 0.44300
O 	O 	0.50000 0.13550 0.94979 -0.45300
C 	C 	0.50000 0.17144 0.87011 -0.05100
H 	H 	0.50000 0.19380 0.87610 0.06100
C 	C 	0.50000 0.14746 0.89410 -0.11200
C 	C 	0.50000 0.15693 0.92959 0.44300
O 	O 	0.50000 0.63550 0.44979 -0.45300
C 	C 	0.50000 0.67144 0.37011 -0.05100
H 	H 	0.50000 0.69380 0.37610 0.06100
C 	C 	0.50000 0.64746 0.39410 -0.11200
C 	C 	0.50000 0.65693 0.42959 0.44300
O 	O 	-0.00000 0.86450 0.55021 -0.45400
C 	C 	-0.00000 0.82856 0.62989 -0.05100
H 	H 	0.00000 0.80620 0.62390 0.06100
C 	C 	-0.00000 0.85254 0.60590 -0.11200
C 	C 	-0.00000 0.84307 0.57041 0.44300
O 	O 	-0.00000 0.36450 0.05021 -0.45400
C 	C 	0.00000 0.32856 0.12989 -0.05100
H 	H 	0.00000 0.30620 0.12390 0.06100
C 	C 	-0.00000 0.35254 0.10590 -0.11200
C 	C 	-0.00000 0.34307 0.07041 0.44300
O 	O 	0.50000 0.86450 0.05021 -0.45300
C 	C 	0.50000 0.82856 0.12989 -0.05100
H 	H 	0.50000 0.80620 0.12390 0.06100
C 	C 	0.50000 0.85254 0.10590 -0.11200
C 	C 	0.50000 0.84307 0.07041 0.44300
O 	O 	0.50000 0.36450 0.55021 -0.45300
C 	C 	0.50000 0.32856 0.62989 -0.05100
H 	H 	0.50000 0.30620 0.62390 0.06100
C 	C 	0.50000 0.35254 0.60590 -0.11200
C 	C 	0.50000 0.34307 0.57041 0.44300
O 	O 	0.00000 0.86450 0.44979 -0.45400
C 	C 	0.00000 0.82856 0.37011 -0.05100
H 	H 	-0.00000 0.80620 0.37610 0.06100
C 	C 	-0.00000 0.85254 0.39410 -0.11200
C 	C 	0.00000 0.84307 0.42959 0.44300
O 	O 	-0.00000 0.36450 0.94979 -0.45300
C 	C 	0.00000 0.32856 0.87011 -0.05100
H 	H 	0.00000 0.30620 0.87610 0.06100
C 	C 	-0.00000 0.35254 0.89410 -0.11200
C 	C 	0.00000 0.34307 0.92959 0.44300
O 	O 	0.50000 0.86450 0.94979 -0.45300
C 	C 	0.50000 0.82856 0.87011 -0.05100
H 	H 	0.50000 0.80620 0.87610 0.06100
C 	C 	0.50000 0.85254 0.89410 -0.11200
C 	C 	0.50000 0.84307 0.92959 0.44300
O 	O 	0.50000 0.36450 0.44979 -0.45300
C 	C 	0.50000 0.32856 0.37011 -0.05100
H 	H 	0.50000 0.30620 0.37610 0.06100
C 	C 	0.50000 0.35254 0.39410 -0.11200
C 	C 	0.50000 0.34307 0.42959 0.44300
O 	O 	-0.00000 0.13550 0.55021 -0.45400
C 	C 	-0.00000 0.17144 0.62989 -0.05100
H 	H 	0.00000 0.19380 0.62390 0.06100
C 	C 	-0.00000 0.14746 0.60590 -0.11200
C 	C 	-0.00000 0.15693 0.57041 0.44300
O 	O 	-0.00000 0.63550 0.05021 -0.45400
C 	C 	0.00000 0.67144 0.12989 -0.05100
H 	H 	-0.00000 0.69380 0.12390 0.06100
C 	C 	-0.00000 0.64746 0.10590 -0.11200
C 	C 	-0.00000 0.65693 0.07041 0.44300
O 	O 	0.50000 0.13550 0.05021 -0.45400
C 	C 	0.50000 0.17144 0.12989 -0.05100
H 	H 	0.50000 0.19380 0.12390 0.06100
C 	C 	0.50000 0.14746 0.10590 -0.11200
C 	C 	0.50000 0.15693 0.07041 0.44300
O 	O 	0.50000 0.63550 0.55021 -0.45300
C 	C 	0.50000 0.67144 0.62989 -0.05100
H 	H 	0.50000 0.69380 0.62390 0.06100
C 	C 	0.50000 0.64746 0.60590 -0.11200
C 	C 	0.50000 0.65693 0.57041 0.44300
O 	O 	0.44979 -0.00000 0.13550 -0.45400
C 	C 	0.37011 0.00000 0.17144 -0.05100
H 	H 	0.37610 -0.00000 0.19380 0.06100
C 	C 	0.39410 -0.00000 0.14746 -0.11200
C 	C 	0.42959 0.00000 0.15693 0.44300
O 	O 	0.44979 0.50000 0.63550 -0.45300
C 	C 	0.37011 0.50000 0.67144 -0.05100
H 	H 	0.37610 0.50000 0.69380 0.06100
C 	C 	0.39410 0.50000 0.64746 -0.11200
C 	C 	0.42959 0.50000 0.65693 0.44300
O 	O 	0.94979 0.00000 0.63550 -0.45300
C 	C 	0.87011 0.00000 0.67144 -0.05100
H 	H 	0.87610 -0.00000 0.69380 0.06100
C 	C 	0.89410 -0.00000 0.64746 -0.11200
C 	C 	0.92959 0.00000 0.65693 0.44300
O 	O 	0.94979 0.50000 0.13550 -0.45300
C 	C 	0.87011 0.50000 0.17144 -0.05100
H 	H 	0.87610 0.50000 0.19380 0.06100
C 	C 	0.89410 0.50000 0.14746 -0.11200
C 	C 	0.92959 0.50000 0.15693 0.44300
O 	O 	0.55021 0.00000 0.86450 -0.45400
C 	C 	0.62989 0.00000 0.82856 -0.05100
H 	H 	0.62390 -0.00000 0.80620 0.06100
C 	C 	0.60590 -0.00000 0.85254 -0.11200
C 	C 	0.57041 0.00000 0.84307 0.44300
O 	O 	0.55021 0.50000 0.36450 -0.45300
C 	C 	0.62989 0.50000 0.32856 -0.05100
H 	H 	0.62390 0.50000 0.30620 0.06100
C 	C 	0.60590 0.50000 0.35254 -0.11200
C 	C 	0.57041 0.50000 0.34307 0.44300
O 	O 	0.05021 -0.00000 0.36450 -0.45400
C 	C 	0.12989 -0.00000 0.32856 -0.05100
H 	H 	0.12390 0.00000 0.30620 0.06100
C 	C 	0.10590 -0.00000 0.35254 -0.11200
C 	C 	0.07041 0.00000 0.34307 0.44300
O 	O 	0.05021 0.50000 0.86450 -0.45300
C 	C 	0.12989 0.50000 0.82856 -0.05100
H 	H 	0.12390 0.50000 0.80620 0.06100
C 	C 	0.10590 0.50000 0.85254 -0.11200
C 	C 	0.07041 0.50000 0.84307 0.44300
O 	O 	0.44979 0.00000 0.86450 -0.45400
C 	C 	0.37011 0.00000 0.82856 -0.05100
H 	H 	0.37610 -0.00000 0.80620 0.06100
C 	C 	0.39410 -0.00000 0.85254 -0.11200
C 	C 	0.42959 0.00000 0.84307 0.44300
O 	O 	0.44979 0.50000 0.36450 -0.45300
C 	C 	0.37011 0.50000 0.32856 -0.05100
H 	H 	0.37610 0.50000 0.30620 0.06100
C 	C 	0.39410 0.50000 0.35254 -0.11200
C 	C 	0.42959 0.50000 0.34307 0.44300
O 	O 	0.94979 -0.00000 0.36450 -0.45300
C 	C 	0.87011 -0.00000 0.32856 -0.05100
H 	H 	0.87610 0.00000 0.30620 0.06100
C 	C 	0.89410 -0.00000 0.35254 -0.11200
C 	C 	0.92959 0.00000 0.34307 0.44300
O 	O 	0.94979 0.50000 0.86450 -0.45300
C 	C 	0.87011 0.50000 0.82856 -0.05100
H 	H 	0.87610 0.50000 0.80620 0.06100
C 	C 	0.89410 0.50000 0.85254 -0.11200
C 	C 	0.92959 0.50000 0.84307 0.44300
O 	O 	0.55021 -0.00000 0.13550 -0.45400
C 	C 	0.62989 0.00000 0.17144 -0.05100
H 	H 	0.62390 -0.00000 0.19380 0.06100
C 	C 	0.60590 -0.00000 0.14746 -0.11200
C 	C 	0.57041 0.00000 0.15693 0.44300
O 	O 	0.55021 0.50000 0.63550 -0.45300
C 	C 	0.62989 0.50000 0.67144 -0.05100
H 	H 	0.62390 0.50000 0.69380 0.06100
C 	C 	0.60590 0.50000 0.64746 -0.11200
C 	C 	0.57041 0.50000 0.65693 0.44300
O 	O 	0.05021 0.00000 0.63550 -0.45400
C 	C 	0.12989 0.00000 0.67144 -0.05100
H 	H 	0.12390 -0.00000 0.69380 0.06100
C 	C 	0.10590 -0.00000 0.64746 -0.11200
C 	C 	0.07041 0.00000 0.65693 0.44300
O 	O 	0.05021 0.50000 0.13550 -0.45400
C 	C 	0.12989 0.50000 0.17144 -0.05100
H 	H 	0.12390 0.50000 0.19380 0.06100
C 	C 	0.10590 0.50000 0.14746 -0.11200
C 	C 	0.07041 0.50000 0.15693 0.44300
O 	O 	0.44979 0.13550 -0.00000 -0.45400
C 	C 	0.37011 0.17144 -0.00000 -0.05100
H 	H 	0.37610 0.19380 -0.00000 0.06100
C 	C 	0.39410 0.14746 -0.00000 -0.11200
C 	C 	0.42959 0.15693 -0.00000 0.44300
O 	O 	0.44979 0.63550 0.50000 -0.45300
C 	C 	0.37011 0.67144 0.50000 -0.05100
H 	H 	0.37610 0.69380 0.50000 0.06100
C 	C 	0.39410 0.64746 0.50000 -0.11200
C 	C 	0.42959 0.65693 0.50000 0.44300
O 	O 	0.94979 0.13550 0.50000 -0.45300
C 	C 	0.87011 0.17144 0.50000 -0.05100
H 	H 	0.87610 0.19380 0.50000 0.06100
C 	C 	0.89410 0.14746 0.50000 -0.11200
C 	C 	0.92959 0.15693 0.50000 0.44300
O 	O 	0.94979 0.63550 -0.00000 -0.45300
C 	C 	0.87011 0.67144 -0.00000 -0.05100
H 	H 	0.87610 0.69380 -0.00000 0.06100
C 	C 	0.89410 0.64746 -0.00000 -0.11200
C 	C 	0.92959 0.65693 -0.00000 0.44300
O 	O 	0.55021 0.86450 -0.00000 -0.45400
C 	C 	0.62989 0.82856 -0.00000 -0.05100
H 	H 	0.62390 0.80620 -0.00000 0.06100
C 	C 	0.60590 0.85254 -0.00000 -0.11200
C 	C 	0.57041 0.84307 -0.00000 0.44300
O 	O 	0.55021 0.36450 0.50000 -0.45300
C 	C 	0.62989 0.32856 0.50000 -0.05100
H 	H 	0.62390 0.30620 0.50000 0.06100
C 	C 	0.60590 0.35254 0.50000 -0.11200
C 	C 	0.57041 0.34307 0.50000 0.44300
O 	O 	0.05021 0.86450 0.50000 -0.45300
C 	C 	0.12989 0.82856 0.50000 -0.05100
H 	H 	0.12390 0.80620 0.50000 0.06100
C 	C 	0.10590 0.85254 0.50000 -0.11200
C 	C 	0.07041 0.84307 0.50000 0.44300
O 	O 	0.05021 0.36450 -0.00000 -0.45400
C 	C 	0.12989 0.32856 -0.00000 -0.05100
H 	H 	0.12390 0.30620 -0.00000 0.06100
C 	C 	0.10590 0.35254 -0.00000 -0.11200
C 	C 	0.07041 0.34307 -0.00000 0.44300
O 	O 	0.44979 0.86450 -0.00000 -0.45400
C 	C 	0.37011 0.82856 -0.00000 -0.05100
H 	H 	0.37610 0.80620 -0.00000 0.06100
C 	C 	0.39410 0.85254 -0.00000 -0.11200
C 	C 	0.42959 0.84307 -0.00000 0.44300
O 	O 	0.44979 0.36450 0.50000 -0.45300
C 	C 	0.37011 0.32856 0.50000 -0.05100
H 	H 	0.37610 0.30620 0.50000 0.06100
C 	C 	0.39410 0.35254 0.50000 -0.11200
C 	C 	0.42959 0.34307 0.50000 0.44300
O 	O 	0.94979 0.86450 0.50000 -0.45300
C 	C 	0.87011 0.82856 0.50000 -0.05100
H 	H 	0.87610 0.80620 0.50000 0.06100
C 	C 	0.89410 0.85254 0.50000 -0.11200
C 	C 	0.92959 0.84307 0.50000 0.44300
O 	O 	0.94979 0.36450 -0.00000 -0.45300
C 	C 	0.87011 0.32856 -0.00000 -0.05100
H 	H 	0.87610 0.30620 -0.00000 0.06100
C 	C 	0.89410 0.35254 -0.00000 -0.11200
C 	C 	0.92959 0.34307 -0.00000 0.44300
O 	O 	0.55021 0.13550 -0.00000 -0.45400
C 	C 	0.62989 0.17144 -0.00000 -0.05100
H 	H 	0.62390 0.19380 -0.00000 0.06100
C 	C 	0.60590 0.14746 -0.00000 -0.11200
C 	C 	0.57041 0.15693 -0.00000 0.44300
O 	O 	0.55021 0.63550 0.50000 -0.45300
C 	C 	0.62989 0.67144 0.50000 -0.05100
H 	H 	0.62390 0.69380 0.50000 0.06100
C 	C 	0.60590 0.64746 0.50000 -0.11200
C 	C 	0.57041 0.65693 0.50000 0.44300
O 	O 	0.05021 0.13550 0.50000 -0.45400
C 	C 	0.12989 0.17144 0.50000 -0.05100
H 	H 	0.12390 0.19380 0.50000 0.06100
C 	C 	0.10590 0.14746 0.50000 -0.11200
C 	C 	0.07041 0.15693 0.50000 0.44300
O 	O 	0.05021 0.63550 -0.00000 -0.45400
C 	C 	0.12989 0.67144 -0.00000 -0.05100
H 	H 	0.12390 0.69380 -0.00000 0.06100
C 	C 	0.10590 0.64746 -0.00000 -0.11200
C 	C 	0.07041 0.65693 -0.00000 0.44300
O 	O 	0.13550 -0.00000 0.55021 -0.45400
C 	C 	0.17144 0.00000 0.62989 -0.05100
H 	H 	0.19380 0.00000 0.62390 0.06100
C 	C 	0.14746 0.00000 0.60590 -0.11200
C 	C 	0.15693 -0.00000 0.57041 0.44300
O 	O 	0.13550 0.50000 0.05021 -0.45400
C 	C 	0.17144 0.50000 0.12989 -0.05100
H 	H 	0.19380 0.50000 0.12390 0.06100
C 	C 	0.14746 0.50000 0.10590 -0.11200
C 	C 	0.15693 0.50000 0.07041 0.44300
O 	O 	0.63550 0.00000 0.05021 -0.45400
C 	C 	0.67144 0.00000 0.12989 -0.05100
H 	H 	0.69380 -0.00000 0.12390 0.06100
C 	C 	0.64746 0.00000 0.10590 -0.11200
C 	C 	0.65693 -0.00000 0.07041 0.44300
O 	O 	0.63550 0.50000 0.55021 -0.45300
C 	C 	0.67144 0.50000 0.62989 -0.05100
H 	H 	0.69380 0.50000 0.62390 0.06100
C 	C 	0.64746 0.50000 0.60590 -0.11200
C 	C 	0.65693 0.50000 0.57041 0.44300
O 	O 	0.86450 -0.00000 0.44979 -0.45400
C 	C 	0.82856 -0.00000 0.37011 -0.05100
H 	H 	0.80620 -0.00000 0.37610 0.06100
C 	C 	0.85254 -0.00000 0.39410 -0.11200
C 	C 	0.84307 -0.00000 0.42959 0.44300
O 	O 	0.86450 0.50000 0.94979 -0.45300
C 	C 	0.82856 0.50000 0.87011 -0.05100
H 	H 	0.80620 0.50000 0.87610 0.06100
C 	C 	0.85254 0.50000 0.89410 -0.11200
C 	C 	0.84307 0.50000 0.92959 0.44300
O 	O 	0.36450 0.00000 0.94979 -0.45300
C 	C 	0.32856 0.00000 0.87011 -0.05100
H 	H 	0.30620 0.00000 0.87610 0.06100
C 	C 	0.35254 0.00000 0.89410 -0.11200
C 	C 	0.34307 0.00000 0.92959 0.44300
O 	O 	0.36450 0.50000 0.44979 -0.45300
C 	C 	0.32856 0.50000 0.37011 -0.05100
H 	H 	0.30620 0.50000 0.37610 0.06100
C 	C 	0.35254 0.50000 0.39410 -0.11200
C 	C 	0.34307 0.50000 0.42959 0.44300
O 	O 	0.86450 -0.00000 0.55021 -0.45400
C 	C 	0.82856 0.00000 0.62989 -0.05100
H 	H 	0.80620 0.00000 0.62390 0.06100
C 	C 	0.85254 0.00000 0.60590 -0.11200
C 	C 	0.84307 -0.00000 0.57041 0.44300
O 	O 	0.86450 0.50000 0.05021 -0.45300
C 	C 	0.82856 0.50000 0.12989 -0.05100
H 	H 	0.80620 0.50000 0.12390 0.06100
C 	C 	0.85254 0.50000 0.10590 -0.11200
C 	C 	0.84307 0.50000 0.07041 0.44300
O 	O 	0.36450 0.00000 0.05021 -0.45400
C 	C 	0.32856 0.00000 0.12989 -0.05100
H 	H 	0.30620 -0.00000 0.12390 0.06100
C 	C 	0.35254 0.00000 0.10590 -0.11200
C 	C 	0.34307 -0.00000 0.07041 0.44300
O 	O 	0.36450 0.50000 0.55021 -0.45300
C 	C 	0.32856 0.50000 0.62989 -0.05100
H 	H 	0.30620 0.50000 0.62390 0.06100
C 	C 	0.35254 0.50000 0.60590 -0.11200
C 	C 	0.34307 0.50000 0.57041 0.44300
O 	O 	0.13550 -0.00000 0.44979 -0.45400
C 	C 	0.17144 -0.00000 0.37011 -0.05100
H 	H 	0.19380 -0.00000 0.37610 0.06100
C 	C 	0.14746 -0.00000 0.39410 -0.11200
C 	C 	0.15693 -0.00000 0.42959 0.44300
O 	O 	0.13550 0.50000 0.94979 -0.45300
C 	C 	0.17144 0.50000 0.87011 -0.05100
H 	H 	0.19380 0.50000 0.87610 0.06100
C 	C 	0.14746 0.50000 0.89410 -0.11200
C 	C 	0.15693 0.50000 0.92959 0.44300
O 	O 	0.63550 0.00000 0.94979 -0.45300
C 	C 	0.67144 0.00000 0.87011 -0.05100
H 	H 	0.69380 0.00000 0.87610 0.06100
C 	C 	0.64746 0.00000 0.89410 -0.11200
C 	C 	0.65693 0.00000 0.92959 0.44300
O 	O 	0.63550 0.50000 0.44979 -0.45300
C 	C 	0.67144 0.50000 0.37011 -0.05100
H 	H 	0.69380 0.50000 0.37610 0.06100
C 	C 	0.64746 0.50000 0.39410 -0.11200
C 	C 	0.65693 0.50000 0.42959 0.44300
O 	O 	0.00000 0.44979 0.86450 -0.45400
C 	C 	-0.00000 0.37011 0.82856 -0.05100
H 	H 	-0.00000 0.37610 0.80620 0.06100
C 	C 	-0.00000 0.39410 0.85254 -0.11200
C 	C 	0.00000 0.42959 0.84307 0.44300
O 	O 	-0.00000 0.94979 0.36450 -0.45300
C 	C 	0.00000 0.87011 0.32856 -0.05100
H 	H 	0.00000 0.87610 0.30620 0.06100
C 	C 	-0.00000 0.89410 0.35254 -0.11200
C 	C 	0.00000 0.92959 0.34307 0.44300
O 	O 	0.50000 0.44979 0.36450 -0.45300
C 	C 	0.50000 0.37011 0.32856 -0.05100
H 	H 	0.50000 0.37610 0.30620 0.06100
C 	C 	0.50000 0.39410 0.35254 -0.11200
C 	C 	0.50000 0.42959 0.34307 0.44300
O 	O 	0.50000 0.94979 0.86450 -0.45300
C 	C 	0.50000 0.87011 0.82856 -0.05100
H 	H 	0.50000 0.87610 0.80620 0.06100
C 	C 	0.50000 0.89410 0.85254 -0.11200
C 	C 	0.50000 0.92959 0.84307 0.44300
O 	O 	-0.00000 0.55021 0.13550 -0.45400
C 	C 	-0.00000 0.62989 0.17144 -0.05100
H 	H 	0.00000 0.62390 0.19380 0.06100
C 	C 	-0.00000 0.60590 0.14746 -0.11200
C 	C 	-0.00000 0.57041 0.15693 0.44300
O 	O 	-0.00000 0.05021 0.63550 -0.45400
C 	C 	0.00000 0.12989 0.67144 -0.05100
H 	H 	-0.00000 0.12390 0.69380 0.06100
C 	C 	-0.00000 0.10590 0.64746 -0.11200
C 	C 	-0.00000 0.07041 0.65693 0.44300
O 	O 	0.50000 0.55021 0.63550 -0.45300
C 	C 	0.50000 0.62989 0.67144 -0.05100
H 	H 	0.50000 0.62390 0.69380 0.06100
C 	C 	0.50000 0.60590 0.64746 -0.11200
C 	C 	0.50000 0.57041 0.65693 0.44300
O 	O 	0.50000 0.05021 0.13550 -0.45400
C 	C 	0.50000 0.12989 0.17144 -0.05100
H 	H 	0.50000 0.12390 0.19380 0.06100
C 	C 	0.50000 0.10590 0.14746 -0.11200
C 	C 	0.50000 0.07041 0.15693 0.44300
O 	O 	-0.00000 0.44979 0.13550 -0.45400
C 	C 	-0.00000 0.37011 0.17144 -0.05100
H 	H 	-0.00000 0.37610 0.19380 0.06100
C 	C 	-0.00000 0.39410 0.14746 -0.11200
C 	C 	-0.00000 0.42959 0.15693 0.44300
O 	O 	0.00000 0.94979 0.63550 -0.45300
C 	C 	0.00000 0.87011 0.67144 -0.05100
H 	H 	-0.00000 0.87610 0.69380 0.06100
C 	C 	0.00000 0.89410 0.64746 -0.11200
C 	C 	0.00000 0.92959 0.65693 0.44300
O 	O 	0.50000 0.44979 0.63550 -0.45300
C 	C 	0.50000 0.37011 0.67144 -0.05100
H 	H 	0.50000 0.37610 0.69380 0.06100
C 	C 	0.50000 0.39410 0.64746 -0.11200
C 	C 	0.50000 0.42959 0.65693 0.44300
O 	O 	0.50000 0.94979 0.13550 -0.45300
C 	C 	0.50000 0.87011 0.17144 -0.05100
H 	H 	0.50000 0.87610 0.19380 0.06100
C 	C 	0.50000 0.89410 0.14746 -0.11200
C 	C 	0.50000 0.92959 0.15693 0.44300
O 	O 	-0.00000 0.55021 0.86450 -0.45400
C 	C 	-0.00000 0.62989 0.82856 -0.05100
H 	H 	-0.00000 0.62390 0.80620 0.06100
C 	C 	-0.00000 0.60590 0.85254 -0.11200
C 	C 	-0.00000 0.57041 0.84307 0.44300
O 	O 	-0.00000 0.05021 0.36450 -0.45400
C 	C 	0.00000 0.12989 0.32856 -0.05100
H 	H 	0.00000 0.12390 0.30620 0.06100
C 	C 	-0.00000 0.10590 0.35254 -0.11200
C 	C 	-0.00000 0.07041 0.34307 0.44300
O 	O 	0.50000 0.55021 0.36450 -0.45300
C 	C 	0.50000 0.62989 0.32856 -0.05100
H 	H 	0.50000 0.62390 0.30620 0.06100
C 	C 	0.50000 0.60590 0.35254 -0.11200
C 	C 	0.50000 0.57041 0.34307 0.44300
O 	O 	0.50000 0.05021 0.86450 -0.45300
C 	C 	0.50000 0.12989 0.82856 -0.05100
H 	H 	0.50000 0.12390 0.80620 0.06100
C 	C 	0.50000 0.10590 0.85254 -0.11200
C 	C 	0.50000 0.07041 0.84307 0.44300
C 	C 	0.16267 0.33733 -0.00000 0.05600
C 	C 	0.11468 0.38532 -0.00000 0.04100
H 	H 	0.09830 0.40170 -0.00000 0.03900
C 	C 	0.18881 0.31119 -0.00000 -0.19800
C 	C 	0.23679 0.26321 -0.00000 0.10500
C 	C 	0.16267 0.83733 0.50000 0.05600
C 	C 	0.11468 0.88532 0.50000 0.04200
H 	H 	0.09830 0.90170 0.50000 0.03900
C 	C 	0.18881 0.81119 0.50000 -0.19800
C 	C 	0.23679 0.76321 0.50000 0.10500
C 	C 	0.83733 0.66267 -0.00000 0.05600
C 	C 	0.88532 0.61468 -0.00000 0.04100
H 	H 	0.90170 0.59830 -0.00000 0.03900
C 	C 	0.81119 0.68881 -0.00000 -0.19800
C 	C 	0.76321 0.73679 -0.00000 0.10500
C 	C 	0.83733 0.16267 0.50000 0.05600
C 	C 	0.88532 0.11468 0.50000 0.04200
H 	H 	0.90170 0.09830 0.50000 0.03900
C 	C 	0.81119 0.18881 0.50000 -0.19800
C 	C 	0.76321 0.23679 0.50000 0.10500
C 	C 	0.33733 0.16267 -0.00000 0.05600
C 	C 	0.38532 0.11468 -0.00000 0.04100
H 	H 	0.40170 0.09830 -0.00000 0.03900
C 	C 	0.31119 0.18881 -0.00000 -0.19800
C 	C 	0.26321 0.23679 -0.00000 0.10500
C 	C 	0.83733 0.33733 -0.00000 0.05600
C 	C 	0.88532 0.38532 -0.00000 0.04100
H 	H 	0.90170 0.40170 -0.00000 0.03900
C 	C 	0.81119 0.31119 -0.00000 -0.19800
C 	C 	0.76321 0.26321 -0.00000 0.10500
C 	C 	0.83733 0.83733 0.50000 0.05600
C 	C 	0.88532 0.88532 0.50000 0.04200
H 	H 	0.90170 0.90170 0.50000 0.03900
C 	C 	0.81119 0.81119 0.50000 -0.19800
C 	C 	0.76321 0.76321 0.50000 0.10500
C 	C 	0.33733 0.33733 0.50000 0.05600
C 	C 	0.38532 0.38532 0.50000 0.04200
H 	H 	0.40170 0.40170 0.50000 0.03900
C 	C 	0.31119 0.31119 0.50000 -0.19800
C 	C 	0.26321 0.26321 0.50000 0.10500
C 	C 	0.16267 0.66267 -0.00000 0.05600
C 	C 	0.11468 0.61468 -0.00000 0.04100
H 	H 	0.09830 0.59830 -0.00000 0.03900
C 	C 	0.18881 0.68881 -0.00000 -0.19800
C 	C 	0.23679 0.73679 -0.00000 0.10500
C 	C 	0.16267 0.16267 0.50000 0.05600
C 	C 	0.11468 0.11468 0.50000 0.04200
H 	H 	0.09830 0.09830 0.50000 0.03900
C 	C 	0.18881 0.18881 0.50000 -0.19800
C 	C 	0.23679 0.23679 0.50000 0.10500
C 	C 	-0.00000 0.16267 0.33733 0.05600
C 	C 	-0.00000 0.11468 0.38532 0.04100
H 	H 	-0.00000 0.09830 0.40170 0.03900
C 	C 	-0.00000 0.18881 0.31119 -0.19800
C 	C 	-0.00000 0.23679 0.26321 0.10500
C 	C 	0.50000 0.16267 0.83733 0.05600
C 	C 	0.50000 0.11468 0.88532 0.04200
H 	H 	0.50000 0.09830 0.90170 0.03900
C 	C 	0.50000 0.18881 0.81119 -0.19800
C 	C 	0.50000 0.23679 0.76321 0.10500
C 	C 	-0.00000 0.83733 0.66267 0.05600
C 	C 	-0.00000 0.88532 0.61468 0.04100
H 	H 	0.00000 0.90170 0.59830 0.03900
C 	C 	-0.00000 0.81119 0.68881 -0.19800
C 	C 	-0.00000 0.76321 0.73679 0.10500
C 	C 	-0.00000 0.33733 0.16267 0.05600
C 	C 	-0.00000 0.38532 0.11468 0.04100
H 	H 	-0.00000 0.40170 0.09830 0.03900
C 	C 	-0.00000 0.31119 0.18881 -0.19800
C 	C 	-0.00000 0.26321 0.23679 0.10500
C 	C 	0.50000 0.83733 0.16267 0.05600
C 	C 	0.50000 0.88532 0.11468 0.04200
H 	H 	0.50000 0.90170 0.09830 0.03900
C 	C 	0.50000 0.81119 0.18881 -0.19800
C 	C 	0.50000 0.76321 0.23679 0.10500
C 	C 	-0.00000 0.83733 0.33733 0.05600
C 	C 	-0.00000 0.88532 0.38532 0.04100
H 	H 	-0.00000 0.90170 0.40170 0.03900
C 	C 	0.00000 0.81119 0.31119 -0.19800
C 	C 	-0.00000 0.76321 0.26321 0.10500
C 	C 	0.50000 0.83733 0.83733 0.05600
C 	C 	0.50000 0.88532 0.88532 0.04200
H 	H 	0.50000 0.90170 0.90170 0.03900
C 	C 	0.50000 0.81119 0.81119 -0.19800
C 	C 	0.50000 0.76321 0.76321 0.10500
C 	C 	0.50000 0.33733 0.33733 0.05600
C 	C 	0.50000 0.38532 0.38532 0.04200
H 	H 	0.50000 0.40170 0.40170 0.03900
C 	C 	0.50000 0.31119 0.31119 -0.19800
C 	C 	0.50000 0.26321 0.26321 0.10500
C 	C 	-0.00000 0.16267 0.66267 0.05600
C 	C 	-0.00000 0.11468 0.61468 0.04100
H 	H 	-0.00000 0.09830 0.59830 0.03900
C 	C 	-0.00000 0.18881 0.68881 -0.19800
C 	C 	0.00000 0.23679 0.73679 0.10500
C 	C 	0.50000 0.16267 0.16267 0.05600
C 	C 	0.50000 0.11468 0.11468 0.04200
H 	H 	0.50000 0.09830 0.09830 0.03900
C 	C 	0.50000 0.18881 0.18881 -0.19800
C 	C 	0.50000 0.23679 0.23679 0.10500
C 	C 	0.33733 -0.00000 0.16267 0.05600
C 	C 	0.38532 -0.00000 0.11468 0.04100
H 	H 	0.40170 -0.00000 0.09830 0.03900
C 	C 	0.31119 -0.00000 0.18881 -0.19800
C 	C 	0.26321 0.00000 0.23679 0.10500
C 	C 	0.33733 0.50000 0.66267 0.05600
C 	C 	0.38532 0.50000 0.61468 0.04200
H 	H 	0.40170 0.50000 0.59830 0.03900
C 	C 	0.31119 0.50000 0.68881 -0.19800
C 	C 	0.26321 0.50000 0.73679 0.10500
C 	C 	0.66267 -0.00000 0.83733 0.05600
C 	C 	0.61468 -0.00000 0.88532 0.04100
H 	H 	0.59830 0.00000 0.90170 0.03900
C 	C 	0.68881 0.00000 0.81119 -0.19800
C 	C 	0.73679 -0.00000 0.76321 0.10500
C 	C 	0.66267 0.50000 0.33733 0.05600
C 	C 	0.61468 0.50000 0.38532 0.04200
H 	H 	0.59830 0.50000 0.40170 0.03900
C 	C 	0.68881 0.50000 0.31119 -0.19800
C 	C 	0.73679 0.50000 0.26321 0.10500
C 	C 	0.16267 0.00000 0.33733 0.05600
C 	C 	0.11468 0.00000 0.38532 0.04100
H 	H 	0.09830 -0.00000 0.40170 0.03900
C 	C 	0.18881 -0.00000 0.31119 -0.19800
C 	C 	0.23679 -0.00000 0.26321 0.10500
C 	C 	0.33733 -0.00000 0.83733 0.05600
C 	C 	0.38532 -0.00000 0.88532 0.04100
H 	H 	0.40170 0.00000 0.90170 0.03900
C 	C 	0.31119 0.00000 0.81119 -0.19800
C 	C 	0.26321 -0.00000 0.76321 0.10500
C 	C 	0.33733 0.50000 0.33733 0.05600
C 	C 	0.38532 0.50000 0.38532 0.04200
H 	H 	0.40170 0.50000 0.40170 0.03900
C 	C 	0.31119 0.50000 0.31119 -0.19800
C 	C 	0.26321 0.50000 0.26321 0.10500
C 	C 	0.66267 -0.00000 0.16267 0.05600
C 	C 	0.61468 -0.00000 0.11468 0.04100
H 	H 	0.59830 -0.00000 0.09830 0.03900
C 	C 	0.68881 -0.00000 0.18881 -0.19800
C 	C 	0.73679 0.00000 0.23679 0.10500
C 	C 	0.66267 0.50000 0.66267 0.05600
C 	C 	0.61468 0.50000 0.61468 0.04200
H 	H 	0.59830 0.50000 0.59830 0.03900
C 	C 	0.68881 0.50000 0.68881 -0.19800
C 	C 	0.73679 0.50000 0.73679 0.10500
C 	C 	0.16267 0.50000 0.16267 0.05600
C 	C 	0.11468 0.50000 0.11468 0.04200
H 	H 	0.09830 0.50000 0.09830 0.03900
C 	C 	0.18881 0.50000 0.18881 -0.19800
C 	C 	0.23679 0.50000 0.23679 0.10500
C 	C 	0.33733 0.66267 0.50000 0.05600
C 	C 	0.38532 0.61468 0.50000 0.04200
H 	H 	0.40170 0.59830 0.50000 0.03900
C 	C 	0.31119 0.68881 0.50000 -0.19800
C 	C 	0.26321 0.73679 0.50000 0.10500
C 	C 	0.66267 0.83733 -0.00000 0.05600
C 	C 	0.61468 0.88532 -0.00000 0.04100
H 	H 	0.59830 0.90170 -0.00000 0.03900
C 	C 	0.68881 0.81119 -0.00000 -0.19800
C 	C 	0.73679 0.76321 -0.00000 0.10500
C 	C 	0.66267 0.33733 0.50000 0.05600
C 	C 	0.61468 0.38532 0.50000 0.04200
H 	H 	0.59830 0.40170 0.50000 0.03900
C 	C 	0.68881 0.31119 0.50000 -0.19800
C 	C 	0.73679 0.26321 0.50000 0.10500
C 	C 	0.33733 0.83733 -0.00000 0.05600
C 	C 	0.38532 0.88532 -0.00000 0.04100
H 	H 	0.40170 0.90170 -0.00000 0.03900
C 	C 	0.31119 0.81119 -0.00000 -0.19800
C 	C 	0.26321 0.76321 -0.00000 0.10500
C 	C 	0.66267 0.16267 -0.00000 0.05600
C 	C 	0.61468 0.11468 -0.00000 0.04100
H 	H 	0.59830 0.09830 -0.00000 0.03900
C 	C 	0.68881 0.18881 -0.00000 -0.19800
C 	C 	0.73679 0.23679 -0.00000 0.10500
C 	C 	0.66267 0.66267 0.50000 0.05600
C 	C 	0.61468 0.61468 0.50000 0.04200
H 	H 	0.59830 0.59830 0.50000 0.03900
C 	C 	0.68881 0.68881 0.50000 -0.19800
C 	C 	0.73679 0.73679 0.50000 0.10500
C 	C 	0.16267 -0.00000 0.66267 0.05600
C 	C 	0.11468 0.00000 0.61468 0.04100
H 	H 	0.09830 0.00000 0.59830 0.03900
C 	C 	0.18881 0.00000 0.68881 -0.19800
C 	C 	0.23679 -0.00000 0.73679 0.10500
C 	C 	0.83733 0.00000 0.33733 0.05600
C 	C 	0.88532 0.00000 0.38532 0.04100
H 	H 	0.90170 -0.00000 0.40170 0.03900
C 	C 	0.81119 -0.00000 0.31119 -0.19800
C 	C 	0.76321 -0.00000 0.26321 0.10500
C 	C 	0.83733 0.50000 0.83733 0.05600
C 	C 	0.88532 0.50000 0.88532 0.04200
H 	H 	0.90170 0.50000 0.90170 0.03900
C 	C 	0.81119 0.50000 0.81119 -0.19800
C 	C 	0.76321 0.50000 0.76321 0.10500
C 	C 	0.83733 -0.00000 0.66267 0.05600
C 	C 	0.88532 0.00000 0.61468 0.04100
H 	H 	0.90170 0.00000 0.59830 0.03900
C 	C 	0.81119 0.00000 0.68881 -0.19800
C 	C 	0.76321 -0.00000 0.73679 0.10500
C 	C 	0.83733 0.50000 0.16267 0.05600
C 	C 	0.88532 0.50000 0.11468 0.04200
H 	H 	0.90170 0.50000 0.09830 0.03900
C 	C 	0.81119 0.50000 0.18881 -0.19800
C 	C 	0.76321 0.50000 0.23679 0.10500
C 	C 	0.16267 0.50000 0.83733 0.05600
C 	C 	0.11468 0.50000 0.88532 0.04200
H 	H 	0.09830 0.50000 0.90170 0.03900
C 	C 	0.18881 0.50000 0.81119 -0.19800
C 	C 	0.23679 0.50000 0.76321 0.10500
C 	C 	-0.00000 0.33733 0.83733 0.05600
C 	C 	-0.00000 0.38532 0.88532 0.04100
H 	H 	-0.00000 0.40170 0.90170 0.03900
C 	C 	0.00000 0.31119 0.81119 -0.19800
C 	C 	-0.00000 0.26321 0.76321 0.10500
C 	C 	-0.00000 0.66267 0.16267 0.05600
C 	C 	0.00000 0.61468 0.11468 0.04100
H 	H 	-0.00000 0.59830 0.09830 0.03900
C 	C 	-0.00000 0.68881 0.18881 -0.19800
C 	C 	0.00000 0.73679 0.23679 0.10500
C 	C 	0.50000 0.66267 0.66267 0.05600
C 	C 	0.50000 0.61468 0.61468 0.04200
H 	H 	0.50000 0.59830 0.59830 0.03900
C 	C 	0.50000 0.68881 0.68881 -0.19800
C 	C 	0.50000 0.73679 0.73679 0.10500
C 	C 	0.50000 0.33733 0.66267 0.05600
C 	C 	0.50000 0.38532 0.61468 0.04200
H 	H 	0.50000 0.40170 0.59830 0.03900
C 	C 	0.50000 0.31119 0.68881 -0.19800
C 	C 	0.50000 0.26321 0.73679 0.10500
C 	C 	-0.00000 0.66267 0.83733 0.05600
C 	C 	-0.00000 0.61468 0.88532 0.04100
H 	H 	0.00000 0.59830 0.90170 0.03900
C 	C 	-0.00000 0.68881 0.81119 -0.19800
C 	C 	-0.00000 0.73679 0.76321 0.10500
C 	C 	0.50000 0.66267 0.33733 0.05600
C 	C 	0.50000 0.61468 0.38532 0.04200
H 	H 	0.50000 0.59830 0.40170 0.03900
C 	C 	0.50000 0.68881 0.31119 -0.19800
C 	C 	0.50000 0.73679 0.26321 0.10500
C 	C 	0.20081 0.29919 0.02938 0.24500
C 	C 	0.22480 0.27520 0.02938 -0.23700
H 	H 	0.23300 0.26700 0.04950 0.10100
C 	C 	0.18689 0.31311 0.06180 -0.58700
H 	H 	0.17035 0.32965 0.05690 0.19900
C 	C 	0.20081 0.79919 0.52938 0.24500
C 	C 	0.22480 0.77520 0.52938 -0.23700
H 	H 	0.23300 0.76700 0.54950 0.10100
C 	C 	0.18689 0.81311 0.56180 -0.58700
H 	H 	0.17035 0.82965 0.55690 0.19900
C 	C 	0.79919 0.70081 0.02938 0.24500
C 	C 	0.77520 0.72480 0.02938 -0.23700
H 	H 	0.76700 0.73300 0.04950 0.10100
C 	C 	0.81311 0.68689 0.06180 -0.58700
H 	H 	0.82965 0.67035 0.05690 0.19900
C 	C 	0.79919 0.20081 0.52938 0.24500
C 	C 	0.77520 0.22480 0.52938 -0.23700
H 	H 	0.76700 0.23300 0.54950 0.10100
C 	C 	0.81311 0.18689 0.56180 -0.58700
H 	H 	0.82965 0.17035 0.55690 0.19900
C 	C 	0.29919 0.20081 0.02938 0.24500
C 	C 	0.27520 0.22480 0.02938 -0.23700
H 	H 	0.26700 0.23300 0.04950 0.10100
C 	C 	0.31311 0.18689 0.06180 -0.58700
H 	H 	0.32965 0.17035 0.05690 0.19900
C 	C 	0.79919 0.29919 0.97062 0.24500
C 	C 	0.77520 0.27520 0.97062 -0.23700
H 	H 	0.76700 0.26700 0.95050 0.10100
C 	C 	0.81311 0.31311 0.93820 -0.58700
H 	H 	0.82965 0.32965 0.94310 0.19900
C 	C 	0.79919 0.79919 0.47062 0.24500
C 	C 	0.77520 0.77520 0.47062 -0.23700
H 	H 	0.76700 0.76700 0.45050 0.10100
C 	C 	0.81311 0.81311 0.43820 -0.58700
H 	H 	0.82965 0.82965 0.44310 0.19900
C 	C 	0.29919 0.29919 0.47062 0.24500
C 	C 	0.27520 0.27520 0.47062 -0.23700
H 	H 	0.26700 0.26700 0.45050 0.10100
C 	C 	0.31311 0.31311 0.43820 -0.58700
H 	H 	0.32965 0.32965 0.44310 0.19900
C 	C 	0.20081 0.70081 0.97062 0.24500
C 	C 	0.22480 0.72480 0.97062 -0.23700
H 	H 	0.23300 0.73300 0.95050 0.10100
C 	C 	0.18689 0.68689 0.93820 -0.58700
H 	H 	0.17035 0.67035 0.94310 0.19900
C 	C 	0.20081 0.20081 0.47062 0.24500
C 	C 	0.22480 0.22480 0.47062 -0.23700
H 	H 	0.23300 0.23300 0.45050 0.10100
C 	C 	0.18689 0.18689 0.43820 -0.58700
H 	H 	0.17035 0.17035 0.44310 0.19900
C 	C 	0.02938 0.20081 0.29919 0.24500
C 	C 	0.02938 0.22480 0.27520 -0.23700
H 	H 	0.04950 0.23300 0.26700 0.10100
C 	C 	0.06180 0.18689 0.31311 -0.58700
H 	H 	0.05690 0.17035 0.32965 0.19900
C 	C 	0.52938 0.20081 0.79919 0.24500
C 	C 	0.52938 0.22480 0.77520 -0.23700
H 	H 	0.54950 0.23300 0.76700 0.10100
C 	C 	0.56180 0.18689 0.81311 -0.58700
H 	H 	0.55690 0.17035 0.82965 0.19900
C 	C 	0.02938 0.79919 0.70081 0.24500
C 	C 	0.02938 0.77520 0.72480 -0.23700
H 	H 	0.04950 0.76700 0.73300 0.10100
C 	C 	0.06180 0.81311 0.68689 -0.58700
H 	H 	0.05690 0.82965 0.67035 0.19900
C 	C 	0.02938 0.29919 0.20081 0.24500
C 	C 	0.02938 0.27520 0.22480 -0.23700
H 	H 	0.04950 0.26700 0.23300 0.10100
C 	C 	0.06180 0.31311 0.18689 -0.58700
H 	H 	0.05690 0.32965 0.17035 0.19900
C 	C 	0.52938 0.79919 0.20081 0.24500
C 	C 	0.52938 0.77520 0.22480 -0.23700
H 	H 	0.54950 0.76700 0.23300 0.10100
C 	C 	0.56180 0.81311 0.18689 -0.58700
H 	H 	0.55690 0.82965 0.17035 0.19900
C 	C 	0.97062 0.79919 0.29919 0.24500
C 	C 	0.97062 0.77520 0.27520 -0.23700
H 	H 	0.95050 0.76700 0.26700 0.10100
C 	C 	0.93820 0.81311 0.31311 -0.58700
H 	H 	0.94310 0.82965 0.32965 0.19900
C 	C 	0.47062 0.79919 0.79919 0.24500
C 	C 	0.47062 0.77520 0.77520 -0.23700
H 	H 	0.45050 0.76700 0.76700 0.10100
C 	C 	0.43820 0.81311 0.81311 -0.58700
H 	H 	0.44310 0.82965 0.82965 0.19900
C 	C 	0.47062 0.29919 0.29919 0.24500
C 	C 	0.47062 0.27520 0.27520 -0.23700
H 	H 	0.45050 0.26700 0.26700 0.10100
C 	C 	0.43820 0.31311 0.31311 -0.58700
H 	H 	0.44310 0.32965 0.32965 0.19900
C 	C 	0.97062 0.20081 0.70081 0.24500
C 	C 	0.97062 0.22480 0.72480 -0.23700
H 	H 	0.95050 0.23300 0.73300 0.10100
C 	C 	0.93820 0.18689 0.68689 -0.58700
H 	H 	0.94310 0.17035 0.67035 0.19900
C 	C 	0.47062 0.20081 0.20081 0.24500
C 	C 	0.47062 0.22480 0.22480 -0.23700
H 	H 	0.45050 0.23300 0.23300 0.10100
C 	C 	0.43820 0.18689 0.18689 -0.58700
H 	H 	0.44310 0.17035 0.17035 0.19900
C 	C 	0.29919 0.02938 0.20081 0.24500
C 	C 	0.27520 0.02938 0.22480 -0.23700
H 	H 	0.26700 0.04950 0.23300 0.10100
C 	C 	0.31311 0.06180 0.18689 -0.58700
H 	H 	0.32965 0.05690 0.17035 0.19900
C 	C 	0.29919 0.52938 0.70081 0.24500
C 	C 	0.27520 0.52938 0.72480 -0.23700
H 	H 	0.26700 0.54950 0.73300 0.10100
C 	C 	0.31311 0.56180 0.68689 -0.58700
H 	H 	0.32965 0.55690 0.67035 0.19900
C 	C 	0.70081 0.02938 0.79919 0.24500
C 	C 	0.72480 0.02938 0.77520 -0.23700
H 	H 	0.73300 0.04950 0.76700 0.10100
C 	C 	0.68689 0.06180 0.81311 -0.58700
H 	H 	0.67035 0.05690 0.82965 0.19900
C 	C 	0.70081 0.52938 0.29919 0.24500
C 	C 	0.72480 0.52938 0.27520 -0.23700
H 	H 	0.73300 0.54950 0.26700 0.10100
C 	C 	0.68689 0.56180 0.31311 -0.58700
H 	H 	0.67035 0.55690 0.32965 0.19900
C 	C 	0.20081 0.02938 0.29919 0.24500
C 	C 	0.22480 0.02938 0.27520 -0.23700
H 	H 	0.23300 0.04950 0.26700 0.10100
C 	C 	0.18689 0.06180 0.31311 -0.58700
H 	H 	0.17035 0.05690 0.32965 0.19900
C 	C 	0.29919 0.97062 0.79919 0.24500
C 	C 	0.27520 0.97062 0.77520 -0.23700
H 	H 	0.26700 0.95050 0.76700 0.10100
C 	C 	0.31311 0.93820 0.81311 -0.58700
H 	H 	0.32965 0.94310 0.82965 0.19900
C 	C 	0.29919 0.47062 0.29919 0.24500
C 	C 	0.27520 0.47062 0.27520 -0.23700
H 	H 	0.26700 0.45050 0.26700 0.10100
C 	C 	0.31311 0.43820 0.31311 -0.58700
H 	H 	0.32965 0.44310 0.32965 0.19900
C 	C 	0.70081 0.97062 0.20081 0.24500
C 	C 	0.72480 0.97062 0.22480 -0.23700
H 	H 	0.73300 0.95050 0.23300 0.10100
C 	C 	0.68689 0.93820 0.18689 -0.58700
H 	H 	0.67035 0.94310 0.17035 0.19900
C 	C 	0.70081 0.47062 0.70081 0.24500
C 	C 	0.72480 0.47062 0.72480 -0.23700
H 	H 	0.73300 0.45050 0.73300 0.10100
C 	C 	0.68689 0.43820 0.68689 -0.58700
H 	H 	0.67035 0.44310 0.67035 0.19900
C 	C 	0.20081 0.47062 0.20081 0.24500
C 	C 	0.22480 0.47062 0.22480 -0.23700
H 	H 	0.23300 0.45050 0.23300 0.10100
C 	C 	0.18689 0.43820 0.18689 -0.58700
H 	H 	0.17035 0.44310 0.17035 0.19900
C 	C 	0.29919 0.20081 0.97062 0.24500
C 	C 	0.27520 0.22480 0.97062 -0.23700
H 	H 	0.26700 0.23300 0.95050 0.10100
C 	C 	0.31311 0.18689 0.93820 -0.58700
H 	H 	0.32965 0.17035 0.94310 0.19900
C 	C 	0.29919 0.70081 0.47062 0.24500
C 	C 	0.27520 0.72480 0.47062 -0.23700
H 	H 	0.26700 0.73300 0.45050 0.10100
C 	C 	0.31311 0.68689 0.43820 -0.58700
H 	H 	0.32965 0.67035 0.44310 0.19900
C 	C 	0.70081 0.79919 0.97062 0.24500
C 	C 	0.72480 0.77520 0.97062 -0.23700
H 	H 	0.73300 0.76700 0.95050 0.10100
C 	C 	0.68689 0.81311 0.93820 -0.58700
H 	H 	0.67035 0.82965 0.94310 0.19900
C 	C 	0.70081 0.29919 0.47062 0.24500
C 	C 	0.72480 0.27520 0.47062 -0.23700
H 	H 	0.73300 0.26700 0.45050 0.10100
C 	C 	0.68689 0.31311 0.43820 -0.58700
H 	H 	0.67035 0.32965 0.44310 0.19900
C 	C 	0.20081 0.29919 0.97062 0.24500
C 	C 	0.22480 0.27520 0.97062 -0.23700
H 	H 	0.23300 0.26700 0.95050 0.10100
C 	C 	0.18689 0.31311 0.93820 -0.58700
H 	H 	0.17035 0.32965 0.94310 0.19900
C 	C 	0.29919 0.79919 0.02938 0.24500
C 	C 	0.27520 0.77520 0.02938 -0.23700
H 	H 	0.26700 0.76700 0.04950 0.10100
C 	C 	0.31311 0.81311 0.06180 -0.58700
H 	H 	0.32965 0.82965 0.05690 0.19900
C 	C 	0.29919 0.29919 0.52938 0.24500
C 	C 	0.27520 0.27520 0.52938 -0.23700
H 	H 	0.26700 0.26700 0.54950 0.10100
C 	C 	0.31311 0.31311 0.56180 -0.58700
H 	H 	0.32965 0.32965 0.55690 0.19900
C 	C 	0.70081 0.20081 0.02938 0.24500
C 	C 	0.72480 0.22480 0.02938 -0.23700
H 	H 	0.73300 0.23300 0.04950 0.10100
C 	C 	0.68689 0.18689 0.06180 -0.58700
H 	H 	0.67035 0.17035 0.05690 0.19900
C 	C 	0.70081 0.70081 0.52938 0.24500
C 	C 	0.72480 0.72480 0.52938 -0.23700
H 	H 	0.73300 0.73300 0.54950 0.10100
C 	C 	0.68689 0.68689 0.56180 -0.58700
H 	H 	0.67035 0.67035 0.55690 0.19900
C 	C 	0.20081 0.20081 0.52938 0.24500
C 	C 	0.22480 0.22480 0.52938 -0.23700
H 	H 	0.23300 0.23300 0.54950 0.10100
C 	C 	0.18689 0.18689 0.56180 -0.58700
H 	H 	0.17035 0.17035 0.55690 0.19900
C 	C 	0.20081 0.02938 0.70081 0.24500
C 	C 	0.22480 0.02938 0.72480 -0.23700
H 	H 	0.23300 0.04950 0.73300 0.10100
C 	C 	0.18689 0.06180 0.68689 -0.58700
H 	H 	0.17035 0.05690 0.67035 0.19900
C 	C 	0.20081 0.52938 0.20081 0.24500
C 	C 	0.22480 0.52938 0.22480 -0.23700
H 	H 	0.23300 0.54950 0.23300 0.10100
C 	C 	0.18689 0.56180 0.18689 -0.58700
H 	H 	0.17035 0.55690 0.17035 0.19900
C 	C 	0.79919 0.02938 0.29919 0.24500
C 	C 	0.77520 0.02938 0.27520 -0.23700
H 	H 	0.76700 0.04950 0.26700 0.10100
C 	C 	0.81311 0.06180 0.31311 -0.58700
H 	H 	0.82965 0.05690 0.32965 0.19900
C 	C 	0.79919 0.52938 0.79919 0.24500
C 	C 	0.77520 0.52938 0.77520 -0.23700
H 	H 	0.76700 0.54950 0.76700 0.10100
C 	C 	0.81311 0.56180 0.81311 -0.58700
H 	H 	0.82965 0.55690 0.82965 0.19900
C 	C 	0.29919 0.52938 0.29919 0.24500
C 	C 	0.27520 0.52938 0.27520 -0.23700
H 	H 	0.26700 0.54950 0.26700 0.10100
C 	C 	0.31311 0.56180 0.31311 -0.58700
H 	H 	0.32965 0.55690 0.32965 0.19900
C 	C 	0.79919 0.97062 0.70081 0.24500
C 	C 	0.77520 0.97062 0.72480 -0.23700
H 	H 	0.76700 0.95050 0.73300 0.10100
C 	C 	0.81311 0.93820 0.68689 -0.58700
H 	H 	0.82965 0.94310 0.67035 0.19900
C 	C 	0.79919 0.47062 0.20081 0.24500
C 	C 	0.77520 0.47062 0.22480 -0.23700
H 	H 	0.76700 0.45050 0.23300 0.10100
C 	C 	0.81311 0.43820 0.18689 -0.58700
H 	H 	0.82965 0.44310 0.17035 0.19900
C 	C 	0.29919 0.97062 0.20081 0.24500
C 	C 	0.27520 0.97062 0.22480 -0.23700
H 	H 	0.26700 0.95050 0.23300 0.10100
C 	C 	0.31311 0.93820 0.18689 -0.58700
H 	H 	0.32965 0.94310 0.17035 0.19900
C 	C 	0.20081 0.97062 0.29919 0.24500
C 	C 	0.22480 0.97062 0.27520 -0.23700
H 	H 	0.23300 0.95050 0.26700 0.10100
C 	C 	0.18689 0.93820 0.31311 -0.58700
H 	H 	0.17035 0.94310 0.32965 0.19900
C 	C 	0.20081 0.47062 0.79919 0.24500
C 	C 	0.22480 0.47062 0.77520 -0.23700
H 	H 	0.23300 0.45050 0.76700 0.10100
C 	C 	0.18689 0.43820 0.81311 -0.58700
H 	H 	0.17035 0.44310 0.82965 0.19900
C 	C 	0.02938 0.29919 0.79919 0.24500
C 	C 	0.02938 0.27520 0.77520 -0.23700
H 	H 	0.04950 0.26700 0.76700 0.10100
C 	C 	0.06180 0.31311 0.81311 -0.58700
H 	H 	0.05690 0.32965 0.82965 0.19900
C 	C 	0.52938 0.29919 0.29919 0.24500
C 	C 	0.52938 0.27520 0.27520 -0.23700
H 	H 	0.54950 0.26700 0.26700 0.10100
C 	C 	0.56180 0.31311 0.31311 -0.58700
H 	H 	0.55690 0.32965 0.32965 0.19900
C 	C 	0.02938 0.70081 0.20081 0.24500
C 	C 	0.02938 0.72480 0.22480 -0.23700
H 	H 	0.04950 0.73300 0.23300 0.10100
C 	C 	0.06180 0.68689 0.18689 -0.58700
H 	H 	0.05690 0.67035 0.17035 0.19900
C 	C 	0.52938 0.70081 0.70081 0.24500
C 	C 	0.52938 0.72480 0.72480 -0.23700
H 	H 	0.54950 0.73300 0.73300 0.10100
C 	C 	0.56180 0.68689 0.68689 -0.58700
H 	H 	0.55690 0.67035 0.67035 0.19900
C 	C 	0.52938 0.20081 0.20081 0.24500
C 	C 	0.52938 0.22480 0.22480 -0.23700
H 	H 	0.54950 0.23300 0.23300 0.10100
C 	C 	0.56180 0.18689 0.18689 -0.58700
H 	H 	0.55690 0.17035 0.17035 0.19900
C 	C 	0.97062 0.29919 0.20081 0.24500
C 	C 	0.97062 0.27520 0.22480 -0.23700
H 	H 	0.95050 0.26700 0.23300 0.10100
C 	C 	0.93820 0.31311 0.18689 -0.58700
H 	H 	0.94310 0.32965 0.17035 0.19900
C 	C 	0.47062 0.29919 0.70081 0.24500
C 	C 	0.47062 0.27520 0.72480 -0.23700
H 	H 	0.45050 0.26700 0.73300 0.10100
C 	C 	0.43820 0.31311 0.68689 -0.58700
H 	H 	0.44310 0.32965 0.67035 0.19900
C 	C 	0.97062 0.70081 0.79919 0.24500
C 	C 	0.97062 0.72480 0.77520 -0.23700
H 	H 	0.95050 0.73300 0.76700 0.10100
C 	C 	0.93820 0.68689 0.81311 -0.58700
H 	H 	0.94310 0.67035 0.82965 0.19900
C 	C 	0.97062 0.20081 0.29919 0.24500
C 	C 	0.97062 0.22480 0.27520 -0.23700
H 	H 	0.95050 0.23300 0.26700 0.10100
C 	C 	0.93820 0.18689 0.31311 -0.58700
H 	H 	0.94310 0.17035 0.32965 0.19900
C 	C 	0.47062 0.70081 0.29919 0.24500
C 	C 	0.47062 0.72480 0.27520 -0.23700
H 	H 	0.45050 0.73300 0.26700 0.10100
C 	C 	0.43820 0.68689 0.31311 -0.58700
H 	H 	0.44310 0.67035 0.32965 0.19900
C 	C 	0.79919 0.70081 0.97062 0.24500
C 	C 	0.77520 0.72480 0.97062 -0.23700
H 	H 	0.76700 0.73300 0.95050 0.10100
C 	C 	0.81311 0.68689 0.93820 -0.58700
H 	H 	0.82965 0.67035 0.94310 0.19900
C 	C 	0.79919 0.20081 0.47062 0.24500
C 	C 	0.77520 0.22480 0.47062 -0.23700
H 	H 	0.76700 0.23300 0.45050 0.10100
C 	C 	0.81311 0.18689 0.43820 -0.58700
H 	H 	0.82965 0.17035 0.44310 0.19900
C 	C 	0.20081 0.79919 0.47062 0.24500
C 	C 	0.22480 0.77520 0.47062 -0.23700
H 	H 	0.23300 0.76700 0.45050 0.10100
C 	C 	0.18689 0.81311 0.43820 -0.58700
H 	H 	0.17035 0.82965 0.44310 0.19900
C 	C 	0.20081 0.70081 0.02938 0.24500
C 	C 	0.22480 0.72480 0.02938 -0.23700
H 	H 	0.23300 0.73300 0.04950 0.10100
C 	C 	0.18689 0.68689 0.06180 -0.58700
H 	H 	0.17035 0.67035 0.05690 0.19900
C 	C 	0.79919 0.29919 0.02938 0.24500
C 	C 	0.77520 0.27520 0.02938 -0.23700
H 	H 	0.76700 0.26700 0.04950 0.10100
C 	C 	0.81311 0.31311 0.06180 -0.58700
H 	H 	0.82965 0.32965 0.05690 0.19900
C 	C 	0.79919 0.79919 0.52938 0.24500
C 	C 	0.77520 0.77520 0.52938 -0.23700
H 	H 	0.76700 0.76700 0.54950 0.10100
C 	C 	0.81311 0.81311 0.56180 -0.58700
H 	H 	0.82965 0.82965 0.55690 0.19900
C 	C 	0.97062 0.79919 0.70081 0.24500
C 	C 	0.97062 0.77520 0.72480 -0.23700
H 	H 	0.95050 0.76700 0.73300 0.10100
C 	C 	0.93820 0.81311 0.68689 -0.58700
H 	H 	0.94310 0.82965 0.67035 0.19900
C 	C 	0.47062 0.79919 0.20081 0.24500
C 	C 	0.47062 0.77520 0.22480 -0.23700
H 	H 	0.45050 0.76700 0.23300 0.10100
C 	C 	0.43820 0.81311 0.18689 -0.58700
H 	H 	0.44310 0.82965 0.17035 0.19900
C 	C 	0.47062 0.20081 0.79919 0.24500
C 	C 	0.47062 0.22480 0.77520 -0.23700
H 	H 	0.45050 0.23300 0.76700 0.10100
C 	C 	0.43820 0.18689 0.81311 -0.58700
H 	H 	0.44310 0.17035 0.82965 0.19900
C 	C 	0.02938 0.20081 0.70081 0.24500
C 	C 	0.02938 0.22480 0.72480 -0.23700
H 	H 	0.04950 0.23300 0.73300 0.10100
C 	C 	0.06180 0.18689 0.68689 -0.58700
H 	H 	0.05690 0.17035 0.67035 0.19900
C 	C 	0.02938 0.79919 0.29919 0.24500
C 	C 	0.02938 0.77520 0.27520 -0.23700
H 	H 	0.04950 0.76700 0.26700 0.10100
C 	C 	0.06180 0.81311 0.31311 -0.58700
H 	H 	0.05690 0.82965 0.32965 0.19900
C 	C 	0.52938 0.79919 0.79919 0.24500
C 	C 	0.52938 0.77520 0.77520 -0.23700
H 	H 	0.54950 0.76700 0.76700 0.10100
C 	C 	0.56180 0.81311 0.81311 -0.58700
H 	H 	0.55690 0.82965 0.82965 0.19900
C 	C 	0.70081 0.97062 0.79919 0.24500
C 	C 	0.72480 0.97062 0.77520 -0.23700
H 	H 	0.73300 0.95050 0.76700 0.10100
C 	C 	0.68689 0.93820 0.81311 -0.58700
H 	H 	0.67035 0.94310 0.82965 0.19900
C 	C 	0.70081 0.47062 0.29919 0.24500
C 	C 	0.72480 0.47062 0.27520 -0.23700
H 	H 	0.73300 0.45050 0.26700 0.10100
C 	C 	0.68689 0.43820 0.31311 -0.58700
H 	H 	0.67035 0.44310 0.32965 0.19900
C 	C 	0.29919 0.47062 0.70081 0.24500
C 	C 	0.27520 0.47062 0.72480 -0.23700
H 	H 	0.26700 0.45050 0.73300 0.10100
C 	C 	0.31311 0.43820 0.68689 -0.58700
H 	H 	0.32965 0.44310 0.67035 0.19900
C 	C 	0.70081 0.02938 0.20081 0.24500
C 	C 	0.72480 0.02938 0.22480 -0.23700
H 	H 	0.73300 0.04950 0.23300 0.10100
C 	C 	0.68689 0.06180 0.18689 -0.58700
H 	H 	0.67035 0.05690 0.17035 0.19900
C 	C 	0.70081 0.52938 0.70081 0.24500
C 	C 	0.72480 0.52938 0.72480 -0.23700
H 	H 	0.73300 0.54950 0.73300 0.10100
C 	C 	0.68689 0.56180 0.68689 -0.58700
H 	H 	0.67035 0.55690 0.67035 0.19900
C 	C 	0.29919 0.02938 0.79919 0.24500
C 	C 	0.27520 0.02938 0.77520 -0.23700
H 	H 	0.26700 0.04950 0.76700 0.10100
C 	C 	0.31311 0.06180 0.81311 -0.58700
H 	H 	0.32965 0.05690 0.82965 0.19900
C 	C 	0.70081 0.79919 0.02938 0.24500
C 	C 	0.72480 0.77520 0.02938 -0.23700
H 	H 	0.73300 0.76700 0.04950 0.10100
C 	C 	0.68689 0.81311 0.06180 -0.58700
H 	H 	0.67035 0.82965 0.05690 0.19900
C 	C 	0.70081 0.29919 0.52938 0.24500
C 	C 	0.72480 0.27520 0.52938 -0.23700
H 	H 	0.73300 0.26700 0.54950 0.10100
C 	C 	0.68689 0.31311 0.56180 -0.58700
H 	H 	0.67035 0.32965 0.55690 0.19900
C 	C 	0.29919 0.70081 0.52938 0.24500
C 	C 	0.27520 0.72480 0.52938 -0.23700
H 	H 	0.26700 0.73300 0.54950 0.10100
C 	C 	0.31311 0.68689 0.56180 -0.58700
H 	H 	0.32965 0.67035 0.55690 0.19900
C 	C 	0.70081 0.20081 0.97062 0.24500
C 	C 	0.72480 0.22480 0.97062 -0.23700
H 	H 	0.73300 0.23300 0.95050 0.10100
C 	C 	0.68689 0.18689 0.93820 -0.58700
H 	H 	0.67035 0.17035 0.94310 0.19900
C 	C 	0.70081 0.70081 0.47062 0.24500
C 	C 	0.72480 0.72480 0.47062 -0.23700
H 	H 	0.73300 0.73300 0.45050 0.10100
C 	C 	0.68689 0.68689 0.43820 -0.58700
H 	H 	0.67035 0.67035 0.44310 0.19900
C 	C 	0.29919 0.79919 0.97062 0.24500
C 	C 	0.27520 0.77520 0.97062 -0.23700
H 	H 	0.26700 0.76700 0.95050 0.10100
C 	C 	0.31311 0.81311 0.93820 -0.58700
H 	H 	0.32965 0.82965 0.94310 0.19900
C 	C 	0.79919 0.97062 0.29919 0.24500
C 	C 	0.77520 0.97062 0.27520 -0.23700
H 	H 	0.76700 0.95050 0.26700 0.10100
C 	C 	0.81311 0.93820 0.31311 -0.58700
H 	H 	0.82965 0.94310 0.32965 0.19900
C 	C 	0.79919 0.47062 0.79919 0.24500
C 	C 	0.77520 0.47062 0.77520 -0.23700
H 	H 	0.76700 0.45050 0.76700 0.10100
C 	C 	0.81311 0.43820 0.81311 -0.58700
H 	H 	0.82965 0.44310 0.82965 0.19900
C 	C 	0.20081 0.97062 0.70081 0.24500
C 	C 	0.22480 0.97062 0.72480 -0.23700
H 	H 	0.23300 0.95050 0.73300 0.10100
C 	C 	0.18689 0.93820 0.68689 -0.58700
H 	H 	0.17035 0.94310 0.67035 0.19900
C 	C 	0.20081 0.52938 0.79919 0.24500
C 	C 	0.22480 0.52938 0.77520 -0.23700
H 	H 	0.23300 0.54950 0.76700 0.10100
C 	C 	0.18689 0.56180 0.81311 -0.58700
H 	H 	0.17035 0.55690 0.82965 0.19900
C 	C 	0.79919 0.02938 0.70081 0.24500
C 	C 	0.77520 0.02938 0.72480 -0.23700
H 	H 	0.76700 0.04950 0.73300 0.10100
C 	C 	0.81311 0.06180 0.68689 -0.58700
H 	H 	0.82965 0.05690 0.67035 0.19900
C 	C 	0.79919 0.52938 0.20081 0.24500
C 	C 	0.77520 0.52938 0.22480 -0.23700
H 	H 	0.76700 0.54950 0.23300 0.10100
C 	C 	0.81311 0.56180 0.18689 -0.58700
H 	H 	0.82965 0.55690 0.17035 0.19900
C 	C 	0.97062 0.70081 0.20081 0.24500
C 	C 	0.97062 0.72480 0.22480 -0.23700
H 	H 	0.95050 0.73300 0.23300 0.10100
C 	C 	0.93820 0.68689 0.18689 -0.58700
H 	H 	0.94310 0.67035 0.17035 0.19900
C 	C 	0.47062 0.70081 0.70081 0.24500
C 	C 	0.47062 0.72480 0.72480 -0.23700
H 	H 	0.45050 0.73300 0.73300 0.10100
C 	C 	0.43820 0.68689 0.68689 -0.58700
H 	H 	0.44310 0.67035 0.67035 0.19900
C 	C 	0.97062 0.29919 0.79919 0.24500
C 	C 	0.97062 0.27520 0.77520 -0.23700
H 	H 	0.95050 0.26700 0.76700 0.10100
C 	C 	0.93820 0.31311 0.81311 -0.58700
H 	H 	0.94310 0.32965 0.82965 0.19900
C 	C 	0.02938 0.70081 0.79919 0.24500
C 	C 	0.02938 0.72480 0.77520 -0.23700
H 	H 	0.04950 0.73300 0.76700 0.10100
C 	C 	0.06180 0.68689 0.81311 -0.58700
H 	H 	0.05690 0.67035 0.82965 0.19900
C 	C 	0.52938 0.70081 0.29919 0.24500
C 	C 	0.52938 0.72480 0.27520 -0.23700
H 	H 	0.54950 0.73300 0.26700 0.10100
C 	C 	0.56180 0.68689 0.31311 -0.58700
H 	H 	0.55690 0.67035 0.32965 0.19900
C 	C 	0.52938 0.29919 0.70081 0.24500
C 	C 	0.52938 0.27520 0.72480 -0.23700
H 	H 	0.54950 0.26700 0.73300 0.10100
C 	C 	0.56180 0.31311 0.68689 -0.58700
H 	H 	0.55690 0.32965 0.67035 0.19900
Ni	Ni	0.21488 0.47337 0.02663 1.07000
Ni	Ni	0.71488 0.47337 0.52663 1.07000
Ni	Ni	0.78512 0.52663 0.02663 1.07000
Ni	Ni	0.28512 0.52663 0.52663 1.07000
Ni	Ni	0.28512 0.02663 0.02663 1.07000
Ni	Ni	0.78512 0.47337 0.97337 1.07000
Ni	Ni	0.28512 0.47337 0.47337 1.07000
Ni	Ni	0.21488 0.52663 0.97337 1.07000
Ni	Ni	0.21488 0.02663 0.47337 1.07000
Ni	Ni	0.71488 0.52663 0.47337 1.07000
Ni	Ni	0.02663 0.21488 0.47337 1.07000
Ni	Ni	0.02663 0.71488 0.97337 1.07000
Ni	Ni	0.02663 0.78512 0.52663 1.07000
Ni	Ni	0.02663 0.28512 0.02663 1.07000
Ni	Ni	0.97337 0.78512 0.47337 1.07000
Ni	Ni	0.97337 0.28512 0.97337 1.07000
Ni	Ni	0.47337 0.28512 0.47337 1.07000
Ni	Ni	0.97337 0.21488 0.52663 1.07000
Ni	Ni	0.97337 0.71488 0.02663 1.07000
Ni	Ni	0.47337 0.21488 0.02663 1.07000
Ni	Ni	0.47337 0.02663 0.21488 1.07000
Ni	Ni	0.47337 0.52663 0.71488 1.07000
Ni	Ni	0.52663 0.02663 0.78512 1.07000
Ni	Ni	0.52663 0.52663 0.28512 1.07000
Ni	Ni	0.02663 0.02663 0.28512 1.07000
Ni	Ni	0.47337 0.97337 0.78512 1.07000
Ni	Ni	0.47337 0.47337 0.28512 1.07000
Ni	Ni	0.52663 0.97337 0.21488 1.07000
Ni	Ni	0.52663 0.47337 0.71488 1.07000
Ni	Ni	0.02663 0.47337 0.21488 1.07000
Ni	Ni	0.47337 0.21488 0.97337 1.07000
Ni	Ni	0.47337 0.71488 0.47337 1.07000
Ni	Ni	0.52663 0.78512 0.97337 1.07000
Ni	Ni	0.52663 0.28512 0.47337 1.07000
Ni	Ni	0.02663 0.78512 0.47337 1.07000
Ni	Ni	0.47337 0.78512 0.02663 1.07000
Ni	Ni	0.47337 0.28512 0.52663 1.07000
Ni	Ni	0.52663 0.21488 0.02663 1.07000
Ni	Ni	0.52663 0.71488 0.52663 1.07000
Ni	Ni	0.02663 0.71488 0.02663 1.07000
Ni	Ni	0.21488 0.02663 0.52663 1.07000
Ni	Ni	0.71488 0.02663 0.02663 1.07000
Ni	Ni	0.78512 0.02663 0.47337 1.07000
Ni	Ni	0.28512 0.02663 0.97337 1.07000
Ni	Ni	0.78512 0.97337 0.52663 1.07000
Ni	Ni	0.78512 0.47337 0.02663 1.07000
Ni	Ni	0.28512 0.97337 0.02663 1.07000
Ni	Ni	0.21488 0.97337 0.47337 1.07000
Ni	Ni	0.71488 0.97337 0.97337 1.07000
Ni	Ni	0.71488 0.47337 0.47337 1.07000
Ni	Ni	0.02663 0.47337 0.78512 1.07000
Ni	Ni	0.02663 0.97337 0.28512 1.07000
Ni	Ni	0.02663 0.52663 0.21488 1.07000
Ni	Ni	0.02663 0.02663 0.71488 1.07000
Ni	Ni	0.97337 0.47337 0.21488 1.07000
Ni	Ni	0.97337 0.97337 0.71488 1.07000
Ni	Ni	0.47337 0.47337 0.71488 1.07000
Ni	Ni	0.97337 0.52663 0.78512 1.07000
Ni	Ni	0.97337 0.02663 0.28512 1.07000
Ni	Ni	0.47337 0.02663 0.78512 1.07000
Ni	Ni	0.78512 0.52663 0.97337 1.07000
Ni	Ni	0.28512 0.52663 0.47337 1.07000
Ni	Ni	0.21488 0.47337 0.97337 1.07000
Ni	Ni	0.21488 0.52663 0.02663 1.07000
Ni	Ni	0.71488 0.52663 0.52663 1.07000
Ni	Ni	0.28512 0.47337 0.52663 1.07000
Ni	Ni	0.97337 0.78512 0.52663 1.07000
Ni	Ni	0.97337 0.28512 0.02663 1.07000
Ni	Ni	0.97337 0.21488 0.47337 1.07000
Ni	Ni	0.97337 0.71488 0.97337 1.07000
Ni	Ni	0.02663 0.21488 0.52663 1.07000
Ni	Ni	0.02663 0.28512 0.97337 1.07000
Ni	Ni	0.52663 0.97337 0.78512 1.07000
Ni	Ni	0.52663 0.47337 0.28512 1.07000
Ni	Ni	0.47337 0.97337 0.21488 1.07000
Ni	Ni	0.52663 0.02663 0.21488 1.07000
Ni	Ni	0.52663 0.52663 0.71488 1.07000
Ni	Ni	0.47337 0.52663 0.28512 1.07000
Ni	Ni	0.52663 0.78512 0.02663 1.07000
Ni	Ni	0.52663 0.28512 0.52663 1.07000
Ni	Ni	0.47337 0.71488 0.52663 1.07000
Ni	Ni	0.52663 0.21488 0.97337 1.07000
Ni	Ni	0.52663 0.71488 0.47337 1.07000
Ni	Ni	0.47337 0.78512 0.97337 1.07000
Ni	Ni	0.78512 0.97337 0.47337 1.07000
Ni	Ni	0.28512 0.97337 0.97337 1.07000
Ni	Ni	0.21488 0.97337 0.52663 1.07000
Ni	Ni	0.71488 0.97337 0.02663 1.07000
Ni	Ni	0.71488 0.02663 0.97337 1.07000
Ni	Ni	0.78512 0.02663 0.52663 1.07000
Ni	Ni	0.97337 0.52663 0.21488 1.07000
Ni	Ni	0.97337 0.02663 0.71488 1.07000
Ni	Ni	0.97337 0.47337 0.78512 1.07000
Ni	Ni	0.97337 0.97337 0.28512 1.07000
Ni	Ni	0.02663 0.52663 0.78512 1.07000
Ni	Ni	0.02663 0.97337 0.71488 1.07000
