data_crystal

_cell_length_a 40.07700
_cell_length_b 21.78900
_cell_length_c 9.14370
_cell_angle_alpha 90.00000
_cell_angle_beta  101.28000
_cell_angle_gamma 90.00000

_symmetry_space_group_name_	'P 1'
_symmetry_space_group_name_H-M	'P 1'

loop_
_symmetry_equiv_pos_as_xyz
  x,y,z

loop_
_atom_site_label
_atom_site_type_symbol
_atom_site_fract_x
_atom_site_fract_y
_atom_site_fract_z
_atom_site_charge
Pb	Pb	0.33043 0.00836 0.06243 1.24700
K 	K 	0.29095 0.87030 0.84850 0.63100
O 	O 	0.35920 0.94680 0.26800 -0.44000
O 	O 	0.34030 0.87450 0.10700 -0.21800
O 	O 	0.36670 0.78920 0.29140 -0.16100
O 	O 	0.21390 0.48580 0.79650 -0.53200
O 	O 	0.23620 0.54970 0.97130 -0.41800
O 	O 	0.29460 0.54980 0.88350 -0.20700
O 	O 	0.34870 0.07610 0.26110 0.14200
O 	O 	0.39050 0.07900 0.14480 -0.21200
O 	O 	0.42120 0.16450 0.33400 1.65000
C 	C 	0.36000 0.89480 0.21800 0.72300
C 	C 	0.37950 0.84980 0.32540 -0.36900
H 	H 	0.40340 0.85130 0.31960 0.17300
H 	H 	0.37750 0.86050 0.42620 0.13200
C 	C 	0.38190 0.74200 0.38790 0.22500
C 	C 	0.40650 0.75120 0.51400 -0.27200
H 	H 	0.41510 0.79020 0.53990 0.05200
C 	C 	0.41810 0.70060 0.60120 0.15000
H 	H 	0.43430 0.70710 0.68740 -0.07100
C 	C 	0.40720 0.64080 0.56870 -0.29200
C 	C 	0.38270 0.63460 0.43890 0.16800
H 	H 	0.37440 0.59560 0.41130 -0.04400
C 	C 	0.36990 0.68370 0.34830 -0.27100
H 	H 	0.35360 0.67750 0.26240 0.11500
C 	C 	0.23780 0.51610 0.86530 0.41600
C 	C 	0.26990 0.50810 0.80580 -0.21700
H 	H 	0.26560 0.51670 0.69970 0.09300
H 	H 	0.27800 0.46620 0.82140 0.08100
C 	C 	0.32540 0.55250 0.83170 0.27200
C 	C 	0.33450 0.51190 0.73180 -0.31200
H 	H 	0.32060 0.47900 0.69520 0.14100
C 	C 	0.36540 0.52120 0.68700 0.19900
H 	H 	0.37210 0.49310 0.62180 -0.05200
C 	C 	0.38650 0.57030 0.73490 -0.30300
C 	C 	0.37580 0.60980 0.83590 0.19200
H 	H 	0.38960 0.64290 0.87180 -0.06500
C 	C 	0.34550 0.60220 0.88590 -0.30700
H 	H 	0.33900 0.62950 0.95330 0.12500
C 	C 	0.41700 0.58590 0.66640 0.53600
C 	C 	0.44740 0.59930 0.79370 -0.93900
H 	H 	0.46610 0.61430 0.75270 0.27200
H 	H 	0.45400 0.56230 0.84870 0.26400
H 	H 	0.44100 0.62970 0.85910 0.29200
C 	C 	0.42750 0.53180 0.57770 -0.95400
H 	H 	0.41040 0.52520 0.48980 0.30500
H 	H 	0.42980 0.49550 0.63840 0.27900
H 	H 	0.44880 0.54090 0.54950 0.26900
C 	C 	0.37500 0.09900 0.24000 0.49200
C 	C 	0.38720 0.14940 0.34500 5.07900
H 	H 	0.37280 0.18530 0.32310 -1.67500
H 	H 	0.38650 0.13580 0.44520 -1.08200
C 	C 	0.43570 0.20640 0.44860 1.43900
C 	C 	0.42040 0.24290 0.54050 -0.93100
H 	H 	0.39720 0.24030 0.53930 0.45700
C 	C 	0.44130 0.28380 0.63540 0.72300
H 	H 	0.43130 0.30970 0.69550 -0.23700
C 	C 	0.47620 0.28750 0.64380 -0.84100
C 	C 	0.49030 0.25060 0.54730 0.88500
H 	H 	0.51370 0.25190 0.55110 -0.29900
C 	C 	0.47040 0.21210 0.44590 -1.27300
H 	H 	0.47990 0.19030 0.37680 0.38700
C 	C 	0.48060 0.36920 0.84080 -1.51100
H 	H 	0.46670 0.34420 0.89160 0.48400
H 	H 	0.46640 0.39710 0.77500 0.45000
H 	H 	0.49650 0.39200 0.91260 0.44100
O 	O 	0.37970 0.93240 0.17700 -0.29700
O 	O 	0.33020 0.88900 0.16600 -0.31700
O 	O 	0.37200 0.08400 0.23000 -0.92900
O 	O 	0.32610 0.13790 0.16000 0.01100
O 	O 	0.40860 0.16700 0.38300 -4.24000
C 	C 	0.35400 0.13000 0.23500 -1.00500
C 	C 	0.37300 0.17800 0.33700 -0.19100
H 	H 	0.36970 0.21710 0.28750 0.76200
H 	H 	0.36300 0.18010 0.42560 0.19500
Pb	Pb	0.83043 0.50836 0.06243 1.24700
K 	K 	0.79095 0.37030 0.84850 0.63000
O 	O 	0.85920 0.44680 0.26800 -0.44200
O 	O 	0.84030 0.37450 0.10700 -0.22000
O 	O 	0.86670 0.28920 0.29140 -0.16200
O 	O 	0.71390 0.98580 0.79650 -0.53400
O 	O 	0.73620 0.04970 0.97130 -0.41800
O 	O 	0.79460 0.04980 0.88350 -0.20800
O 	O 	0.84870 0.57610 0.26110 0.14400
O 	O 	0.89050 0.57900 0.14480 -0.21100
O 	O 	0.92120 0.66450 0.33400 1.65900
C 	C 	0.86000 0.39480 0.21800 0.72400
C 	C 	0.87950 0.34980 0.32540 -0.37000
H 	H 	0.90340 0.35130 0.31960 0.17300
H 	H 	0.87750 0.36050 0.42620 0.13200
C 	C 	0.88190 0.24200 0.38790 0.22600
C 	C 	0.90650 0.25120 0.51400 -0.27300
H 	H 	0.91510 0.29020 0.53990 0.05200
C 	C 	0.91810 0.20060 0.60120 0.15200
H 	H 	0.93430 0.20710 0.68740 -0.07200
C 	C 	0.90720 0.14080 0.56870 -0.29400
C 	C 	0.88270 0.13460 0.43890 0.17000
H 	H 	0.87440 0.09560 0.41130 -0.04500
C 	C 	0.86990 0.18370 0.34830 -0.27200
H 	H 	0.85360 0.17750 0.26240 0.11500
C 	C 	0.73780 0.01610 0.86530 0.41700
C 	C 	0.76990 0.00810 0.80580 -0.21400
H 	H 	0.76560 0.01670 0.69970 0.09200
H 	H 	0.77800 0.96620 0.82140 0.07900
C 	C 	0.82540 0.05250 0.83170 0.27300
C 	C 	0.83450 0.01190 0.73180 -0.31100
H 	H 	0.82060 0.97900 0.69520 0.14000
C 	C 	0.86540 0.02120 0.68700 0.20100
H 	H 	0.87210 0.99310 0.62180 -0.05300
C 	C 	0.88650 0.07030 0.73490 -0.30500
C 	C 	0.87580 0.10980 0.83590 0.19400
H 	H 	0.88960 0.14290 0.87180 -0.06500
C 	C 	0.84550 0.10220 0.88590 -0.30700
H 	H 	0.83900 0.12950 0.95330 0.12600
C 	C 	0.91700 0.08590 0.66640 0.54100
C 	C 	0.94740 0.09930 0.79370 -0.95000
H 	H 	0.96610 0.11430 0.75270 0.27700
H 	H 	0.95400 0.06230 0.84870 0.27000
H 	H 	0.94100 0.12970 0.85910 0.29700
C 	C 	0.92750 0.03180 0.57770 -0.95900
H 	H 	0.91040 0.02520 0.48980 0.30700
H 	H 	0.92980 0.99550 0.63840 0.28100
H 	H 	0.94880 0.04090 0.54950 0.27200
C 	C 	0.87500 0.59900 0.24000 0.49500
C 	C 	0.88720 0.64940 0.34500 5.10200
H 	H 	0.87280 0.68530 0.32310 -1.68200
H 	H 	0.88650 0.63580 0.44520 -1.08700
C 	C 	0.93570 0.70640 0.44860 1.44300
C 	C 	0.92040 0.74290 0.54050 -0.93000
H 	H 	0.89720 0.74030 0.53930 0.45700
C 	C 	0.94130 0.78380 0.63540 0.71700
H 	H 	0.93130 0.80970 0.69550 -0.23500
C 	C 	0.97620 0.78750 0.64380 -0.82800
C 	C 	0.99030 0.75060 0.54730 0.89500
H 	H 	0.01370 0.75190 0.55110 -0.30600
C 	C 	0.97040 0.71210 0.44590 -1.27900
H 	H 	0.97990 0.69030 0.37680 0.39100
C 	C 	0.98060 0.86920 0.84080 -1.47100
H 	H 	0.96670 0.84420 0.89160 0.47200
H 	H 	0.96640 0.89710 0.77500 0.43900
H 	H 	0.99650 0.89200 0.91260 0.43100
O 	O 	0.87970 0.43240 0.17700 -0.29800
O 	O 	0.83020 0.38900 0.16600 -0.31800
O 	O 	0.87200 0.58400 0.23000 -0.93400
O 	O 	0.82610 0.63790 0.16000 0.01400
O 	O 	0.90860 0.66700 0.38300 -4.26000
C 	C 	0.85400 0.63000 0.23500 -1.01200
C 	C 	0.87300 0.67800 0.33700 -0.19200
H 	H 	0.86970 0.71710 0.28750 0.76500
H 	H 	0.86300 0.68010 0.42560 0.19600
Pb	Pb	0.66957 0.00836 0.43757 1.24700
K 	K 	0.70905 0.87030 0.65150 0.63000
O 	O 	0.64080 0.94680 0.23200 -0.44100
O 	O 	0.65970 0.87450 0.39300 -0.22000
O 	O 	0.63330 0.78920 0.20860 -0.16200
O 	O 	0.78610 0.48580 0.70350 -0.53300
O 	O 	0.76380 0.54970 0.52870 -0.41800
O 	O 	0.70540 0.54980 0.61650 -0.20800
O 	O 	0.65130 0.07610 0.23890 0.14200
O 	O 	0.60950 0.07900 0.35520 -0.21100
O 	O 	0.57880 0.16450 0.16600 1.65400
C 	C 	0.64000 0.89480 0.28200 0.72400
C 	C 	0.62050 0.84980 0.17460 -0.36900
H 	H 	0.59660 0.85130 0.18040 0.17300
H 	H 	0.62250 0.86050 0.07380 0.13300
C 	C 	0.61810 0.74200 0.11210 0.22600
C 	C 	0.59350 0.75120 0.98600 -0.27400
H 	H 	0.58490 0.79020 0.96010 0.05200
C 	C 	0.58190 0.70060 0.89880 0.15100
H 	H 	0.56570 0.70710 0.81260 -0.07200
C 	C 	0.59280 0.64080 0.93130 -0.29200
C 	C 	0.61730 0.63460 0.06110 0.16900
H 	H 	0.62560 0.59560 0.08870 -0.04400
C 	C 	0.63010 0.68370 0.15170 -0.27200
H 	H 	0.64640 0.67750 0.23760 0.11500
C 	C 	0.76220 0.51610 0.63470 0.41600
C 	C 	0.73010 0.50810 0.69420 -0.21700
H 	H 	0.73440 0.51670 0.80030 0.09300
H 	H 	0.72200 0.46620 0.67860 0.08100
C 	C 	0.67460 0.55250 0.66830 0.27200
C 	C 	0.66550 0.51190 0.76820 -0.31200
H 	H 	0.67940 0.47900 0.80480 0.14100
C 	C 	0.63460 0.52120 0.81300 0.19900
H 	H 	0.62790 0.49310 0.87820 -0.05200
C 	C 	0.61350 0.57030 0.76510 -0.30300
C 	C 	0.62420 0.60980 0.66410 0.19200
H 	H 	0.61040 0.64290 0.62820 -0.06500
C 	C 	0.65450 0.60220 0.61410 -0.30700
H 	H 	0.66100 0.62950 0.54670 0.12500
C 	C 	0.58300 0.58590 0.83360 0.53600
C 	C 	0.55260 0.59930 0.70630 -0.93900
H 	H 	0.53390 0.61430 0.74730 0.27200
H 	H 	0.54600 0.56230 0.65130 0.26400
H 	H 	0.55900 0.62970 0.64090 0.29300
C 	C 	0.57250 0.53180 0.92230 -0.95300
H 	H 	0.58960 0.52520 0.01020 0.30500
H 	H 	0.57020 0.49550 0.86160 0.27800
H 	H 	0.55120 0.54090 0.95050 0.26800
C 	C 	0.62500 0.09900 0.26000 0.49300
C 	C 	0.61280 0.14940 0.15500 5.08900
H 	H 	0.62720 0.18530 0.17690 -1.67900
H 	H 	0.61350 0.13580 0.05480 -1.08500
C 	C 	0.56430 0.20640 0.05140 1.44000
C 	C 	0.57960 0.24290 0.95950 -0.93000
H 	H 	0.60280 0.24030 0.96070 0.45800
C 	C 	0.55870 0.28380 0.86460 0.72300
H 	H 	0.56870 0.30970 0.80450 -0.23700
C 	C 	0.52380 0.28750 0.85620 -0.84100
C 	C 	0.50970 0.25060 0.95270 0.88800
H 	H 	0.48630 0.25190 0.94890 -0.30000
C 	C 	0.52960 0.21210 0.05410 -1.27600
H 	H 	0.52010 0.19030 0.12320 0.38800
C 	C 	0.51940 0.36920 0.65920 -1.51100
H 	H 	0.53330 0.34420 0.60840 0.48400
H 	H 	0.53360 0.39710 0.72500 0.45000
H 	H 	0.50350 0.39200 0.58740 0.44000
O 	O 	0.62030 0.93240 0.32300 -0.29800
O 	O 	0.66980 0.88900 0.33400 -0.31700
O 	O 	0.62800 0.08400 0.27000 -0.93200
O 	O 	0.67390 0.13790 0.34000 0.01200
O 	O 	0.59140 0.16700 0.11700 -4.24900
C 	C 	0.64600 0.13000 0.26500 -1.00800
C 	C 	0.62700 0.17800 0.16300 -0.19200
H 	H 	0.63030 0.21710 0.21250 0.76300
H 	H 	0.63700 0.18010 0.07440 0.19500
Pb	Pb	0.16957 0.50836 0.43757 1.24700
K 	K 	0.20905 0.37030 0.65150 0.63000
O 	O 	0.14080 0.44680 0.23200 -0.44200
O 	O 	0.15970 0.37450 0.39300 -0.22000
O 	O 	0.13330 0.28920 0.20860 -0.16000
O 	O 	0.28610 0.98580 0.70350 -0.53400
O 	O 	0.26380 0.04970 0.52870 -0.41900
O 	O 	0.20540 0.04980 0.61650 -0.20700
O 	O 	0.15130 0.57610 0.23890 0.13400
O 	O 	0.10950 0.57900 0.35520 -0.21200
O 	O 	0.07880 0.66450 0.16600 1.62900
C 	C 	0.14000 0.39480 0.28200 0.72400
C 	C 	0.12050 0.34980 0.17460 -0.37000
H 	H 	0.09660 0.35130 0.18040 0.17300
H 	H 	0.12250 0.36050 0.07380 0.13200
C 	C 	0.11810 0.24200 0.11210 0.21700
C 	C 	0.09350 0.25120 0.98600 -0.26200
H 	H 	0.08490 0.29020 0.96010 0.04900
C 	C 	0.08190 0.20060 0.89880 0.14000
H 	H 	0.06570 0.20710 0.81260 -0.06800
C 	C 	0.09280 0.14080 0.93130 -0.27900
C 	C 	0.11730 0.13460 0.06110 0.15600
H 	H 	0.12560 0.09560 0.08870 -0.04000
C 	C 	0.13010 0.18370 0.15170 -0.26200
H 	H 	0.14640 0.17750 0.23760 0.11200
C 	C 	0.26220 0.01610 0.63470 0.41700
C 	C 	0.23010 0.00810 0.69420 -0.21600
H 	H 	0.23440 0.01670 0.80030 0.09300
H 	H 	0.22200 0.96620 0.67860 0.08000
C 	C 	0.17460 0.05250 0.66830 0.26900
C 	C 	0.16550 0.01190 0.76820 -0.30600
H 	H 	0.17940 0.97900 0.80480 0.13800
C 	C 	0.13460 0.02120 0.81300 0.19600
H 	H 	0.12790 0.99310 0.87820 -0.05200
C 	C 	0.11350 0.07030 0.76510 -0.29500
C 	C 	0.12420 0.10980 0.66410 0.18700
H 	H 	0.11040 0.14290 0.62820 -0.06300
C 	C 	0.15450 0.10220 0.61410 -0.30200
H 	H 	0.16100 0.12950 0.54670 0.12400
C 	C 	0.08300 0.08590 0.83360 0.52000
C 	C 	0.05260 0.09930 0.70630 -0.92100
H 	H 	0.03390 0.11430 0.74730 0.26500
H 	H 	0.04600 0.06230 0.65130 0.25800
H 	H 	0.05900 0.12970 0.64090 0.28700
C 	C 	0.07250 0.03180 0.92230 -0.92000
H 	H 	0.08960 0.02520 0.01020 0.29300
H 	H 	0.07020 0.99550 0.86160 0.26700
H 	H 	0.05120 0.04090 0.95050 0.25900
C 	C 	0.12500 0.59900 0.26000 0.48300
C 	C 	0.11280 0.64940 0.15500 5.01800
H 	H 	0.12720 0.68530 0.17690 -1.65700
H 	H 	0.11350 0.63580 0.05480 -1.06800
C 	C 	0.06430 0.70640 0.05140 1.41600
C 	C 	0.07960 0.74290 0.95950 -0.91400
H 	H 	0.10280 0.74030 0.96070 0.45000
C 	C 	0.05870 0.78380 0.86460 0.70200
H 	H 	0.06870 0.80970 0.80450 -0.23000
C 	C 	0.02380 0.78750 0.85620 -0.81500
C 	C 	0.00970 0.75060 0.95270 0.84600
H 	H 	0.98630 0.75190 0.94890 -0.28200
C 	C 	0.02960 0.71210 0.05410 -1.24200
H 	H 	0.02010 0.69030 0.12320 0.37500
C 	C 	0.01940 0.86920 0.65920 -1.47700
H 	H 	0.03330 0.84420 0.60840 0.47300
H 	H 	0.03360 0.89710 0.72500 0.43900
H 	H 	0.00350 0.89200 0.58740 0.42800
O 	O 	0.12030 0.43240 0.32300 -0.29800
O 	O 	0.16980 0.38900 0.33400 -0.31700
O 	O 	0.12800 0.58400 0.27000 -0.91600
O 	O 	0.17390 0.63790 0.34000 0.00700
O 	O 	0.09140 0.66700 0.11700 -4.19100
C 	C 	0.14600 0.63000 0.26500 -0.98800
C 	C 	0.12700 0.67800 0.16300 -0.18700
H 	H 	0.13030 0.71710 0.21250 0.75400
H 	H 	0.13700 0.68010 0.07440 0.19300
Pb	Pb	0.66957 0.99164 0.93757 1.24600
K 	K 	0.70905 0.12970 0.15150 0.63000
O 	O 	0.64080 0.05320 0.73200 -0.44100
O 	O 	0.65970 0.12550 0.89300 -0.21900
O 	O 	0.63330 0.21080 0.70860 -0.16200
O 	O 	0.78610 0.51420 0.20350 -0.53300
O 	O 	0.76380 0.45030 0.02870 -0.41900
O 	O 	0.70540 0.45020 0.11650 -0.20800
O 	O 	0.65130 0.92390 0.73890 0.14100
O 	O 	0.60950 0.92100 0.85520 -0.21200
O 	O 	0.57880 0.83550 0.66600 1.65000
C 	C 	0.64000 0.10520 0.78200 0.72300
C 	C 	0.62050 0.15020 0.67460 -0.36900
H 	H 	0.59660 0.14870 0.68040 0.17300
H 	H 	0.62250 0.13950 0.57380 0.13200
C 	C 	0.61810 0.25800 0.61210 0.22500
C 	C 	0.59350 0.24880 0.48600 -0.27200
H 	H 	0.58490 0.20980 0.46010 0.05200
C 	C 	0.58190 0.29940 0.39880 0.15000
H 	H 	0.56570 0.29290 0.31260 -0.07100
C 	C 	0.59280 0.35920 0.43130 -0.29200
C 	C 	0.61730 0.36540 0.56110 0.16800
H 	H 	0.62560 0.40440 0.58870 -0.04400
C 	C 	0.63010 0.31630 0.65170 -0.27100
H 	H 	0.64640 0.32250 0.73760 0.11500
C 	C 	0.76220 0.48390 0.13470 0.41600
C 	C 	0.73010 0.49190 0.19420 -0.21700
H 	H 	0.73440 0.48330 0.30030 0.09300
H 	H 	0.72200 0.53380 0.17860 0.08100
C 	C 	0.67460 0.44750 0.16830 0.27200
C 	C 	0.66550 0.48810 0.26820 -0.31200
H 	H 	0.67940 0.52100 0.30480 0.14100
C 	C 	0.63460 0.47880 0.31300 0.19900
H 	H 	0.62790 0.50690 0.37820 -0.05200
C 	C 	0.61350 0.42970 0.26510 -0.30300
C 	C 	0.62420 0.39020 0.16410 0.19200
H 	H 	0.61040 0.35710 0.12820 -0.06500
C 	C 	0.65450 0.39780 0.11410 -0.30700
H 	H 	0.66100 0.37050 0.04670 0.12500
C 	C 	0.58300 0.41410 0.33360 0.53600
C 	C 	0.55260 0.40070 0.20630 -0.93900
H 	H 	0.53390 0.38570 0.24730 0.27200
H 	H 	0.54600 0.43770 0.15130 0.26400
H 	H 	0.55900 0.37030 0.14090 0.29200
C 	C 	0.57250 0.46820 0.42230 -0.95400
H 	H 	0.58960 0.47480 0.51020 0.30500
H 	H 	0.57020 0.50450 0.36160 0.27900
H 	H 	0.55120 0.45910 0.45050 0.26900
C 	C 	0.62500 0.90100 0.76000 0.49200
C 	C 	0.61280 0.85060 0.65500 5.07800
H 	H 	0.62720 0.81470 0.67690 -1.67500
H 	H 	0.61350 0.86420 0.55480 -1.08200
C 	C 	0.56430 0.79360 0.55140 1.43900
C 	C 	0.57960 0.75710 0.45950 -0.93100
H 	H 	0.60280 0.75970 0.46070 0.45700
C 	C 	0.55870 0.71620 0.36460 0.72300
H 	H 	0.56870 0.69030 0.30450 -0.23700
C 	C 	0.52380 0.71250 0.35620 -0.84100
C 	C 	0.50970 0.74940 0.45270 0.88500
H 	H 	0.48630 0.74810 0.44890 -0.29900
C 	C 	0.52960 0.78790 0.55410 -1.27300
H 	H 	0.52010 0.80970 0.62320 0.38700
C 	C 	0.51940 0.63080 0.15920 -1.51100
H 	H 	0.53330 0.65580 0.10840 0.48400
H 	H 	0.53360 0.60290 0.22500 0.45000
H 	H 	0.50350 0.60800 0.08740 0.44100
O 	O 	0.62030 0.06760 0.82300 -0.29700
O 	O 	0.66980 0.11100 0.83400 -0.31700
O 	O 	0.62800 0.91600 0.77000 -0.92900
O 	O 	0.67390 0.86210 0.84000 0.01100
O 	O 	0.59140 0.83300 0.61700 -4.24000
C 	C 	0.64600 0.87000 0.76500 -1.00500
C 	C 	0.62700 0.82200 0.66300 -0.19100
H 	H 	0.63030 0.78290 0.71250 0.76200
H 	H 	0.63700 0.81990 0.57440 0.19500
Pb	Pb	0.16957 0.49164 0.93757 1.24700
K 	K 	0.20905 0.62970 0.15150 0.63000
O 	O 	0.14080 0.55320 0.73200 -0.44200
O 	O 	0.15970 0.62550 0.89300 -0.22100
O 	O 	0.13330 0.71080 0.70860 -0.16200
O 	O 	0.28610 0.01420 0.20350 -0.53400
O 	O 	0.26380 0.95030 0.02870 -0.41800
O 	O 	0.20540 0.95020 0.11650 -0.20800
O 	O 	0.15130 0.42390 0.73890 0.13500
O 	O 	0.10950 0.42100 0.85520 -0.21200
O 	O 	0.07880 0.33550 0.66600 1.63400
C 	C 	0.14000 0.60520 0.78200 0.72400
C 	C 	0.12050 0.65020 0.67460 -0.37000
H 	H 	0.09660 0.64870 0.68040 0.17300
H 	H 	0.12250 0.63950 0.57380 0.13200
C 	C 	0.11810 0.75800 0.61210 0.22500
C 	C 	0.09350 0.74880 0.48600 -0.27200
H 	H 	0.08490 0.70980 0.46010 0.05300
C 	C 	0.08190 0.79940 0.39880 0.15000
H 	H 	0.06570 0.79290 0.31260 -0.07100
C 	C 	0.09280 0.85920 0.43130 -0.29100
C 	C 	0.11730 0.86540 0.56110 0.16800
H 	H 	0.12560 0.90440 0.58870 -0.04400
C 	C 	0.13010 0.81630 0.65170 -0.27100
H 	H 	0.14640 0.82250 0.73760 0.11500
C 	C 	0.26220 0.98390 0.13470 0.41700
C 	C 	0.23010 0.99190 0.19420 -0.21400
H 	H 	0.23440 0.98330 0.30030 0.09200
H 	H 	0.22200 0.03380 0.17860 0.07900
C 	C 	0.17460 0.94750 0.16830 0.27200
C 	C 	0.16550 0.98810 0.26820 -0.30900
H 	H 	0.17940 0.02100 0.30480 0.13900
C 	C 	0.13460 0.97880 0.31300 0.19900
H 	H 	0.12790 0.00690 0.37820 -0.05200
C 	C 	0.11350 0.92970 0.26510 -0.30100
C 	C 	0.12420 0.89020 0.16410 0.19100
H 	H 	0.11040 0.85710 0.12820 -0.06400
C 	C 	0.15450 0.89780 0.11410 -0.30600
H 	H 	0.16100 0.87050 0.04670 0.12600
C 	C 	0.08300 0.91410 0.33360 0.53400
C 	C 	0.05260 0.90070 0.20630 -0.93800
H 	H 	0.03390 0.88570 0.24730 0.27100
H 	H 	0.04600 0.93770 0.15130 0.26400
H 	H 	0.05900 0.87030 0.14090 0.29300
C 	C 	0.07250 0.96820 0.42230 -0.95000
H 	H 	0.08960 0.97480 0.51020 0.30400
H 	H 	0.07020 0.00450 0.36160 0.27700
H 	H 	0.05120 0.95910 0.45050 0.26800
C 	C 	0.12500 0.40100 0.76000 0.48400
C 	C 	0.11280 0.35060 0.65500 5.02900
H 	H 	0.12720 0.31470 0.67690 -1.66100
H 	H 	0.11350 0.36420 0.55480 -1.07100
C 	C 	0.06430 0.29360 0.55140 1.41700
C 	C 	0.07960 0.25710 0.45950 -0.91300
H 	H 	0.10280 0.25970 0.46070 0.45000
C 	C 	0.05870 0.21620 0.36460 0.70300
H 	H 	0.06870 0.19030 0.30450 -0.23000
C 	C 	0.02380 0.21250 0.35620 -0.81700
C 	C 	0.00970 0.24940 0.45270 0.85000
H 	H 	0.98630 0.24810 0.44890 -0.28300
C 	C 	0.02960 0.28790 0.55410 -1.24600
H 	H 	0.02010 0.30970 0.62320 0.37600
C 	C 	0.01940 0.13080 0.15920 -1.47700
H 	H 	0.03330 0.15580 0.10840 0.47200
H 	H 	0.03360 0.10290 0.22500 0.43900
H 	H 	0.00350 0.10800 0.08740 0.42800
O 	O 	0.12030 0.56760 0.82300 -0.29900
O 	O 	0.16980 0.61100 0.83400 -0.31700
O 	O 	0.12800 0.41600 0.77000 -0.91800
O 	O 	0.17390 0.36210 0.84000 0.00800
O 	O 	0.09140 0.33300 0.61700 -4.20000
C 	C 	0.14600 0.37000 0.76500 -0.99100
C 	C 	0.12700 0.32200 0.66300 -0.18800
H 	H 	0.13030 0.28290 0.71250 0.75500
H 	H 	0.13700 0.31990 0.57440 0.19300
Pb	Pb	0.33043 0.99164 0.56243 1.24700
K 	K 	0.29095 0.12970 0.34850 0.63000
O 	O 	0.35920 0.05320 0.76800 -0.44100
O 	O 	0.34030 0.12550 0.60700 -0.22000
O 	O 	0.36670 0.21080 0.79140 -0.16200
O 	O 	0.21390 0.51420 0.29650 -0.53200
O 	O 	0.23620 0.45030 0.47130 -0.41800
O 	O 	0.29460 0.45020 0.38350 -0.20800
O 	O 	0.34870 0.92390 0.76110 0.14200
O 	O 	0.39050 0.92100 0.64480 -0.21100
O 	O 	0.42120 0.83550 0.83400 1.65400
C 	C 	0.36000 0.10520 0.71800 0.72300
C 	C 	0.37950 0.15020 0.82540 -0.36900
H 	H 	0.40340 0.14870 0.81960 0.17300
H 	H 	0.37750 0.13950 0.92620 0.13300
C 	C 	0.38190 0.25800 0.88790 0.22700
C 	C 	0.40650 0.24880 0.01400 -0.27500
H 	H 	0.41510 0.20980 0.03990 0.05200
C 	C 	0.41810 0.29940 0.10120 0.15100
H 	H 	0.43430 0.29290 0.18740 -0.07200
C 	C 	0.40720 0.35920 0.06870 -0.29300
C 	C 	0.38270 0.36540 0.93890 0.17000
H 	H 	0.37440 0.40440 0.91130 -0.04500
C 	C 	0.36990 0.31630 0.84830 -0.27200
H 	H 	0.35360 0.32250 0.76240 0.11600
C 	C 	0.23780 0.48390 0.36530 0.41600
C 	C 	0.26990 0.49190 0.30580 -0.21700
H 	H 	0.26560 0.48330 0.19970 0.09300
H 	H 	0.27800 0.53380 0.32140 0.08100
C 	C 	0.32540 0.44750 0.33170 0.27300
C 	C 	0.33450 0.48810 0.23180 -0.31200
H 	H 	0.32060 0.52100 0.19520 0.14100
C 	C 	0.36540 0.47880 0.18700 0.19900
H 	H 	0.37210 0.50690 0.12180 -0.05200
C 	C 	0.38650 0.42970 0.23490 -0.30300
C 	C 	0.37580 0.39020 0.33590 0.19200
H 	H 	0.38960 0.35710 0.37180 -0.06500
C 	C 	0.34550 0.39780 0.38590 -0.30700
H 	H 	0.33900 0.37050 0.45330 0.12500
C 	C 	0.41700 0.41410 0.16640 0.53600
C 	C 	0.44740 0.40070 0.29370 -0.94000
H 	H 	0.46610 0.38570 0.25270 0.27200
H 	H 	0.45400 0.43770 0.34870 0.26400
H 	H 	0.44100 0.37030 0.35910 0.29300
C 	C 	0.42750 0.46820 0.07770 -0.95400
H 	H 	0.41040 0.47480 0.98980 0.30500
H 	H 	0.42980 0.50450 0.13840 0.27900
H 	H 	0.44880 0.45910 0.04950 0.26900
C 	C 	0.37500 0.90100 0.74000 0.49300
C 	C 	0.38720 0.85060 0.84500 5.08900
H 	H 	0.37280 0.81470 0.82310 -1.67900
H 	H 	0.38650 0.86420 0.94520 -1.08500
C 	C 	0.43570 0.79360 0.94860 1.44000
C 	C 	0.42040 0.75710 0.04050 -0.93000
H 	H 	0.39720 0.75970 0.03930 0.45800
C 	C 	0.44130 0.71620 0.13540 0.72300
H 	H 	0.43130 0.69030 0.19550 -0.23700
C 	C 	0.47620 0.71250 0.14380 -0.84100
C 	C 	0.49030 0.74940 0.04730 0.88800
H 	H 	0.51370 0.74810 0.05110 -0.30000
C 	C 	0.47040 0.78790 0.94590 -1.27600
H 	H 	0.47990 0.80970 0.87680 0.38800
C 	C 	0.48060 0.63080 0.34080 -1.51100
H 	H 	0.46670 0.65580 0.39160 0.48300
H 	H 	0.46640 0.60290 0.27500 0.45000
H 	H 	0.49650 0.60800 0.41260 0.44000
O 	O 	0.37970 0.06760 0.67700 -0.29800
O 	O 	0.33020 0.11100 0.66600 -0.31700
O 	O 	0.37200 0.91600 0.73000 -0.93100
O 	O 	0.32610 0.86210 0.66000 0.01200
O 	O 	0.40860 0.83300 0.88300 -4.24900
C 	C 	0.35400 0.87000 0.73500 -1.00800
C 	C 	0.37300 0.82200 0.83700 -0.19200
H 	H 	0.36970 0.78290 0.78750 0.76300
H 	H 	0.36300 0.81990 0.92560 0.19500
Pb	Pb	0.83043 0.49164 0.56243 1.24700
K 	K 	0.79095 0.62970 0.34850 0.63000
O 	O 	0.85920 0.55320 0.76800 -0.44200
O 	O 	0.84030 0.62550 0.60700 -0.21900
O 	O 	0.86670 0.71080 0.79140 -0.16000
O 	O 	0.71390 0.01420 0.29650 -0.53400
O 	O 	0.73620 0.95030 0.47130 -0.41900
O 	O 	0.79460 0.95020 0.38350 -0.20800
O 	O 	0.84870 0.42390 0.76110 0.14300
O 	O 	0.89050 0.42100 0.64480 -0.21100
O 	O 	0.92120 0.33550 0.83400 1.65500
C 	C 	0.86000 0.60520 0.71800 0.72400
C 	C 	0.87950 0.65020 0.82540 -0.37000
H 	H 	0.90340 0.64870 0.81960 0.17400
H 	H 	0.87750 0.63950 0.92620 0.13200
C 	C 	0.88190 0.75800 0.88790 0.21800
C 	C 	0.90650 0.74880 0.01400 -0.26300
H 	H 	0.91510 0.70980 0.03990 0.04900
C 	C 	0.91810 0.79940 0.10120 0.14100
H 	H 	0.93430 0.79290 0.18740 -0.06800
C 	C 	0.90720 0.85920 0.06870 -0.28100
C 	C 	0.88270 0.86540 0.93890 0.15800
H 	H 	0.87440 0.90440 0.91130 -0.04100
C 	C 	0.86990 0.81630 0.84830 -0.26300
H 	H 	0.85360 0.82250 0.76240 0.11200
C 	C 	0.73780 0.98390 0.36530 0.41700
C 	C 	0.76990 0.99190 0.30580 -0.21600
H 	H 	0.76560 0.98330 0.19970 0.09300
H 	H 	0.77800 0.03380 0.32140 0.08000
C 	C 	0.82540 0.94750 0.33170 0.27000
C 	C 	0.83450 0.98810 0.23180 -0.30700
H 	H 	0.82060 0.02100 0.19520 0.13800
C 	C 	0.86540 0.97880 0.18700 0.19800
H 	H 	0.87210 0.00690 0.12180 -0.05300
C 	C 	0.88650 0.92970 0.23490 -0.29800
C 	C 	0.87580 0.89020 0.33590 0.18900
H 	H 	0.88960 0.85710 0.37180 -0.06400
C 	C 	0.84550 0.89780 0.38590 -0.30400
H 	H 	0.83900 0.87050 0.45330 0.12400
C 	C 	0.91700 0.91410 0.16640 0.52600
C 	C 	0.94740 0.90070 0.29370 -0.93300
H 	H 	0.96610 0.88570 0.25270 0.27200
H 	H 	0.95400 0.93770 0.34870 0.26400
H 	H 	0.94100 0.87030 0.35910 0.29100
C 	C 	0.92750 0.96820 0.07770 -0.92800
H 	H 	0.91040 0.97480 0.98980 0.29600
H 	H 	0.92980 0.00450 0.13840 0.27100
H 	H 	0.94880 0.95910 0.04950 0.26300
C 	C 	0.87500 0.40100 0.74000 0.49400
C 	C 	0.88720 0.35060 0.84500 5.09200
H 	H 	0.87280 0.31470 0.82310 -1.68000
H 	H 	0.88650 0.36420 0.94520 -1.08500
C 	C 	0.93570 0.29360 0.94860 1.44200
C 	C 	0.92040 0.25710 0.04050 -0.93000
H 	H 	0.89720 0.25970 0.03930 0.45700
C 	C 	0.94130 0.21620 0.13540 0.71600
H 	H 	0.93130 0.19030 0.19550 -0.23500
C 	C 	0.97620 0.21250 0.14380 -0.82800
C 	C 	0.99030 0.24940 0.04730 0.89200
H 	H 	0.01370 0.24810 0.05110 -0.30500
C 	C 	0.97040 0.28790 0.94590 -1.27500
H 	H 	0.97990 0.30970 0.87680 0.39000
C 	C 	0.98060 0.13080 0.34080 -1.47300
H 	H 	0.96670 0.15580 0.39160 0.47300
H 	H 	0.96640 0.10290 0.27500 0.44000
H 	H 	0.99650 0.10800 0.41260 0.43200
O 	O 	0.87970 0.56760 0.67700 -0.29700
O 	O 	0.83020 0.61100 0.66600 -0.31800
O 	O 	0.87200 0.41600 0.73000 -0.93200
O 	O 	0.82610 0.36210 0.66000 0.01300
O 	O 	0.90860 0.33300 0.88300 -4.25200
C 	C 	0.85400 0.37000 0.73500 -1.00900
C 	C 	0.87300 0.32200 0.83700 -0.19200
H 	H 	0.86970 0.28290 0.78750 0.76400
H 	H 	0.86300 0.31990 0.92560 0.19500
C 	C 	0.50000 0.32790 0.75000 1.09000
C 	C 	-0.00000 0.82790 0.75000 1.05600
C 	C 	0.50000 0.67210 0.25000 1.09000
C 	C 	0.00000 0.17210 0.25000 1.05700
