data_crystal

_cell_length_a 34.02600
_cell_length_b 15.04600
_cell_length_c 30.42400
_cell_angle_alpha 90.00000
_cell_angle_beta  100.62500
_cell_angle_gamma 90.00000

_symmetry_space_group_name_	'P 1'
_symmetry_space_group_name_H-M	'P 1'

loop_
_symmetry_equiv_pos_as_xyz
  x,y,z

loop_
_atom_site_label
_atom_site_type_symbol
_atom_site_fract_x
_atom_site_fract_y
_atom_site_fract_z
_atom_site_charge
Zn	Zn	0.08216 0.62490 0.09429 1.16600
I 	I 	0.12053 0.73646 0.05685 -0.37200
I 	I 	0.02607 0.65877 0.13594 -0.34800
Zn	Zn	0.36960 0.59790 0.44370 0.70600
I 	I 	0.38920 0.73754 0.40604 -0.84900
I 	I 	0.34376 0.59510 0.51679 0.49300
Zn	Zn	0.17667 0.85730 0.27457 1.16700
I 	I 	0.24065 0.77286 0.30374 -0.38100
I 	I 	0.13504 0.83048 0.19717 -0.39600
N 	N 	0.12178 0.55100 0.14033 -0.27000
C 	C 	0.11430 0.46560 0.14720 0.07700
H 	H 	0.09320 0.43720 0.12730 0.00600
C 	C 	0.13550 0.41660 0.18170 -0.12000
H 	H 	0.12880 0.35620 0.18550 0.10600
C 	C 	0.16650 0.45550 0.21060 0.06200
C 	C 	0.17530 0.54360 0.20260 -0.12500
H 	H 	0.19680 0.57300 0.22140 0.07900
C 	C 	0.15240 0.58770 0.16710 0.07500
H 	H 	0.15900 0.64760 0.16170 -0.01100
C 	C 	0.18950 0.40560 0.24790 0.09900
N 	N 	0.17937 0.31940 0.25110 -0.12900
C 	C 	0.20290 0.27460 0.28470 0.10200
N 	N 	0.23187 0.30920 0.31460 -0.13900
C 	C 	0.23800 0.39580 0.30930 0.08500
N 	N 	0.21826 0.44670 0.27570 -0.14200
C 	C 	0.19660 0.17670 0.28410 0.06400
C 	C 	0.16740 0.13860 0.25220 -0.12500
H 	H 	0.15040 0.17470 0.23120 0.09300
C 	C 	0.16310 0.04800 0.25110 0.07500
H 	H 	0.14280 0.02300 0.22890 -0.01100
N 	N 	0.18570 0.99290 0.27940 -0.27400
C 	C 	0.21410 0.03040 0.31030 0.07600
H 	H 	0.23090 0.99250 0.33060 -0.01000
C 	C 	0.22020 0.12070 0.31410 -0.12300
H 	H 	0.24040 0.14430 0.33690 0.08300
C 	C 	0.26860 0.44220 0.34260 0.05500
C 	C 	0.28950 0.39800 0.37890 -0.11900
H 	H 	0.28490 0.33670 0.38360 0.08900
C 	C 	0.31730 0.44480 0.40840 0.06900
H 	H 	0.33090 0.41500 0.43430 -0.00600
N 	N 	0.32630 0.53060 0.40260 -0.31000
C 	C 	0.30550 0.57130 0.36680 0.07500
H 	H 	0.31120 0.63200 0.36220 -0.01300
C 	C 	0.27680 0.53120 0.33660 -0.13300
H 	H 	0.26250 0.56340 0.31180 0.09200
N 	N 	0.06470 0.52350 0.04860 -0.27300
C 	C 	0.03330 0.47010 0.05080 0.06600
H 	H 	0.01530 0.48510 0.07010 -0.00400
C 	C 	0.02680 0.39260 0.02480 -0.11700
H 	H 	0.00460 0.35560 0.02650 0.07600
C 	C 	0.05200 0.37090 0.99780 0.05500
C 	C 	0.08370 0.42710 0.99480 -0.12800
H 	H 	0.10150 0.41460 0.97490 0.07500
C 	C 	0.08870 0.50230 0.02170 0.07900
H 	H 	0.11080 0.54010 0.02040 -0.02000
C 	C 	0.04660 0.28850 0.96960 0.07900
N 	N 	0.07120 0.27840 0.94050 -0.14500
C 	C 	0.06460 0.20490 0.91420 0.08700
N 	N 	0.03540 0.14700 0.91640 -0.13400
C 	C 	0.01370 0.16320 0.94710 0.08000
N 	N 	0.01810 0.23330 0.97560 -0.14800
C 	C 	0.09110 0.19110 0.88170 0.06700
C 	C 	0.12730 0.23470 0.88470 -0.11900
H 	H 	0.13550 0.27580 0.90830 0.07200
C 	C 	0.15110 0.22000 0.85490 0.08200
H 	H 	0.17530 0.25240 0.85750 -0.01400
N 	N 	0.14160 0.16100 0.82170 -0.28000
C 	C 	0.10820 0.11610 0.81960 0.09400
H 	H 	0.10190 0.07310 0.79650 -0.02100
C 	C 	0.08170 0.12660 0.84810 -0.12000
H 	H 	0.05800 0.09180 0.84530 0.08800
C 	C 	0.98010 0.10260 0.95050 0.06400
C 	C 	0.96290 0.05420 0.91170 -0.14300
H 	H 	0.97230 0.05950 0.88430 0.09500
C 	C 	0.93120 0.99810 0.91640 0.11800
H 	H 	0.91980 0.96420 0.89090 -0.03100
N 	N 	0.91640 0.98800 0.95060 -0.31100
C 	C 	0.93170 0.03660 0.98740 0.06200
H 	H 	0.92070 0.03200 0.01390 -0.00700
C 	C 	0.96380 0.09370 0.98580 -0.12300
H 	H 	0.97430 0.12760 0.01170 0.08100
Zn	Zn	0.36410 0.59090 0.45980 0.67100
I 	I 	0.37960 0.73850 0.42620 0.41300
I 	I 	0.34130 0.56230 0.53190 -0.93800
Zn	Zn	0.58216 0.12490 0.09429 1.16500
I 	I 	0.62053 0.23646 0.05685 -0.37300
I 	I 	0.52607 0.15877 0.13594 -0.34900
Zn	Zn	0.86960 0.09790 0.44370 0.70500
I 	I 	0.88920 0.23754 0.40604 -0.85000
I 	I 	0.84376 0.09510 0.51679 0.49100
Zn	Zn	0.67667 0.35730 0.27457 1.16500
I 	I 	0.74065 0.27286 0.30374 -0.38200
I 	I 	0.63504 0.33048 0.19717 -0.39700
N 	N 	0.62178 0.05100 0.14033 -0.27100
C 	C 	0.61430 0.96560 0.14720 0.07700
H 	H 	0.59320 0.93720 0.12730 0.00500
C 	C 	0.63550 0.91660 0.18170 -0.12200
H 	H 	0.62880 0.85620 0.18550 0.10500
C 	C 	0.66650 0.95550 0.21060 0.06100
C 	C 	0.67530 0.04360 0.20260 -0.12700
H 	H 	0.69680 0.07300 0.22140 0.07800
C 	C 	0.65240 0.08770 0.16710 0.07400
H 	H 	0.65900 0.14760 0.16170 -0.01100
C 	C 	0.68950 0.90560 0.24790 0.09900
N 	N 	0.67937 0.81940 0.25110 -0.12900
C 	C 	0.70290 0.77460 0.28470 0.10200
N 	N 	0.73187 0.80920 0.31460 -0.13900
C 	C 	0.73800 0.89580 0.30930 0.08500
N 	N 	0.71826 0.94670 0.27570 -0.14200
C 	C 	0.69660 0.67670 0.28410 0.06500
C 	C 	0.66740 0.63860 0.25220 -0.12500
H 	H 	0.65040 0.67470 0.23120 0.09300
C 	C 	0.66310 0.54800 0.25110 0.07500
H 	H 	0.64280 0.52300 0.22890 -0.01100
N 	N 	0.68570 0.49290 0.27940 -0.27400
C 	C 	0.71410 0.53040 0.31030 0.07700
H 	H 	0.73090 0.49250 0.33060 -0.01000
C 	C 	0.72020 0.62070 0.31410 -0.12400
H 	H 	0.74040 0.64430 0.33690 0.08300
C 	C 	0.76860 0.94220 0.34260 0.05600
C 	C 	0.78950 0.89800 0.37890 -0.12000
H 	H 	0.78490 0.83670 0.38360 0.08900
C 	C 	0.81730 0.94480 0.40840 0.06900
H 	H 	0.83090 0.91500 0.43430 -0.00600
N 	N 	0.82630 0.03060 0.40260 -0.31000
C 	C 	0.80550 0.07130 0.36680 0.07500
H 	H 	0.81120 0.13200 0.36220 -0.01300
C 	C 	0.77680 0.03120 0.33660 -0.13300
H 	H 	0.76250 0.06340 0.31180 0.09200
N 	N 	0.56470 0.02350 0.04860 -0.27300
C 	C 	0.53330 0.97010 0.05080 0.06600
H 	H 	0.51530 0.98510 0.07010 -0.00400
C 	C 	0.52680 0.89260 0.02480 -0.11600
H 	H 	0.50460 0.85560 0.02650 0.07600
C 	C 	0.55200 0.87090 0.99780 0.05400
C 	C 	0.58370 0.92710 0.99480 -0.12800
H 	H 	0.60150 0.91460 0.97490 0.07500
C 	C 	0.58870 0.00230 0.02170 0.07800
H 	H 	0.61080 0.04010 0.02040 -0.02000
C 	C 	0.54660 0.78850 0.96960 0.07900
N 	N 	0.57120 0.77840 0.94050 -0.14500
C 	C 	0.56460 0.70490 0.91420 0.08700
N 	N 	0.53540 0.64700 0.91640 -0.13400
C 	C 	0.51370 0.66320 0.94710 0.07900
N 	N 	0.51810 0.73330 0.97560 -0.14800
C 	C 	0.59110 0.69110 0.88170 0.06700
C 	C 	0.62730 0.73470 0.88470 -0.11900
H 	H 	0.63550 0.77580 0.90830 0.07200
C 	C 	0.65110 0.72000 0.85490 0.08200
H 	H 	0.67530 0.75240 0.85750 -0.01400
N 	N 	0.64160 0.66100 0.82170 -0.28000
C 	C 	0.60820 0.61610 0.81960 0.09400
H 	H 	0.60190 0.57310 0.79650 -0.02100
C 	C 	0.58170 0.62660 0.84810 -0.12000
H 	H 	0.55800 0.59180 0.84530 0.08800
C 	C 	0.48010 0.60260 0.95050 0.06500
C 	C 	0.46290 0.55420 0.91170 -0.14300
H 	H 	0.47230 0.55950 0.88430 0.09500
C 	C 	0.43120 0.49810 0.91640 0.11900
H 	H 	0.41980 0.46420 0.89090 -0.03100
N 	N 	0.41640 0.48800 0.95060 -0.31100
C 	C 	0.43170 0.53660 0.98740 0.06100
H 	H 	0.42070 0.53200 0.01390 -0.00600
C 	C 	0.46380 0.59370 0.98580 -0.12400
H 	H 	0.47430 0.62760 0.01170 0.08200
Zn	Zn	0.86410 0.09090 0.45980 0.67100
I 	I 	0.87960 0.23850 0.42620 0.41300
I 	I 	0.84130 0.06230 0.53190 -0.93800
Zn	Zn	0.08216 0.37510 0.59429 1.16500
I 	I 	0.12053 0.26354 0.55685 -0.37300
I 	I 	0.02607 0.34123 0.63594 -0.34900
Zn	Zn	0.36960 0.40210 0.94370 0.70500
I 	I 	0.38920 0.26246 0.90604 -0.84900
I 	I 	0.34376 0.40490 0.01679 0.49200
Zn	Zn	0.17667 0.14270 0.77457 1.16600
I 	I 	0.24065 0.22714 0.80374 -0.38200
I 	I 	0.13504 0.16952 0.69717 -0.39700
N 	N 	0.12178 0.44900 0.64033 -0.27100
C 	C 	0.11430 0.53440 0.64720 0.07600
H 	H 	0.09320 0.56280 0.62730 0.00500
C 	C 	0.13550 0.58340 0.68170 -0.12100
H 	H 	0.12880 0.64380 0.68550 0.10500
C 	C 	0.16650 0.54450 0.71060 0.06100
C 	C 	0.17530 0.45640 0.70260 -0.12600
H 	H 	0.19680 0.42700 0.72140 0.07800
C 	C 	0.15240 0.41230 0.66710 0.07400
H 	H 	0.15900 0.35240 0.66170 -0.01100
C 	C 	0.18950 0.59440 0.74790 0.09900
N 	N 	0.17937 0.68060 0.75110 -0.12900
C 	C 	0.20290 0.72540 0.78470 0.10200
N 	N 	0.23187 0.69080 0.81460 -0.13900
C 	C 	0.23800 0.60420 0.80930 0.08500
N 	N 	0.21826 0.55330 0.77570 -0.14200
C 	C 	0.19660 0.82330 0.78410 0.06400
C 	C 	0.16740 0.86140 0.75220 -0.12400
H 	H 	0.15040 0.82530 0.73120 0.09300
C 	C 	0.16310 0.95200 0.75110 0.07500
H 	H 	0.14280 0.97700 0.72890 -0.01100
N 	N 	0.18570 0.00710 0.77940 -0.27300
C 	C 	0.21410 0.96960 0.81030 0.07600
H 	H 	0.23090 0.00750 0.83060 -0.00900
C 	C 	0.22020 0.87930 0.81410 -0.12300
H 	H 	0.24040 0.85570 0.83690 0.08300
C 	C 	0.26860 0.55780 0.84260 0.05500
C 	C 	0.28950 0.60200 0.87890 -0.11900
H 	H 	0.28490 0.66330 0.88360 0.08900
C 	C 	0.31730 0.55520 0.90840 0.06900
H 	H 	0.33090 0.58500 0.93430 -0.00600
N 	N 	0.32630 0.46940 0.90260 -0.31000
C 	C 	0.30550 0.42870 0.86680 0.07500
H 	H 	0.31120 0.36800 0.86220 -0.01300
C 	C 	0.27680 0.46880 0.83660 -0.13300
H 	H 	0.26250 0.43660 0.81180 0.09200
N 	N 	0.06470 0.47650 0.54860 -0.27300
C 	C 	0.03330 0.52990 0.55080 0.06600
H 	H 	0.01530 0.51490 0.57010 -0.00400
C 	C 	0.02680 0.60740 0.52480 -0.11700
H 	H 	0.00460 0.64440 0.52650 0.07600
C 	C 	0.05200 0.62910 0.49780 0.05400
C 	C 	0.08370 0.57290 0.49480 -0.12800
H 	H 	0.10150 0.58540 0.47490 0.07500
C 	C 	0.08870 0.49770 0.52170 0.07900
H 	H 	0.11080 0.45990 0.52040 -0.02000
C 	C 	0.04660 0.71150 0.46960 0.07900
N 	N 	0.07120 0.72160 0.44050 -0.14500
C 	C 	0.06460 0.79510 0.41420 0.08700
N 	N 	0.03540 0.85300 0.41640 -0.13400
C 	C 	0.01370 0.83680 0.44710 0.07900
N 	N 	0.01810 0.76670 0.47560 -0.14800
C 	C 	0.09110 0.80890 0.38170 0.06700
C 	C 	0.12730 0.76530 0.38470 -0.11900
H 	H 	0.13550 0.72420 0.40830 0.07200
C 	C 	0.15110 0.78000 0.35490 0.08200
H 	H 	0.17530 0.74760 0.35750 -0.01400
N 	N 	0.14160 0.83900 0.32170 -0.28000
C 	C 	0.10820 0.88390 0.31960 0.09400
H 	H 	0.10190 0.92690 0.29650 -0.02100
C 	C 	0.08170 0.87340 0.34810 -0.12000
H 	H 	0.05800 0.90820 0.34530 0.08800
C 	C 	0.98010 0.89740 0.45050 0.06400
C 	C 	0.96290 0.94580 0.41170 -0.14300
H 	H 	0.97230 0.94050 0.38430 0.09500
C 	C 	0.93120 0.00190 0.41640 0.11800
H 	H 	0.91980 0.03580 0.39090 -0.03100
N 	N 	0.91640 0.01200 0.45060 -0.31100
C 	C 	0.93170 0.96340 0.48740 0.06100
H 	H 	0.92070 0.96800 0.51390 -0.00700
C 	C 	0.96380 0.90630 0.48580 -0.12300
H 	H 	0.97430 0.87240 0.51170 0.08200
Zn	Zn	0.36410 0.40910 0.95980 0.67100
I 	I 	0.37960 0.26150 0.92620 0.41200
I 	I 	0.34130 0.43770 0.03190 -0.93800
Zn	Zn	0.58216 0.87510 0.59429 1.16500
I 	I 	0.62053 0.76354 0.55685 -0.37300
I 	I 	0.52607 0.84123 0.63594 -0.34900
Zn	Zn	0.86960 0.90210 0.94370 0.70500
I 	I 	0.88920 0.76246 0.90604 -0.85000
I 	I 	0.84376 0.90490 0.01679 0.49200
Zn	Zn	0.67667 0.64270 0.77457 1.16500
I 	I 	0.74065 0.72714 0.80374 -0.38200
I 	I 	0.63504 0.66952 0.69717 -0.39700
N 	N 	0.62178 0.94900 0.64033 -0.27100
C 	C 	0.61430 0.03440 0.64720 0.07600
H 	H 	0.59320 0.06280 0.62730 0.00500
C 	C 	0.63550 0.08340 0.68170 -0.12200
H 	H 	0.62880 0.14380 0.68550 0.10500
C 	C 	0.66650 0.04450 0.71060 0.06100
C 	C 	0.67530 0.95640 0.70260 -0.12600
H 	H 	0.69680 0.92700 0.72140 0.07800
C 	C 	0.65240 0.91230 0.66710 0.07400
H 	H 	0.65900 0.85240 0.66170 -0.01100
C 	C 	0.68950 0.09440 0.74790 0.09900
N 	N 	0.67937 0.18060 0.75110 -0.12900
C 	C 	0.70290 0.22540 0.78470 0.10200
N 	N 	0.73187 0.19080 0.81460 -0.13900
C 	C 	0.73800 0.10420 0.80930 0.08500
N 	N 	0.71826 0.05330 0.77570 -0.14200
C 	C 	0.69660 0.32330 0.78410 0.06500
C 	C 	0.66740 0.36140 0.75220 -0.12500
H 	H 	0.65040 0.32530 0.73120 0.09300
C 	C 	0.66310 0.45200 0.75110 0.07500
H 	H 	0.64280 0.47700 0.72890 -0.01100
N 	N 	0.68570 0.50710 0.77940 -0.27400
C 	C 	0.71410 0.46960 0.81030 0.07700
H 	H 	0.73090 0.50750 0.83060 -0.01000
C 	C 	0.72020 0.37930 0.81410 -0.12400
H 	H 	0.74040 0.35570 0.83690 0.08300
C 	C 	0.76860 0.05780 0.84260 0.05600
C 	C 	0.78950 0.10200 0.87890 -0.12000
H 	H 	0.78490 0.16330 0.88360 0.08900
C 	C 	0.81730 0.05520 0.90840 0.07000
H 	H 	0.83090 0.08500 0.93430 -0.00600
N 	N 	0.82630 0.96940 0.90260 -0.31000
C 	C 	0.80550 0.92870 0.86680 0.07500
H 	H 	0.81120 0.86800 0.86220 -0.01300
C 	C 	0.77680 0.96880 0.83660 -0.13300
H 	H 	0.76250 0.93660 0.81180 0.09200
N 	N 	0.56470 0.97650 0.54860 -0.27300
C 	C 	0.53330 0.02990 0.55080 0.06600
H 	H 	0.51530 0.01490 0.57010 -0.00400
C 	C 	0.52680 0.10740 0.52480 -0.11700
H 	H 	0.50460 0.14440 0.52650 0.07600
C 	C 	0.55200 0.12910 0.49780 0.05400
C 	C 	0.58370 0.07290 0.49480 -0.12800
H 	H 	0.60150 0.08540 0.47490 0.07500
C 	C 	0.58870 0.99770 0.52170 0.07900
H 	H 	0.61080 0.95990 0.52040 -0.02000
C 	C 	0.54660 0.21150 0.46960 0.07900
N 	N 	0.57120 0.22160 0.44050 -0.14500
C 	C 	0.56460 0.29510 0.41420 0.08700
N 	N 	0.53540 0.35300 0.41640 -0.13400
C 	C 	0.51370 0.33680 0.44710 0.07900
N 	N 	0.51810 0.26670 0.47560 -0.14800
C 	C 	0.59110 0.30890 0.38170 0.06700
C 	C 	0.62730 0.26530 0.38470 -0.11900
H 	H 	0.63550 0.22420 0.40830 0.07200
C 	C 	0.65110 0.28000 0.35490 0.08200
H 	H 	0.67530 0.24760 0.35750 -0.01400
N 	N 	0.64160 0.33900 0.32170 -0.28000
C 	C 	0.60820 0.38390 0.31960 0.09400
H 	H 	0.60190 0.42690 0.29650 -0.02100
C 	C 	0.58170 0.37340 0.34810 -0.12000
H 	H 	0.55800 0.40820 0.34530 0.08800
C 	C 	0.48010 0.39740 0.45050 0.06400
C 	C 	0.46290 0.44580 0.41170 -0.14300
H 	H 	0.47230 0.44050 0.38430 0.09500
C 	C 	0.43120 0.50190 0.41640 0.11900
H 	H 	0.41980 0.53580 0.39090 -0.03100
N 	N 	0.41640 0.51200 0.45060 -0.31100
C 	C 	0.43170 0.46340 0.48740 0.06100
H 	H 	0.42070 0.46800 0.51390 -0.00600
C 	C 	0.46380 0.40630 0.48580 -0.12300
H 	H 	0.47430 0.37240 0.51170 0.08200
Zn	Zn	0.86410 0.90910 0.95980 0.67100
I 	I 	0.87960 0.76150 0.92620 0.41300
I 	I 	0.84130 0.93770 0.03190 -0.93800
Zn	Zn	0.91784 0.62490 0.40571 1.16500
I 	I 	0.87947 0.73646 0.44315 -0.37300
I 	I 	0.97393 0.65877 0.36406 -0.34900
Zn	Zn	0.63040 0.59790 0.05630 0.70500
I 	I 	0.61080 0.73754 0.09396 -0.84900
I 	I 	0.65624 0.59510 0.98321 0.49200
Zn	Zn	0.82333 0.85730 0.22543 1.16600
I 	I 	0.75935 0.77286 0.19626 -0.38200
I 	I 	0.86496 0.83048 0.30283 -0.39700
N 	N 	0.87822 0.55100 0.35967 -0.27100
C 	C 	0.88570 0.46560 0.35280 0.07600
H 	H 	0.90680 0.43720 0.37270 0.00500
C 	C 	0.86450 0.41660 0.31830 -0.12100
H 	H 	0.87120 0.35620 0.31450 0.10500
C 	C 	0.83350 0.45550 0.28940 0.06100
C 	C 	0.82470 0.54360 0.29740 -0.12600
H 	H 	0.80320 0.57300 0.27860 0.07800
C 	C 	0.84760 0.58770 0.33290 0.07400
H 	H 	0.84100 0.64760 0.33830 -0.01100
C 	C 	0.81050 0.40560 0.25210 0.09900
N 	N 	0.82063 0.31940 0.24890 -0.12900
C 	C 	0.79710 0.27460 0.21530 0.10200
N 	N 	0.76813 0.30920 0.18540 -0.13900
C 	C 	0.76200 0.39580 0.19070 0.08500
N 	N 	0.78174 0.44670 0.22430 -0.14200
C 	C 	0.80340 0.17670 0.21590 0.06400
C 	C 	0.83260 0.13860 0.24780 -0.12400
H 	H 	0.84960 0.17470 0.26880 0.09300
C 	C 	0.83690 0.04800 0.24890 0.07500
H 	H 	0.85720 0.02300 0.27110 -0.01100
N 	N 	0.81430 0.99290 0.22060 -0.27300
C 	C 	0.78590 0.03040 0.18970 0.07600
H 	H 	0.76910 0.99250 0.16940 -0.00900
C 	C 	0.77980 0.12070 0.18590 -0.12300
H 	H 	0.75960 0.14430 0.16310 0.08300
C 	C 	0.73140 0.44220 0.15740 0.05500
C 	C 	0.71050 0.39800 0.12110 -0.11900
H 	H 	0.71510 0.33670 0.11640 0.08900
C 	C 	0.68270 0.44480 0.09160 0.06900
H 	H 	0.66910 0.41500 0.06570 -0.00600
N 	N 	0.67370 0.53060 0.09740 -0.31000
C 	C 	0.69450 0.57130 0.13320 0.07500
H 	H 	0.68880 0.63200 0.13780 -0.01300
C 	C 	0.72320 0.53120 0.16340 -0.13300
H 	H 	0.73750 0.56340 0.18820 0.09200
N 	N 	0.93530 0.52350 0.45140 -0.27300
C 	C 	0.96670 0.47010 0.44920 0.06600
H 	H 	0.98470 0.48510 0.42990 -0.00400
C 	C 	0.97320 0.39260 0.47520 -0.11700
H 	H 	0.99540 0.35560 0.47350 0.07600
C 	C 	0.94800 0.37090 0.50220 0.05400
C 	C 	0.91630 0.42710 0.50520 -0.12800
H 	H 	0.89850 0.41460 0.52510 0.07500
C 	C 	0.91130 0.50230 0.47830 0.07900
H 	H 	0.88920 0.54010 0.47960 -0.02000
C 	C 	0.95340 0.28850 0.53040 0.07900
N 	N 	0.92880 0.27840 0.55950 -0.14500
C 	C 	0.93540 0.20490 0.58580 0.08700
N 	N 	0.96460 0.14700 0.58360 -0.13400
C 	C 	0.98630 0.16320 0.55290 0.07900
N 	N 	0.98190 0.23330 0.52440 -0.14800
C 	C 	0.90890 0.19110 0.61830 0.06700
C 	C 	0.87270 0.23470 0.61530 -0.11900
H 	H 	0.86450 0.27580 0.59170 0.07200
C 	C 	0.84890 0.22000 0.64510 0.08200
H 	H 	0.82470 0.25240 0.64250 -0.01400
N 	N 	0.85840 0.16100 0.67830 -0.28000
C 	C 	0.89180 0.11610 0.68040 0.09400
H 	H 	0.89810 0.07310 0.70350 -0.02100
C 	C 	0.91830 0.12660 0.65190 -0.12000
H 	H 	0.94200 0.09180 0.65470 0.08800
C 	C 	0.01990 0.10260 0.54950 0.06400
C 	C 	0.03710 0.05420 0.58830 -0.14300
H 	H 	0.02770 0.05950 0.61570 0.09500
C 	C 	0.06880 0.99810 0.58360 0.11800
H 	H 	0.08020 0.96420 0.60910 -0.03100
N 	N 	0.08360 0.98800 0.54940 -0.31100
C 	C 	0.06830 0.03660 0.51260 0.06100
H 	H 	0.07930 0.03200 0.48610 -0.00700
C 	C 	0.03620 0.09370 0.51420 -0.12300
H 	H 	0.02570 0.12760 0.48830 0.08200
Zn	Zn	0.63590 0.59090 0.04020 0.67100
I 	I 	0.62040 0.73850 0.07380 0.41200
I 	I 	0.65870 0.56230 0.96810 -0.93800
Zn	Zn	0.41784 0.12490 0.40571 1.16500
I 	I 	0.37947 0.23646 0.44315 -0.37300
I 	I 	0.47393 0.15877 0.36406 -0.34900
Zn	Zn	0.13040 0.09790 0.05630 0.70500
I 	I 	0.11080 0.23754 0.09396 -0.85000
I 	I 	0.15624 0.09510 0.98321 0.49200
Zn	Zn	0.32333 0.35730 0.22543 1.16500
I 	I 	0.25935 0.27286 0.19626 -0.38200
I 	I 	0.36496 0.33048 0.30283 -0.39700
N 	N 	0.37822 0.05100 0.35967 -0.27100
C 	C 	0.38570 0.96560 0.35280 0.07600
H 	H 	0.40680 0.93720 0.37270 0.00500
C 	C 	0.36450 0.91660 0.31830 -0.12200
H 	H 	0.37120 0.85620 0.31450 0.10500
C 	C 	0.33350 0.95550 0.28940 0.06100
C 	C 	0.32470 0.04360 0.29740 -0.12600
H 	H 	0.30320 0.07300 0.27860 0.07800
C 	C 	0.34760 0.08770 0.33290 0.07400
H 	H 	0.34100 0.14760 0.33830 -0.01100
C 	C 	0.31050 0.90560 0.25210 0.09900
N 	N 	0.32063 0.81940 0.24890 -0.12900
C 	C 	0.29710 0.77460 0.21530 0.10200
N 	N 	0.26813 0.80920 0.18540 -0.13900
C 	C 	0.26200 0.89580 0.19070 0.08500
N 	N 	0.28174 0.94670 0.22430 -0.14200
C 	C 	0.30340 0.67670 0.21590 0.06500
C 	C 	0.33260 0.63860 0.24780 -0.12500
H 	H 	0.34960 0.67470 0.26880 0.09300
C 	C 	0.33690 0.54800 0.24890 0.07500
H 	H 	0.35720 0.52300 0.27110 -0.01100
N 	N 	0.31430 0.49290 0.22060 -0.27400
C 	C 	0.28590 0.53040 0.18970 0.07700
H 	H 	0.26910 0.49250 0.16940 -0.01000
C 	C 	0.27980 0.62070 0.18590 -0.12400
H 	H 	0.25960 0.64430 0.16310 0.08300
C 	C 	0.23140 0.94220 0.15740 0.05600
C 	C 	0.21050 0.89800 0.12110 -0.12000
H 	H 	0.21510 0.83670 0.11640 0.08900
C 	C 	0.18270 0.94480 0.09160 0.07000
H 	H 	0.16910 0.91500 0.06570 -0.00600
N 	N 	0.17370 0.03060 0.09740 -0.31000
C 	C 	0.19450 0.07130 0.13320 0.07500
H 	H 	0.18880 0.13200 0.13780 -0.01300
C 	C 	0.22320 0.03120 0.16340 -0.13300
H 	H 	0.23750 0.06340 0.18820 0.09200
N 	N 	0.43530 0.02350 0.45140 -0.27300
C 	C 	0.46670 0.97010 0.44920 0.06600
H 	H 	0.48470 0.98510 0.42990 -0.00400
C 	C 	0.47320 0.89260 0.47520 -0.11700
H 	H 	0.49540 0.85560 0.47350 0.07600
C 	C 	0.44800 0.87090 0.50220 0.05400
C 	C 	0.41630 0.92710 0.50520 -0.12800
H 	H 	0.39850 0.91460 0.52510 0.07500
C 	C 	0.41130 0.00230 0.47830 0.07900
H 	H 	0.38920 0.04010 0.47960 -0.02000
C 	C 	0.45340 0.78850 0.53040 0.07900
N 	N 	0.42880 0.77840 0.55950 -0.14500
C 	C 	0.43540 0.70490 0.58580 0.08700
N 	N 	0.46460 0.64700 0.58360 -0.13400
C 	C 	0.48630 0.66320 0.55290 0.07900
N 	N 	0.48190 0.73330 0.52440 -0.14800
C 	C 	0.40890 0.69110 0.61830 0.06700
C 	C 	0.37270 0.73470 0.61530 -0.11900
H 	H 	0.36450 0.77580 0.59170 0.07200
C 	C 	0.34890 0.72000 0.64510 0.08200
H 	H 	0.32470 0.75240 0.64250 -0.01400
N 	N 	0.35840 0.66100 0.67830 -0.28000
C 	C 	0.39180 0.61610 0.68040 0.09400
H 	H 	0.39810 0.57310 0.70350 -0.02100
C 	C 	0.41830 0.62660 0.65190 -0.12000
H 	H 	0.44200 0.59180 0.65470 0.08800
C 	C 	0.51990 0.60260 0.54950 0.06400
C 	C 	0.53710 0.55420 0.58830 -0.14300
H 	H 	0.52770 0.55950 0.61570 0.09500
C 	C 	0.56880 0.49810 0.58360 0.11900
H 	H 	0.58020 0.46420 0.60910 -0.03100
N 	N 	0.58360 0.48800 0.54940 -0.31100
C 	C 	0.56830 0.53660 0.51260 0.06100
H 	H 	0.57930 0.53200 0.48610 -0.00600
C 	C 	0.53620 0.59370 0.51420 -0.12300
H 	H 	0.52570 0.62760 0.48830 0.08200
Zn	Zn	0.13590 0.09090 0.04020 0.67100
I 	I 	0.12040 0.23850 0.07380 0.41300
I 	I 	0.15870 0.06230 0.96810 -0.93800
Zn	Zn	0.91784 0.37510 0.90571 1.16500
I 	I 	0.87947 0.26354 0.94315 -0.37300
I 	I 	0.97393 0.34123 0.86406 -0.34900
Zn	Zn	0.63040 0.40210 0.55630 0.70500
I 	I 	0.61080 0.26246 0.59396 -0.85000
I 	I 	0.65624 0.40490 0.48321 0.49200
Zn	Zn	0.82333 0.14270 0.72543 1.16600
I 	I 	0.75935 0.22714 0.69626 -0.38200
I 	I 	0.86496 0.16952 0.80283 -0.39700
N 	N 	0.87822 0.44900 0.85967 -0.27100
C 	C 	0.88570 0.53440 0.85280 0.07600
H 	H 	0.90680 0.56280 0.87270 0.00500
C 	C 	0.86450 0.58340 0.81830 -0.12100
H 	H 	0.87120 0.64380 0.81450 0.10500
C 	C 	0.83350 0.54450 0.78940 0.06100
C 	C 	0.82470 0.45640 0.79740 -0.12600
H 	H 	0.80320 0.42700 0.77860 0.07800
C 	C 	0.84760 0.41230 0.83290 0.07400
H 	H 	0.84100 0.35240 0.83830 -0.01100
C 	C 	0.81050 0.59440 0.75210 0.09900
N 	N 	0.82063 0.68060 0.74890 -0.12900
C 	C 	0.79710 0.72540 0.71530 0.10200
N 	N 	0.76813 0.69080 0.68540 -0.13900
C 	C 	0.76200 0.60420 0.69070 0.08500
N 	N 	0.78174 0.55330 0.72430 -0.14200
C 	C 	0.80340 0.82330 0.71590 0.06400
C 	C 	0.83260 0.86140 0.74780 -0.12500
H 	H 	0.84960 0.82530 0.76880 0.09300
C 	C 	0.83690 0.95200 0.74890 0.07500
H 	H 	0.85720 0.97700 0.77110 -0.01100
N 	N 	0.81430 0.00710 0.72060 -0.27400
C 	C 	0.78590 0.96960 0.68970 0.07600
H 	H 	0.76910 0.00750 0.66940 -0.01000
C 	C 	0.77980 0.87930 0.68590 -0.12300
H 	H 	0.75960 0.85570 0.66310 0.08300
C 	C 	0.73140 0.55780 0.65740 0.05500
C 	C 	0.71050 0.60200 0.62110 -0.11900
H 	H 	0.71510 0.66330 0.61640 0.08900
C 	C 	0.68270 0.55520 0.59160 0.06900
H 	H 	0.66910 0.58500 0.56570 -0.00600
N 	N 	0.67370 0.46940 0.59740 -0.31000
C 	C 	0.69450 0.42870 0.63320 0.07500
H 	H 	0.68880 0.36800 0.63780 -0.01300
C 	C 	0.72320 0.46880 0.66340 -0.13300
H 	H 	0.73750 0.43660 0.68820 0.09200
N 	N 	0.93530 0.47650 0.95140 -0.27300
C 	C 	0.96670 0.52990 0.94920 0.06600
H 	H 	0.98470 0.51490 0.92990 -0.00400
C 	C 	0.97320 0.60740 0.97520 -0.11700
H 	H 	0.99540 0.64440 0.97350 0.07600
C 	C 	0.94800 0.62910 0.00220 0.05500
C 	C 	0.91630 0.57290 0.00520 -0.12800
H 	H 	0.89850 0.58540 0.02510 0.07500
C 	C 	0.91130 0.49770 0.97830 0.07900
H 	H 	0.88920 0.45990 0.97960 -0.02000
C 	C 	0.95340 0.71150 0.03040 0.07900
N 	N 	0.92880 0.72160 0.05950 -0.14500
C 	C 	0.93540 0.79510 0.08580 0.08700
N 	N 	0.96460 0.85300 0.08360 -0.13400
C 	C 	0.98630 0.83680 0.05290 0.08000
N 	N 	0.98190 0.76670 0.02440 -0.14800
C 	C 	0.90890 0.80890 0.11830 0.06700
C 	C 	0.87270 0.76530 0.11530 -0.11900
H 	H 	0.86450 0.72420 0.09170 0.07200
C 	C 	0.84890 0.78000 0.14510 0.08200
H 	H 	0.82470 0.74760 0.14250 -0.01400
N 	N 	0.85840 0.83900 0.17830 -0.28000
C 	C 	0.89180 0.88390 0.18040 0.09400
H 	H 	0.89810 0.92690 0.20350 -0.02100
C 	C 	0.91830 0.87340 0.15190 -0.12000
H 	H 	0.94200 0.90820 0.15470 0.08800
C 	C 	0.01990 0.89740 0.04950 0.06400
C 	C 	0.03710 0.94580 0.08830 -0.14300
H 	H 	0.02770 0.94050 0.11570 0.09500
C 	C 	0.06880 0.00190 0.08360 0.11800
H 	H 	0.08020 0.03580 0.10910 -0.03100
N 	N 	0.08360 0.01200 0.04940 -0.31100
C 	C 	0.06830 0.96340 0.01260 0.06200
H 	H 	0.07930 0.96800 0.98610 -0.00700
C 	C 	0.03620 0.90630 0.01420 -0.12300
H 	H 	0.02570 0.87240 0.98830 0.08100
Zn	Zn	0.63590 0.40910 0.54020 0.67100
I 	I 	0.62040 0.26150 0.57380 0.41300
I 	I 	0.65870 0.43770 0.46810 -0.93800
Zn	Zn	0.41784 0.87510 0.90571 1.16500
I 	I 	0.37947 0.76354 0.94315 -0.37300
I 	I 	0.47393 0.84123 0.86406 -0.34900
Zn	Zn	0.13040 0.90210 0.55630 0.70500
I 	I 	0.11080 0.76246 0.59396 -0.85000
I 	I 	0.15624 0.90490 0.48321 0.49100
Zn	Zn	0.32333 0.64270 0.72543 1.16500
I 	I 	0.25935 0.72714 0.69626 -0.38200
I 	I 	0.36496 0.66952 0.80283 -0.39700
N 	N 	0.37822 0.94900 0.85967 -0.27100
C 	C 	0.38570 0.03440 0.85280 0.07700
H 	H 	0.40680 0.06280 0.87270 0.00500
C 	C 	0.36450 0.08340 0.81830 -0.12200
H 	H 	0.37120 0.14380 0.81450 0.10500
C 	C 	0.33350 0.04450 0.78940 0.06100
C 	C 	0.32470 0.95640 0.79740 -0.12700
H 	H 	0.30320 0.92700 0.77860 0.07800
C 	C 	0.34760 0.91230 0.83290 0.07400
H 	H 	0.34100 0.85240 0.83830 -0.01100
C 	C 	0.31050 0.09440 0.75210 0.09900
N 	N 	0.32063 0.18060 0.74890 -0.12900
C 	C 	0.29710 0.22540 0.71530 0.10200
N 	N 	0.26813 0.19080 0.68540 -0.13900
C 	C 	0.26200 0.10420 0.69070 0.08500
N 	N 	0.28174 0.05330 0.72430 -0.14200
C 	C 	0.30340 0.32330 0.71590 0.06500
C 	C 	0.33260 0.36140 0.74780 -0.12500
H 	H 	0.34960 0.32530 0.76880 0.09300
C 	C 	0.33690 0.45200 0.74890 0.07500
H 	H 	0.35720 0.47700 0.77110 -0.01100
N 	N 	0.31430 0.50710 0.72060 -0.27400
C 	C 	0.28590 0.46960 0.68970 0.07700
H 	H 	0.26910 0.50750 0.66940 -0.01000
C 	C 	0.27980 0.37930 0.68590 -0.12400
H 	H 	0.25960 0.35570 0.66310 0.08300
C 	C 	0.23140 0.05780 0.65740 0.05600
C 	C 	0.21050 0.10200 0.62110 -0.12000
H 	H 	0.21510 0.16330 0.61640 0.08900
C 	C 	0.18270 0.05520 0.59160 0.06900
H 	H 	0.16910 0.08500 0.56570 -0.00600
N 	N 	0.17370 0.96940 0.59740 -0.31000
C 	C 	0.19450 0.92870 0.63320 0.07500
H 	H 	0.18880 0.86800 0.63780 -0.01300
C 	C 	0.22320 0.96880 0.66340 -0.13300
H 	H 	0.23750 0.93660 0.68820 0.09200
N 	N 	0.43530 0.97650 0.95140 -0.27300
C 	C 	0.46670 0.02990 0.94920 0.06600
H 	H 	0.48470 0.01490 0.92990 -0.00400
C 	C 	0.47320 0.10740 0.97520 -0.11600
H 	H 	0.49540 0.14440 0.97350 0.07600
C 	C 	0.44800 0.12910 0.00220 0.05400
C 	C 	0.41630 0.07290 0.00520 -0.12800
H 	H 	0.39850 0.08540 0.02510 0.07500
C 	C 	0.41130 0.99770 0.97830 0.07800
H 	H 	0.38920 0.95990 0.97960 -0.02000
C 	C 	0.45340 0.21150 0.03040 0.07900
N 	N 	0.42880 0.22160 0.05950 -0.14500
C 	C 	0.43540 0.29510 0.08580 0.08700
N 	N 	0.46460 0.35300 0.08360 -0.13400
C 	C 	0.48630 0.33680 0.05290 0.07900
N 	N 	0.48190 0.26670 0.02440 -0.14800
C 	C 	0.40890 0.30890 0.11830 0.06700
C 	C 	0.37270 0.26530 0.11530 -0.11900
H 	H 	0.36450 0.22420 0.09170 0.07200
C 	C 	0.34890 0.28000 0.14510 0.08200
H 	H 	0.32470 0.24760 0.14250 -0.01400
N 	N 	0.35840 0.33900 0.17830 -0.28000
C 	C 	0.39180 0.38390 0.18040 0.09400
H 	H 	0.39810 0.42690 0.20350 -0.02100
C 	C 	0.41830 0.37340 0.15190 -0.12000
H 	H 	0.44200 0.40820 0.15470 0.08800
C 	C 	0.51990 0.39740 0.04950 0.06500
C 	C 	0.53710 0.44580 0.08830 -0.14300
H 	H 	0.52770 0.44050 0.11570 0.09500
C 	C 	0.56880 0.50190 0.08360 0.11900
H 	H 	0.58020 0.53580 0.10910 -0.03100
N 	N 	0.58360 0.51200 0.04940 -0.31100
C 	C 	0.56830 0.46340 0.01260 0.06100
H 	H 	0.57930 0.46800 0.98610 -0.00600
C 	C 	0.53620 0.40630 0.01420 -0.12400
H 	H 	0.52570 0.37240 0.98830 0.08200
Zn	Zn	0.13590 0.90910 0.54020 0.67100
I 	I 	0.12040 0.76150 0.57380 0.41300
I 	I 	0.15870 0.93770 0.46810 -0.93800
