data_crystal

_cell_length_a 17.43010
_cell_length_b 26.27000
_cell_length_c 15.45960
_cell_angle_alpha 90.00000
_cell_angle_beta  113.49800
_cell_angle_gamma 90.00000

_symmetry_space_group_name_	'P 1'
_symmetry_space_group_name_H-M	'P 1'

loop_
_symmetry_equiv_pos_as_xyz
  x,y,z

loop_
_atom_site_label
_atom_site_type_symbol
_atom_site_fract_x
_atom_site_fract_y
_atom_site_fract_z
_atom_site_charge
U 	U 	0.14958 0.73791 0.58417 0.01200
Zn	Zn	0.26599 0.46999 0.50064 1.19600
N 	N 	0.38990 0.44385 0.56350 -0.25100
N 	N 	0.33640 0.53793 0.56410 -0.23400
C 	C 	0.14150 0.68650 0.74100 0.29200
N 	N 	0.20110 0.59796 0.94630 -0.24400
C 	C 	0.14210 0.66197 0.82810 -0.09300
N 	N 	0.21560 0.54772 0.09920 -0.25600
C 	C 	0.47170 0.57449 0.61840 -0.10400
H 	H 	0.52950 0.57060 0.64280 0.07700
C 	C 	0.19290 0.61987 0.86500 0.07300
H 	H 	0.22250 0.60640 0.83180 0.02100
C 	C 	0.49290 0.37923 0.59310 -0.10600
C 	C 	0.30770 0.67838 0.55260 0.29600
C 	C 	0.17410 0.59220 0.08540 0.06200
C 	C 	0.43570 0.62336 0.60430 0.03600
H 	H 	0.46910 0.65230 0.61640 0.04900
C 	C 	0.30280 0.58374 0.55340 0.07400
H 	H 	0.24500 0.58670 0.53230 0.02300
C 	C 	0.45080 0.47934 0.59980 0.06200
C 	C 	0.42030 0.53277 0.59570 0.05000
C 	C 	0.41120 0.39543 0.56080 0.08100
H 	H 	0.36890 0.37140 0.53590 0.00800
C 	C 	0.35080 0.62742 0.57260 -0.08300
C 	C 	0.14810 0.61150 0.15220 -0.11900
H 	H 	0.11780 0.64170 0.14120 0.09100
C 	C 	0.55610 0.41530 0.63010 0.05100
H 	H 	0.61200 0.40580 0.65230 0.03600
C 	C 	0.15870 0.61780 0.99460 0.05400
C 	C 	0.20970 0.54070 0.25100 -0.12000
C 	C 	0.16790 0.58530 0.23580 0.06600
H 	H 	0.15220 0.59850 0.28220 0.03800
C 	C 	0.53370 0.46600 0.63330 -0.12100
H 	H 	0.57490 0.49080 0.65800 0.08600
C 	C 	0.23270 0.52269 0.18040 0.08100
H 	H 	0.26120 0.49190 0.18970 0.00400
C 	C 	0.23240 0.51040 0.34000 0.32700
C 	C 	0.10540 0.65850 0.96140 -0.09700
H 	H 	0.07470 0.67060 0.99440 0.09100
C 	C 	0.09850 0.68120 0.87780 0.04000
H 	H 	0.06440 0.70950 0.85530 0.06500
C 	C 	0.51030 0.32390 0.58190 0.32600
O 	O 	0.23250 0.67925 0.54300 -0.18100
O 	O 	0.34850 0.71646 0.54580 -0.17900
O 	O 	0.29240 0.47995 0.36100 -0.36200
O 	O 	0.10350 0.72842 0.71440 -0.19000
O 	O 	0.17770 0.66566 0.69480 -0.19900
O 	O 	0.19280 0.51738 0.39100 -0.41500
O 	O 	0.58530 0.31414 0.59500 -0.19700
O 	O 	0.45490 0.29325 0.56410 -0.23000
U 	U 	0.64958 0.23791 0.58417 0.01300
Zn	Zn	0.76599 0.96999 0.50064 1.19700
N 	N 	0.88990 0.94385 0.56350 -0.24900
N 	N 	0.83640 0.03793 0.56410 -0.23300
C 	C 	0.64150 0.18650 0.74100 0.29300
N 	N 	0.70110 0.09796 0.94630 -0.24300
C 	C 	0.64210 0.16197 0.82810 -0.09300
N 	N 	0.71560 0.04772 0.09920 -0.25400
C 	C 	0.97170 0.07449 0.61840 -0.10500
H 	H 	0.02950 0.07060 0.64280 0.07900
C 	C 	0.69290 0.11987 0.86500 0.07400
H 	H 	0.72250 0.10640 0.83180 0.02200
C 	C 	0.99290 0.87923 0.59310 -0.10600
C 	C 	0.80770 0.17838 0.55260 0.29600
C 	C 	0.67410 0.09220 0.08540 0.06100
C 	C 	0.93570 0.12336 0.60430 0.03700
H 	H 	0.96910 0.15230 0.61640 0.04800
C 	C 	0.80280 0.08374 0.55340 0.07400
H 	H 	0.74500 0.08670 0.53230 0.02300
C 	C 	0.95080 0.97934 0.59980 0.06200
C 	C 	0.92030 0.03277 0.59570 0.05100
C 	C 	0.91120 0.89543 0.56080 0.08000
H 	H 	0.86890 0.87140 0.53590 0.00800
C 	C 	0.85080 0.12742 0.57260 -0.08400
C 	C 	0.64810 0.11150 0.15220 -0.11700
H 	H 	0.61780 0.14170 0.14120 0.09000
C 	C 	0.05610 0.91530 0.63010 0.05100
H 	H 	0.11200 0.90580 0.65230 0.03600
C 	C 	0.65870 0.11780 0.99460 0.05600
C 	C 	0.70970 0.04070 0.25100 -0.11800
C 	C 	0.66790 0.08530 0.23580 0.06400
H 	H 	0.65220 0.09850 0.28220 0.03900
C 	C 	0.03370 0.96600 0.63330 -0.12200
H 	H 	0.07490 0.99080 0.65800 0.08600
C 	C 	0.73270 0.02269 0.18040 0.07700
H 	H 	0.76120 0.99190 0.18970 0.00600
C 	C 	0.73240 0.01040 0.34000 0.32500
C 	C 	0.60540 0.15850 0.96140 -0.09800
H 	H 	0.57470 0.17060 0.99440 0.09200
C 	C 	0.59850 0.18120 0.87780 0.04000
H 	H 	0.56440 0.20950 0.85530 0.06500
C 	C 	0.01030 0.82390 0.58190 0.32600
O 	O 	0.73250 0.17925 0.54300 -0.18100
O 	O 	0.84850 0.21646 0.54580 -0.17900
O 	O 	0.79240 0.97995 0.36100 -0.36000
O 	O 	0.60350 0.22842 0.71440 -0.18900
O 	O 	0.67770 0.16566 0.69480 -0.19900
O 	O 	0.69280 0.01738 0.39100 -0.41400
O 	O 	0.08530 0.81414 0.59500 -0.19700
O 	O 	0.95490 0.79325 0.56410 -0.22900
U 	U 	0.85042 0.73791 0.91583 0.01300
Zn	Zn	0.73401 0.46999 0.99936 1.19700
N 	N 	0.61010 0.44385 0.93650 -0.24900
N 	N 	0.66360 0.53793 0.93590 -0.23300
C 	C 	0.85850 0.68650 0.75900 0.29300
N 	N 	0.79890 0.59796 0.55370 -0.24300
C 	C 	0.85790 0.66197 0.67190 -0.09200
N 	N 	0.78440 0.54772 0.40080 -0.25500
C 	C 	0.52830 0.57449 0.88160 -0.10300
H 	H 	0.47050 0.57060 0.85720 0.07800
C 	C 	0.80710 0.61987 0.63500 0.07300
H 	H 	0.77750 0.60640 0.66820 0.02100
C 	C 	0.50710 0.37923 0.90690 -0.10600
C 	C 	0.69230 0.67838 0.94740 0.29600
C 	C 	0.82590 0.59220 0.41460 0.06300
C 	C 	0.56430 0.62336 0.89570 0.03600
H 	H 	0.53090 0.65230 0.88360 0.04900
C 	C 	0.69720 0.58374 0.94660 0.07400
H 	H 	0.75500 0.58670 0.96770 0.02300
C 	C 	0.54920 0.47934 0.90020 0.06200
C 	C 	0.57970 0.53277 0.90430 0.05100
C 	C 	0.58880 0.39543 0.93920 0.08100
H 	H 	0.63110 0.37140 0.96410 0.00800
C 	C 	0.64920 0.62742 0.92740 -0.08300
C 	C 	0.85190 0.61150 0.34780 -0.11900
H 	H 	0.88220 0.64170 0.35880 0.09100
C 	C 	0.44390 0.41530 0.86990 0.05100
H 	H 	0.38800 0.40580 0.84770 0.03600
C 	C 	0.84130 0.61780 0.50540 0.05400
C 	C 	0.79030 0.54070 0.24900 -0.12000
C 	C 	0.83210 0.58530 0.26420 0.06600
H 	H 	0.84780 0.59850 0.21780 0.03900
C 	C 	0.46630 0.46600 0.86670 -0.12100
H 	H 	0.42510 0.49080 0.84200 0.08600
C 	C 	0.76730 0.52269 0.31960 0.08100
H 	H 	0.73880 0.49190 0.31030 0.00400
C 	C 	0.76760 0.51040 0.16000 0.32700
C 	C 	0.89460 0.65850 0.53860 -0.09700
H 	H 	0.92530 0.67060 0.50560 0.09100
C 	C 	0.90150 0.68120 0.62220 0.03900
H 	H 	0.93560 0.70950 0.64470 0.06500
C 	C 	0.48970 0.32390 0.91810 0.32600
O 	O 	0.76750 0.67925 0.95700 -0.18100
O 	O 	0.65150 0.71646 0.95420 -0.17900
O 	O 	0.70760 0.47995 0.13900 -0.36200
O 	O 	0.89650 0.72842 0.78560 -0.19000
O 	O 	0.82230 0.66566 0.80520 -0.19900
O 	O 	0.80720 0.51738 0.10900 -0.41400
O 	O 	0.41470 0.31414 0.90500 -0.19700
O 	O 	0.54510 0.29325 0.93590 -0.22900
U 	U 	0.35042 0.23791 0.91583 0.01400
Zn	Zn	0.23401 0.96999 0.99936 1.19600
N 	N 	0.11010 0.94385 0.93650 -0.24900
N 	N 	0.16360 0.03793 0.93590 -0.23300
C 	C 	0.35850 0.18650 0.75900 0.29300
N 	N 	0.29890 0.09796 0.55370 -0.24300
C 	C 	0.35790 0.16197 0.67190 -0.09200
N 	N 	0.28440 0.04772 0.40080 -0.25500
C 	C 	0.02830 0.07449 0.88160 -0.10200
H 	H 	0.97050 0.07060 0.85720 0.07700
C 	C 	0.30710 0.11987 0.63500 0.07300
H 	H 	0.27750 0.10640 0.66820 0.02200
C 	C 	0.00710 0.87923 0.90690 -0.10500
C 	C 	0.19230 0.17838 0.94740 0.29600
C 	C 	0.32590 0.09220 0.41460 0.06300
C 	C 	0.06430 0.12336 0.89570 0.03600
H 	H 	0.03090 0.15230 0.88360 0.05000
C 	C 	0.19720 0.08374 0.94660 0.07400
H 	H 	0.25500 0.08670 0.96770 0.02400
C 	C 	0.04920 0.97934 0.90020 0.06000
C 	C 	0.07970 0.03277 0.90430 0.05200
C 	C 	0.08880 0.89543 0.93920 0.08000
H 	H 	0.13110 0.87140 0.96410 0.00800
C 	C 	0.14920 0.12742 0.92740 -0.08200
C 	C 	0.35190 0.11150 0.34780 -0.11800
H 	H 	0.38220 0.14170 0.35880 0.09100
C 	C 	0.94390 0.91530 0.86990 0.04900
H 	H 	0.88800 0.90580 0.84770 0.03600
C 	C 	0.34130 0.11780 0.50540 0.05400
C 	C 	0.29030 0.04070 0.24900 -0.11900
C 	C 	0.33210 0.08530 0.26420 0.06500
H 	H 	0.34780 0.09850 0.21780 0.03800
C 	C 	0.96630 0.96600 0.86670 -0.12100
H 	H 	0.92510 0.99080 0.84200 0.08600
C 	C 	0.26730 0.02269 0.31960 0.08000
H 	H 	0.23880 0.99190 0.31030 0.00500
C 	C 	0.26760 0.01040 0.16000 0.32500
C 	C 	0.39460 0.15850 0.53860 -0.09700
H 	H 	0.42530 0.17060 0.50560 0.09100
C 	C 	0.40150 0.18120 0.62220 0.03900
H 	H 	0.43560 0.20950 0.64470 0.06600
C 	C 	0.98970 0.82390 0.91810 0.32500
O 	O 	0.26750 0.17925 0.95700 -0.18000
O 	O 	0.15150 0.21646 0.95420 -0.17800
O 	O 	0.20760 0.97995 0.13900 -0.36000
O 	O 	0.39650 0.22842 0.78560 -0.18900
O 	O 	0.32230 0.16566 0.80520 -0.19900
O 	O 	0.30720 0.01738 0.10900 -0.41500
O 	O 	0.91470 0.81414 0.90500 -0.19700
O 	O 	0.04510 0.79325 0.93590 -0.22900
U 	U 	0.85042 0.26209 0.41583 0.01300
Zn	Zn	0.73401 0.53001 0.49936 1.19700
N 	N 	0.61010 0.55615 0.43650 -0.25000
N 	N 	0.66360 0.46207 0.43590 -0.23300
C 	C 	0.85850 0.31350 0.25900 0.29300
N 	N 	0.79890 0.40204 0.05370 -0.24300
C 	C 	0.85790 0.33803 0.17190 -0.09200
N 	N 	0.78440 0.45228 0.90080 -0.25500
C 	C 	0.52830 0.42551 0.38160 -0.10300
H 	H 	0.47050 0.42940 0.35720 0.07800
C 	C 	0.80710 0.38013 0.13500 0.07300
H 	H 	0.77750 0.39360 0.16820 0.02100
C 	C 	0.50710 0.62077 0.40690 -0.10600
C 	C 	0.69230 0.32162 0.44740 0.29600
C 	C 	0.82590 0.40780 0.91460 0.06200
C 	C 	0.56430 0.37664 0.39570 0.03600
H 	H 	0.53090 0.34770 0.38360 0.04900
C 	C 	0.69720 0.41626 0.44660 0.07400
H 	H 	0.75500 0.41330 0.46770 0.02300
C 	C 	0.54920 0.52066 0.40020 0.06200
C 	C 	0.57970 0.46723 0.40430 0.05000
C 	C 	0.58880 0.60457 0.43920 0.08100
H 	H 	0.63110 0.62860 0.46410 0.00800
C 	C 	0.64920 0.37258 0.42740 -0.08300
C 	C 	0.85190 0.38850 0.84780 -0.11900
H 	H 	0.88220 0.35830 0.85880 0.09100
C 	C 	0.44390 0.58470 0.36990 0.05100
H 	H 	0.38800 0.59420 0.34770 0.03600
C 	C 	0.84130 0.38220 0.00540 0.05400
C 	C 	0.79030 0.45930 0.74900 -0.12000
C 	C 	0.83210 0.41470 0.76420 0.06600
H 	H 	0.84780 0.40150 0.71780 0.03800
C 	C 	0.46630 0.53400 0.36670 -0.12100
H 	H 	0.42510 0.50920 0.34200 0.08600
C 	C 	0.76730 0.47731 0.81960 0.08100
H 	H 	0.73880 0.50810 0.81030 0.00400
C 	C 	0.76760 0.48960 0.66000 0.32700
C 	C 	0.89460 0.34150 0.03860 -0.09700
H 	H 	0.92530 0.32940 0.00560 0.09100
C 	C 	0.90150 0.31880 0.12220 0.04000
H 	H 	0.93560 0.29050 0.14470 0.06500
C 	C 	0.48970 0.67610 0.41810 0.32600
O 	O 	0.76750 0.32075 0.45700 -0.18100
O 	O 	0.65150 0.28354 0.45420 -0.17900
O 	O 	0.70760 0.52005 0.63900 -0.36200
O 	O 	0.89650 0.27158 0.28560 -0.19000
O 	O 	0.82230 0.33434 0.30520 -0.19900
O 	O 	0.80720 0.48262 0.60900 -0.41500
O 	O 	0.41470 0.68586 0.40500 -0.19700
O 	O 	0.54510 0.70675 0.43590 -0.23000
U 	U 	0.35042 0.76209 0.41583 0.01300
Zn	Zn	0.23401 0.03001 0.49936 1.19700
N 	N 	0.11010 0.05615 0.43650 -0.24900
N 	N 	0.16360 0.96207 0.43590 -0.23300
C 	C 	0.35850 0.81350 0.25900 0.29300
N 	N 	0.29890 0.90204 0.05370 -0.24300
C 	C 	0.35790 0.83803 0.17190 -0.09300
N 	N 	0.28440 0.95228 0.90080 -0.25400
C 	C 	0.02830 0.92551 0.38160 -0.10500
H 	H 	0.97050 0.92940 0.35720 0.07900
C 	C 	0.30710 0.88013 0.13500 0.07400
H 	H 	0.27750 0.89360 0.16820 0.02200
C 	C 	0.00710 0.12077 0.40690 -0.10600
C 	C 	0.19230 0.82162 0.44740 0.29600
C 	C 	0.32590 0.90780 0.91460 0.06100
C 	C 	0.06430 0.87664 0.39570 0.03700
H 	H 	0.03090 0.84770 0.38360 0.04800
C 	C 	0.19720 0.91626 0.44660 0.07400
H 	H 	0.25500 0.91330 0.46770 0.02300
C 	C 	0.04920 0.02066 0.40020 0.06200
C 	C 	0.07970 0.96723 0.40430 0.05100
C 	C 	0.08880 0.10457 0.43920 0.08000
H 	H 	0.13110 0.12860 0.46410 0.00800
C 	C 	0.14920 0.87258 0.42740 -0.08400
C 	C 	0.35190 0.88850 0.84780 -0.11700
H 	H 	0.38220 0.85830 0.85880 0.09000
C 	C 	0.94390 0.08470 0.36990 0.05100
H 	H 	0.88800 0.09420 0.34770 0.03600
C 	C 	0.34130 0.88220 0.00540 0.05600
C 	C 	0.29030 0.95930 0.74900 -0.11800
C 	C 	0.33210 0.91470 0.76420 0.06400
H 	H 	0.34780 0.90150 0.71780 0.03900
C 	C 	0.96630 0.03400 0.36670 -0.12200
H 	H 	0.92510 0.00920 0.34200 0.08600
C 	C 	0.26730 0.97731 0.81960 0.07700
H 	H 	0.23880 0.00810 0.81030 0.00600
C 	C 	0.26760 0.98960 0.66000 0.32500
C 	C 	0.39460 0.84150 0.03860 -0.09800
H 	H 	0.42530 0.82940 0.00560 0.09200
C 	C 	0.40150 0.81880 0.12220 0.04000
H 	H 	0.43560 0.79050 0.14470 0.06500
C 	C 	0.98970 0.17610 0.41810 0.32600
O 	O 	0.26750 0.82075 0.45700 -0.18100
O 	O 	0.15150 0.78354 0.45420 -0.17900
O 	O 	0.20760 0.02005 0.63900 -0.36000
O 	O 	0.39650 0.77158 0.28560 -0.18900
O 	O 	0.32230 0.83434 0.30520 -0.19900
O 	O 	0.30720 0.98262 0.60900 -0.41400
O 	O 	0.91470 0.18586 0.40500 -0.19700
O 	O 	0.04510 0.20675 0.43590 -0.22900
U 	U 	0.14958 0.26209 0.08417 0.01300
Zn	Zn	0.26599 0.53001 0.00064 1.19700
N 	N 	0.38990 0.55615 0.06350 -0.24900
N 	N 	0.33640 0.46207 0.06410 -0.23300
C 	C 	0.14150 0.31350 0.24100 0.29300
N 	N 	0.20110 0.40204 0.44630 -0.24300
C 	C 	0.14210 0.33803 0.32810 -0.09200
N 	N 	0.21560 0.45228 0.59920 -0.25500
C 	C 	0.47170 0.42551 0.11840 -0.10300
H 	H 	0.52950 0.42940 0.14280 0.07800
C 	C 	0.19290 0.38013 0.36500 0.07300
H 	H 	0.22250 0.39360 0.33180 0.02100
C 	C 	0.49290 0.62077 0.09310 -0.10600
C 	C 	0.30770 0.32162 0.05260 0.29600
C 	C 	0.17410 0.40780 0.58540 0.06300
C 	C 	0.43570 0.37664 0.10430 0.03600
H 	H 	0.46910 0.34770 0.11640 0.04900
C 	C 	0.30280 0.41626 0.05340 0.07400
H 	H 	0.24500 0.41330 0.03230 0.02300
C 	C 	0.45080 0.52066 0.09980 0.06200
C 	C 	0.42030 0.46723 0.09570 0.05100
C 	C 	0.41120 0.60457 0.06080 0.08100
H 	H 	0.36890 0.62860 0.03590 0.00800
C 	C 	0.35080 0.37258 0.07260 -0.08300
C 	C 	0.14810 0.38850 0.65220 -0.11900
H 	H 	0.11780 0.35830 0.64120 0.09100
C 	C 	0.55610 0.58470 0.13010 0.05100
H 	H 	0.61200 0.59420 0.15230 0.03600
C 	C 	0.15870 0.38220 0.49460 0.05400
C 	C 	0.20970 0.45930 0.75100 -0.12000
C 	C 	0.16790 0.41470 0.73580 0.06600
H 	H 	0.15220 0.40150 0.78220 0.03900
C 	C 	0.53370 0.53400 0.13330 -0.12100
H 	H 	0.57490 0.50920 0.15800 0.08600
C 	C 	0.23270 0.47731 0.68040 0.08100
H 	H 	0.26120 0.50810 0.68970 0.00400
C 	C 	0.23240 0.48960 0.84000 0.32700
C 	C 	0.10540 0.34150 0.46140 -0.09700
H 	H 	0.07470 0.32940 0.49440 0.09100
C 	C 	0.09850 0.31880 0.37780 0.03900
H 	H 	0.06440 0.29050 0.35530 0.06500
C 	C 	0.51030 0.67610 0.08190 0.32600
O 	O 	0.23250 0.32075 0.04300 -0.18100
O 	O 	0.34850 0.28354 0.04580 -0.17900
O 	O 	0.29240 0.52005 0.86100 -0.36200
O 	O 	0.10350 0.27158 0.21440 -0.19000
O 	O 	0.17770 0.33434 0.19480 -0.19900
O 	O 	0.19280 0.48262 0.89100 -0.41400
O 	O 	0.58530 0.68586 0.09500 -0.19700
O 	O 	0.45490 0.70675 0.06410 -0.22900
U 	U 	0.64958 0.76209 0.08417 0.01400
Zn	Zn	0.76599 0.03001 0.00064 1.19600
N 	N 	0.88990 0.05615 0.06350 -0.24900
N 	N 	0.83640 0.96207 0.06410 -0.23300
C 	C 	0.64150 0.81350 0.24100 0.29300
N 	N 	0.70110 0.90204 0.44630 -0.24300
C 	C 	0.64210 0.83803 0.32810 -0.09200
N 	N 	0.71560 0.95228 0.59920 -0.25500
C 	C 	0.97170 0.92551 0.11840 -0.10200
H 	H 	0.02950 0.92940 0.14280 0.07700
C 	C 	0.69290 0.88013 0.36500 0.07300
H 	H 	0.72250 0.89360 0.33180 0.02200
C 	C 	0.99290 0.12077 0.09310 -0.10500
C 	C 	0.80770 0.82162 0.05260 0.29600
C 	C 	0.67410 0.90780 0.58540 0.06300
C 	C 	0.93570 0.87664 0.10430 0.03600
H 	H 	0.96910 0.84770 0.11640 0.05000
C 	C 	0.80280 0.91626 0.05340 0.07400
H 	H 	0.74500 0.91330 0.03230 0.02400
C 	C 	0.95080 0.02066 0.09980 0.06000
C 	C 	0.92030 0.96723 0.09570 0.05200
C 	C 	0.91120 0.10457 0.06080 0.08000
H 	H 	0.86890 0.12860 0.03590 0.00800
C 	C 	0.85080 0.87258 0.07260 -0.08200
C 	C 	0.64810 0.88850 0.65220 -0.11800
H 	H 	0.61780 0.85830 0.64120 0.09100
C 	C 	0.05610 0.08470 0.13010 0.04900
H 	H 	0.11200 0.09420 0.15230 0.03600
C 	C 	0.65870 0.88220 0.49460 0.05400
C 	C 	0.70970 0.95930 0.75100 -0.11900
C 	C 	0.66790 0.91470 0.73580 0.06500
H 	H 	0.65220 0.90150 0.78220 0.03800
C 	C 	0.03370 0.03400 0.13330 -0.12100
H 	H 	0.07490 0.00920 0.15800 0.08600
C 	C 	0.73270 0.97731 0.68040 0.08000
H 	H 	0.76120 0.00810 0.68970 0.00500
C 	C 	0.73240 0.98960 0.84000 0.32500
C 	C 	0.60540 0.84150 0.46140 -0.09700
H 	H 	0.57470 0.82940 0.49440 0.09100
C 	C 	0.59850 0.81880 0.37780 0.03900
H 	H 	0.56440 0.79050 0.35530 0.06600
C 	C 	0.01030 0.17610 0.08190 0.32500
O 	O 	0.73250 0.82075 0.04300 -0.18000
O 	O 	0.84850 0.78354 0.04580 -0.17800
O 	O 	0.79240 0.02005 0.86100 -0.36000
O 	O 	0.60350 0.77158 0.21440 -0.18900
O 	O 	0.67770 0.83434 0.19480 -0.19900
O 	O 	0.69280 0.98262 0.89100 -0.41500
O 	O 	0.08530 0.18586 0.09500 -0.19700
O 	O 	0.95490 0.20675 0.06410 -0.22900
