data_crystal

_cell_length_a 26.37960
_cell_length_b 27.56750
_cell_length_c 31.99600
_cell_angle_alpha 90.00000
_cell_angle_beta  112.54100
_cell_angle_gamma 90.00000

_symmetry_space_group_name_	'P 1'
_symmetry_space_group_name_H-M	'P 1'

loop_
_symmetry_equiv_pos_as_xyz
  x,y,z

loop_
_atom_site_label
_atom_site_type_symbol
_atom_site_fract_x
_atom_site_fract_y
_atom_site_fract_z
_atom_site_charge
Zn	Zn	0.14904 0.38988 0.63953 1.21000
O 	O 	0.07600 0.36730 0.60574 -0.96700
O 	O 	0.16700 0.44960 0.61690 -0.49100
O 	O 	0.16670 0.60800 0.20616 -0.48800
O 	O 	0.70120 0.84300 0.63650 -0.51500
Zn	Zn	0.03304 0.41992 0.56894 1.21200
Zn	Zn	0.04202 0.34443 0.64688 1.20100
Zn	Zn	0.07832 0.31559 0.56532 1.20700
C 	C 	0.13270 0.47580 0.58510 0.37400
O 	O 	0.08200 0.47350 0.57180 -0.50500
O 	O 	0.98150 0.44970 0.59080 -0.51200
O 	O 	0.99980 0.59370 0.00520 -0.50800
O 	O 	0.98700 0.39600 0.64390 -0.49900
O 	O 	0.09900 0.65550 0.20990 -0.50500
O 	O 	0.49080 0.79210 0.61360 -0.51200
O 	O 	0.52830 0.76420 0.56670 -0.48900
O 	O 	0.65070 0.78630 0.59020 -0.52100
O 	O 	0.04300 0.66330 0.00086 -0.50400
C 	C 	0.15520 0.51350 0.56120 -0.11100
C 	C 	0.97650 0.43790 0.62560 0.40900
C 	C 	0.11760 0.53720 0.52380 -0.01500
C 	C 	0.21070 0.52500 0.57640 0.01400
C 	C 	0.95270 0.47400 0.64840 -0.14200
C 	C 	0.13560 0.57240 0.50150 0.02900
C 	C 	0.22860 0.56010 0.55410 -0.00300
C 	C 	0.95030 0.46350 0.68960 0.04800
C 	C 	0.94020 0.51910 0.63080 0.05700
C 	C 	0.19100 0.58380 0.51660 -0.02800
H 	H 	0.96050 0.43220 0.70250 0.02200
C 	C 	0.93270 0.49890 0.71270 -0.10800
C 	C 	0.92490 0.55460 0.65360 -0.11500
H 	H 	0.94200 0.52630 0.60240 0.02700
C 	C 	0.21370 0.61480 0.48910 0.07800
H 	H 	0.92910 0.49110 0.74040 0.06300
C 	C 	0.92040 0.54570 0.69480 0.04600
H 	H 	0.91710 0.58620 0.64080 0.07100
C 	C 	0.19100 0.61400 0.44210 -0.05900
C 	C 	0.25980 0.64300 0.51170 -0.09700
C 	C 	0.90550 0.58440 0.71890 0.03600
C 	C 	0.21440 0.64130 0.41760 0.05100
C 	C 	0.28310 0.67040 0.48720 0.18400
C 	C 	0.92810 0.58550 0.76670 -0.10100
C 	C 	0.86880 0.62080 0.69640 -0.09700
C 	C 	0.26040 0.66960 0.44020 -0.08200
C 	C 	0.19040 0.64310 0.36810 0.02500
C 	C 	0.34070 0.69200 0.51510 -0.48600
H 	H 	0.95270 0.56060 0.78300 0.06600
C 	C 	0.91440 0.62380 0.79100 0.05100
C 	C 	0.85370 0.65730 0.71780 0.03400
H 	H 	0.85330 0.62020 0.66430 0.06300
C 	C 	0.13470 0.64800 0.34230 0.01200
C 	C 	0.22690 0.63450 0.34700 -0.09600
C 	C 	0.38580 0.68690 0.50320 -0.08500
C 	C 	0.34350 0.72280 0.55030 0.03400
C 	C 	0.87840 0.65930 0.76630 -0.10100
C 	C 	0.93950 0.62410 0.84160 0.00900
C 	C 	0.81470 0.69480 0.69160 0.05600
C 	C 	0.11530 0.64410 0.29540 -0.00300
C 	C 	0.20760 0.63070 0.30010 0.13600
C 	C 	0.43370 0.71260 0.52640 -0.02800
C 	C 	0.39140 0.74850 0.57360 0.08700
H 	H 	0.86990 0.68550 0.78170 0.07100
C 	C 	0.94360 0.58290 0.86650 -0.07900
C 	C 	0.94640 0.66950 0.86200 -0.01400
C 	C 	0.77210 0.68370 0.65280 -0.11800
C 	C 	0.81900 0.74270 0.70620 -0.11600
C 	C 	0.15180 0.63550 0.27440 -0.13900
C 	C 	0.43650 0.74340 0.56160 -0.02700
H 	H 	0.93110 0.55300 0.85130 0.05600
C 	C 	0.96510 0.58390 0.91250 0.02600
C 	C 	0.95980 0.66750 0.90840 0.01800
H 	H 	0.77030 0.65180 0.64110 0.07100
C 	C 	0.73140 0.71560 0.62930 0.05800
C 	C 	0.78080 0.77660 0.68450 0.05700
H 	H 	0.84970 0.75190 0.73240 0.07300
C 	C 	0.13670 0.62480 0.22485 0.40700
C 	C 	0.48970 0.76750 0.58220 0.38500
H 	H 	0.96650 0.55510 0.92920 0.04900
C 	C 	0.98540 0.62810 0.93530 -0.12000
H 	H 	0.70110 0.70570 0.60310 0.02400
C 	C 	0.73610 0.76310 0.64540 -0.14000
H 	H 	0.78430 0.80890 0.69560 0.02800
C 	C 	0.00960 0.62940 0.98530 0.40300
C 	C 	0.69300 0.80050 0.62160 0.41600
C 	C 	0.99030 0.66840 0.91100 0.03500
C 	C 	0.96740 0.66520 0.86400 -0.01100
C 	C 	0.24700 0.57820 0.49060 -0.08900
C 	C 	0.22280 0.57860 0.44050 0.06400
C 	C 	0.25030 0.60360 0.41950 -0.08700
C 	C 	0.29830 0.62830 0.44220 0.10100
C 	C 	0.32040 0.62770 0.49050 -0.22100
C 	C 	0.29450 0.60090 0.51190 0.11200
C 	C 	0.35900 0.66740 0.51150 0.46700
C 	C 	0.40100 0.67210 0.49820 -0.08200
C 	C 	0.44600 0.70160 0.52050 0.09700
C 	C 	0.44790 0.72730 0.55770 -0.03700
C 	C 	0.40570 0.72630 0.57200 -0.10600
C 	C 	0.36140 0.69280 0.54800 0.15900
C 	C 	0.16760 0.61380 0.34310 -0.07700
C 	C 	0.14580 0.61320 0.29810 0.10300
C 	C 	0.17930 0.61050 0.27120 -0.07300
C 	C 	0.23910 0.61010 0.29460 -0.03900
C 	C 	0.25800 0.60730 0.34400 0.00800
C 	C 	0.22340 0.60700 0.36730 0.08100
C 	C 	0.15970 0.55130 0.49660 -0.04600
C 	C 	0.13080 0.52160 0.51490 0.05700
C 	C 	0.24750 0.52350 0.55490 -0.03600
C 	C 	0.21170 0.50820 0.57460 0.03300
C 	C 	0.21670 0.54920 0.51600 0.05300
Zn	Zn	0.64904 0.88988 0.63953 1.21100
O 	O 	0.57600 0.86730 0.60574 -0.96600
O 	O 	0.66700 0.94960 0.61690 -0.49000
O 	O 	0.66670 0.10800 0.20616 -0.48700
O 	O 	0.20120 0.34300 0.63650 -0.51400
Zn	Zn	0.53304 0.91992 0.56894 1.21300
Zn	Zn	0.54202 0.84443 0.64688 1.20200
Zn	Zn	0.57832 0.81559 0.56532 1.20800
C 	C 	0.63270 0.97580 0.58510 0.37500
O 	O 	0.58200 0.97350 0.57180 -0.50400
O 	O 	0.48150 0.94970 0.59080 -0.51200
O 	O 	0.49980 0.09370 0.00520 -0.50800
O 	O 	0.48700 0.89600 0.64390 -0.49900
O 	O 	0.59900 0.15550 0.20990 -0.50500
O 	O 	0.99080 0.29210 0.61360 -0.51200
O 	O 	0.02830 0.26420 0.56670 -0.48900
O 	O 	0.15070 0.28630 0.59020 -0.52100
O 	O 	0.54300 0.16330 0.00086 -0.50300
C 	C 	0.65520 0.01350 0.56120 -0.11100
C 	C 	0.47650 0.93790 0.62560 0.40900
C 	C 	0.61760 0.03720 0.52380 -0.01500
C 	C 	0.71070 0.02500 0.57640 0.01400
C 	C 	0.45270 0.97400 0.64840 -0.14200
C 	C 	0.63560 0.07240 0.50150 0.02900
C 	C 	0.72860 0.06010 0.55410 -0.00200
C 	C 	0.45030 0.96350 0.68960 0.04800
C 	C 	0.44020 0.01910 0.63080 0.05700
C 	C 	0.69100 0.08380 0.51660 -0.02800
H 	H 	0.46050 0.93220 0.70250 0.02200
C 	C 	0.43270 0.99890 0.71270 -0.10800
C 	C 	0.42490 0.05460 0.65360 -0.11500
H 	H 	0.44200 0.02630 0.60240 0.02700
C 	C 	0.71370 0.11480 0.48910 0.07700
H 	H 	0.42910 0.99110 0.74040 0.06300
C 	C 	0.42040 0.04570 0.69480 0.04600
H 	H 	0.41710 0.08620 0.64080 0.07100
C 	C 	0.69100 0.11400 0.44210 -0.05900
C 	C 	0.75980 0.14300 0.51170 -0.09600
C 	C 	0.40550 0.08440 0.71890 0.03600
C 	C 	0.71440 0.14130 0.41760 0.05100
C 	C 	0.78310 0.17040 0.48720 0.18400
C 	C 	0.42810 0.08550 0.76670 -0.10100
C 	C 	0.36880 0.12080 0.69640 -0.09700
C 	C 	0.76040 0.16960 0.44020 -0.08100
C 	C 	0.69040 0.14310 0.36810 0.02500
C 	C 	0.84070 0.19200 0.51510 -0.48600
H 	H 	0.45270 0.06060 0.78300 0.06600
C 	C 	0.41440 0.12380 0.79100 0.05100
C 	C 	0.35370 0.15730 0.71780 0.03400
H 	H 	0.35330 0.12020 0.66430 0.06300
C 	C 	0.63470 0.14800 0.34230 0.01200
C 	C 	0.72690 0.13450 0.34700 -0.09600
C 	C 	0.88580 0.18690 0.50320 -0.08600
C 	C 	0.84350 0.22280 0.55030 0.03400
C 	C 	0.37840 0.15930 0.76630 -0.10100
C 	C 	0.43950 0.12410 0.84160 0.00900
C 	C 	0.31470 0.19480 0.69160 0.05600
C 	C 	0.61530 0.14410 0.29540 -0.00300
C 	C 	0.70760 0.13070 0.30010 0.13600
C 	C 	0.93370 0.21260 0.52640 -0.02800
C 	C 	0.89140 0.24850 0.57360 0.08700
H 	H 	0.36990 0.18550 0.78170 0.07100
C 	C 	0.44360 0.08290 0.86650 -0.07900
C 	C 	0.44640 0.16950 0.86200 -0.01300
C 	C 	0.27210 0.18370 0.65280 -0.11800
C 	C 	0.31900 0.24270 0.70620 -0.11600
C 	C 	0.65180 0.13550 0.27440 -0.13900
C 	C 	0.93650 0.24340 0.56160 -0.02700
H 	H 	0.43110 0.05300 0.85130 0.05500
C 	C 	0.46510 0.08390 0.91250 0.02600
C 	C 	0.45980 0.16750 0.90840 0.01800
H 	H 	0.27030 0.15180 0.64110 0.07100
C 	C 	0.23140 0.21560 0.62930 0.05800
C 	C 	0.28080 0.27660 0.68450 0.05700
H 	H 	0.34970 0.25190 0.73240 0.07300
C 	C 	0.63670 0.12480 0.22485 0.40700
C 	C 	0.98970 0.26750 0.58220 0.38500
H 	H 	0.46650 0.05510 0.92920 0.04900
C 	C 	0.48540 0.12810 0.93530 -0.11900
H 	H 	0.20110 0.20570 0.60310 0.02400
C 	C 	0.23610 0.26310 0.64540 -0.14000
H 	H 	0.28430 0.30890 0.69560 0.02800
C 	C 	0.50960 0.12940 0.98530 0.40100
C 	C 	0.19300 0.30050 0.62160 0.41600
C 	C 	0.49030 0.16840 0.91100 0.03500
C 	C 	0.46740 0.16520 0.86400 -0.01100
C 	C 	0.74700 0.07820 0.49060 -0.08900
C 	C 	0.72280 0.07860 0.44050 0.06400
C 	C 	0.75030 0.10360 0.41950 -0.08700
C 	C 	0.79830 0.12830 0.44220 0.10100
C 	C 	0.82040 0.12770 0.49050 -0.22100
C 	C 	0.79450 0.10090 0.51190 0.11200
C 	C 	0.85900 0.16740 0.51150 0.46600
C 	C 	0.90100 0.17210 0.49820 -0.08200
C 	C 	0.94600 0.20160 0.52050 0.09700
C 	C 	0.94790 0.22730 0.55770 -0.03700
C 	C 	0.90570 0.22630 0.57200 -0.10700
C 	C 	0.86140 0.19280 0.54800 0.15900
C 	C 	0.66760 0.11380 0.34310 -0.07700
C 	C 	0.64580 0.11320 0.29810 0.10300
C 	C 	0.67930 0.11050 0.27120 -0.07300
C 	C 	0.73910 0.11010 0.29460 -0.03900
C 	C 	0.75800 0.10730 0.34400 0.00800
C 	C 	0.72340 0.10700 0.36730 0.08100
C 	C 	0.65970 0.05130 0.49660 -0.04600
C 	C 	0.63080 0.02160 0.51490 0.05700
C 	C 	0.74750 0.02350 0.55490 -0.03700
C 	C 	0.71170 0.00820 0.57460 0.03300
C 	C 	0.71670 0.04920 0.51600 0.05300
Zn	Zn	0.14904 0.61012 0.13953 1.21100
O 	O 	0.07600 0.63270 0.10574 -0.96600
O 	O 	0.16700 0.55040 0.11690 -0.49000
O 	O 	0.16670 0.39200 0.70616 -0.48700
O 	O 	0.70120 0.15700 0.13650 -0.51400
Zn	Zn	0.03304 0.58008 0.06894 1.21300
Zn	Zn	0.04202 0.65557 0.14688 1.20200
Zn	Zn	0.07832 0.68441 0.06532 1.20800
C 	C 	0.13270 0.52420 0.08510 0.37500
O 	O 	0.08200 0.52650 0.07180 -0.50400
O 	O 	0.98150 0.55030 0.09080 -0.51200
O 	O 	0.99980 0.40630 0.50520 -0.50800
O 	O 	0.98700 0.60400 0.14390 -0.49900
O 	O 	0.09900 0.34450 0.70990 -0.50500
O 	O 	0.49080 0.20790 0.11360 -0.51200
O 	O 	0.52830 0.23580 0.06670 -0.48900
O 	O 	0.65070 0.21370 0.09020 -0.52100
O 	O 	0.04300 0.33670 0.50086 -0.50300
C 	C 	0.15520 0.48650 0.06120 -0.11100
C 	C 	0.97650 0.56210 0.12560 0.40900
C 	C 	0.11760 0.46280 0.02380 -0.01800
C 	C 	0.21070 0.47500 0.07640 0.01300
C 	C 	0.95270 0.52600 0.14840 -0.14200
C 	C 	0.13560 0.42760 0.00150 0.02900
C 	C 	0.22860 0.43990 0.05410 -0.00200
C 	C 	0.95030 0.53650 0.18960 0.04800
C 	C 	0.94020 0.48090 0.13080 0.05700
C 	C 	0.19100 0.41620 0.01660 -0.02800
H 	H 	0.96050 0.56780 0.20250 0.02200
C 	C 	0.93270 0.50110 0.21270 -0.10800
C 	C 	0.92490 0.44540 0.15360 -0.11500
H 	H 	0.94200 0.47370 0.10240 0.02700
C 	C 	0.21370 0.38520 0.98910 0.07800
H 	H 	0.92910 0.50890 0.24040 0.06300
C 	C 	0.92040 0.45430 0.19480 0.04600
H 	H 	0.91710 0.41380 0.14080 0.07100
C 	C 	0.19100 0.38600 0.94210 -0.05900
C 	C 	0.25980 0.35700 0.01170 -0.09700
C 	C 	0.90550 0.41560 0.21890 0.03600
C 	C 	0.21440 0.35870 0.91760 0.05200
C 	C 	0.28310 0.32960 0.98720 0.18500
C 	C 	0.92810 0.41450 0.26670 -0.10100
C 	C 	0.86880 0.37920 0.19640 -0.09700
C 	C 	0.26040 0.33040 0.94020 -0.08200
C 	C 	0.19040 0.35690 0.86810 0.02500
C 	C 	0.34070 0.30800 0.01510 -0.48900
H 	H 	0.95270 0.43940 0.28300 0.06600
C 	C 	0.91440 0.37620 0.29100 0.05100
C 	C 	0.85370 0.34270 0.21780 0.03400
H 	H 	0.85330 0.37980 0.16430 0.06300
C 	C 	0.13470 0.35200 0.84230 0.01200
C 	C 	0.22690 0.36550 0.84700 -0.09600
C 	C 	0.38580 0.31310 0.00320 -0.08600
C 	C 	0.34350 0.27720 0.05030 0.03500
C 	C 	0.87840 0.34070 0.26630 -0.10100
C 	C 	0.93950 0.37590 0.34160 0.00900
C 	C 	0.81470 0.30520 0.19160 0.05600
C 	C 	0.11530 0.35590 0.79540 -0.00300
C 	C 	0.20760 0.36930 0.80010 0.13600
C 	C 	0.43370 0.28740 0.02640 -0.02800
C 	C 	0.39140 0.25150 0.07360 0.08700
H 	H 	0.86990 0.31450 0.28170 0.07100
C 	C 	0.94360 0.41710 0.36650 -0.07900
C 	C 	0.94640 0.33050 0.36200 -0.01400
C 	C 	0.77210 0.31630 0.15280 -0.11800
C 	C 	0.81900 0.25730 0.20620 -0.11600
C 	C 	0.15180 0.36450 0.77440 -0.13900
C 	C 	0.43650 0.25660 0.06160 -0.02800
H 	H 	0.93110 0.44700 0.35130 0.05500
C 	C 	0.96510 0.41610 0.41250 0.02600
C 	C 	0.95980 0.33250 0.40840 0.01800
H 	H 	0.77030 0.34820 0.14110 0.07100
C 	C 	0.73140 0.28440 0.12930 0.05800
C 	C 	0.78080 0.22340 0.18450 0.05700
H 	H 	0.84970 0.24810 0.23240 0.07300
C 	C 	0.13670 0.37520 0.72485 0.40700
C 	C 	0.48970 0.23250 0.08220 0.38500
H 	H 	0.96650 0.44490 0.42920 0.04900
C 	C 	0.98540 0.37190 0.43530 -0.11900
H 	H 	0.70110 0.29430 0.10310 0.02400
C 	C 	0.73610 0.23690 0.14540 -0.14000
H 	H 	0.78430 0.19110 0.19560 0.02800
C 	C 	0.00960 0.37060 0.48530 0.40200
C 	C 	0.69300 0.19950 0.12160 0.41600
C 	C 	0.99030 0.33160 0.41100 0.03500
C 	C 	0.96740 0.33480 0.36400 -0.01100
C 	C 	0.24700 0.42180 0.99060 -0.08900
C 	C 	0.22280 0.42140 0.94050 0.06500
C 	C 	0.25030 0.39640 0.91950 -0.08800
C 	C 	0.29830 0.37170 0.94220 0.10200
C 	C 	0.32040 0.37230 0.99050 -0.22200
C 	C 	0.29450 0.39910 0.01190 0.11200
C 	C 	0.35900 0.33260 0.01150 0.46900
C 	C 	0.40100 0.32790 0.99820 -0.08200
C 	C 	0.44600 0.29840 0.02050 0.09700
C 	C 	0.44790 0.27270 0.05770 -0.03700
C 	C 	0.40570 0.27370 0.07200 -0.10600
C 	C 	0.36140 0.30720 0.04800 0.15900
C 	C 	0.16760 0.38620 0.84310 -0.07700
C 	C 	0.14580 0.38680 0.79810 0.10300
C 	C 	0.17930 0.38950 0.77120 -0.07300
C 	C 	0.23910 0.38990 0.79460 -0.03900
C 	C 	0.25800 0.39270 0.84400 0.00800
C 	C 	0.22340 0.39300 0.86730 0.08100
C 	C 	0.15970 0.44870 0.99660 -0.04700
C 	C 	0.13080 0.47840 0.01490 0.06000
C 	C 	0.24750 0.47650 0.05490 -0.03700
C 	C 	0.21170 0.49180 0.07460 0.03300
C 	C 	0.21670 0.45080 0.01600 0.05300
Zn	Zn	0.64904 0.11012 0.13953 1.21100
O 	O 	0.57600 0.13270 0.10574 -0.96600
O 	O 	0.66700 0.05040 0.11690 -0.49000
O 	O 	0.66670 0.89200 0.70616 -0.48700
O 	O 	0.20120 0.65700 0.13650 -0.51400
Zn	Zn	0.53304 0.08008 0.06894 1.21300
Zn	Zn	0.54202 0.15557 0.14688 1.20200
Zn	Zn	0.57832 0.18441 0.06532 1.20800
C 	C 	0.63270 0.02420 0.08510 0.37500
O 	O 	0.58200 0.02650 0.07180 -0.50400
O 	O 	0.48150 0.05030 0.09080 -0.51200
O 	O 	0.49980 0.90630 0.50520 -0.50800
O 	O 	0.48700 0.10400 0.14390 -0.49900
O 	O 	0.59900 0.84450 0.70990 -0.50500
O 	O 	0.99080 0.70790 0.11360 -0.51200
O 	O 	0.02830 0.73580 0.06670 -0.49000
O 	O 	0.15070 0.71370 0.09020 -0.52100
O 	O 	0.54300 0.83670 0.50086 -0.50300
C 	C 	0.65520 0.98650 0.06120 -0.11100
C 	C 	0.47650 0.06210 0.12560 0.40900
C 	C 	0.61760 0.96280 0.02380 -0.01600
C 	C 	0.71070 0.97500 0.07640 0.01300
C 	C 	0.45270 0.02600 0.14840 -0.14200
C 	C 	0.63560 0.92760 0.00150 0.02900
C 	C 	0.72860 0.93990 0.05410 -0.00200
C 	C 	0.45030 0.03650 0.18960 0.04700
C 	C 	0.44020 0.98090 0.13080 0.05600
C 	C 	0.69100 0.91620 0.01660 -0.02900
H 	H 	0.46050 0.06780 0.20250 0.02300
C 	C 	0.43270 0.00110 0.21270 -0.10800
C 	C 	0.42490 0.94540 0.15360 -0.11500
H 	H 	0.44200 0.97370 0.10240 0.02700
C 	C 	0.71370 0.88520 0.98910 0.07900
H 	H 	0.42910 0.00890 0.24040 0.06200
C 	C 	0.42040 0.95430 0.19480 0.04600
H 	H 	0.41710 0.91380 0.14080 0.07100
C 	C 	0.69100 0.88600 0.94210 -0.06000
C 	C 	0.75980 0.85700 0.01170 -0.09900
C 	C 	0.40550 0.91560 0.21890 0.03600
C 	C 	0.71440 0.85870 0.91760 0.05300
C 	C 	0.78310 0.82960 0.98720 0.18800
C 	C 	0.42810 0.91450 0.26670 -0.10100
C 	C 	0.36880 0.87920 0.19640 -0.09700
C 	C 	0.76040 0.83040 0.94020 -0.08400
C 	C 	0.69040 0.85690 0.86810 0.02500
C 	C 	0.84070 0.80800 0.01510 -0.49700
H 	H 	0.45270 0.93940 0.28300 0.06600
C 	C 	0.41440 0.87620 0.29100 0.05100
C 	C 	0.35370 0.84270 0.21780 0.03400
H 	H 	0.35330 0.87980 0.16430 0.06300
C 	C 	0.63470 0.85200 0.84230 0.01200
C 	C 	0.72690 0.86550 0.84700 -0.09600
C 	C 	0.88580 0.81310 0.00320 -0.08700
C 	C 	0.84350 0.77720 0.05030 0.03700
C 	C 	0.37840 0.84070 0.26630 -0.10100
C 	C 	0.43950 0.87590 0.34160 0.00900
C 	C 	0.31470 0.80520 0.19160 0.05600
C 	C 	0.61530 0.85590 0.79540 -0.00300
C 	C 	0.70760 0.86930 0.80010 0.13600
C 	C 	0.93370 0.78740 0.02640 -0.02700
C 	C 	0.89140 0.75150 0.07360 0.08600
H 	H 	0.36990 0.81450 0.28170 0.07100
C 	C 	0.44360 0.91710 0.36650 -0.07900
C 	C 	0.44640 0.83050 0.36200 -0.01400
C 	C 	0.27210 0.81630 0.15280 -0.11800
C 	C 	0.31900 0.75730 0.20620 -0.11600
C 	C 	0.65180 0.86450 0.77440 -0.13800
C 	C 	0.93650 0.75660 0.06160 -0.02900
H 	H 	0.43110 0.94700 0.35130 0.05500
C 	C 	0.46510 0.91610 0.41250 0.02600
C 	C 	0.45980 0.83250 0.40840 0.01800
H 	H 	0.27030 0.84820 0.14110 0.07100
C 	C 	0.23140 0.78440 0.12930 0.05700
C 	C 	0.28080 0.72340 0.18450 0.05700
H 	H 	0.34970 0.74810 0.23240 0.07300
C 	C 	0.63670 0.87520 0.72485 0.40700
C 	C 	0.98970 0.73250 0.08220 0.38500
H 	H 	0.46650 0.94490 0.42920 0.04900
C 	C 	0.48540 0.87190 0.43530 -0.11900
H 	H 	0.20110 0.79430 0.10310 0.02400
C 	C 	0.23610 0.73690 0.14540 -0.14000
H 	H 	0.28430 0.69110 0.19560 0.02800
C 	C 	0.50960 0.87060 0.48530 0.40200
C 	C 	0.19300 0.69950 0.12160 0.41600
C 	C 	0.49030 0.83160 0.41100 0.03500
C 	C 	0.46740 0.83480 0.36400 -0.01100
C 	C 	0.74700 0.92180 0.99060 -0.09100
C 	C 	0.72280 0.92140 0.94050 0.06600
C 	C 	0.75030 0.89640 0.91950 -0.08900
C 	C 	0.79830 0.87170 0.94220 0.10300
C 	C 	0.82040 0.87230 0.99050 -0.22700
C 	C 	0.79450 0.89910 0.01190 0.11500
C 	C 	0.85900 0.83260 0.01150 0.47800
C 	C 	0.90100 0.82790 0.99820 -0.08400
C 	C 	0.94600 0.79840 0.02050 0.09800
C 	C 	0.94790 0.77270 0.05770 -0.03600
C 	C 	0.90570 0.77370 0.07200 -0.10600
C 	C 	0.86140 0.80720 0.04800 0.16000
C 	C 	0.66760 0.88620 0.84310 -0.07700
C 	C 	0.64580 0.88680 0.79810 0.10300
C 	C 	0.67930 0.88950 0.77120 -0.07300
C 	C 	0.73910 0.88990 0.79460 -0.03900
C 	C 	0.75800 0.89270 0.84400 0.00700
C 	C 	0.72340 0.89300 0.86730 0.08100
C 	C 	0.65970 0.94870 0.99660 -0.04700
C 	C 	0.63080 0.97840 0.01490 0.05800
C 	C 	0.74750 0.97650 0.05490 -0.03700
C 	C 	0.71170 0.99180 0.07460 0.03300
C 	C 	0.71670 0.95080 0.01600 0.05400
Zn	Zn	0.85096 0.38988 0.86047 1.21100
O 	O 	0.92400 0.36730 0.89426 -0.96600
O 	O 	0.83300 0.44960 0.88310 -0.49000
O 	O 	0.83330 0.60800 0.29384 -0.48700
O 	O 	0.29880 0.84300 0.86350 -0.51400
Zn	Zn	0.96696 0.41992 0.93106 1.21300
Zn	Zn	0.95798 0.34443 0.85312 1.20200
Zn	Zn	0.92168 0.31559 0.93468 1.20800
C 	C 	0.86730 0.47580 0.91490 0.37500
O 	O 	0.91800 0.47350 0.92820 -0.50400
O 	O 	0.01850 0.44970 0.90920 -0.51200
O 	O 	0.00020 0.59370 0.49480 -0.50800
O 	O 	0.01300 0.39600 0.85610 -0.49900
O 	O 	0.90100 0.65550 0.29010 -0.50500
O 	O 	0.50920 0.79210 0.88640 -0.51200
O 	O 	0.47170 0.76420 0.93330 -0.48900
O 	O 	0.34930 0.78630 0.90980 -0.52100
O 	O 	0.95700 0.66330 0.49914 -0.50300
C 	C 	0.84480 0.51350 0.93880 -0.11100
C 	C 	0.02350 0.43790 0.87440 0.40900
C 	C 	0.88240 0.53720 0.97620 -0.01800
C 	C 	0.78930 0.52500 0.92360 0.01300
C 	C 	0.04730 0.47400 0.85160 -0.14200
C 	C 	0.86440 0.57240 0.99850 0.02900
C 	C 	0.77140 0.56010 0.94590 -0.00200
C 	C 	0.04970 0.46350 0.81040 0.04800
C 	C 	0.05980 0.51910 0.86920 0.05700
C 	C 	0.80900 0.58380 0.98340 -0.02800
H 	H 	0.03950 0.43220 0.79750 0.02200
C 	C 	0.06730 0.49890 0.78730 -0.10800
C 	C 	0.07510 0.55460 0.84640 -0.11500
H 	H 	0.05800 0.52630 0.89760 0.02700
C 	C 	0.78630 0.61480 0.01090 0.07800
H 	H 	0.07090 0.49110 0.75960 0.06300
C 	C 	0.07960 0.54570 0.80520 0.04600
H 	H 	0.08290 0.58620 0.85920 0.07100
C 	C 	0.80900 0.61400 0.05790 -0.05900
C 	C 	0.74020 0.64300 0.98830 -0.09700
C 	C 	0.09450 0.58440 0.78110 0.03600
C 	C 	0.78560 0.64130 0.08240 0.05200
C 	C 	0.71690 0.67040 0.01280 0.18500
C 	C 	0.07190 0.58550 0.73330 -0.10100
C 	C 	0.13120 0.62080 0.80360 -0.09700
C 	C 	0.73960 0.66960 0.05980 -0.08200
C 	C 	0.80960 0.64310 0.13190 0.02500
C 	C 	0.65930 0.69200 0.98490 -0.48900
H 	H 	0.04730 0.56060 0.71700 0.06600
C 	C 	0.08560 0.62380 0.70900 0.05100
C 	C 	0.14630 0.65730 0.78220 0.03400
H 	H 	0.14670 0.62020 0.83570 0.06300
C 	C 	0.86530 0.64800 0.15770 0.01200
C 	C 	0.77310 0.63450 0.15300 -0.09600
C 	C 	0.61420 0.68690 0.99680 -0.08600
C 	C 	0.65650 0.72280 0.94970 0.03500
C 	C 	0.12160 0.65930 0.73370 -0.10100
C 	C 	0.06050 0.62410 0.65840 0.00900
C 	C 	0.18530 0.69480 0.80840 0.05600
C 	C 	0.88470 0.64410 0.20460 -0.00300
C 	C 	0.79240 0.63070 0.19990 0.13600
C 	C 	0.56630 0.71260 0.97360 -0.02800
C 	C 	0.60860 0.74850 0.92640 0.08700
H 	H 	0.13010 0.68550 0.71830 0.07100
C 	C 	0.05640 0.58290 0.63350 -0.07900
C 	C 	0.05360 0.66950 0.63800 -0.01400
C 	C 	0.22790 0.68370 0.84720 -0.11800
C 	C 	0.18100 0.74270 0.79380 -0.11600
C 	C 	0.84820 0.63550 0.22560 -0.13900
C 	C 	0.56350 0.74340 0.93840 -0.02800
H 	H 	0.06890 0.55300 0.64870 0.05500
C 	C 	0.03490 0.58390 0.58750 0.02600
C 	C 	0.04020 0.66750 0.59160 0.01800
H 	H 	0.22970 0.65180 0.85890 0.07100
C 	C 	0.26860 0.71560 0.87070 0.05800
C 	C 	0.21920 0.77660 0.81550 0.05700
H 	H 	0.15030 0.75190 0.76760 0.07300
C 	C 	0.86330 0.62480 0.27515 0.40700
C 	C 	0.51030 0.76750 0.91780 0.38500
H 	H 	0.03350 0.55510 0.57080 0.04900
C 	C 	0.01460 0.62810 0.56470 -0.11900
H 	H 	0.29890 0.70570 0.89690 0.02400
C 	C 	0.26390 0.76310 0.85460 -0.14000
H 	H 	0.21570 0.80890 0.80440 0.02800
C 	C 	0.99040 0.62940 0.51470 0.40200
C 	C 	0.30700 0.80050 0.87840 0.41600
C 	C 	0.00970 0.66840 0.58900 0.03500
C 	C 	0.03260 0.66520 0.63600 -0.01100
C 	C 	0.75300 0.57820 0.00940 -0.08900
C 	C 	0.77720 0.57860 0.05950 0.06500
C 	C 	0.74970 0.60360 0.08050 -0.08800
C 	C 	0.70170 0.62830 0.05780 0.10200
C 	C 	0.67960 0.62770 0.00950 -0.22200
C 	C 	0.70550 0.60090 0.98810 0.11200
C 	C 	0.64100 0.66740 0.98850 0.46900
C 	C 	0.59900 0.67210 0.00180 -0.08200
C 	C 	0.55400 0.70160 0.97950 0.09700
C 	C 	0.55210 0.72730 0.94230 -0.03700
C 	C 	0.59430 0.72630 0.92800 -0.10600
C 	C 	0.63860 0.69280 0.95200 0.15900
C 	C 	0.83240 0.61380 0.15690 -0.07700
C 	C 	0.85420 0.61320 0.20190 0.10300
C 	C 	0.82070 0.61050 0.22880 -0.07300
C 	C 	0.76090 0.61010 0.20540 -0.03900
C 	C 	0.74200 0.60730 0.15600 0.00800
C 	C 	0.77660 0.60700 0.13270 0.08100
C 	C 	0.84030 0.55130 0.00340 -0.04700
C 	C 	0.86920 0.52160 0.98510 0.06000
C 	C 	0.75250 0.52350 0.94510 -0.03700
C 	C 	0.78830 0.50820 0.92540 0.03300
C 	C 	0.78330 0.54920 0.98400 0.05300
Zn	Zn	0.35096 0.88988 0.86047 1.21100
O 	O 	0.42400 0.86730 0.89426 -0.96600
O 	O 	0.33300 0.94960 0.88310 -0.49000
O 	O 	0.33330 0.10800 0.29384 -0.48700
O 	O 	0.79880 0.34300 0.86350 -0.51400
Zn	Zn	0.46696 0.91992 0.93106 1.21300
Zn	Zn	0.45798 0.84443 0.85312 1.20200
Zn	Zn	0.42168 0.81559 0.93468 1.20800
C 	C 	0.36730 0.97580 0.91490 0.37500
O 	O 	0.41800 0.97350 0.92820 -0.50400
O 	O 	0.51850 0.94970 0.90920 -0.51200
O 	O 	0.50020 0.09370 0.49480 -0.50800
O 	O 	0.51300 0.89600 0.85610 -0.49900
O 	O 	0.40100 0.15550 0.29010 -0.50500
O 	O 	0.00920 0.29210 0.88640 -0.51200
O 	O 	0.97170 0.26420 0.93330 -0.49000
O 	O 	0.84930 0.28630 0.90980 -0.52100
O 	O 	0.45700 0.16330 0.49914 -0.50300
C 	C 	0.34480 0.01350 0.93880 -0.11100
C 	C 	0.52350 0.93790 0.87440 0.40900
C 	C 	0.38240 0.03720 0.97620 -0.01600
C 	C 	0.28930 0.02500 0.92360 0.01300
C 	C 	0.54730 0.97400 0.85160 -0.14200
C 	C 	0.36440 0.07240 0.99850 0.02900
C 	C 	0.27140 0.06010 0.94590 -0.00200
C 	C 	0.54970 0.96350 0.81040 0.04700
C 	C 	0.55980 0.01910 0.86920 0.05600
C 	C 	0.30900 0.08380 0.98340 -0.02900
H 	H 	0.53950 0.93220 0.79750 0.02300
C 	C 	0.56730 0.99890 0.78730 -0.10800
C 	C 	0.57510 0.05460 0.84640 -0.11500
H 	H 	0.55800 0.02630 0.89760 0.02700
C 	C 	0.28630 0.11480 0.01090 0.07900
H 	H 	0.57090 0.99110 0.75960 0.06200
C 	C 	0.57960 0.04570 0.80520 0.04600
H 	H 	0.58290 0.08620 0.85920 0.07100
C 	C 	0.30900 0.11400 0.05790 -0.06000
C 	C 	0.24020 0.14300 0.98830 -0.09900
C 	C 	0.59450 0.08440 0.78110 0.03600
C 	C 	0.28560 0.14130 0.08240 0.05300
C 	C 	0.21690 0.17040 0.01280 0.18800
C 	C 	0.57190 0.08550 0.73330 -0.10100
C 	C 	0.63120 0.12080 0.80360 -0.09700
C 	C 	0.23960 0.16960 0.05980 -0.08400
C 	C 	0.30960 0.14310 0.13190 0.02500
C 	C 	0.15930 0.19200 0.98490 -0.49700
H 	H 	0.54730 0.06060 0.71700 0.06600
C 	C 	0.58560 0.12380 0.70900 0.05100
C 	C 	0.64630 0.15730 0.78220 0.03400
H 	H 	0.64670 0.12020 0.83570 0.06300
C 	C 	0.36530 0.14800 0.15770 0.01200
C 	C 	0.27310 0.13450 0.15300 -0.09600
C 	C 	0.11420 0.18690 0.99680 -0.08700
C 	C 	0.15650 0.22280 0.94970 0.03700
C 	C 	0.62160 0.15930 0.73370 -0.10100
C 	C 	0.56050 0.12410 0.65840 0.00900
C 	C 	0.68530 0.19480 0.80840 0.05600
C 	C 	0.38470 0.14410 0.20460 -0.00300
C 	C 	0.29240 0.13070 0.19990 0.13600
C 	C 	0.06630 0.21260 0.97360 -0.02700
C 	C 	0.10860 0.24850 0.92640 0.08600
H 	H 	0.63010 0.18550 0.71830 0.07100
C 	C 	0.55640 0.08290 0.63350 -0.07900
C 	C 	0.55360 0.16950 0.63800 -0.01400
C 	C 	0.72790 0.18370 0.84720 -0.11800
C 	C 	0.68100 0.24270 0.79380 -0.11600
C 	C 	0.34820 0.13550 0.22560 -0.13800
C 	C 	0.06350 0.24340 0.93840 -0.02900
H 	H 	0.56890 0.05300 0.64870 0.05500
C 	C 	0.53490 0.08390 0.58750 0.02600
C 	C 	0.54020 0.16750 0.59160 0.01800
H 	H 	0.72970 0.15180 0.85890 0.07100
C 	C 	0.76860 0.21560 0.87070 0.05700
C 	C 	0.71920 0.27660 0.81550 0.05700
H 	H 	0.65030 0.25190 0.76760 0.07300
C 	C 	0.36330 0.12480 0.27515 0.40700
C 	C 	0.01030 0.26750 0.91780 0.38500
H 	H 	0.53350 0.05510 0.57080 0.04900
C 	C 	0.51460 0.12810 0.56470 -0.11900
H 	H 	0.79890 0.20570 0.89690 0.02400
C 	C 	0.76390 0.26310 0.85460 -0.14000
H 	H 	0.71570 0.30890 0.80440 0.02800
C 	C 	0.49040 0.12940 0.51470 0.40200
C 	C 	0.80700 0.30050 0.87840 0.41600
C 	C 	0.50970 0.16840 0.58900 0.03500
C 	C 	0.53260 0.16520 0.63600 -0.01100
C 	C 	0.25300 0.07820 0.00940 -0.09100
C 	C 	0.27720 0.07860 0.05950 0.06600
C 	C 	0.24970 0.10360 0.08050 -0.08900
C 	C 	0.20170 0.12830 0.05780 0.10300
C 	C 	0.17960 0.12770 0.00950 -0.22700
C 	C 	0.20550 0.10090 0.98810 0.11500
C 	C 	0.14100 0.16740 0.98850 0.47800
C 	C 	0.09900 0.17210 0.00180 -0.08400
C 	C 	0.05400 0.20160 0.97950 0.09800
C 	C 	0.05210 0.22730 0.94230 -0.03600
C 	C 	0.09430 0.22630 0.92800 -0.10600
C 	C 	0.13860 0.19280 0.95200 0.16000
C 	C 	0.33240 0.11380 0.15690 -0.07700
C 	C 	0.35420 0.11320 0.20190 0.10300
C 	C 	0.32070 0.11050 0.22880 -0.07300
C 	C 	0.26090 0.11010 0.20540 -0.03900
C 	C 	0.24200 0.10730 0.15600 0.00700
C 	C 	0.27660 0.10700 0.13270 0.08100
C 	C 	0.34030 0.05130 0.00340 -0.04700
C 	C 	0.36920 0.02160 0.98510 0.05800
C 	C 	0.25250 0.02350 0.94510 -0.03700
C 	C 	0.28830 0.00820 0.92540 0.03300
C 	C 	0.28330 0.04920 0.98400 0.05400
Zn	Zn	0.85096 0.61012 0.36047 1.21100
O 	O 	0.92400 0.63270 0.39426 -0.96600
O 	O 	0.83300 0.55040 0.38310 -0.49000
O 	O 	0.83330 0.39200 0.79384 -0.48700
O 	O 	0.29880 0.15700 0.36350 -0.51400
Zn	Zn	0.96696 0.58008 0.43106 1.21300
Zn	Zn	0.95798 0.65557 0.35312 1.20200
Zn	Zn	0.92168 0.68441 0.43468 1.20800
C 	C 	0.86730 0.52420 0.41490 0.37500
O 	O 	0.91800 0.52650 0.42820 -0.50400
O 	O 	0.01850 0.55030 0.40920 -0.51200
O 	O 	0.00020 0.40630 0.99480 -0.50800
O 	O 	0.01300 0.60400 0.35610 -0.49900
O 	O 	0.90100 0.34450 0.79010 -0.50500
O 	O 	0.50920 0.20790 0.38640 -0.51200
O 	O 	0.47170 0.23580 0.43330 -0.48900
O 	O 	0.34930 0.21370 0.40980 -0.52100
O 	O 	0.95700 0.33670 0.99914 -0.50400
C 	C 	0.84480 0.48650 0.43880 -0.11100
C 	C 	0.02350 0.56210 0.37440 0.40900
C 	C 	0.88240 0.46280 0.47620 -0.01500
C 	C 	0.78930 0.47500 0.42360 0.01400
C 	C 	0.04730 0.52600 0.35160 -0.14200
C 	C 	0.86440 0.42760 0.49850 0.02900
C 	C 	0.77140 0.43990 0.44590 -0.00300
C 	C 	0.04970 0.53650 0.31040 0.04800
C 	C 	0.05980 0.48090 0.36920 0.05700
C 	C 	0.80900 0.41620 0.48340 -0.02800
H 	H 	0.03950 0.56780 0.29750 0.02200
C 	C 	0.06730 0.50110 0.28730 -0.10800
C 	C 	0.07510 0.44540 0.34640 -0.11500
H 	H 	0.05800 0.47370 0.39760 0.02700
C 	C 	0.78630 0.38520 0.51090 0.07800
H 	H 	0.07090 0.50890 0.25960 0.06300
C 	C 	0.07960 0.45430 0.30520 0.04600
H 	H 	0.08290 0.41380 0.35920 0.07100
C 	C 	0.80900 0.38600 0.55790 -0.05900
C 	C 	0.74020 0.35700 0.48830 -0.09700
C 	C 	0.09450 0.41560 0.28110 0.03600
C 	C 	0.78560 0.35870 0.58240 0.05100
C 	C 	0.71690 0.32960 0.51280 0.18400
C 	C 	0.07190 0.41450 0.23330 -0.10100
C 	C 	0.13120 0.37920 0.30360 -0.09700
C 	C 	0.73960 0.33040 0.55980 -0.08200
C 	C 	0.80960 0.35690 0.63190 0.02500
C 	C 	0.65930 0.30800 0.48490 -0.48600
H 	H 	0.04730 0.43940 0.21700 0.06600
C 	C 	0.08560 0.37620 0.20900 0.05100
C 	C 	0.14630 0.34270 0.28220 0.03400
H 	H 	0.14670 0.37980 0.33570 0.06300
C 	C 	0.86530 0.35200 0.65770 0.01200
C 	C 	0.77310 0.36550 0.65300 -0.09600
C 	C 	0.61420 0.31310 0.49680 -0.08500
C 	C 	0.65650 0.27720 0.44970 0.03400
C 	C 	0.12160 0.34070 0.23370 -0.10100
C 	C 	0.06050 0.37590 0.15840 0.00900
C 	C 	0.18530 0.30520 0.30840 0.05600
C 	C 	0.88470 0.35590 0.70460 -0.00300
C 	C 	0.79240 0.36930 0.69990 0.13600
C 	C 	0.56630 0.28740 0.47360 -0.02800
C 	C 	0.60860 0.25150 0.42640 0.08700
H 	H 	0.13010 0.31450 0.21830 0.07100
C 	C 	0.05640 0.41710 0.13350 -0.07900
C 	C 	0.05360 0.33050 0.13800 -0.01400
C 	C 	0.22790 0.31630 0.34720 -0.11800
C 	C 	0.18100 0.25730 0.29380 -0.11600
C 	C 	0.84820 0.36450 0.72560 -0.13900
C 	C 	0.56350 0.25660 0.43840 -0.02700
H 	H 	0.06890 0.44700 0.14870 0.05600
C 	C 	0.03490 0.41610 0.08750 0.02600
C 	C 	0.04020 0.33250 0.09160 0.01800
H 	H 	0.22970 0.34820 0.35890 0.07100
C 	C 	0.26860 0.28440 0.37070 0.05800
C 	C 	0.21920 0.22340 0.31550 0.05700
H 	H 	0.15030 0.24810 0.26760 0.07300
C 	C 	0.86330 0.37520 0.77515 0.40700
C 	C 	0.51030 0.23250 0.41780 0.38500
H 	H 	0.03350 0.44490 0.07080 0.04900
C 	C 	0.01460 0.37190 0.06470 -0.12000
H 	H 	0.29890 0.29430 0.39690 0.02400
C 	C 	0.26390 0.23690 0.35460 -0.14000
H 	H 	0.21570 0.19110 0.30440 0.02800
C 	C 	0.99040 0.37060 0.01470 0.40300
C 	C 	0.30700 0.19950 0.37840 0.41600
C 	C 	0.00970 0.33160 0.08900 0.03500
C 	C 	0.03260 0.33480 0.13600 -0.01100
C 	C 	0.75300 0.42180 0.50940 -0.08900
C 	C 	0.77720 0.42140 0.55950 0.06400
C 	C 	0.74970 0.39640 0.58050 -0.08700
C 	C 	0.70170 0.37170 0.55780 0.10100
C 	C 	0.67960 0.37230 0.50950 -0.22100
C 	C 	0.70550 0.39910 0.48810 0.11200
C 	C 	0.64100 0.33260 0.48850 0.46700
C 	C 	0.59900 0.32790 0.50180 -0.08200
C 	C 	0.55400 0.29840 0.47950 0.09700
C 	C 	0.55210 0.27270 0.44230 -0.03700
C 	C 	0.59430 0.27370 0.42800 -0.10600
C 	C 	0.63860 0.30720 0.45200 0.15900
C 	C 	0.83240 0.38620 0.65690 -0.07700
C 	C 	0.85420 0.38680 0.70190 0.10300
C 	C 	0.82070 0.38950 0.72880 -0.07300
C 	C 	0.76090 0.38990 0.70540 -0.03900
C 	C 	0.74200 0.39270 0.65600 0.00800
C 	C 	0.77660 0.39300 0.63270 0.08100
C 	C 	0.84030 0.44870 0.50340 -0.04600
C 	C 	0.86920 0.47840 0.48510 0.05700
C 	C 	0.75250 0.47650 0.44510 -0.03600
C 	C 	0.78830 0.49180 0.42540 0.03300
C 	C 	0.78330 0.45080 0.48400 0.05300
Zn	Zn	0.35096 0.11012 0.36047 1.21100
O 	O 	0.42400 0.13270 0.39426 -0.96600
O 	O 	0.33300 0.05040 0.38310 -0.49000
O 	O 	0.33330 0.89200 0.79384 -0.48700
O 	O 	0.79880 0.65700 0.36350 -0.51400
Zn	Zn	0.46696 0.08008 0.43106 1.21300
Zn	Zn	0.45798 0.15557 0.35312 1.20200
Zn	Zn	0.42168 0.18441 0.43468 1.20800
C 	C 	0.36730 0.02420 0.41490 0.37500
O 	O 	0.41800 0.02650 0.42820 -0.50400
O 	O 	0.51850 0.05030 0.40920 -0.51200
O 	O 	0.50020 0.90630 0.99480 -0.50800
O 	O 	0.51300 0.10400 0.35610 -0.49900
O 	O 	0.40100 0.84450 0.79010 -0.50500
O 	O 	0.00920 0.70790 0.38640 -0.51200
O 	O 	0.97170 0.73580 0.43330 -0.48900
O 	O 	0.84930 0.71370 0.40980 -0.52100
O 	O 	0.45700 0.83670 0.99914 -0.50300
C 	C 	0.34480 0.98650 0.43880 -0.11100
C 	C 	0.52350 0.06210 0.37440 0.40900
C 	C 	0.38240 0.96280 0.47620 -0.01500
C 	C 	0.28930 0.97500 0.42360 0.01400
C 	C 	0.54730 0.02600 0.35160 -0.14200
C 	C 	0.36440 0.92760 0.49850 0.02900
C 	C 	0.27140 0.93990 0.44590 -0.00200
C 	C 	0.54970 0.03650 0.31040 0.04800
C 	C 	0.55980 0.98090 0.36920 0.05700
C 	C 	0.30900 0.91620 0.48340 -0.02800
H 	H 	0.53950 0.06780 0.29750 0.02200
C 	C 	0.56730 0.00110 0.28730 -0.10800
C 	C 	0.57510 0.94540 0.34640 -0.11500
H 	H 	0.55800 0.97370 0.39760 0.02700
C 	C 	0.28630 0.88520 0.51090 0.07700
H 	H 	0.57090 0.00890 0.25960 0.06300
C 	C 	0.57960 0.95430 0.30520 0.04600
H 	H 	0.58290 0.91380 0.35920 0.07100
C 	C 	0.30900 0.88600 0.55790 -0.05900
C 	C 	0.24020 0.85700 0.48830 -0.09600
C 	C 	0.59450 0.91560 0.28110 0.03600
C 	C 	0.28560 0.85870 0.58240 0.05100
C 	C 	0.21690 0.82960 0.51280 0.18400
C 	C 	0.57190 0.91450 0.23330 -0.10100
C 	C 	0.63120 0.87920 0.30360 -0.09700
C 	C 	0.23960 0.83040 0.55980 -0.08100
C 	C 	0.30960 0.85690 0.63190 0.02500
C 	C 	0.15930 0.80800 0.48490 -0.48600
H 	H 	0.54730 0.93940 0.21700 0.06600
C 	C 	0.58560 0.87620 0.20900 0.05100
C 	C 	0.64630 0.84270 0.28220 0.03400
H 	H 	0.64670 0.87980 0.33570 0.06300
C 	C 	0.36530 0.85200 0.65770 0.01200
C 	C 	0.27310 0.86550 0.65300 -0.09600
C 	C 	0.11420 0.81310 0.49680 -0.08600
C 	C 	0.15650 0.77720 0.44970 0.03400
C 	C 	0.62160 0.84070 0.23370 -0.10100
C 	C 	0.56050 0.87590 0.15840 0.00900
C 	C 	0.68530 0.80520 0.30840 0.05600
C 	C 	0.38470 0.85590 0.70460 -0.00300
C 	C 	0.29240 0.86930 0.69990 0.13600
C 	C 	0.06630 0.78740 0.47360 -0.02800
C 	C 	0.10860 0.75150 0.42640 0.08700
H 	H 	0.63010 0.81450 0.21830 0.07100
C 	C 	0.55640 0.91710 0.13350 -0.07900
C 	C 	0.55360 0.83050 0.13800 -0.01300
C 	C 	0.72790 0.81630 0.34720 -0.11800
C 	C 	0.68100 0.75730 0.29380 -0.11600
C 	C 	0.34820 0.86450 0.72560 -0.13900
C 	C 	0.06350 0.75660 0.43840 -0.02700
H 	H 	0.56890 0.94700 0.14870 0.05500
C 	C 	0.53490 0.91610 0.08750 0.02600
C 	C 	0.54020 0.83250 0.09160 0.01800
H 	H 	0.72970 0.84820 0.35890 0.07100
C 	C 	0.76860 0.78440 0.37070 0.05800
C 	C 	0.71920 0.72340 0.31550 0.05700
H 	H 	0.65030 0.74810 0.26760 0.07300
C 	C 	0.36330 0.87520 0.77515 0.40700
C 	C 	0.01030 0.73250 0.41780 0.38500
H 	H 	0.53350 0.94490 0.07080 0.04900
C 	C 	0.51460 0.87190 0.06470 -0.11900
H 	H 	0.79890 0.79430 0.39690 0.02400
C 	C 	0.76390 0.73690 0.35460 -0.14000
H 	H 	0.71570 0.69110 0.30440 0.02800
C 	C 	0.49040 0.87060 0.01470 0.40100
C 	C 	0.80700 0.69950 0.37840 0.41600
C 	C 	0.50970 0.83160 0.08900 0.03500
C 	C 	0.53260 0.83480 0.13600 -0.01100
C 	C 	0.25300 0.92180 0.50940 -0.08900
C 	C 	0.27720 0.92140 0.55950 0.06400
C 	C 	0.24970 0.89640 0.58050 -0.08700
C 	C 	0.20170 0.87170 0.55780 0.10100
C 	C 	0.17960 0.87230 0.50950 -0.22100
C 	C 	0.20550 0.89910 0.48810 0.11200
C 	C 	0.14100 0.83260 0.48850 0.46600
C 	C 	0.09900 0.82790 0.50180 -0.08200
C 	C 	0.05400 0.79840 0.47950 0.09700
C 	C 	0.05210 0.77270 0.44230 -0.03700
C 	C 	0.09430 0.77370 0.42800 -0.10700
C 	C 	0.13860 0.80720 0.45200 0.15900
C 	C 	0.33240 0.88620 0.65690 -0.07700
C 	C 	0.35420 0.88680 0.70190 0.10300
C 	C 	0.32070 0.88950 0.72880 -0.07300
C 	C 	0.26090 0.88990 0.70540 -0.03900
C 	C 	0.24200 0.89270 0.65600 0.00800
C 	C 	0.27660 0.89300 0.63270 0.08100
C 	C 	0.34030 0.94870 0.50340 -0.04600
C 	C 	0.36920 0.97840 0.48510 0.05700
C 	C 	0.25250 0.97650 0.44510 -0.03700
C 	C 	0.28830 0.99180 0.42540 0.03300
C 	C 	0.28330 0.95080 0.48400 0.05300
