data_crystal

_cell_length_a 11.37290
_cell_length_b 9.94630
_cell_length_c 14.51180
_cell_angle_alpha 90.00000
_cell_angle_beta  91.27830
_cell_angle_gamma 90.00000

_symmetry_space_group_name_	'P 1'
_symmetry_space_group_name_H-M	'P 1'

loop_
_symmetry_equiv_pos_as_xyz
  x,y,z

loop_
_atom_site_label
_atom_site_type_symbol
_atom_site_fract_x
_atom_site_fract_y
_atom_site_fract_z
_atom_site_charge
Co	Co	0.25477 0.42208 0.13353 1.18600
Co	Co	0.23921 0.61426 0.30919 1.19800
O 	O 	0.34805 0.58268 0.19574 -0.56400
O 	O 	0.50984 0.62210 0.11547 -0.45500
C 	C 	0.44456 0.64291 0.18049 0.49400
H 	H 	0.46840 0.71030 0.22340 -0.10200
O 	O 	0.18492 0.52599 0.02297 -0.66400
O 	O 	0.34905 0.60206 0.95788 -0.43000
C 	C 	0.24098 0.59905 0.96605 0.64900
H 	H 	0.19560 0.65600 0.92660 -0.12400
O 	O 	0.15736 0.24471 0.10835 -0.53700
O 	O 	0.02093 0.29386 0.99940 -0.31700
C 	C 	0.07800 0.21420 0.04833 0.30200
H 	H 	0.06110 0.12130 0.04040 -0.11800
O 	O 	0.30439 0.30342 0.24837 -0.55000
O 	O 	0.30354 0.44243 0.37011 -0.43100
C 	C 	0.31797 0.33055 0.33401 0.47000
H 	H 	0.34120 0.25880 0.37360 -0.10400
O 	O 	0.40133 0.34919 0.06636 -0.57700
O 	O 	0.39561 0.12863 0.09992 -0.48200
C 	C 	0.43797 0.22800 0.06123 0.48100
H 	H 	0.50430 0.21250 0.02400 -0.13700
O 	O 	0.12868 0.50825 0.21747 -0.49900
O 	O 	0.95728 0.50074 0.13917 -0.31300
C 	C 	0.01732 0.51772 0.21010 0.22400
H 	H 	0.97650 0.54000 0.26440 0.03600
Co	Co	0.24523 0.92208 0.36647 1.24300
Co	Co	0.26079 0.11426 0.19081 1.17900
O 	O 	0.15195 0.08268 0.30426 -0.58000
O 	O 	0.99016 0.12210 0.38453 -0.36800
C 	C 	0.05544 0.14291 0.31951 0.37900
H 	H 	0.03160 0.21030 0.27660 -0.10700
O 	O 	0.31508 0.02599 0.47703 -0.60400
O 	O 	0.15095 0.10206 0.54212 -0.47700
C 	C 	0.25902 0.09905 0.53395 0.48500
H 	H 	0.30440 0.15600 0.57340 -0.11500
O 	O 	0.34264 0.74471 0.39165 -0.53100
O 	O 	0.47907 0.79386 0.50060 -0.39800
C 	C 	0.42200 0.71420 0.45167 0.47800
H 	H 	0.43890 0.62130 0.45960 -0.09300
O 	O 	0.19561 0.80342 0.25163 -0.53000
O 	O 	0.19646 0.94243 0.12989 -0.38300
C 	C 	0.18203 0.83055 0.16599 0.46200
H 	H 	0.15880 0.75880 0.12640 -0.11700
O 	O 	0.09867 0.84919 0.43364 -0.47900
O 	O 	0.10439 0.62863 0.40008 -0.40700
C 	C 	0.06203 0.72800 0.43877 0.32500
H 	H 	0.99570 0.71250 0.47600 0.00800
O 	O 	0.37132 0.00825 0.28253 -0.61000
O 	O 	0.54272 0.00074 0.36083 -0.48500
C 	C 	0.48268 0.01772 0.28990 0.50100
H 	H 	0.52350 0.04000 0.23560 -0.12700
Co	Co	0.74523 0.57792 0.86647 1.20000
Co	Co	0.76079 0.38574 0.69081 1.20600
O 	O 	0.65195 0.41732 0.80426 -0.55000
O 	O 	0.49016 0.37790 0.88453 -0.40000
C 	C 	0.55544 0.35709 0.81951 0.48900
H 	H 	0.53160 0.28970 0.77660 -0.12600
O 	O 	0.81508 0.47401 0.97703 -0.42100
O 	O 	0.65095 0.39794 0.04212 -0.42200
C 	C 	0.75902 0.40095 0.03395 0.31300
H 	H 	0.80440 0.34400 0.07340 -0.05700
O 	O 	0.84264 0.75529 0.89165 -0.55500
O 	O 	0.97907 0.70614 0.00060 -0.49100
C 	C 	0.92200 0.78580 0.95167 0.61200
H 	H 	0.93890 0.87870 0.95960 -0.06400
O 	O 	0.69561 0.69658 0.75163 -0.54600
O 	O 	0.69646 0.55757 0.62989 -0.42300
C 	C 	0.68203 0.66945 0.66599 0.47000
H 	H 	0.65880 0.74120 0.62640 -0.10100
O 	O 	0.59867 0.65081 0.93364 -0.50200
O 	O 	0.60439 0.87137 0.90008 -0.37100
C 	C 	0.56203 0.77200 0.93877 0.44500
H 	H 	0.49570 0.78750 0.97600 -0.03200
O 	O 	0.87132 0.49175 0.78253 -0.59500
O 	O 	0.04272 0.49926 0.86083 -0.49900
C 	C 	0.98268 0.48228 0.78990 0.69100
H 	H 	0.02350 0.46000 0.73560 -0.20300
Co	Co	0.75477 0.07792 0.63353 1.14600
Co	Co	0.73921 0.88574 0.80919 1.22400
O 	O 	0.84805 0.91732 0.69574 -0.53000
O 	O 	0.00984 0.87790 0.61547 -0.46200
C 	C 	0.94456 0.85709 0.68049 0.58200
H 	H 	0.96840 0.78970 0.72340 -0.11800
O 	O 	0.68492 0.97401 0.52297 -0.47300
O 	O 	0.84905 0.89794 0.45788 -0.36200
C 	C 	0.74098 0.90095 0.46605 0.45500
H 	H 	0.69560 0.84400 0.42660 -0.06300
O 	O 	0.65736 0.25529 0.60835 -0.56900
O 	O 	0.52093 0.20614 0.49940 -0.44500
C 	C 	0.57800 0.28580 0.54833 0.47400
H 	H 	0.56110 0.37870 0.54040 -0.09400
O 	O 	0.80439 0.19658 0.74837 -0.56500
O 	O 	0.80354 0.05757 0.87011 -0.47000
C 	C 	0.81797 0.16945 0.83401 0.47800
H 	H 	0.84120 0.24120 0.87360 -0.09000
O 	O 	0.90133 0.15081 0.56636 -0.58800
O 	O 	0.89561 0.37137 0.59992 -0.44600
C 	C 	0.93797 0.27200 0.56123 0.60200
H 	H 	0.00430 0.28750 0.52400 -0.17700
O 	O 	0.62868 0.99175 0.71747 -0.49600
O 	O 	0.45728 0.99926 0.63917 -0.35600
C 	C 	0.51732 0.98228 0.71010 0.46000
H 	H 	0.47650 0.96000 0.76440 -0.05900
Co	Co	0.50000 0.50000 -0.00000 1.16700
Co	Co	0.00000 0.00000 0.50000 1.13200
Co	Co	-0.00000 0.50000 -0.00000 1.13100
Co	Co	0.50000 0.00000 0.50000 1.15900
