data_crystal

_cell_length_a 30.99940
_cell_length_b 30.99940
_cell_length_c 30.99940
_cell_angle_alpha 109.47100
_cell_angle_beta  109.47100
_cell_angle_gamma 109.47100

_symmetry_space_group_name_	'P 1'
_symmetry_space_group_name_H-M	'P 1'

loop_
_symmetry_equiv_pos_as_xyz
  x,y,z

loop_
_atom_site_label
_atom_site_type_symbol
_atom_site_fract_x
_atom_site_fract_y
_atom_site_fract_z
_atom_site_charge
Mn	Mn	0.22140 0.57217 0.63293 1.23300
Mn	Mn	0.43924 0.58847 0.86707 1.23300
Mn	Mn	0.06076 0.92782 0.14923 1.23200
Mn	Mn	0.27860 0.91154 0.35077 1.23300
Mn	Mn	0.64923 0.06076 0.42783 1.23300
Mn	Mn	0.85077 0.27860 0.41153 1.23300
Mn	Mn	0.13294 0.22141 0.07218 1.23300
Mn	Mn	0.36706 0.43923 0.08846 1.23300
Mn	Mn	0.58847 0.36707 0.93924 1.23300
Mn	Mn	0.57217 0.13293 0.72140 1.23300
Mn	Mn	0.91153 0.85077 0.77859 1.23300
Mn	Mn	0.92783 0.64923 0.56077 1.23300
Mn	Mn	0.92783 0.27860 0.86707 1.23300
Mn	Mn	0.91153 0.06076 0.63293 1.23300
Mn	Mn	0.57217 0.43923 0.35077 1.23300
Mn	Mn	0.58847 0.22141 0.14923 1.23300
Mn	Mn	0.43924 0.85077 0.07218 1.23300
Mn	Mn	0.22140 0.64923 0.08846 1.23300
Mn	Mn	0.27860 0.36707 0.42783 1.23200
Mn	Mn	0.06076 0.13293 0.41153 1.23200
Mn	Mn	0.13294 0.91154 0.56077 1.23200
Mn	Mn	0.36706 0.92782 0.77859 1.23200
Mn	Mn	0.64923 0.58847 0.72140 1.23200
Mn	Mn	0.85077 0.57217 0.93924 1.23200
Mn	Mn	0.77860 0.42783 0.36707 1.23200
Mn	Mn	0.56076 0.41153 0.13293 1.23200
Mn	Mn	0.93924 0.07218 0.85077 1.23100
Mn	Mn	0.72140 0.08846 0.64923 1.23200
Mn	Mn	0.35077 0.93924 0.57217 1.23200
Mn	Mn	0.14923 0.72140 0.58847 1.23200
Mn	Mn	0.86706 0.77859 0.92782 1.23200
Mn	Mn	0.63294 0.56077 0.91154 1.23200
Mn	Mn	0.41153 0.63293 0.06076 1.23200
Mn	Mn	0.42783 0.86707 0.27860 1.23200
Mn	Mn	0.08847 0.14923 0.22141 1.23200
Mn	Mn	0.07218 0.35078 0.43924 1.23200
Mn	Mn	0.07217 0.72140 0.13293 1.23200
Mn	Mn	0.08847 0.93924 0.36707 1.23200
Mn	Mn	0.42783 0.56077 0.64923 1.23200
Mn	Mn	0.41153 0.77859 0.85077 1.23200
Mn	Mn	0.56076 0.14923 0.92782 1.23200
Mn	Mn	0.77860 0.35077 0.91154 1.23200
Mn	Mn	0.72140 0.63293 0.57217 1.23200
Mn	Mn	0.93924 0.86707 0.58847 1.23200
Mn	Mn	0.86706 0.08846 0.43923 1.23200
Mn	Mn	0.63294 0.07218 0.22141 1.23200
Mn	Mn	0.35077 0.41153 0.27860 1.23200
Mn	Mn	0.14923 0.42783 0.06076 1.23200
H 	H 	0.17890 0.45090 0.54160 -0.04700
H 	H 	0.03990 0.40780 0.52790 0.02200
H 	H 	0.28240 0.72560 0.80840 0.01500
H 	H 	0.34770 0.67600 0.73090 -0.05900
H 	H 	0.05500 0.48780 0.59680 0.05700
H 	H 	0.17470 0.63670 0.73140 0.05800
H 	H 	0.40930 0.63730 0.95840 -0.04700
H 	H 	0.37990 0.51200 0.97210 0.02200
H 	H 	0.41720 0.47400 0.69160 0.01500
H 	H 	0.44510 0.61680 0.76910 -0.05900
H 	H 	0.39100 0.45820 0.90320 0.05600
H 	H 	0.40530 0.44330 0.76860 0.05800
H 	H 	0.09070 0.04910 0.22800 -0.04700
H 	H 	0.12010 0.09220 0.13210 0.02300
H 	H 	0.08280 0.77440 0.05680 0.01400
H 	H 	0.05490 0.82400 0.17170 -0.06000
H 	H 	0.10900 0.01220 0.06720 0.05900
H 	H 	0.09470 0.86330 0.03800 0.05700
H 	H 	0.32110 0.86270 0.27200 -0.04700
H 	H 	0.46010 0.98800 0.36790 0.02200
H 	H 	0.21760 0.02600 0.44320 0.01600
H 	H 	0.15230 0.88320 0.32830 -0.06000
H 	H 	0.44500 0.04180 0.43280 0.05600
H 	H 	0.32530 0.05670 0.46200 0.05800
H 	H 	0.72800 0.09070 0.54910 -0.04700
H 	H 	0.63210 0.12010 0.59220 0.02200
H 	H 	0.55680 0.08280 0.27440 0.01500
H 	H 	0.67170 0.05490 0.32400 -0.06000
H 	H 	0.56720 0.10900 0.51220 0.05600
H 	H 	0.53800 0.09470 0.36330 0.05800
H 	H 	0.77200 0.32110 0.36270 -0.04700
H 	H 	0.86790 0.46010 0.48800 0.02200
H 	H 	0.94320 0.21760 0.52600 0.01500
H 	H 	0.82830 0.15230 0.38320 -0.05900
H 	H 	0.93280 0.44500 0.54180 0.05600
H 	H 	0.96200 0.32530 0.55670 0.05800
H 	H 	0.04160 0.17890 0.95090 -0.04600
H 	H 	0.02790 0.03990 0.90780 0.02300
H 	H 	0.30840 0.28240 0.22560 0.01500
H 	H 	0.23090 0.34770 0.17600 -0.05900
H 	H 	0.09680 0.05500 0.98780 0.06000
H 	H 	0.23140 0.17470 0.13670 0.05800
H 	H 	0.45840 0.40930 0.13730 -0.04700
H 	H 	0.47210 0.37990 0.01200 0.02200
H 	H 	0.19160 0.41720 0.97400 0.01700
H 	H 	0.26910 0.44510 0.11680 -0.05900
H 	H 	0.40320 0.39100 0.95820 0.05600
H 	H 	0.26860 0.40530 0.94330 0.05800
H 	H 	0.63730 0.45840 0.90930 -0.04700
H 	H 	0.51200 0.47210 0.87990 0.02200
H 	H 	0.47400 0.19160 0.91720 0.01500
H 	H 	0.61680 0.26910 0.94510 -0.06000
H 	H 	0.45820 0.40320 0.89100 0.05600
H 	H 	0.44330 0.26860 0.90530 0.05800
H 	H 	0.45090 0.04160 0.67890 -0.04700
H 	H 	0.40780 0.02790 0.53990 0.02200
H 	H 	0.72560 0.30840 0.78240 0.01500
H 	H 	0.67600 0.23090 0.84770 -0.06000
H 	H 	0.48780 0.09680 0.55500 0.05600
H 	H 	0.63670 0.23140 0.67470 0.05800
H 	H 	0.86270 0.77200 0.82110 -0.04700
H 	H 	0.98800 0.86790 0.96010 0.02200
H 	H 	0.02600 0.94320 0.71760 0.01400
H 	H 	0.88320 0.82830 0.65230 -0.05900
H 	H 	0.04180 0.93280 0.94500 0.05600
H 	H 	0.05670 0.96200 0.82530 0.05800
H 	H 	0.04910 0.72800 0.59070 -0.04700
H 	H 	0.09220 0.63210 0.62010 0.02200
H 	H 	0.77440 0.55680 0.58280 0.01500
H 	H 	0.82400 0.67170 0.55490 -0.05900
H 	H 	0.01220 0.56720 0.60900 0.05700
H 	H 	0.86330 0.53800 0.59470 0.05800
H 	H 	0.04910 0.32110 0.95840 -0.04600
H 	H 	0.09220 0.46010 0.97210 0.02300
H 	H 	0.77440 0.21760 0.69160 0.01500
H 	H 	0.82400 0.15230 0.76910 -0.06000
H 	H 	0.01220 0.44500 0.90320 0.06000
H 	H 	0.86330 0.32530 0.76860 0.05800
H 	H 	0.86270 0.09070 0.54160 -0.04700
H 	H 	0.98800 0.12010 0.52790 0.02100
H 	H 	0.02600 0.08280 0.80840 0.01800
H 	H 	0.88320 0.05490 0.73090 -0.06000
H 	H 	0.04180 0.10900 0.59680 0.05600
H 	H 	0.05670 0.09470 0.73140 0.05800
H 	H 	0.45090 0.40930 0.27200 -0.04700
H 	H 	0.40780 0.37990 0.36790 0.02200
H 	H 	0.72560 0.41720 0.44320 0.01500
H 	H 	0.67600 0.44510 0.32830 -0.05900
H 	H 	0.48780 0.39100 0.43280 0.05600
H 	H 	0.63670 0.40530 0.46200 0.05800
H 	H 	0.63730 0.17890 0.22800 -0.04700
H 	H 	0.51200 0.03990 0.13210 0.02200
H 	H 	0.47400 0.28240 0.05680 0.01500
H 	H 	0.61680 0.34770 0.17170 -0.05900
H 	H 	0.45820 0.05500 0.06720 0.05600
H 	H 	0.44330 0.17470 0.03800 0.05800
H 	H 	0.40930 0.77200 0.95090 -0.04700
H 	H 	0.37990 0.86790 0.90780 0.02300
H 	H 	0.41720 0.94320 0.22560 0.01500
H 	H 	0.44510 0.82830 0.17600 -0.05900
H 	H 	0.39100 0.93280 0.98780 0.05800
H 	H 	0.40530 0.96200 0.13670 0.05800
H 	H 	0.17890 0.72800 0.13730 -0.04700
H 	H 	0.03990 0.63210 0.01200 0.02100
H 	H 	0.28240 0.55680 0.97400 0.01600
H 	H 	0.34770 0.67170 0.11680 -0.05900
H 	H 	0.05500 0.56720 0.95820 0.05600
H 	H 	0.17470 0.53800 0.94330 0.05800
H 	H 	0.32110 0.45840 0.54910 -0.04700
H 	H 	0.46010 0.47210 0.59220 0.02200
H 	H 	0.21760 0.19160 0.27440 0.01500
H 	H 	0.15230 0.26910 0.32400 -0.05900
H 	H 	0.44500 0.40320 0.51220 0.05600
H 	H 	0.32530 0.26860 0.36330 0.05800
H 	H 	0.09070 0.04160 0.36270 -0.04700
H 	H 	0.12010 0.02790 0.48800 0.02300
H 	H 	0.08280 0.30840 0.52600 0.01500
H 	H 	0.05490 0.23090 0.38320 -0.05900
H 	H 	0.10900 0.09680 0.54180 0.05700
H 	H 	0.09470 0.23140 0.55670 0.05800
H 	H 	0.04160 0.86270 0.59070 -0.04700
H 	H 	0.02790 0.98800 0.62010 0.02100
H 	H 	0.30840 0.02600 0.58280 0.01600
H 	H 	0.23090 0.88320 0.55490 -0.05900
H 	H 	0.09680 0.04180 0.60900 0.05600
H 	H 	0.23140 0.05670 0.59470 0.05800
H 	H 	0.45840 0.04910 0.82110 -0.04700
H 	H 	0.47210 0.09220 0.96010 0.02200
H 	H 	0.19160 0.77440 0.71760 0.01500
H 	H 	0.26910 0.82400 0.65230 -0.05900
H 	H 	0.40320 0.01220 0.94500 0.05700
H 	H 	0.26860 0.86330 0.82530 0.05800
H 	H 	0.72800 0.63730 0.67890 -0.04700
H 	H 	0.63210 0.51200 0.53990 0.02200
H 	H 	0.55680 0.47400 0.78240 0.01500
H 	H 	0.67170 0.61680 0.84770 -0.06000
H 	H 	0.56720 0.45820 0.55500 0.05600
H 	H 	0.53800 0.44330 0.67470 0.05800
H 	H 	0.77200 0.45090 0.90930 -0.04700
H 	H 	0.86790 0.40780 0.87990 0.02200
H 	H 	0.94320 0.72560 0.91720 0.01500
H 	H 	0.82830 0.67600 0.94510 -0.06000
H 	H 	0.93280 0.48780 0.89100 0.05600
H 	H 	0.96200 0.63670 0.90530 0.05800
H 	H 	0.82110 0.54910 0.45840 -0.04700
H 	H 	0.96010 0.59220 0.47210 0.02200
H 	H 	0.71760 0.27440 0.19160 0.01500
H 	H 	0.65230 0.32400 0.26910 -0.05900
H 	H 	0.94500 0.51220 0.40320 0.05700
H 	H 	0.82530 0.36330 0.26860 0.05800
H 	H 	0.59070 0.36270 0.04160 -0.04700
H 	H 	0.62010 0.48800 0.02790 0.02200
H 	H 	0.58280 0.52600 0.30840 0.01500
H 	H 	0.55490 0.38320 0.23090 -0.05900
H 	H 	0.60900 0.54180 0.09680 0.05600
H 	H 	0.59470 0.55670 0.23140 0.05800
H 	H 	0.90930 0.95090 0.77200 -0.04700
H 	H 	0.87990 0.90780 0.86790 0.02300
H 	H 	0.91720 0.22560 0.94320 0.01400
H 	H 	0.94510 0.17600 0.82830 -0.06000
H 	H 	0.89100 0.98780 0.93280 0.05900
H 	H 	0.90530 0.13670 0.96200 0.05700
H 	H 	0.67890 0.13730 0.72800 -0.04700
H 	H 	0.53990 0.01200 0.63210 0.02200
H 	H 	0.78240 0.97400 0.55680 0.01600
H 	H 	0.84770 0.11680 0.67170 -0.06000
H 	H 	0.55500 0.95820 0.56720 0.05600
H 	H 	0.67470 0.94330 0.53800 0.05800
H 	H 	0.27200 0.90930 0.45090 -0.04700
H 	H 	0.36790 0.87990 0.40780 0.02200
H 	H 	0.44320 0.91720 0.72560 0.01500
H 	H 	0.32830 0.94510 0.67600 -0.06000
H 	H 	0.43280 0.89100 0.48780 0.05600
H 	H 	0.46200 0.90530 0.63670 0.05800
H 	H 	0.22800 0.67890 0.63730 -0.04700
H 	H 	0.13210 0.53990 0.51200 0.02200
H 	H 	0.05680 0.78240 0.47400 0.01500
H 	H 	0.17170 0.84770 0.61680 -0.05900
H 	H 	0.06720 0.55500 0.45820 0.05600
H 	H 	0.03800 0.67470 0.44330 0.05800
H 	H 	0.95840 0.82110 0.04910 -0.04600
H 	H 	0.97210 0.96010 0.09220 0.02300
H 	H 	0.69160 0.71760 0.77440 0.01500
H 	H 	0.76910 0.65230 0.82400 -0.05900
H 	H 	0.90320 0.94500 0.01220 0.06000
H 	H 	0.76860 0.82530 0.86330 0.05800
H 	H 	0.54160 0.59070 0.86270 -0.04700
H 	H 	0.52790 0.62010 0.98800 0.02200
H 	H 	0.80840 0.58280 0.02600 0.01700
H 	H 	0.73090 0.55490 0.88320 -0.05900
H 	H 	0.59680 0.60900 0.04180 0.05600
H 	H 	0.73140 0.59470 0.05670 0.05800
H 	H 	0.36270 0.54160 0.09070 -0.04700
H 	H 	0.48800 0.52790 0.12010 0.02200
H 	H 	0.52600 0.80840 0.08280 0.01500
H 	H 	0.38320 0.73090 0.05490 -0.06000
H 	H 	0.54180 0.59680 0.10900 0.05600
H 	H 	0.55670 0.73140 0.09470 0.05800
H 	H 	0.54910 0.95840 0.32110 -0.04700
H 	H 	0.59220 0.97210 0.46010 0.02200
H 	H 	0.27440 0.69160 0.21760 0.01500
H 	H 	0.32400 0.76910 0.15230 -0.06000
H 	H 	0.51220 0.90320 0.44500 0.05600
H 	H 	0.36330 0.76860 0.32530 0.05800
H 	H 	0.13730 0.22800 0.17890 -0.04700
H 	H 	0.01200 0.13210 0.03990 0.02200
H 	H 	0.97400 0.05680 0.28240 0.01400
H 	H 	0.11680 0.17170 0.34770 -0.05900
H 	H 	0.95820 0.06720 0.05500 0.05600
H 	H 	0.94330 0.03800 0.17470 0.05800
H 	H 	0.95090 0.27200 0.40930 -0.04700
H 	H 	0.90780 0.36790 0.37990 0.02200
H 	H 	0.22560 0.44320 0.41720 0.01500
H 	H 	0.17600 0.32830 0.44510 -0.05900
H 	H 	0.98780 0.43280 0.39100 0.05700
H 	H 	0.13670 0.46200 0.40530 0.05800
H 	H 	0.95090 0.67890 0.04160 -0.04600
H 	H 	0.90780 0.53990 0.02790 0.02300
H 	H 	0.22560 0.78240 0.30840 0.01500
H 	H 	0.17600 0.84770 0.23090 -0.06000
H 	H 	0.98780 0.55500 0.09680 0.06000
H 	H 	0.13670 0.67470 0.23140 0.05800
H 	H 	0.13730 0.90930 0.45840 -0.04700
H 	H 	0.01200 0.87990 0.47210 0.02100
H 	H 	0.97400 0.91720 0.19160 0.01800
H 	H 	0.11680 0.94510 0.26910 -0.06000
H 	H 	0.95820 0.89100 0.40320 0.05600
H 	H 	0.94330 0.90530 0.26860 0.05800
H 	H 	0.54910 0.59070 0.72800 -0.04700
H 	H 	0.59220 0.62010 0.63210 0.02200
H 	H 	0.27440 0.58280 0.55680 0.01500
H 	H 	0.32400 0.55490 0.67170 -0.05900
H 	H 	0.51220 0.60900 0.56720 0.05600
H 	H 	0.36330 0.59470 0.53800 0.05800
H 	H 	0.36270 0.82110 0.77200 -0.04700
H 	H 	0.48800 0.96010 0.86790 0.02200
H 	H 	0.52600 0.71760 0.94320 0.01500
H 	H 	0.38320 0.65230 0.82830 -0.05900
H 	H 	0.54180 0.94500 0.93280 0.05600
H 	H 	0.55670 0.82530 0.96200 0.05800
H 	H 	0.59070 0.22800 0.04910 -0.04700
H 	H 	0.62010 0.13210 0.09220 0.02300
H 	H 	0.58280 0.05680 0.77440 0.01500
H 	H 	0.55490 0.17170 0.82400 -0.05900
H 	H 	0.60900 0.06720 0.01220 0.05800
H 	H 	0.59470 0.03800 0.86330 0.05800
H 	H 	0.82110 0.27200 0.86270 -0.04700
H 	H 	0.96010 0.36790 0.98800 0.02100
H 	H 	0.71760 0.44320 0.02600 0.01600
H 	H 	0.65230 0.32830 0.88320 -0.05900
H 	H 	0.94500 0.43280 0.04180 0.05600
H 	H 	0.82530 0.46200 0.05670 0.05800
H 	H 	0.67890 0.54160 0.45090 -0.04700
H 	H 	0.53990 0.52790 0.40780 0.02200
H 	H 	0.78240 0.80840 0.72560 0.01500
H 	H 	0.84770 0.73090 0.67600 -0.05900
H 	H 	0.55500 0.59680 0.48780 0.05600
H 	H 	0.67470 0.73140 0.63670 0.05800
H 	H 	0.90930 0.95840 0.63730 -0.04700
H 	H 	0.87990 0.97210 0.51200 0.02300
H 	H 	0.91720 0.69160 0.47400 0.01500
H 	H 	0.94510 0.76910 0.61680 -0.05900
H 	H 	0.89100 0.90320 0.45820 0.05700
H 	H 	0.90530 0.76860 0.44330 0.05800
H 	H 	0.95840 0.13730 0.40930 -0.04700
H 	H 	0.97210 0.01200 0.37990 0.02100
H 	H 	0.69160 0.97400 0.41720 0.01600
H 	H 	0.76910 0.11680 0.44510 -0.05900
H 	H 	0.90320 0.95820 0.39100 0.05600
H 	H 	0.76860 0.94330 0.40530 0.05800
H 	H 	0.54160 0.95090 0.17890 -0.04700
H 	H 	0.52790 0.90780 0.03990 0.02200
H 	H 	0.80840 0.22560 0.28240 0.01500
H 	H 	0.73090 0.17600 0.34770 -0.05900
H 	H 	0.59680 0.98780 0.05500 0.05700
H 	H 	0.73140 0.13670 0.17470 0.05800
H 	H 	0.27200 0.36270 0.32110 -0.04700
H 	H 	0.36790 0.48800 0.46010 0.02200
H 	H 	0.44320 0.52600 0.21760 0.01500
H 	H 	0.32830 0.38320 0.15230 -0.06000
H 	H 	0.43280 0.54180 0.44500 0.05600
H 	H 	0.46200 0.55670 0.32530 0.05800
H 	H 	0.22800 0.54910 0.09070 -0.04700
H 	H 	0.13210 0.59220 0.12010 0.02200
H 	H 	0.05680 0.27440 0.08280 0.01500
H 	H 	0.17170 0.32400 0.05490 -0.06000
H 	H 	0.06720 0.51220 0.10900 0.05600
H 	H 	0.03800 0.36330 0.09470 0.05800
C 	C 	0.15199 0.45161 0.54832 0.08400
C 	C 	0.07570 0.42722 0.53980 -0.02200
C 	C 	0.11026 0.47808 0.58270 0.04200
C 	C 	0.24797 0.65978 0.73607 0.03600
C 	C 	0.28736 0.70568 0.78248 -0.03400
C 	C 	0.32253 0.67793 0.74012 0.09700
C 	C 	0.09140 0.50630 0.61130 -0.05900
C 	C 	0.19260 0.62710 0.71470 -0.07400
C 	C 	0.40329 0.60367 0.95168 0.08400
C 	C 	0.38742 0.53590 0.96020 -0.02200
C 	C 	0.39538 0.52756 0.91730 0.04200
C 	C 	0.42371 0.51190 0.76393 0.03600
C 	C 	0.42320 0.50488 0.71752 -0.03400
C 	C 	0.43781 0.58241 0.75988 0.09700
C 	C 	0.39500 0.48010 0.88870 -0.05900
C 	C 	0.41240 0.47790 0.78530 -0.07400
C 	C 	0.09671 0.04839 0.20038 0.08400
C 	C 	0.11258 0.07278 0.14848 -0.02400
C 	C 	0.10462 0.02192 0.13218 0.04500
C 	C 	0.07629 0.84022 0.08819 0.03500
C 	C 	0.07680 0.79432 0.08168 -0.03400
C 	C 	0.06219 0.82207 0.14460 0.09700
C 	C 	0.10500 0.99370 0.08510 -0.06500
C 	C 	0.08760 0.87290 0.06550 -0.07400
C 	C 	0.34801 0.89633 0.29962 0.08400
C 	C 	0.42430 0.96410 0.35152 -0.02200
C 	C 	0.38974 0.97244 0.36782 0.04100
C 	C 	0.25203 0.98810 0.41181 0.03500
C 	C 	0.21264 0.99512 0.41832 -0.03500
C 	C 	0.17747 0.91759 0.35540 0.09700
C 	C 	0.40860 0.01990 0.41490 -0.05800
C 	C 	0.30740 0.02210 0.43450 -0.07300
C 	C 	0.70038 0.09671 0.54839 0.08400
C 	C 	0.64848 0.11258 0.57278 -0.02200
C 	C 	0.63218 0.10462 0.52192 0.04200
C 	C 	0.58819 0.07629 0.34022 0.03600
C 	C 	0.58168 0.07680 0.29432 -0.03400
C 	C 	0.64460 0.06219 0.32207 0.09700
C 	C 	0.58510 0.10500 0.49370 -0.05900
C 	C 	0.56550 0.08760 0.37290 -0.07400
C 	C 	0.79962 0.34801 0.39633 0.08400
C 	C 	0.85152 0.42430 0.46410 -0.02200
C 	C 	0.86782 0.38974 0.47244 0.04200
C 	C 	0.91181 0.25203 0.48810 0.03600
C 	C 	0.91832 0.21264 0.49512 -0.03400
C 	C 	0.85540 0.17747 0.41759 0.09700
C 	C 	0.91490 0.40860 0.51990 -0.05900
C 	C 	0.93450 0.30740 0.52210 -0.07400
C 	C 	0.04832 0.15199 0.95161 0.08400
C 	C 	0.03980 0.07570 0.92722 -0.02300
C 	C 	0.08270 0.11026 0.97808 0.04500
C 	C 	0.23607 0.24797 0.15978 0.03600
C 	C 	0.28248 0.28736 0.20568 -0.03400
C 	C 	0.24012 0.32253 0.17793 0.09700
C 	C 	0.11130 0.09140 0.00630 -0.06500
C 	C 	0.21470 0.19260 0.12710 -0.07400
C 	C 	0.45168 0.40329 0.10367 0.08400
C 	C 	0.46020 0.38742 0.03590 -0.02200
C 	C 	0.41730 0.39538 0.02756 0.04100
C 	C 	0.26393 0.42371 0.01190 0.03500
C 	C 	0.21752 0.42320 0.00488 -0.03600
C 	C 	0.25988 0.43781 0.08241 0.09700
C 	C 	0.38870 0.39500 0.98010 -0.05800
C 	C 	0.28530 0.41240 0.97790 -0.07300
C 	C 	0.60367 0.45168 0.90329 0.08400
C 	C 	0.53590 0.46020 0.88742 -0.02200
C 	C 	0.52756 0.41730 0.89538 0.04200
C 	C 	0.51190 0.26393 0.92371 0.03600
C 	C 	0.50488 0.21752 0.92320 -0.03400
C 	C 	0.58241 0.25988 0.93781 0.09700
C 	C 	0.48010 0.38870 0.89500 -0.05900
C 	C 	0.47790 0.28530 0.91240 -0.07400
C 	C 	0.45161 0.04832 0.65199 0.08400
C 	C 	0.42722 0.03980 0.57570 -0.02200
C 	C 	0.47808 0.08270 0.61026 0.04200
C 	C 	0.65978 0.23607 0.74797 0.03600
C 	C 	0.70568 0.28248 0.78736 -0.03400
C 	C 	0.67793 0.24012 0.82253 0.09700
C 	C 	0.50630 0.11130 0.59140 -0.05900
C 	C 	0.62710 0.21470 0.69260 -0.07400
C 	C 	0.89633 0.79962 0.84801 0.08400
C 	C 	0.96410 0.85152 0.92430 -0.02200
C 	C 	0.97244 0.86782 0.88974 0.04100
C 	C 	0.98810 0.91181 0.75203 0.03500
C 	C 	0.99512 0.91832 0.71264 -0.03300
C 	C 	0.91759 0.85540 0.67747 0.09700
C 	C 	0.01990 0.91490 0.90860 -0.05800
C 	C 	0.02210 0.93450 0.80740 -0.07400
C 	C 	0.04839 0.70038 0.59671 0.08400
C 	C 	0.07278 0.64848 0.61258 -0.02200
C 	C 	0.02192 0.63218 0.60462 0.04200
C 	C 	0.84022 0.58819 0.57629 0.03600
C 	C 	0.79432 0.58168 0.57680 -0.03400
C 	C 	0.82207 0.64460 0.56219 0.09700
C 	C 	0.99370 0.58510 0.60500 -0.06000
C 	C 	0.87290 0.56550 0.58760 -0.07400
C 	C 	0.04839 0.34801 0.95168 0.08400
C 	C 	0.07278 0.42430 0.96020 -0.02400
C 	C 	0.02192 0.38974 0.91730 0.04600
C 	C 	0.84022 0.25203 0.76393 0.03600
C 	C 	0.79432 0.21264 0.71752 -0.03400
C 	C 	0.82207 0.17747 0.75988 0.09700
C 	C 	0.99370 0.40860 0.88870 -0.06700
C 	C 	0.87290 0.30740 0.78530 -0.07400
C 	C 	0.89633 0.09671 0.54832 0.08400
C 	C 	0.96410 0.11258 0.53980 -0.02100
C 	C 	0.97244 0.10462 0.58270 0.03900
C 	C 	0.98810 0.07629 0.73607 0.03400
C 	C 	0.99512 0.07680 0.78248 -0.03800
C 	C 	0.91759 0.06219 0.74012 0.09700
C 	C 	0.01990 0.10500 0.61130 -0.05600
C 	C 	0.02210 0.08760 0.71470 -0.07100
C 	C 	0.45161 0.40329 0.29962 0.08400
C 	C 	0.42722 0.38742 0.35152 -0.02200
C 	C 	0.47808 0.39538 0.36782 0.04200
C 	C 	0.65978 0.42371 0.41181 0.03600
C 	C 	0.70568 0.42320 0.41832 -0.03400
C 	C 	0.67793 0.43781 0.35540 0.09700
C 	C 	0.50630 0.39500 0.41490 -0.05900
C 	C 	0.62710 0.41240 0.43450 -0.07400
C 	C 	0.60367 0.15199 0.20038 0.08400
C 	C 	0.53590 0.07570 0.14848 -0.02200
C 	C 	0.52756 0.11026 0.13218 0.04200
C 	C 	0.51190 0.24797 0.08819 0.03600
C 	C 	0.50488 0.28736 0.08168 -0.03400
C 	C 	0.58241 0.32253 0.14460 0.09700
C 	C 	0.48010 0.09140 0.08510 -0.05900
C 	C 	0.47790 0.19260 0.06550 -0.07400
C 	C 	0.40329 0.79962 0.95161 0.08400
C 	C 	0.38742 0.85152 0.92722 -0.02300
C 	C 	0.39538 0.86782 0.97808 0.04300
C 	C 	0.42371 0.91181 0.15978 0.03600
C 	C 	0.42320 0.91832 0.20568 -0.03400
C 	C 	0.43781 0.85540 0.17793 0.09700
C 	C 	0.39500 0.91490 0.00630 -0.06200
C 	C 	0.41240 0.93450 0.12710 -0.07400
C 	C 	0.15199 0.70038 0.10367 0.08400
C 	C 	0.07570 0.64848 0.03590 -0.02100
C 	C 	0.11026 0.63218 0.02756 0.03900
C 	C 	0.24797 0.58819 0.01190 0.03400
C 	C 	0.28736 0.58168 0.00488 -0.03500
C 	C 	0.32253 0.64460 0.08241 0.09700
C 	C 	0.09140 0.58510 0.98010 -0.05600
C 	C 	0.19260 0.56550 0.97790 -0.07200
C 	C 	0.34801 0.45168 0.54839 0.08400
C 	C 	0.42430 0.46020 0.57278 -0.02200
C 	C 	0.38974 0.41730 0.52192 0.04200
C 	C 	0.25203 0.26393 0.34022 0.03600
C 	C 	0.21264 0.21752 0.29432 -0.03400
C 	C 	0.17747 0.25988 0.32207 0.09700
C 	C 	0.40860 0.38870 0.49370 -0.05900
C 	C 	0.30740 0.28530 0.37290 -0.07400
C 	C 	0.09671 0.04832 0.39633 0.08400
C 	C 	0.11258 0.03980 0.46410 -0.02200
C 	C 	0.10462 0.08270 0.47244 0.04200
C 	C 	0.07629 0.23607 0.48810 0.03600
C 	C 	0.07680 0.28248 0.49512 -0.03400
C 	C 	0.06219 0.24012 0.41759 0.09700
C 	C 	0.10500 0.11130 0.51990 -0.05900
C 	C 	0.08760 0.21470 0.52210 -0.07400
C 	C 	0.04832 0.89633 0.59671 0.08400
C 	C 	0.03980 0.96410 0.61258 -0.02100
C 	C 	0.08270 0.97244 0.60462 0.04000
C 	C 	0.23607 0.98810 0.57629 0.03500
C 	C 	0.28248 0.99512 0.57680 -0.03400
C 	C 	0.24012 0.91759 0.56219 0.09700
C 	C 	0.11130 0.01990 0.60500 -0.05700
C 	C 	0.21470 0.02210 0.58760 -0.07300
C 	C 	0.45168 0.04839 0.84801 0.08400
C 	C 	0.46020 0.07278 0.92430 -0.02200
C 	C 	0.41730 0.02192 0.88974 0.04200
C 	C 	0.26393 0.84022 0.75203 0.03600
C 	C 	0.21752 0.79432 0.71264 -0.03400
C 	C 	0.25988 0.82207 0.67747 0.09700
C 	C 	0.38870 0.99370 0.90860 -0.05900
C 	C 	0.28530 0.87290 0.80740 -0.07400
C 	C 	0.70038 0.60367 0.65199 0.08400
C 	C 	0.64848 0.53590 0.57570 -0.02200
C 	C 	0.63218 0.52756 0.61026 0.04200
C 	C 	0.58819 0.51190 0.74797 0.03600
C 	C 	0.58168 0.50488 0.78736 -0.03400
C 	C 	0.64460 0.58241 0.82253 0.09700
C 	C 	0.58510 0.48010 0.59140 -0.05900
C 	C 	0.56550 0.47790 0.69260 -0.07400
C 	C 	0.79962 0.45161 0.90329 0.08400
C 	C 	0.85152 0.42722 0.88742 -0.02200
C 	C 	0.86782 0.47808 0.89538 0.04100
C 	C 	0.91181 0.65978 0.92371 0.03500
C 	C 	0.91832 0.70568 0.92320 -0.03400
C 	C 	0.85540 0.67793 0.93781 0.09700
C 	C 	0.91490 0.50630 0.89500 -0.05900
C 	C 	0.93450 0.62710 0.91240 -0.07400
C 	C 	0.84801 0.54839 0.45168 0.08400
C 	C 	0.92430 0.57278 0.46020 -0.02200
C 	C 	0.88974 0.52192 0.41730 0.04200
C 	C 	0.75203 0.34022 0.26393 0.03600
C 	C 	0.71264 0.29432 0.21752 -0.03400
C 	C 	0.67747 0.32207 0.25988 0.09700
C 	C 	0.90860 0.49370 0.38870 -0.05900
C 	C 	0.80740 0.37290 0.28530 -0.07400
C 	C 	0.59671 0.39633 0.04832 0.08400
C 	C 	0.61258 0.46410 0.03980 -0.02200
C 	C 	0.60462 0.47244 0.08270 0.04200
C 	C 	0.57629 0.48810 0.23607 0.03600
C 	C 	0.57680 0.49512 0.28248 -0.03400
C 	C 	0.56219 0.41759 0.24012 0.09700
C 	C 	0.60500 0.51990 0.11130 -0.05900
C 	C 	0.58760 0.52210 0.21470 -0.07400
C 	C 	0.90329 0.95161 0.79962 0.08400
C 	C 	0.88742 0.92722 0.85152 -0.02400
C 	C 	0.89538 0.97808 0.86782 0.04500
C 	C 	0.92371 0.15978 0.91181 0.03500
C 	C 	0.92320 0.20568 0.91832 -0.03400
C 	C 	0.93781 0.17793 0.85540 0.09700
C 	C 	0.89500 0.00630 0.91490 -0.06500
C 	C 	0.91240 0.12710 0.93450 -0.07400
C 	C 	0.65199 0.10367 0.70038 0.08400
C 	C 	0.57570 0.03590 0.64848 -0.02200
C 	C 	0.61026 0.02756 0.63218 0.04100
C 	C 	0.74797 0.01190 0.58819 0.03500
C 	C 	0.78736 0.00488 0.58168 -0.03500
C 	C 	0.82253 0.08241 0.64460 0.09700
C 	C 	0.59140 0.98010 0.58510 -0.05800
C 	C 	0.69260 0.97790 0.56550 -0.07300
C 	C 	0.29962 0.90329 0.45161 0.08400
C 	C 	0.35152 0.88742 0.42722 -0.02200
C 	C 	0.36782 0.89538 0.47808 0.04200
C 	C 	0.41181 0.92371 0.65978 0.03600
C 	C 	0.41832 0.92320 0.70568 -0.03400
C 	C 	0.35540 0.93781 0.67793 0.09700
C 	C 	0.41490 0.89500 0.50630 -0.05900
C 	C 	0.43450 0.91240 0.62710 -0.07400
C 	C 	0.20038 0.65199 0.60367 0.08400
C 	C 	0.14848 0.57570 0.53590 -0.02200
C 	C 	0.13218 0.61026 0.52756 0.04200
C 	C 	0.08819 0.74797 0.51190 0.03600
C 	C 	0.08168 0.78736 0.50488 -0.03400
C 	C 	0.14460 0.82253 0.58241 0.09700
C 	C 	0.08510 0.59140 0.48010 -0.05900
C 	C 	0.06550 0.69260 0.47790 -0.07400
C 	C 	0.95168 0.84801 0.04839 0.08400
C 	C 	0.96020 0.92430 0.07278 -0.02300
C 	C 	0.91730 0.88974 0.02192 0.04500
C 	C 	0.76393 0.75203 0.84022 0.03600
C 	C 	0.71752 0.71264 0.79432 -0.03400
C 	C 	0.75988 0.67747 0.82207 0.09700
C 	C 	0.88870 0.90860 0.99370 -0.06500
C 	C 	0.78530 0.80740 0.87290 -0.07400
C 	C 	0.54832 0.59671 0.89633 0.08400
C 	C 	0.53980 0.61258 0.96410 -0.02200
C 	C 	0.58270 0.60462 0.97244 0.04100
C 	C 	0.73607 0.57629 0.98810 0.03500
C 	C 	0.78248 0.57680 0.99512 -0.03600
C 	C 	0.74012 0.56219 0.91759 0.09700
C 	C 	0.61130 0.60500 0.01990 -0.05800
C 	C 	0.71470 0.58760 0.02210 -0.07300
C 	C 	0.39633 0.54832 0.09671 0.08400
C 	C 	0.46410 0.53980 0.11258 -0.02200
C 	C 	0.47244 0.58270 0.10462 0.04200
C 	C 	0.48810 0.73607 0.07629 0.03600
C 	C 	0.49512 0.78248 0.07680 -0.03400
C 	C 	0.41759 0.74012 0.06219 0.09700
C 	C 	0.51990 0.61130 0.10500 -0.05900
C 	C 	0.52210 0.71470 0.08760 -0.07400
C 	C 	0.54839 0.95168 0.34801 0.08400
C 	C 	0.57278 0.96020 0.42430 -0.02200
C 	C 	0.52192 0.91730 0.38974 0.04200
C 	C 	0.34022 0.76393 0.25203 0.03600
C 	C 	0.29432 0.71752 0.21264 -0.03400
C 	C 	0.32207 0.75988 0.17747 0.09700
C 	C 	0.49370 0.88870 0.40860 -0.05900
C 	C 	0.37290 0.78530 0.30740 -0.07400
C 	C 	0.10367 0.20038 0.15199 0.08400
C 	C 	0.03590 0.14848 0.07570 -0.02200
C 	C 	0.02756 0.13218 0.11026 0.04100
C 	C 	0.01190 0.08819 0.24797 0.03500
C 	C 	0.00488 0.08168 0.28736 -0.03300
C 	C 	0.08241 0.14460 0.32253 0.09700
C 	C 	0.98010 0.08510 0.09140 -0.05800
C 	C 	0.97790 0.06550 0.19260 -0.07400
C 	C 	0.95161 0.29962 0.40329 0.08400
C 	C 	0.92722 0.35152 0.38742 -0.02200
C 	C 	0.97808 0.36782 0.39538 0.04200
C 	C 	0.15978 0.41181 0.42371 0.03600
C 	C 	0.20568 0.41832 0.42320 -0.03400
C 	C 	0.17793 0.35540 0.43781 0.09700
C 	C 	0.00630 0.41490 0.39500 -0.06000
C 	C 	0.12710 0.43450 0.41240 -0.07400
C 	C 	0.95161 0.65199 0.04832 0.08400
C 	C 	0.92722 0.57570 0.03980 -0.02400
C 	C 	0.97808 0.61026 0.08270 0.04600
C 	C 	0.15978 0.74797 0.23607 0.03600
C 	C 	0.20568 0.78736 0.28248 -0.03400
C 	C 	0.17793 0.82253 0.24012 0.09700
C 	C 	0.00630 0.59140 0.11130 -0.06700
C 	C 	0.12710 0.69260 0.21470 -0.07400
C 	C 	0.10367 0.90329 0.45168 0.08400
C 	C 	0.03590 0.88742 0.46020 -0.02100
C 	C 	0.02756 0.89538 0.41730 0.03900
C 	C 	0.01190 0.92371 0.26393 0.03400
C 	C 	0.00488 0.92320 0.21752 -0.03800
C 	C 	0.08241 0.93781 0.25988 0.09700
C 	C 	0.98010 0.89500 0.38870 -0.05600
C 	C 	0.97790 0.91240 0.28530 -0.07100
C 	C 	0.54839 0.59671 0.70038 0.08400
C 	C 	0.57278 0.61258 0.64848 -0.02200
C 	C 	0.52192 0.60462 0.63218 0.04200
C 	C 	0.34022 0.57629 0.58819 0.03600
C 	C 	0.29432 0.57680 0.58168 -0.03400
C 	C 	0.32207 0.56219 0.64460 0.09700
C 	C 	0.49370 0.60500 0.58510 -0.05900
C 	C 	0.37290 0.58760 0.56550 -0.07400
C 	C 	0.39633 0.84801 0.79962 0.08400
C 	C 	0.46410 0.92430 0.85152 -0.02200
C 	C 	0.47244 0.88974 0.86782 0.04200
C 	C 	0.48810 0.75203 0.91181 0.03600
C 	C 	0.49512 0.71264 0.91832 -0.03400
C 	C 	0.41759 0.67747 0.85540 0.09700
C 	C 	0.51990 0.90860 0.91490 -0.05900
C 	C 	0.52210 0.80740 0.93450 -0.07400
C 	C 	0.59671 0.20038 0.04839 0.08400
C 	C 	0.61258 0.14848 0.07278 -0.02300
C 	C 	0.60462 0.13218 0.02192 0.04300
C 	C 	0.57629 0.08819 0.84022 0.03600
C 	C 	0.57680 0.08168 0.79432 -0.03400
C 	C 	0.56219 0.14460 0.82207 0.09700
C 	C 	0.60500 0.08510 0.99370 -0.06200
C 	C 	0.58760 0.06550 0.87290 -0.07400
C 	C 	0.84801 0.29962 0.89633 0.08400
C 	C 	0.92430 0.35152 0.96410 -0.02100
C 	C 	0.88974 0.36782 0.97244 0.03900
C 	C 	0.75203 0.41181 0.98810 0.03400
C 	C 	0.71264 0.41832 0.99512 -0.03500
C 	C 	0.67747 0.35540 0.91759 0.09700
C 	C 	0.90860 0.41490 0.01990 -0.05600
C 	C 	0.80740 0.43450 0.02210 -0.07200
C 	C 	0.65199 0.54832 0.45161 0.08400
C 	C 	0.57570 0.53980 0.42722 -0.02200
C 	C 	0.61026 0.58270 0.47808 0.04200
C 	C 	0.74797 0.73607 0.65978 0.03600
C 	C 	0.78736 0.78248 0.70568 -0.03400
C 	C 	0.82253 0.74012 0.67793 0.09700
C 	C 	0.59140 0.61130 0.50630 -0.05900
C 	C 	0.69260 0.71470 0.62710 -0.07400
C 	C 	0.90329 0.95168 0.60367 0.08400
C 	C 	0.88742 0.96020 0.53590 -0.02200
C 	C 	0.89538 0.91730 0.52756 0.04200
C 	C 	0.92371 0.76393 0.51190 0.03600
C 	C 	0.92320 0.71752 0.50488 -0.03400
C 	C 	0.93781 0.75988 0.58241 0.09700
C 	C 	0.89500 0.88870 0.48010 -0.05900
C 	C 	0.91240 0.78530 0.47790 -0.07400
C 	C 	0.95168 0.10367 0.40329 0.08400
C 	C 	0.96020 0.03590 0.38742 -0.02100
C 	C 	0.91730 0.02756 0.39538 0.04000
C 	C 	0.76393 0.01190 0.42371 0.03500
C 	C 	0.71752 0.00488 0.42320 -0.03400
C 	C 	0.75988 0.08241 0.43781 0.09700
C 	C 	0.88870 0.98010 0.39500 -0.05700
C 	C 	0.78530 0.97790 0.41240 -0.07300
C 	C 	0.54832 0.95161 0.15199 0.08400
C 	C 	0.53980 0.92722 0.07570 -0.02200
C 	C 	0.58270 0.97808 0.11026 0.04200
C 	C 	0.73607 0.15978 0.24797 0.03600
C 	C 	0.78248 0.20568 0.28736 -0.03400
C 	C 	0.74012 0.17793 0.32253 0.09700
C 	C 	0.61130 0.00630 0.09140 -0.05900
C 	C 	0.71470 0.12710 0.19260 -0.07400
C 	C 	0.29962 0.39633 0.34801 0.08400
C 	C 	0.35152 0.46410 0.42430 -0.02200
C 	C 	0.36782 0.47244 0.38974 0.04200
C 	C 	0.41181 0.48810 0.25203 0.03600
C 	C 	0.41832 0.49512 0.21264 -0.03400
C 	C 	0.35540 0.41759 0.17747 0.09700
C 	C 	0.41490 0.51990 0.40860 -0.05900
C 	C 	0.43450 0.52210 0.30740 -0.07400
C 	C 	0.20038 0.54839 0.09671 0.08400
C 	C 	0.14848 0.57278 0.11258 -0.02200
C 	C 	0.13218 0.52192 0.10462 0.04100
C 	C 	0.08819 0.34022 0.07629 0.03500
C 	C 	0.08168 0.29432 0.07680 -0.03400
C 	C 	0.14460 0.32207 0.06219 0.09700
C 	C 	0.08510 0.49370 0.10500 -0.05900
C 	C 	0.06550 0.37290 0.08760 -0.07400
N 	N 	0.16000 0.49309 0.58805 -0.28000
N 	N 	0.10208 0.41055 0.51833 -0.25900
N 	N 	0.11390 0.55180 0.65270 -0.07900
N 	N 	0.16700 0.58040 0.66780 -0.17900
N 	N 	0.27154 0.64113 0.70957 -0.27700
N 	N 	0.33484 0.71754 0.78462 -0.27200
N 	N 	0.40504 0.57195 0.91195 -0.28000
N 	N 	0.39222 0.58375 0.98167 -0.25900
N 	N 	0.39910 0.46120 0.84730 -0.07900
N 	N 	0.41260 0.49920 0.83220 -0.17900
N 	N 	0.43156 0.56197 0.79043 -0.27700
N 	N 	0.43292 0.55022 0.71538 -0.27200
N 	N 	0.09496 0.00691 0.16691 -0.28000
N 	N 	0.10778 0.08945 0.19153 -0.25900
N 	N 	0.10090 0.94820 0.06210 -0.07900
N 	N 	0.08740 0.91960 0.08660 -0.18000
N 	N 	0.06844 0.85887 0.13041 -0.27800
N 	N 	0.06708 0.78246 0.11730 -0.27300
N 	N 	0.34000 0.92805 0.33309 -0.28000
N 	N 	0.39792 0.91625 0.30847 -0.25900
N 	N 	0.38610 0.03880 0.43790 -0.08000
N 	N 	0.33300 0.00080 0.41340 -0.17900
N 	N 	0.22846 0.93803 0.36959 -0.27800
N 	N 	0.16516 0.94978 0.38270 -0.27200
N 	N 	0.66691 0.09496 0.50691 -0.28000
N 	N 	0.69153 0.10778 0.58945 -0.25900
N 	N 	0.56210 0.10090 0.44820 -0.07900
N 	N 	0.58660 0.08740 0.41960 -0.17900
N 	N 	0.63041 0.06844 0.35887 -0.27700
N 	N 	0.61730 0.06708 0.28246 -0.27200
N 	N 	0.83309 0.34000 0.42805 -0.28000
N 	N 	0.80847 0.39792 0.41625 -0.25900
N 	N 	0.93790 0.38610 0.53880 -0.08000
N 	N 	0.91340 0.33300 0.50080 -0.17900
N 	N 	0.86959 0.22846 0.43803 -0.27700
N 	N 	0.88270 0.16516 0.44978 -0.27200
N 	N 	0.08805 0.16000 0.99309 -0.28000
N 	N 	0.01833 0.10208 0.91055 -0.25800
N 	N 	0.15270 0.11390 0.05180 -0.07900
N 	N 	0.16780 0.16700 0.08040 -0.17900
N 	N 	0.20957 0.27154 0.14113 -0.27800
N 	N 	0.28462 0.33484 0.21754 -0.27200
N 	N 	0.41195 0.40504 0.07195 -0.28000
N 	N 	0.48167 0.39222 0.08375 -0.25900
N 	N 	0.34730 0.39910 0.96120 -0.08000
N 	N 	0.33220 0.41260 0.99920 -0.17900
N 	N 	0.29043 0.43156 0.06197 -0.27800
N 	N 	0.21538 0.43292 0.05022 -0.27200
N 	N 	0.57195 0.41195 0.90504 -0.28000
N 	N 	0.58375 0.48167 0.89222 -0.25900
N 	N 	0.46120 0.34730 0.89910 -0.08000
N 	N 	0.49920 0.33220 0.91260 -0.17900
N 	N 	0.56197 0.29043 0.93156 -0.27700
N 	N 	0.55022 0.21538 0.93292 -0.27200
N 	N 	0.49309 0.08805 0.66000 -0.28000
N 	N 	0.41055 0.01833 0.60208 -0.25900
N 	N 	0.55180 0.15270 0.61390 -0.08000
N 	N 	0.58040 0.16780 0.66700 -0.17900
N 	N 	0.64113 0.20957 0.77154 -0.27700
N 	N 	0.71754 0.28462 0.83484 -0.27200
N 	N 	0.92805 0.83309 0.84000 -0.28000
N 	N 	0.91625 0.80847 0.89792 -0.25900
N 	N 	0.03880 0.93790 0.88610 -0.08000
N 	N 	0.00080 0.91340 0.83300 -0.17900
N 	N 	0.93803 0.86959 0.72846 -0.27700
N 	N 	0.94978 0.88270 0.66516 -0.27200
N 	N 	0.00691 0.66691 0.59496 -0.28000
N 	N 	0.08945 0.69153 0.60778 -0.25900
N 	N 	0.94820 0.56210 0.60090 -0.07900
N 	N 	0.91960 0.58660 0.58740 -0.17900
N 	N 	0.85887 0.63041 0.56844 -0.27700
N 	N 	0.78246 0.61730 0.56708 -0.27200
N 	N 	0.00691 0.34000 0.91195 -0.28000
N 	N 	0.08945 0.39792 0.98167 -0.25800
N 	N 	0.94820 0.38610 0.84730 -0.07800
N 	N 	0.91960 0.33300 0.83220 -0.17900
N 	N 	0.85887 0.22846 0.79043 -0.27700
N 	N 	0.78246 0.16516 0.71538 -0.27200
N 	N 	0.92805 0.09496 0.58805 -0.28000
N 	N 	0.91625 0.10778 0.51833 -0.25900
N 	N 	0.03880 0.10090 0.65270 -0.08000
N 	N 	0.00080 0.08740 0.66780 -0.17900
N 	N 	0.93803 0.06844 0.70957 -0.27800
N 	N 	0.94978 0.06708 0.78462 -0.27200
N 	N 	0.49309 0.40504 0.33309 -0.28000
N 	N 	0.41055 0.39222 0.30847 -0.25900
N 	N 	0.55180 0.39910 0.43790 -0.08000
N 	N 	0.58040 0.41260 0.41340 -0.17900
N 	N 	0.64113 0.43156 0.36959 -0.27700
N 	N 	0.71754 0.43292 0.38270 -0.27200
N 	N 	0.57195 0.16000 0.16691 -0.28000
N 	N 	0.58375 0.10208 0.19153 -0.25900
N 	N 	0.46120 0.11390 0.06210 -0.08000
N 	N 	0.49920 0.16700 0.08660 -0.17900
N 	N 	0.56197 0.27154 0.13041 -0.27700
N 	N 	0.55022 0.33484 0.11730 -0.27200
N 	N 	0.40504 0.83309 0.99309 -0.28000
N 	N 	0.39222 0.80847 0.91055 -0.25900
N 	N 	0.39910 0.93790 0.05180 -0.07900
N 	N 	0.41260 0.91340 0.08040 -0.17900
N 	N 	0.43156 0.86959 0.14113 -0.27800
N 	N 	0.43292 0.88270 0.21754 -0.27200
N 	N 	0.16000 0.66691 0.07195 -0.28000
N 	N 	0.10208 0.69153 0.08375 -0.26000
N 	N 	0.11390 0.56210 0.96120 -0.08000
N 	N 	0.16700 0.58660 0.99920 -0.17900
N 	N 	0.27154 0.63041 0.06197 -0.27700
N 	N 	0.33484 0.61730 0.05022 -0.27200
N 	N 	0.34000 0.41195 0.50691 -0.28000
N 	N 	0.39792 0.48167 0.58945 -0.25900
N 	N 	0.38610 0.34730 0.44820 -0.08000
N 	N 	0.33300 0.33220 0.41960 -0.17900
N 	N 	0.22846 0.29043 0.35887 -0.27700
N 	N 	0.16516 0.21538 0.28246 -0.27200
N 	N 	0.09496 0.08805 0.42805 -0.28000
N 	N 	0.10778 0.01833 0.41625 -0.25900
N 	N 	0.10090 0.15270 0.53880 -0.07900
N 	N 	0.08740 0.16780 0.50080 -0.17900
N 	N 	0.06844 0.20957 0.43803 -0.27700
N 	N 	0.06708 0.28462 0.44978 -0.27200
N 	N 	0.08805 0.92805 0.59496 -0.28000
N 	N 	0.01833 0.91625 0.60778 -0.26000
N 	N 	0.15270 0.03880 0.60090 -0.08000
N 	N 	0.16780 0.00080 0.58740 -0.17900
N 	N 	0.20957 0.93803 0.56844 -0.27700
N 	N 	0.28462 0.94978 0.56708 -0.27200
N 	N 	0.41195 0.00691 0.84000 -0.28000
N 	N 	0.48167 0.08945 0.89792 -0.25900
N 	N 	0.34730 0.94820 0.88610 -0.08000
N 	N 	0.33220 0.91960 0.83300 -0.17900
N 	N 	0.29043 0.85887 0.72846 -0.27700
N 	N 	0.21538 0.78246 0.66516 -0.27200
N 	N 	0.66691 0.57195 0.66000 -0.28000
N 	N 	0.69153 0.58375 0.60208 -0.25900
N 	N 	0.56210 0.46120 0.61390 -0.08000
N 	N 	0.58660 0.49920 0.66700 -0.17900
N 	N 	0.63041 0.56197 0.77154 -0.27700
N 	N 	0.61730 0.55022 0.83484 -0.27200
N 	N 	0.83309 0.49309 0.90504 -0.28000
N 	N 	0.80847 0.41055 0.89222 -0.25900
N 	N 	0.93790 0.55180 0.89910 -0.08000
N 	N 	0.91340 0.58040 0.91260 -0.17900
N 	N 	0.86959 0.64113 0.93156 -0.27800
N 	N 	0.88270 0.71754 0.93292 -0.27200
N 	N 	0.84000 0.50691 0.41195 -0.28000
N 	N 	0.89792 0.58945 0.48167 -0.25900
N 	N 	0.88610 0.44820 0.34730 -0.07900
N 	N 	0.83300 0.41960 0.33220 -0.17900
N 	N 	0.72846 0.35887 0.29043 -0.27700
N 	N 	0.66516 0.28246 0.21538 -0.27200
N 	N 	0.59496 0.42805 0.08805 -0.28000
N 	N 	0.60778 0.41625 0.01833 -0.25900
N 	N 	0.60090 0.53880 0.15270 -0.07900
N 	N 	0.58740 0.50080 0.16780 -0.17900
N 	N 	0.56844 0.43803 0.20957 -0.27700
N 	N 	0.56708 0.44978 0.28462 -0.27200
N 	N 	0.90504 0.99309 0.83309 -0.28000
N 	N 	0.89222 0.91055 0.80847 -0.25900
N 	N 	0.89910 0.05180 0.93790 -0.07900
N 	N 	0.91260 0.08040 0.91340 -0.18000
N 	N 	0.93156 0.14113 0.86959 -0.27800
N 	N 	0.93292 0.21754 0.88270 -0.27300
N 	N 	0.66000 0.07195 0.66691 -0.28000
N 	N 	0.60208 0.08375 0.69153 -0.25900
N 	N 	0.61390 0.96120 0.56210 -0.08000
N 	N 	0.66700 0.99920 0.58660 -0.17900
N 	N 	0.77154 0.06197 0.63041 -0.27800
N 	N 	0.83484 0.05022 0.61730 -0.27200
N 	N 	0.33309 0.90504 0.49309 -0.28000
N 	N 	0.30847 0.89222 0.41055 -0.25900
N 	N 	0.43790 0.89910 0.55180 -0.07900
N 	N 	0.41340 0.91260 0.58040 -0.17900
N 	N 	0.36959 0.93156 0.64113 -0.27700
N 	N 	0.38270 0.93292 0.71754 -0.27200
N 	N 	0.16691 0.66000 0.57195 -0.28000
N 	N 	0.19153 0.60208 0.58375 -0.25900
N 	N 	0.06210 0.61390 0.46120 -0.08000
N 	N 	0.08660 0.66700 0.49920 -0.17900
N 	N 	0.13041 0.77154 0.56197 -0.27700
N 	N 	0.11730 0.83484 0.55022 -0.27200
N 	N 	0.91195 0.84000 0.00691 -0.28000
N 	N 	0.98167 0.89792 0.08945 -0.25800
N 	N 	0.84730 0.88610 0.94820 -0.07900
N 	N 	0.83220 0.83300 0.91960 -0.17900
N 	N 	0.79043 0.72846 0.85887 -0.27800
N 	N 	0.71538 0.66516 0.78246 -0.27200
N 	N 	0.58805 0.59496 0.92805 -0.28000
N 	N 	0.51833 0.60778 0.91625 -0.25900
N 	N 	0.65270 0.60090 0.03880 -0.08000
N 	N 	0.66780 0.58740 0.00080 -0.17900
N 	N 	0.70957 0.56844 0.93803 -0.27800
N 	N 	0.78462 0.56708 0.94978 -0.27200
N 	N 	0.42805 0.58805 0.09496 -0.28000
N 	N 	0.41625 0.51833 0.10778 -0.25900
N 	N 	0.53880 0.65270 0.10090 -0.08000
N 	N 	0.50080 0.66780 0.08740 -0.17900
N 	N 	0.43803 0.70957 0.06844 -0.27700
N 	N 	0.44978 0.78462 0.06708 -0.27200
N 	N 	0.50691 0.91195 0.34000 -0.28000
N 	N 	0.58945 0.98167 0.39792 -0.25900
N 	N 	0.44820 0.84730 0.38610 -0.08000
N 	N 	0.41960 0.83220 0.33300 -0.17900
N 	N 	0.35887 0.79043 0.22846 -0.27700
N 	N 	0.28246 0.71538 0.16516 -0.27200
N 	N 	0.07195 0.16691 0.16000 -0.28000
N 	N 	0.08375 0.19153 0.10208 -0.25900
N 	N 	0.96120 0.06210 0.11390 -0.08000
N 	N 	0.99920 0.08660 0.16700 -0.17900
N 	N 	0.06197 0.13041 0.27154 -0.27700
N 	N 	0.05022 0.11730 0.33484 -0.27200
N 	N 	0.99309 0.33309 0.40504 -0.28000
N 	N 	0.91055 0.30847 0.39222 -0.25900
N 	N 	0.05180 0.43790 0.39910 -0.07900
N 	N 	0.08040 0.41340 0.41260 -0.17900
N 	N 	0.14113 0.36959 0.43156 -0.27700
N 	N 	0.21754 0.38270 0.43292 -0.27200
N 	N 	0.99309 0.66000 0.08805 -0.28000
N 	N 	0.91055 0.60208 0.01833 -0.25800
N 	N 	0.05180 0.61390 0.15270 -0.07800
N 	N 	0.08040 0.66700 0.16780 -0.17900
N 	N 	0.14113 0.77154 0.20957 -0.27700
N 	N 	0.21754 0.83484 0.28462 -0.27200
N 	N 	0.07195 0.90504 0.41195 -0.28000
N 	N 	0.08375 0.89222 0.48167 -0.25900
N 	N 	0.96120 0.89910 0.34730 -0.08000
N 	N 	0.99920 0.91260 0.33220 -0.17900
N 	N 	0.06197 0.93156 0.29043 -0.27800
N 	N 	0.05022 0.93292 0.21538 -0.27200
N 	N 	0.50691 0.59496 0.66691 -0.28000
N 	N 	0.58945 0.60778 0.69153 -0.25900
N 	N 	0.44820 0.60090 0.56210 -0.08000
N 	N 	0.41960 0.58740 0.58660 -0.17900
N 	N 	0.35887 0.56844 0.63041 -0.27700
N 	N 	0.28246 0.56708 0.61730 -0.27200
N 	N 	0.42805 0.84000 0.83309 -0.28000
N 	N 	0.41625 0.89792 0.80847 -0.25900
N 	N 	0.53880 0.88610 0.93790 -0.08000
N 	N 	0.50080 0.83300 0.91340 -0.17900
N 	N 	0.43803 0.72846 0.86959 -0.27700
N 	N 	0.44978 0.66516 0.88270 -0.27200
N 	N 	0.59496 0.16691 0.00691 -0.28000
N 	N 	0.60778 0.19153 0.08945 -0.25900
N 	N 	0.60090 0.06210 0.94820 -0.07900
N 	N 	0.58740 0.08660 0.91960 -0.17900
N 	N 	0.56844 0.13041 0.85887 -0.27800
N 	N 	0.56708 0.11730 0.78246 -0.27200
N 	N 	0.84000 0.33309 0.92805 -0.28000
N 	N 	0.89792 0.30847 0.91625 -0.26000
N 	N 	0.88610 0.43790 0.03880 -0.08000
N 	N 	0.83300 0.41340 0.00080 -0.17900
N 	N 	0.72846 0.36959 0.93803 -0.27700
N 	N 	0.66516 0.38270 0.94978 -0.27200
N 	N 	0.66000 0.58805 0.49309 -0.28000
N 	N 	0.60208 0.51833 0.41055 -0.25900
N 	N 	0.61390 0.65270 0.55180 -0.08000
N 	N 	0.66700 0.66780 0.58040 -0.17900
N 	N 	0.77154 0.70957 0.64113 -0.27700
N 	N 	0.83484 0.78462 0.71754 -0.27200
N 	N 	0.90504 0.91195 0.57195 -0.28000
N 	N 	0.89222 0.98167 0.58375 -0.25900
N 	N 	0.89910 0.84730 0.46120 -0.07900
N 	N 	0.91260 0.83220 0.49920 -0.17900
N 	N 	0.93156 0.79043 0.56197 -0.27700
N 	N 	0.93292 0.71538 0.55022 -0.27200
N 	N 	0.91195 0.07195 0.40504 -0.28000
N 	N 	0.98167 0.08375 0.39222 -0.26000
N 	N 	0.84730 0.96120 0.39910 -0.08000
N 	N 	0.83220 0.99920 0.41260 -0.17900
N 	N 	0.79043 0.06197 0.43156 -0.27700
N 	N 	0.71538 0.05022 0.43292 -0.27200
N 	N 	0.58805 0.99309 0.16000 -0.28000
N 	N 	0.51833 0.91055 0.10208 -0.25900
N 	N 	0.65270 0.05180 0.11390 -0.08000
N 	N 	0.66780 0.08040 0.16700 -0.17900
N 	N 	0.70957 0.14113 0.27154 -0.27700
N 	N 	0.78462 0.21754 0.33484 -0.27200
N 	N 	0.33309 0.42805 0.34000 -0.28000
N 	N 	0.30847 0.41625 0.39792 -0.25900
N 	N 	0.43790 0.53880 0.38610 -0.08000
N 	N 	0.41340 0.50080 0.33300 -0.17900
N 	N 	0.36959 0.43803 0.22846 -0.27700
N 	N 	0.38270 0.44978 0.16516 -0.27200
N 	N 	0.16691 0.50691 0.09496 -0.28000
N 	N 	0.19153 0.58945 0.10778 -0.25900
N 	N 	0.06210 0.44820 0.10090 -0.08000
N 	N 	0.08660 0.41960 0.08740 -0.17900
N 	N 	0.13041 0.35887 0.06844 -0.27800
N 	N 	0.11730 0.28246 0.06708 -0.27200
