data_crystal

_cell_length_a 30.00530
_cell_length_b 30.00530
_cell_length_c 30.00530
_cell_angle_alpha 109.47100
_cell_angle_beta  109.47100
_cell_angle_gamma 109.47100

_symmetry_space_group_name_	'P 1'
_symmetry_space_group_name_H-M	'P 1'

loop_
_symmetry_equiv_pos_as_xyz
  x,y,z

loop_
_atom_site_label
_atom_site_type_symbol
_atom_site_fract_x
_atom_site_fract_y
_atom_site_fract_z
_atom_site_charge
Zn	Zn	0.91607 0.05626 0.63803 1.17600
Zn	Zn	0.91823 0.27804 0.86197 1.17600
Zn	Zn	0.58177 0.44374 0.35981 1.17600
Zn	Zn	0.58393 0.22196 0.14019 1.17600
Zn	Zn	0.85981 0.58177 0.94374 1.17600
Zn	Zn	0.64019 0.58393 0.72196 1.17600
Zn	Zn	0.13803 0.91607 0.55626 1.17700
Zn	Zn	0.36197 0.91823 0.77804 1.17700
Zn	Zn	0.27804 0.36197 0.41823 1.17700
Zn	Zn	0.05626 0.13803 0.41607 1.17700
Zn	Zn	0.22196 0.64019 0.08393 1.17700
Zn	Zn	0.44374 0.85981 0.08177 1.17700
Zn	Zn	0.44374 0.58393 0.86197 1.17700
Zn	Zn	0.22196 0.58177 0.63803 1.17700
Zn	Zn	0.05626 0.91823 0.14019 1.17700
Zn	Zn	0.27804 0.91607 0.35981 1.17700
Zn	Zn	0.91823 0.64019 0.55626 1.17700
Zn	Zn	0.91607 0.85981 0.77804 1.17700
Zn	Zn	0.58393 0.36197 0.94374 1.17700
Zn	Zn	0.58177 0.13803 0.72196 1.17700
Zn	Zn	0.13803 0.22196 0.08177 1.17700
Zn	Zn	0.36197 0.44374 0.08393 1.17700
Zn	Zn	0.85981 0.27804 0.41607 1.17700
Zn	Zn	0.64019 0.05626 0.41823 1.17700
Zn	Zn	0.08393 0.94374 0.36197 1.17700
Zn	Zn	0.08177 0.72196 0.13803 1.17700
Zn	Zn	0.41823 0.55626 0.64019 1.17700
Zn	Zn	0.41607 0.77804 0.85981 1.17700
Zn	Zn	0.14019 0.41823 0.05626 1.17700
Zn	Zn	0.35981 0.41607 0.27804 1.17700
Zn	Zn	0.86197 0.08393 0.44374 1.17700
Zn	Zn	0.63803 0.08177 0.22196 1.17700
Zn	Zn	0.72196 0.63803 0.58177 1.17700
Zn	Zn	0.94374 0.86197 0.58393 1.17700
Zn	Zn	0.77804 0.35981 0.91607 1.17700
Zn	Zn	0.55626 0.14019 0.91823 1.17700
Zn	Zn	0.55626 0.41607 0.13803 1.17700
Zn	Zn	0.77804 0.41823 0.36197 1.17700
Zn	Zn	0.94374 0.08177 0.85981 1.17700
Zn	Zn	0.72196 0.08393 0.64019 1.17700
Zn	Zn	0.08177 0.35981 0.44374 1.17700
Zn	Zn	0.08393 0.14019 0.22196 1.17700
Zn	Zn	0.41607 0.63803 0.05626 1.17700
Zn	Zn	0.41823 0.86197 0.27804 1.17700
Zn	Zn	0.86197 0.77804 0.91823 1.17700
Zn	Zn	0.63803 0.55626 0.91607 1.17700
Zn	Zn	0.14019 0.72196 0.58393 1.17700
Zn	Zn	0.35981 0.94374 0.58177 1.17700
H 	H 	0.85640 0.07990 0.54550 -0.04600
H 	H 	0.98510 0.12130 0.53000 0.02200
H 	H 	0.88740 0.05910 0.73490 -0.05400
H 	H 	0.03580 0.09750 0.82450 0.01300
H 	H 	0.05050 0.12320 0.60430 0.05900
H 	H 	0.06990 0.12300 0.74610 0.05300
H 	H 	0.03440 0.31090 0.95450 -0.04600
H 	H 	0.09130 0.45510 0.97000 0.02400
H 	H 	0.82420 0.15250 0.76510 -0.05400
H 	H 	0.77300 0.21130 0.67550 0.01500
H 	H 	0.01890 0.44620 0.89570 0.06200
H 	H 	0.87690 0.32380 0.75390 0.05400
H 	H 	0.46560 0.42010 0.27650 -0.04600
H 	H 	0.40870 0.37870 0.36380 0.02300
H 	H 	0.67580 0.44090 0.32830 -0.05400
H 	H 	0.72700 0.40250 0.43830 0.01500
H 	H 	0.48110 0.37680 0.42730 0.05900
H 	H 	0.62310 0.37700 0.44690 0.05400
H 	H 	0.64360 0.18910 0.22350 -0.04600
H 	H 	0.51490 0.04490 0.13620 0.02300
H 	H 	0.61260 0.34750 0.17170 -0.05400
H 	H 	0.46420 0.28870 0.06170 0.01500
H 	H 	0.44950 0.05380 0.07270 0.05900
H 	H 	0.43010 0.17620 0.05310 0.05400
H 	H 	0.77650 0.46560 0.92010 -0.04600
H 	H 	0.86380 0.40870 0.87870 0.02300
H 	H 	0.82830 0.67580 0.94090 -0.05400
H 	H 	0.93830 0.72700 0.90250 0.01500
H 	H 	0.92730 0.48110 0.87680 0.05900
H 	H 	0.94690 0.62310 0.87700 0.05400
H 	H 	0.72350 0.64360 0.68910 -0.04600
H 	H 	0.63620 0.51490 0.54490 0.02300
H 	H 	0.67170 0.61260 0.84750 -0.05400
H 	H 	0.56170 0.46420 0.78870 0.01500
H 	H 	0.57270 0.44950 0.55380 0.05900
H 	H 	0.55310 0.43010 0.67620 0.05400
H 	H 	0.04550 0.85640 0.57990 -0.04600
H 	H 	0.03000 0.98510 0.62130 0.02200
H 	H 	0.23490 0.88740 0.55910 -0.05400
H 	H 	0.32450 0.03580 0.59750 0.01400
H 	H 	0.10430 0.05050 0.62320 0.05900
H 	H 	0.24610 0.06990 0.62300 0.05300
H 	H 	0.45450 0.03440 0.81090 -0.04600
H 	H 	0.47000 0.09130 0.95510 0.02300
H 	H 	0.26510 0.82420 0.65250 -0.05400
H 	H 	0.17550 0.77300 0.71130 0.01500
H 	H 	0.39570 0.01890 0.94620 0.05900
H 	H 	0.25390 0.87690 0.82380 0.05400
H 	H 	0.31090 0.45450 0.53440 -0.04600
H 	H 	0.45510 0.47000 0.59130 0.02300
H 	H 	0.15250 0.26510 0.32420 -0.05400
H 	H 	0.21130 0.17550 0.27300 0.01500
H 	H 	0.44620 0.39570 0.51890 0.05900
H 	H 	0.32380 0.25390 0.37690 0.05400
H 	H 	0.07990 0.04550 0.35640 -0.04600
H 	H 	0.12130 0.03000 0.48510 0.02300
H 	H 	0.05910 0.23490 0.38740 -0.05400
H 	H 	0.09750 0.32450 0.53580 0.01500
H 	H 	0.12320 0.10430 0.55050 0.05900
H 	H 	0.12300 0.24610 0.56990 0.05400
H 	H 	0.18910 0.72350 0.14360 -0.04600
H 	H 	0.04490 0.63620 0.01490 0.02200
H 	H 	0.34750 0.67170 0.11260 -0.05400
H 	H 	0.28870 0.56170 0.96420 0.01400
H 	H 	0.05380 0.57270 0.94950 0.05900
H 	H 	0.17620 0.55310 0.93010 0.05300
H 	H 	0.42010 0.77650 0.96560 -0.04600
H 	H 	0.37870 0.86380 0.90870 0.02300
H 	H 	0.44090 0.82830 0.17580 -0.05400
H 	H 	0.40250 0.93830 0.22700 0.01500
H 	H 	0.37680 0.92730 0.98110 0.06000
H 	H 	0.37700 0.94690 0.12310 0.05400
H 	H 	0.42010 0.64360 0.95450 -0.04600
H 	H 	0.37870 0.51490 0.97000 0.02300
H 	H 	0.44090 0.61260 0.76510 -0.05400
H 	H 	0.40250 0.46420 0.67550 0.01500
H 	H 	0.37680 0.44950 0.89570 0.05900
H 	H 	0.37700 0.43010 0.75390 0.05400
H 	H 	0.18910 0.46560 0.54550 -0.04600
H 	H 	0.04490 0.40870 0.53000 0.02300
H 	H 	0.34750 0.67580 0.73490 -0.05400
H 	H 	0.28870 0.72700 0.82450 0.01500
H 	H 	0.05380 0.48110 0.60430 0.05900
H 	H 	0.17620 0.62310 0.74610 0.05400
H 	H 	0.07990 0.03440 0.22350 -0.04600
H 	H 	0.12130 0.09130 0.13620 0.02300
H 	H 	0.05910 0.82420 0.17170 -0.05400
H 	H 	0.09750 0.77300 0.06170 0.01500
H 	H 	0.12320 0.01890 0.07270 0.06100
H 	H 	0.12300 0.87690 0.05310 0.05300
H 	H 	0.31090 0.85640 0.27650 -0.04600
H 	H 	0.45510 0.98510 0.36380 0.02300
H 	H 	0.15250 0.88740 0.32830 -0.05400
H 	H 	0.21130 0.03580 0.43830 0.01400
H 	H 	0.44620 0.05050 0.42730 0.05900
H 	H 	0.32380 0.06990 0.44690 0.05300
H 	H 	0.03440 0.72350 0.57990 -0.04600
H 	H 	0.09130 0.63620 0.62130 0.02300
H 	H 	0.82420 0.67170 0.55910 -0.05400
H 	H 	0.77300 0.56170 0.59750 0.01500
H 	H 	0.01890 0.57270 0.62320 0.05900
H 	H 	0.87690 0.55310 0.62300 0.05400
H 	H 	0.85640 0.77650 0.81090 -0.04600
H 	H 	0.98510 0.86380 0.95510 0.02300
H 	H 	0.88740 0.82830 0.65250 -0.05400
H 	H 	0.03580 0.93830 0.71130 0.01500
H 	H 	0.05050 0.92730 0.94620 0.05900
H 	H 	0.06990 0.94690 0.82380 0.05400
H 	H 	0.64360 0.45450 0.92010 -0.04600
H 	H 	0.51490 0.47000 0.87870 0.02300
H 	H 	0.61260 0.26510 0.94090 -0.05400
H 	H 	0.46420 0.17550 0.90250 0.01500
H 	H 	0.44950 0.39570 0.87680 0.05900
H 	H 	0.43010 0.25390 0.87700 0.05400
H 	H 	0.46560 0.04550 0.68910 -0.04600
H 	H 	0.40870 0.03000 0.54490 0.02300
H 	H 	0.67580 0.23490 0.84750 -0.05400
H 	H 	0.72700 0.32450 0.78870 0.01500
H 	H 	0.48110 0.10430 0.55380 0.05900
H 	H 	0.62310 0.24610 0.67620 0.05400
H 	H 	0.04550 0.18910 0.96560 -0.04600
H 	H 	0.03000 0.04490 0.90870 0.02400
H 	H 	0.23490 0.34750 0.17580 -0.05400
H 	H 	0.32450 0.28870 0.22700 0.01500
H 	H 	0.10430 0.05380 0.98110 0.06100
H 	H 	0.24610 0.17620 0.12310 0.05400
H 	H 	0.45450 0.42010 0.14360 -0.04600
H 	H 	0.47000 0.37870 0.01490 0.02300
H 	H 	0.26510 0.44090 0.11260 -0.05400
H 	H 	0.17550 0.40250 0.96420 0.01400
H 	H 	0.39570 0.37680 0.94950 0.05900
H 	H 	0.25390 0.37700 0.93010 0.05300
H 	H 	0.77650 0.31090 0.35640 -0.04600
H 	H 	0.86380 0.45510 0.48510 0.02300
H 	H 	0.82830 0.15250 0.38740 -0.05400
H 	H 	0.93830 0.21130 0.53580 0.01500
H 	H 	0.92730 0.44620 0.55050 0.05900
H 	H 	0.94690 0.32380 0.56990 0.05400
H 	H 	0.72350 0.07990 0.53440 -0.04600
H 	H 	0.63620 0.12130 0.59130 0.02300
H 	H 	0.67170 0.05910 0.32420 -0.05400
H 	H 	0.56170 0.09750 0.27300 0.01500
H 	H 	0.57270 0.12320 0.51890 0.05900
H 	H 	0.55310 0.12300 0.37690 0.05400
H 	H 	0.14360 0.92010 0.45450 -0.04600
H 	H 	0.01490 0.87870 0.47000 0.02200
H 	H 	0.11260 0.94090 0.26510 -0.05400
H 	H 	0.96420 0.90250 0.17550 0.01300
H 	H 	0.94950 0.87680 0.39570 0.05900
H 	H 	0.93010 0.87700 0.25390 0.05300
H 	H 	0.96560 0.68910 0.04550 -0.04600
H 	H 	0.90870 0.54490 0.03000 0.02400
H 	H 	0.17580 0.84750 0.23490 -0.05400
H 	H 	0.22700 0.78870 0.32450 0.01500
H 	H 	0.98110 0.55380 0.10430 0.06200
H 	H 	0.12310 0.67620 0.24610 0.05400
H 	H 	0.53440 0.57990 0.72350 -0.04600
H 	H 	0.59130 0.62130 0.63620 0.02300
H 	H 	0.32420 0.55910 0.67170 -0.05400
H 	H 	0.27300 0.59750 0.56170 0.01500
H 	H 	0.51890 0.62320 0.57270 0.05900
H 	H 	0.37690 0.62300 0.55310 0.05400
H 	H 	0.35640 0.81090 0.77650 -0.04600
H 	H 	0.48510 0.95510 0.86380 0.02300
H 	H 	0.38740 0.65250 0.82830 -0.05400
H 	H 	0.53580 0.71130 0.93830 0.01500
H 	H 	0.55050 0.94620 0.92730 0.05900
H 	H 	0.56990 0.82380 0.94690 0.05400
H 	H 	0.22350 0.53440 0.07990 -0.04600
H 	H 	0.13620 0.59130 0.12130 0.02300
H 	H 	0.17170 0.32420 0.05910 -0.05400
H 	H 	0.06170 0.27300 0.09750 0.01500
H 	H 	0.07270 0.51890 0.12320 0.05900
H 	H 	0.05310 0.37690 0.12300 0.05400
H 	H 	0.27650 0.35640 0.31090 -0.04600
H 	H 	0.36380 0.48510 0.45510 0.02300
H 	H 	0.32830 0.38740 0.15250 -0.05400
H 	H 	0.43830 0.53580 0.21130 0.01500
H 	H 	0.42730 0.55050 0.44620 0.05900
H 	H 	0.44690 0.56990 0.32380 0.05400
H 	H 	0.95450 0.14360 0.42010 -0.04600
H 	H 	0.97000 0.01490 0.37870 0.02200
H 	H 	0.76510 0.11260 0.44090 -0.05400
H 	H 	0.67550 0.96420 0.40250 0.01400
H 	H 	0.89570 0.94950 0.37680 0.05900
H 	H 	0.75390 0.93010 0.37700 0.05300
H 	H 	0.54550 0.96560 0.18910 -0.04600
H 	H 	0.53000 0.90870 0.04490 0.02300
H 	H 	0.73490 0.17580 0.34750 -0.05400
H 	H 	0.82450 0.22700 0.28870 0.01500
H 	H 	0.60430 0.98110 0.05380 0.05900
H 	H 	0.74610 0.12310 0.17620 0.05400
H 	H 	0.68910 0.54550 0.46560 -0.04600
H 	H 	0.54490 0.53000 0.40870 0.02300
H 	H 	0.84750 0.73490 0.67580 -0.05400
H 	H 	0.78870 0.82450 0.72700 0.01500
H 	H 	0.55380 0.60430 0.48110 0.05900
H 	H 	0.67620 0.74610 0.62310 0.05400
H 	H 	0.92010 0.95450 0.64360 -0.04600
H 	H 	0.87870 0.97000 0.51490 0.02300
H 	H 	0.94090 0.76510 0.61260 -0.05400
H 	H 	0.90250 0.67550 0.46420 0.01500
H 	H 	0.87680 0.89570 0.44950 0.05900
H 	H 	0.87700 0.75390 0.43010 0.05400
H 	H 	0.81090 0.27650 0.85640 -0.04600
H 	H 	0.95510 0.36380 0.98510 0.02200
H 	H 	0.65250 0.32830 0.88740 -0.05400
H 	H 	0.71130 0.43830 0.03580 0.01400
H 	H 	0.94620 0.42730 0.05050 0.05900
H 	H 	0.82380 0.44690 0.06990 0.05300
H 	H 	0.57990 0.22350 0.03440 -0.04600
H 	H 	0.62130 0.13620 0.09130 0.02300
H 	H 	0.55910 0.17170 0.82420 -0.05400
H 	H 	0.59750 0.06170 0.77300 0.01500
H 	H 	0.62320 0.07270 0.01890 0.06000
H 	H 	0.62300 0.05310 0.87690 0.05400
H 	H 	0.57990 0.35640 0.04550 -0.04600
H 	H 	0.62130 0.48510 0.03000 0.02300
H 	H 	0.55910 0.38740 0.23490 -0.05400
H 	H 	0.59750 0.53580 0.32450 0.01500
H 	H 	0.62320 0.55050 0.10430 0.05900
H 	H 	0.62300 0.56990 0.24610 0.05400
H 	H 	0.81090 0.53440 0.45450 -0.04600
H 	H 	0.95510 0.59130 0.47000 0.02300
H 	H 	0.65250 0.32420 0.26510 -0.05400
H 	H 	0.71130 0.27300 0.17550 0.01500
H 	H 	0.94620 0.51890 0.39570 0.05900
H 	H 	0.82380 0.37690 0.25390 0.05400
H 	H 	0.92010 0.96560 0.77650 -0.04600
H 	H 	0.87870 0.90870 0.86380 0.02300
H 	H 	0.94090 0.17580 0.82830 -0.05400
H 	H 	0.90250 0.22700 0.93830 0.01500
H 	H 	0.87680 0.98110 0.92730 0.06100
H 	H 	0.87700 0.12310 0.94690 0.05300
H 	H 	0.68910 0.14360 0.72350 -0.04600
H 	H 	0.54490 0.01490 0.63620 0.02300
H 	H 	0.84750 0.11260 0.67170 -0.05400
H 	H 	0.78870 0.96420 0.56170 0.01400
H 	H 	0.55380 0.94950 0.57270 0.05900
H 	H 	0.67620 0.93010 0.55310 0.05300
H 	H 	0.96560 0.27650 0.42010 -0.04600
H 	H 	0.90870 0.36380 0.37870 0.02300
H 	H 	0.17580 0.32830 0.44090 -0.05400
H 	H 	0.22700 0.43830 0.40250 0.01500
H 	H 	0.98110 0.42730 0.37680 0.05900
H 	H 	0.12310 0.44690 0.37700 0.05400
H 	H 	0.14360 0.22350 0.18910 -0.04600
H 	H 	0.01490 0.13620 0.04490 0.02300
H 	H 	0.11260 0.17170 0.34750 -0.05400
H 	H 	0.96420 0.06170 0.28870 0.01500
H 	H 	0.94950 0.07270 0.05380 0.05900
H 	H 	0.93010 0.05310 0.17620 0.05400
H 	H 	0.35640 0.54550 0.07990 -0.04600
H 	H 	0.48510 0.53000 0.12130 0.02300
H 	H 	0.38740 0.73490 0.05910 -0.05400
H 	H 	0.53580 0.82450 0.09750 0.01500
H 	H 	0.55050 0.60430 0.12320 0.05900
H 	H 	0.56990 0.74610 0.12300 0.05400
H 	H 	0.53440 0.95450 0.31090 -0.04600
H 	H 	0.59130 0.97000 0.45510 0.02300
H 	H 	0.32420 0.76510 0.15250 -0.05400
H 	H 	0.27300 0.67550 0.21130 0.01500
H 	H 	0.51890 0.89570 0.44620 0.05900
H 	H 	0.37690 0.75390 0.32380 0.05400
H 	H 	0.95450 0.81090 0.03440 -0.04600
H 	H 	0.97000 0.95510 0.09130 0.02400
H 	H 	0.76510 0.65250 0.82420 -0.05400
H 	H 	0.67550 0.71130 0.77300 0.01500
H 	H 	0.89570 0.94620 0.01890 0.06100
H 	H 	0.75390 0.82380 0.87690 0.05400
H 	H 	0.54550 0.57990 0.85640 -0.04600
H 	H 	0.53000 0.62130 0.98510 0.02300
H 	H 	0.73490 0.55910 0.88740 -0.05400
H 	H 	0.82450 0.59750 0.03580 0.01400
H 	H 	0.60430 0.62320 0.05050 0.05900
H 	H 	0.74610 0.62300 0.06990 0.05300
H 	H 	0.22350 0.68910 0.64360 -0.04600
H 	H 	0.13620 0.54490 0.51490 0.02300
H 	H 	0.17170 0.84750 0.61260 -0.05400
H 	H 	0.06170 0.78870 0.46420 0.01500
H 	H 	0.07270 0.55380 0.44950 0.05900
H 	H 	0.05310 0.67620 0.43010 0.05400
H 	H 	0.27650 0.92010 0.46560 -0.04600
H 	H 	0.36380 0.87870 0.40870 0.02300
H 	H 	0.32830 0.94090 0.67580 -0.05400
H 	H 	0.43830 0.90250 0.72700 0.01500
H 	H 	0.42730 0.87680 0.48110 0.05900
H 	H 	0.44690 0.87700 0.62310 0.05400
C 	C 	0.97411 0.10658 0.58801 0.04600
C 	C 	0.89171 0.08923 0.55204 0.09600
C 	C 	0.96138 0.11171 0.54301 -0.02300
C 	C 	0.92370 0.06822 0.74666 0.10200
C 	C 	0.00391 0.08875 0.79552 -0.01600
C 	C 	0.99901 0.08540 0.74739 0.02800
C 	C 	0.02720 0.11270 0.61750 -0.05500
C 	C 	0.03210 0.10330 0.72440 -0.04700
C 	C 	0.01857 0.38610 0.91199 0.05200
C 	C 	0.03719 0.33967 0.94796 0.09800
C 	C 	0.06870 0.41837 0.95699 -0.02500
C 	C 	0.82156 0.17704 0.75334 0.10300
C 	C 	0.79323 0.20839 0.70448 -0.02100
C 	C 	0.83801 0.25162 0.75261 0.03300
C 	C 	0.99520 0.40970 0.88250 -0.06200
C 	C 	0.87890 0.30770 0.77560 -0.05100
C 	C 	0.48143 0.39342 0.36753 0.04800
C 	C 	0.46281 0.41077 0.30248 0.09600
C 	C 	0.43130 0.38829 0.34967 -0.02300
C 	C 	0.67844 0.43178 0.35548 0.10300
C 	C 	0.70677 0.41125 0.41516 -0.02100
C 	C 	0.66199 0.41460 0.41361 0.03300
C 	C 	0.50480 0.38730 0.41450 -0.05700
C 	C 	0.62110 0.39670 0.42880 -0.05100
C 	C 	0.52589 0.11390 0.13247 0.04800
C 	C 	0.60829 0.16033 0.19752 0.09600
C 	C 	0.53862 0.08163 0.15033 -0.02300
C 	C 	0.57630 0.32296 0.14452 0.10300
C 	C 	0.49609 0.29161 0.08484 -0.02100
C 	C 	0.50099 0.24838 0.08639 0.03300
C 	C 	0.47280 0.09030 0.08550 -0.05700
C 	C 	0.46790 0.19230 0.07120 -0.05100
C 	C 	0.86753 0.48143 0.89342 0.04800
C 	C 	0.80248 0.46281 0.91077 0.09600
C 	C 	0.84967 0.43130 0.88829 -0.02400
C 	C 	0.85548 0.67844 0.93178 0.10300
C 	C 	0.91516 0.70677 0.91125 -0.02100
C 	C 	0.91361 0.66199 0.91460 0.03300
C 	C 	0.91450 0.50480 0.88730 -0.05700
C 	C 	0.92880 0.62110 0.89670 -0.05100
C 	C 	0.63247 0.52589 0.61390 0.04800
C 	C 	0.69752 0.60829 0.66033 0.09600
C 	C 	0.65033 0.53862 0.58163 -0.02300
C 	C 	0.64452 0.57630 0.82296 0.10300
C 	C 	0.58484 0.49609 0.79161 -0.02100
C 	C 	0.58639 0.50099 0.74838 0.03300
C 	C 	0.58550 0.47280 0.59030 -0.05700
C 	C 	0.57120 0.46790 0.69230 -0.05100
C 	C 	0.08801 0.97411 0.60658 0.04700
C 	C 	0.05204 0.89171 0.58923 0.09600
C 	C 	0.04301 0.96138 0.61171 -0.02300
C 	C 	0.24666 0.92370 0.56822 0.10300
C 	C 	0.29552 0.00391 0.58875 -0.02000
C 	C 	0.24739 0.99901 0.58540 0.03100
C 	C 	0.11750 0.02720 0.61270 -0.05600
C 	C 	0.22440 0.03210 0.60330 -0.05000
C 	C 	0.41199 0.01857 0.88610 0.04800
C 	C 	0.44796 0.03719 0.83967 0.09600
C 	C 	0.45699 0.06870 0.91837 -0.02400
C 	C 	0.25334 0.82156 0.67704 0.10300
C 	C 	0.20448 0.79323 0.70839 -0.02100
C 	C 	0.25261 0.83801 0.75162 0.03300
C 	C 	0.38250 0.99520 0.90970 -0.05700
C 	C 	0.27560 0.87890 0.80770 -0.05100
C 	C 	0.38610 0.41199 0.51857 0.04800
C 	C 	0.33967 0.44796 0.53719 0.09600
C 	C 	0.41837 0.45699 0.56870 -0.02300
C 	C 	0.17704 0.25334 0.32156 0.10300
C 	C 	0.20839 0.20448 0.29323 -0.02100
C 	C 	0.25162 0.25261 0.33801 0.03300
C 	C 	0.40970 0.38250 0.49520 -0.05700
C 	C 	0.30770 0.27560 0.37890 -0.05100
C 	C 	0.10658 0.08801 0.47411 0.04800
C 	C 	0.08923 0.05204 0.39171 0.09600
C 	C 	0.11171 0.04301 0.46138 -0.02300
C 	C 	0.06822 0.24666 0.42370 0.10300
C 	C 	0.08875 0.29552 0.50391 -0.02100
C 	C 	0.08540 0.24739 0.49901 0.03300
C 	C 	0.11270 0.11750 0.52720 -0.05700
C 	C 	0.10330 0.22440 0.53210 -0.05100
C 	C 	0.11390 0.63247 0.02589 0.04600
C 	C 	0.16033 0.69752 0.10829 0.09600
C 	C 	0.08163 0.65033 0.03862 -0.02300
C 	C 	0.32296 0.64452 0.07630 0.10300
C 	C 	0.29161 0.58484 0.99609 -0.01900
C 	C 	0.24838 0.58639 0.00099 0.03000
C 	C 	0.09030 0.58550 0.97280 -0.05500
C 	C 	0.19230 0.57120 0.96790 -0.04900
C 	C 	0.39342 0.86753 0.98143 0.04900
C 	C 	0.41077 0.80248 0.96281 0.09600
C 	C 	0.38829 0.84967 0.93130 -0.02400
C 	C 	0.43178 0.85548 0.17844 0.10300
C 	C 	0.41125 0.91516 0.20677 -0.02100
C 	C 	0.41460 0.91361 0.16199 0.03300
C 	C 	0.38730 0.91450 0.00480 -0.05900
C 	C 	0.39670 0.92880 0.12110 -0.05100
C 	C 	0.39342 0.52589 0.91199 0.04800
C 	C 	0.41077 0.60829 0.94796 0.09600
C 	C 	0.38829 0.53862 0.95699 -0.02300
C 	C 	0.43178 0.57630 0.75334 0.10300
C 	C 	0.41125 0.49609 0.70448 -0.02100
C 	C 	0.41460 0.50099 0.75261 0.03300
C 	C 	0.38730 0.47280 0.88250 -0.05700
C 	C 	0.39670 0.46790 0.77560 -0.05100
C 	C 	0.11390 0.48143 0.58801 0.04800
C 	C 	0.16033 0.46281 0.55204 0.09600
C 	C 	0.08163 0.43130 0.54301 -0.02300
C 	C 	0.32296 0.67844 0.74666 0.10300
C 	C 	0.29161 0.70677 0.79552 -0.02100
C 	C 	0.24838 0.66199 0.74739 0.03300
C 	C 	0.09030 0.50480 0.61750 -0.05700
C 	C 	0.19230 0.62110 0.72440 -0.05100
C 	C 	0.10658 0.01857 0.13247 0.05100
C 	C 	0.08923 0.03719 0.19752 0.09700
C 	C 	0.11171 0.06870 0.15033 -0.02500
C 	C 	0.06822 0.82156 0.14452 0.10200
C 	C 	0.08875 0.79323 0.08484 -0.02100
C 	C 	0.08540 0.83801 0.08639 0.03200
C 	C 	0.11270 0.99520 0.08550 -0.06100
C 	C 	0.10330 0.87890 0.07120 -0.05100
C 	C 	0.38610 0.97411 0.36753 0.04800
C 	C 	0.33967 0.89171 0.30248 0.09600
C 	C 	0.41837 0.96138 0.34967 -0.02300
C 	C 	0.17704 0.92370 0.35548 0.10300
C 	C 	0.20839 0.00391 0.41516 -0.01900
C 	C 	0.25162 0.99901 0.41361 0.03100
C 	C 	0.40970 0.02720 0.41450 -0.05700
C 	C 	0.30770 0.03210 0.42880 -0.04900
C 	C 	0.01857 0.63247 0.60658 0.04800
C 	C 	0.03719 0.69752 0.58923 0.09600
C 	C 	0.06870 0.65033 0.61171 -0.02400
C 	C 	0.82156 0.64452 0.56822 0.10300
C 	C 	0.79323 0.58484 0.58875 -0.02100
C 	C 	0.83801 0.58639 0.58540 0.03300
C 	C 	0.99520 0.58550 0.61270 -0.05800
C 	C 	0.87890 0.57120 0.60330 -0.05100
C 	C 	0.97411 0.86753 0.88610 0.04800
C 	C 	0.89171 0.80248 0.83967 0.09600
C 	C 	0.96138 0.84967 0.91837 -0.02300
C 	C 	0.92370 0.85548 0.67704 0.10300
C 	C 	0.00391 0.91516 0.70839 -0.02200
C 	C 	0.99901 0.91361 0.75162 0.03300
C 	C 	0.02720 0.91450 0.90970 -0.05700
C 	C 	0.03210 0.92880 0.80770 -0.05100
C 	C 	0.52589 0.41199 0.89342 0.04800
C 	C 	0.60829 0.44796 0.91077 0.09600
C 	C 	0.53862 0.45699 0.88829 -0.02400
C 	C 	0.57630 0.25334 0.93178 0.10300
C 	C 	0.49609 0.20448 0.91125 -0.02100
C 	C 	0.50099 0.25261 0.91460 0.03300
C 	C 	0.47280 0.38250 0.88730 -0.05700
C 	C 	0.46790 0.27560 0.89670 -0.05100
C 	C 	0.48143 0.08801 0.61390 0.04800
C 	C 	0.46281 0.05204 0.66033 0.09600
C 	C 	0.43130 0.04301 0.58163 -0.02300
C 	C 	0.67844 0.24666 0.82296 0.10300
C 	C 	0.70677 0.29552 0.79161 -0.02100
C 	C 	0.66199 0.24739 0.74838 0.03300
C 	C 	0.50480 0.11750 0.59030 -0.05700
C 	C 	0.62110 0.22440 0.69230 -0.05100
C 	C 	0.08801 0.11390 0.98143 0.05100
C 	C 	0.05204 0.16033 0.96281 0.09700
C 	C 	0.04301 0.08163 0.93130 -0.02500
C 	C 	0.24666 0.32296 0.17844 0.10300
C 	C 	0.29552 0.29161 0.20677 -0.02100
C 	C 	0.24739 0.24838 0.16199 0.03300
C 	C 	0.11750 0.09030 0.00480 -0.06100
C 	C 	0.22440 0.19230 0.12110 -0.05100
C 	C 	0.41199 0.39342 0.02589 0.04800
C 	C 	0.44796 0.41077 0.10829 0.09600
C 	C 	0.45699 0.38829 0.03862 -0.02300
C 	C 	0.25334 0.43178 0.07630 0.10300
C 	C 	0.20448 0.41125 0.99609 -0.01900
C 	C 	0.25261 0.41460 0.00099 0.03100
C 	C 	0.38250 0.38730 0.97280 -0.05700
C 	C 	0.27560 0.39670 0.96790 -0.04900
C 	C 	0.86753 0.38610 0.47411 0.04800
C 	C 	0.80248 0.33967 0.39171 0.09600
C 	C 	0.84967 0.41837 0.46138 -0.02300
C 	C 	0.85548 0.17704 0.42370 0.10300
C 	C 	0.91516 0.20839 0.50391 -0.02100
C 	C 	0.91361 0.25162 0.49901 0.03300
C 	C 	0.91450 0.40970 0.52720 -0.05700
C 	C 	0.92880 0.30770 0.53210 -0.05100
C 	C 	0.63247 0.10658 0.51857 0.04800
C 	C 	0.69752 0.08923 0.53719 0.09600
C 	C 	0.65033 0.11171 0.56870 -0.02400
C 	C 	0.64452 0.06822 0.32156 0.10300
C 	C 	0.58484 0.08875 0.29323 -0.02100
C 	C 	0.58639 0.08540 0.33801 0.03300
C 	C 	0.58550 0.11270 0.49520 -0.05700
C 	C 	0.57120 0.10330 0.37890 -0.05100
C 	C 	0.02589 0.89342 0.41199 0.04600
C 	C 	0.10829 0.91077 0.44796 0.09600
C 	C 	0.03862 0.88829 0.45699 -0.02300
C 	C 	0.07630 0.93178 0.25334 0.10200
C 	C 	0.99609 0.91125 0.20448 -0.01600
C 	C 	0.00099 0.91460 0.25261 0.02800
C 	C 	0.97280 0.88730 0.38250 -0.05500
C 	C 	0.96790 0.89670 0.27560 -0.04700
C 	C 	0.98143 0.61390 0.08801 0.05200
C 	C 	0.96281 0.66033 0.05204 0.09800
C 	C 	0.93130 0.58163 0.04301 -0.02500
C 	C 	0.17844 0.82296 0.24666 0.10300
C 	C 	0.20677 0.79161 0.29552 -0.02100
C 	C 	0.16199 0.74838 0.24739 0.03300
C 	C 	0.00480 0.59030 0.11750 -0.06200
C 	C 	0.12110 0.69230 0.22440 -0.05100
C 	C 	0.51857 0.60658 0.63247 0.04800
C 	C 	0.53719 0.58923 0.69752 0.09600
C 	C 	0.56870 0.61171 0.65033 -0.02300
C 	C 	0.32156 0.56822 0.64452 0.10300
C 	C 	0.29323 0.58875 0.58484 -0.02100
C 	C 	0.33801 0.58540 0.58639 0.03300
C 	C 	0.49520 0.61270 0.58550 -0.05700
C 	C 	0.37890 0.60330 0.57120 -0.05100
C 	C 	0.47411 0.88610 0.86753 0.04800
C 	C 	0.39171 0.83967 0.80248 0.09600
C 	C 	0.46138 0.91837 0.84967 -0.02300
C 	C 	0.42370 0.67704 0.85548 0.10300
C 	C 	0.50391 0.70839 0.91516 -0.02100
C 	C 	0.49901 0.75162 0.91361 0.03300
C 	C 	0.52720 0.90970 0.91450 -0.05700
C 	C 	0.53210 0.80770 0.92880 -0.05100
C 	C 	0.13247 0.51857 0.10658 0.04800
C 	C 	0.19752 0.53719 0.08923 0.09600
C 	C 	0.15033 0.56870 0.11171 -0.02400
C 	C 	0.14452 0.32156 0.06822 0.10300
C 	C 	0.08484 0.29323 0.08875 -0.02100
C 	C 	0.08639 0.33801 0.08540 0.03300
C 	C 	0.08550 0.49520 0.11270 -0.05700
C 	C 	0.07120 0.37890 0.10330 -0.05100
C 	C 	0.36753 0.47411 0.38610 0.04800
C 	C 	0.30248 0.39171 0.33967 0.09600
C 	C 	0.34967 0.46138 0.41837 -0.02300
C 	C 	0.35548 0.42370 0.17704 0.10300
C 	C 	0.41516 0.50391 0.20839 -0.02100
C 	C 	0.41361 0.49901 0.25162 0.03300
C 	C 	0.41450 0.52720 0.40970 -0.05700
C 	C 	0.42880 0.53210 0.30770 -0.05100
C 	C 	0.91199 0.02589 0.39342 0.04700
C 	C 	0.94796 0.10829 0.41077 0.09600
C 	C 	0.95699 0.03862 0.38829 -0.02300
C 	C 	0.75334 0.07630 0.43178 0.10300
C 	C 	0.70448 0.99609 0.41125 -0.02000
C 	C 	0.75261 0.00099 0.41460 0.03100
C 	C 	0.88250 0.97280 0.38730 -0.05600
C 	C 	0.77560 0.96790 0.39670 -0.05000
C 	C 	0.58801 0.98143 0.11390 0.04800
C 	C 	0.55204 0.96281 0.16033 0.09600
C 	C 	0.54301 0.93130 0.08163 -0.02400
C 	C 	0.74666 0.17844 0.32296 0.10300
C 	C 	0.79552 0.20677 0.29161 -0.02100
C 	C 	0.74739 0.16199 0.24838 0.03300
C 	C 	0.61750 0.00480 0.09030 -0.05700
C 	C 	0.72440 0.12110 0.19230 -0.05100
C 	C 	0.61390 0.58801 0.48143 0.04800
C 	C 	0.66033 0.55204 0.46281 0.09600
C 	C 	0.58163 0.54301 0.43130 -0.02300
C 	C 	0.82296 0.74666 0.67844 0.10300
C 	C 	0.79161 0.79552 0.70677 -0.02100
C 	C 	0.74838 0.74739 0.66199 0.03300
C 	C 	0.59030 0.61750 0.50480 -0.05700
C 	C 	0.69230 0.72440 0.62110 -0.05100
C 	C 	0.89342 0.91199 0.52589 0.04800
C 	C 	0.91077 0.94796 0.60829 0.09600
C 	C 	0.88829 0.95699 0.53862 -0.02300
C 	C 	0.93178 0.75334 0.57630 0.10300
C 	C 	0.91125 0.70448 0.49609 -0.02100
C 	C 	0.91460 0.75261 0.50099 0.03300
C 	C 	0.88730 0.88250 0.47280 -0.05700
C 	C 	0.89670 0.77560 0.46790 -0.05100
C 	C 	0.88610 0.36753 0.97411 0.04600
C 	C 	0.83967 0.30248 0.89171 0.09600
C 	C 	0.91837 0.34967 0.96138 -0.02300
C 	C 	0.67704 0.35548 0.92370 0.10300
C 	C 	0.70839 0.41516 0.00391 -0.01900
C 	C 	0.75162 0.41361 0.99901 0.03000
C 	C 	0.90970 0.41450 0.02720 -0.05500
C 	C 	0.80770 0.42880 0.03210 -0.04900
C 	C 	0.60658 0.13247 0.01857 0.04900
C 	C 	0.58923 0.19752 0.03719 0.09600
C 	C 	0.61171 0.15033 0.06870 -0.02400
C 	C 	0.56822 0.14452 0.82156 0.10300
C 	C 	0.58875 0.08484 0.79323 -0.02100
C 	C 	0.58540 0.08639 0.83801 0.03300
C 	C 	0.61270 0.08550 0.99520 -0.05900
C 	C 	0.60330 0.07120 0.87890 -0.05100
C 	C 	0.60658 0.47411 0.08801 0.04800
C 	C 	0.58923 0.39171 0.05204 0.09600
C 	C 	0.61171 0.46138 0.04301 -0.02300
C 	C 	0.56822 0.42370 0.24666 0.10300
C 	C 	0.58875 0.50391 0.29552 -0.02100
C 	C 	0.58540 0.49901 0.24739 0.03300
C 	C 	0.61270 0.52720 0.11750 -0.05700
C 	C 	0.60330 0.53210 0.22440 -0.05100
C 	C 	0.88610 0.51857 0.41199 0.04800
C 	C 	0.83967 0.53719 0.44796 0.09600
C 	C 	0.91837 0.56870 0.45699 -0.02300
C 	C 	0.67704 0.32156 0.25334 0.10300
C 	C 	0.70839 0.29323 0.20448 -0.02100
C 	C 	0.75162 0.33801 0.25261 0.03300
C 	C 	0.90970 0.49520 0.38250 -0.05700
C 	C 	0.80770 0.37890 0.27560 -0.05100
C 	C 	0.89342 0.98143 0.86753 0.05100
C 	C 	0.91077 0.96281 0.80248 0.09700
C 	C 	0.88829 0.93130 0.84967 -0.02500
C 	C 	0.93178 0.17844 0.85548 0.10200
C 	C 	0.91125 0.20677 0.91516 -0.02100
C 	C 	0.91460 0.16199 0.91361 0.03200
C 	C 	0.88730 0.00480 0.91450 -0.06100
C 	C 	0.89670 0.12110 0.92880 -0.05100
C 	C 	0.61390 0.02589 0.63247 0.04800
C 	C 	0.66033 0.10829 0.69752 0.09600
C 	C 	0.58163 0.03862 0.65033 -0.02300
C 	C 	0.82296 0.07630 0.64452 0.10300
C 	C 	0.79161 0.99609 0.58484 -0.01900
C 	C 	0.74838 0.00099 0.58639 0.03100
C 	C 	0.59030 0.97280 0.58550 -0.05700
C 	C 	0.69230 0.96790 0.57120 -0.04900
C 	C 	0.98143 0.36753 0.39342 0.04800
C 	C 	0.96281 0.30248 0.41077 0.09600
C 	C 	0.93130 0.34967 0.38829 -0.02400
C 	C 	0.17844 0.35548 0.43178 0.10300
C 	C 	0.20677 0.41516 0.41125 -0.02100
C 	C 	0.16199 0.41361 0.41460 0.03300
C 	C 	0.00480 0.41450 0.38730 -0.05800
C 	C 	0.12110 0.42880 0.39670 -0.05100
C 	C 	0.02589 0.13247 0.11390 0.04800
C 	C 	0.10829 0.19752 0.16033 0.09600
C 	C 	0.03862 0.15033 0.08163 -0.02300
C 	C 	0.07630 0.14452 0.32296 0.10300
C 	C 	0.99609 0.08484 0.29161 -0.02200
C 	C 	0.00099 0.08639 0.24838 0.03300
C 	C 	0.97280 0.08550 0.09030 -0.05700
C 	C 	0.96790 0.07120 0.19230 -0.05100
C 	C 	0.47411 0.58801 0.10658 0.04800
C 	C 	0.39171 0.55204 0.08923 0.09600
C 	C 	0.46138 0.54301 0.11171 -0.02400
C 	C 	0.42370 0.74666 0.06822 0.10300
C 	C 	0.50391 0.79552 0.08875 -0.02100
C 	C 	0.49901 0.74739 0.08540 0.03300
C 	C 	0.52720 0.61750 0.11270 -0.05700
C 	C 	0.53210 0.72440 0.10330 -0.05100
C 	C 	0.51857 0.91199 0.38610 0.04800
C 	C 	0.53719 0.94796 0.33967 0.09600
C 	C 	0.56870 0.95699 0.41837 -0.02300
C 	C 	0.32156 0.75334 0.17704 0.10300
C 	C 	0.29323 0.70448 0.20839 -0.02100
C 	C 	0.33801 0.75261 0.25162 0.03300
C 	C 	0.49520 0.88250 0.40970 -0.05700
C 	C 	0.37890 0.77560 0.30770 -0.05100
C 	C 	0.91199 0.88610 0.01857 0.05100
C 	C 	0.94796 0.83967 0.03719 0.09700
C 	C 	0.95699 0.91837 0.06870 -0.02500
C 	C 	0.75334 0.67704 0.82156 0.10300
C 	C 	0.70448 0.70839 0.79323 -0.02100
C 	C 	0.75261 0.75162 0.83801 0.03300
C 	C 	0.88250 0.90970 0.99520 -0.06100
C 	C 	0.77560 0.80770 0.87890 -0.05100
C 	C 	0.58801 0.60658 0.97411 0.04800
C 	C 	0.55204 0.58923 0.89171 0.09600
C 	C 	0.54301 0.61171 0.96138 -0.02300
C 	C 	0.74666 0.56822 0.92370 0.10300
C 	C 	0.79552 0.58875 0.00391 -0.01900
C 	C 	0.74739 0.58540 0.99901 0.03100
C 	C 	0.61750 0.61270 0.02720 -0.05700
C 	C 	0.72440 0.60330 0.03210 -0.04900
C 	C 	0.13247 0.61390 0.52589 0.04800
C 	C 	0.19752 0.66033 0.60829 0.09600
C 	C 	0.15033 0.58163 0.53862 -0.02300
C 	C 	0.14452 0.82296 0.57630 0.10300
C 	C 	0.08484 0.79161 0.49609 -0.02100
C 	C 	0.08639 0.74838 0.50099 0.03300
C 	C 	0.08550 0.59030 0.47280 -0.05700
C 	C 	0.07120 0.69230 0.46790 -0.05100
C 	C 	0.36753 0.89342 0.48143 0.04800
C 	C 	0.30248 0.91077 0.46281 0.09600
C 	C 	0.34967 0.88829 0.43130 -0.02400
C 	C 	0.35548 0.93178 0.67844 0.10300
C 	C 	0.41516 0.91125 0.70677 -0.02100
C 	C 	0.41361 0.91460 0.66199 0.03300
C 	C 	0.41450 0.88730 0.50480 -0.05700
C 	C 	0.42880 0.89670 0.62110 -0.05100
N 	N 	0.95679 0.07782 0.79549 -0.27300
N 	N 	0.90925 0.10079 0.51974 -0.27100
N 	N 	0.92849 0.09213 0.59414 -0.28400
N 	N 	0.94629 0.07273 0.71604 -0.28400
N 	N 	0.01060 0.09280 0.67560 -0.16700
N 	N 	0.04900 0.10640 0.65940 -0.07800
N 	N 	0.78233 0.16130 0.70451 -0.27100
N 	N 	0.08105 0.38951 0.98026 -0.27100
N 	N 	0.99799 0.33435 0.90586 -0.28600
N 	N 	0.85669 0.23025 0.78396 -0.28400
N 	N 	0.91720 0.33500 0.82440 -0.16700
N 	N 	0.94700 0.38960 0.84060 -0.07800
N 	N 	0.71767 0.42218 0.37897 -0.27100
N 	N 	0.41895 0.39921 0.30846 -0.27100
N 	N 	0.50201 0.40787 0.33636 -0.28400
N 	N 	0.64331 0.42727 0.37356 -0.28400
N 	N 	0.58280 0.40720 0.41780 -0.16700
N 	N 	0.55300 0.39360 0.44260 -0.07800
N 	N 	0.54321 0.33870 0.12103 -0.27100
N 	N 	0.59075 0.11049 0.19154 -0.27100
N 	N 	0.57151 0.16565 0.16364 -0.28400
N 	N 	0.55371 0.26975 0.12644 -0.28400
N 	N 	0.48940 0.16500 0.08220 -0.16700
N 	N 	0.45100 0.11040 0.05740 -0.07800
N 	N 	0.87897 0.71767 0.92218 -0.27100
N 	N 	0.80846 0.41895 0.89921 -0.27100
N 	N 	0.83636 0.50201 0.90787 -0.28400
N 	N 	0.87356 0.64331 0.92727 -0.28400
N 	N 	0.91780 0.58280 0.90720 -0.16700
N 	N 	0.94260 0.55300 0.89360 -0.07800
N 	N 	0.62103 0.54321 0.83870 -0.27100
N 	N 	0.69154 0.59075 0.61049 -0.27100
N 	N 	0.66364 0.57151 0.66565 -0.28400
N 	N 	0.62644 0.55371 0.76975 -0.28400
N 	N 	0.58220 0.48940 0.66500 -0.16700
N 	N 	0.55740 0.45100 0.61040 -0.07800
N 	N 	0.29549 0.95679 0.57782 -0.27200
N 	N 	0.01974 0.90925 0.60079 -0.27200
N 	N 	0.09414 0.92849 0.59213 -0.28300
N 	N 	0.21604 0.94629 0.57273 -0.28400
N 	N 	0.17560 0.01060 0.59280 -0.16600
N 	N 	0.15940 0.04900 0.60640 -0.07800
N 	N 	0.20451 0.78233 0.66130 -0.27100
N 	N 	0.48026 0.08105 0.88951 -0.27100
N 	N 	0.40586 0.99799 0.83435 -0.28400
N 	N 	0.28396 0.85669 0.73025 -0.28400
N 	N 	0.32440 0.91720 0.83500 -0.16700
N 	N 	0.34060 0.94700 0.88960 -0.07800
N 	N 	0.16130 0.20451 0.28233 -0.27100
N 	N 	0.38951 0.48026 0.58105 -0.27100
N 	N 	0.33435 0.40586 0.49799 -0.28400
N 	N 	0.23025 0.28396 0.35669 -0.28400
N 	N 	0.33500 0.32440 0.41720 -0.16700
N 	N 	0.38960 0.34060 0.44700 -0.07800
N 	N 	0.07782 0.29549 0.45679 -0.27100
N 	N 	0.10079 0.01974 0.40925 -0.27100
N 	N 	0.09213 0.09414 0.42849 -0.28400
N 	N 	0.07273 0.21604 0.44629 -0.28400
N 	N 	0.09280 0.17560 0.51060 -0.16600
N 	N 	0.10640 0.15940 0.54900 -0.07800
N 	N 	0.33870 0.62103 0.04321 -0.27200
N 	N 	0.11049 0.69154 0.09075 -0.27200
N 	N 	0.16565 0.66364 0.07151 -0.28300
N 	N 	0.26975 0.62644 0.05371 -0.28400
N 	N 	0.16500 0.58220 0.98940 -0.16700
N 	N 	0.11040 0.55740 0.95100 -0.07800
N 	N 	0.42218 0.87897 0.21767 -0.27100
N 	N 	0.39921 0.80846 0.91895 -0.27100
N 	N 	0.40787 0.83636 0.00201 -0.28400
N 	N 	0.42727 0.87356 0.14331 -0.28400
N 	N 	0.40720 0.91780 0.08280 -0.16700
N 	N 	0.39360 0.94260 0.05300 -0.07800
N 	N 	0.42218 0.54321 0.70451 -0.27100
N 	N 	0.39921 0.59075 0.98026 -0.27100
N 	N 	0.40787 0.57151 0.90586 -0.28400
N 	N 	0.42727 0.55371 0.78396 -0.28400
N 	N 	0.40720 0.48940 0.82440 -0.16700
N 	N 	0.39360 0.45100 0.84060 -0.07800
N 	N 	0.33870 0.71767 0.79549 -0.27100
N 	N 	0.11049 0.41895 0.51974 -0.27100
N 	N 	0.16565 0.50201 0.59414 -0.28400
N 	N 	0.26975 0.64331 0.71604 -0.28400
N 	N 	0.16500 0.58280 0.67560 -0.16700
N 	N 	0.11040 0.55300 0.65940 -0.07800
N 	N 	0.07782 0.78233 0.12103 -0.27100
N 	N 	0.10079 0.08105 0.19154 -0.27100
N 	N 	0.09213 0.99799 0.16364 -0.28500
N 	N 	0.07273 0.85669 0.12644 -0.28500
N 	N 	0.09280 0.91720 0.08220 -0.16700
N 	N 	0.10640 0.94700 0.05740 -0.07800
N 	N 	0.16130 0.95679 0.37897 -0.27200
N 	N 	0.38951 0.90925 0.30846 -0.27100
N 	N 	0.33435 0.92849 0.33636 -0.28400
N 	N 	0.23025 0.94629 0.37356 -0.28400
N 	N 	0.33500 0.01060 0.41780 -0.16700
N 	N 	0.38960 0.04900 0.44260 -0.07800
N 	N 	0.78233 0.62103 0.57782 -0.27100
N 	N 	0.08105 0.69154 0.60079 -0.27100
N 	N 	0.99799 0.66364 0.59213 -0.28400
N 	N 	0.85669 0.62644 0.57273 -0.28400
N 	N 	0.91720 0.58220 0.59280 -0.16700
N 	N 	0.94700 0.55740 0.60640 -0.07800
N 	N 	0.95679 0.87897 0.66130 -0.27100
N 	N 	0.90925 0.80846 0.88951 -0.27100
N 	N 	0.92849 0.83636 0.83435 -0.28400
N 	N 	0.94629 0.87356 0.73025 -0.28400
N 	N 	0.01060 0.91780 0.83500 -0.16600
N 	N 	0.04900 0.94260 0.88960 -0.07800
N 	N 	0.54321 0.20451 0.92218 -0.27100
N 	N 	0.59075 0.48026 0.89921 -0.27100
N 	N 	0.57151 0.40586 0.90787 -0.28400
N 	N 	0.55371 0.28396 0.92727 -0.28400
N 	N 	0.48940 0.32440 0.90720 -0.16700
N 	N 	0.45100 0.34060 0.89360 -0.07800
N 	N 	0.71767 0.29549 0.83870 -0.27100
N 	N 	0.41895 0.01974 0.61049 -0.27100
N 	N 	0.50201 0.09414 0.66565 -0.28400
N 	N 	0.64331 0.21604 0.76975 -0.28400
N 	N 	0.58280 0.17560 0.66500 -0.16700
N 	N 	0.55300 0.15940 0.61040 -0.07800
N 	N 	0.29549 0.33870 0.21767 -0.27100
N 	N 	0.01974 0.11049 0.91895 -0.27100
N 	N 	0.09414 0.16565 0.00201 -0.28500
N 	N 	0.21604 0.26975 0.14331 -0.28400
N 	N 	0.17560 0.16500 0.08280 -0.16700
N 	N 	0.15940 0.11040 0.05300 -0.07800
N 	N 	0.20451 0.42218 0.04321 -0.27200
N 	N 	0.48026 0.39921 0.09075 -0.27100
N 	N 	0.40586 0.40787 0.07151 -0.28400
N 	N 	0.28396 0.42727 0.05371 -0.28400
N 	N 	0.32440 0.40720 0.98940 -0.16700
N 	N 	0.34060 0.39360 0.95100 -0.07800
N 	N 	0.87897 0.16130 0.45679 -0.27100
N 	N 	0.80846 0.38951 0.40925 -0.27100
N 	N 	0.83636 0.33435 0.42849 -0.28400
N 	N 	0.87356 0.23025 0.44629 -0.28400
N 	N 	0.91780 0.33500 0.51060 -0.16700
N 	N 	0.94260 0.38960 0.54900 -0.07800
N 	N 	0.62103 0.07782 0.28233 -0.27100
N 	N 	0.69154 0.10079 0.58105 -0.27100
N 	N 	0.66364 0.09213 0.49799 -0.28400
N 	N 	0.62644 0.07273 0.35669 -0.28400
N 	N 	0.58220 0.09280 0.41720 -0.16700
N 	N 	0.55740 0.10640 0.44700 -0.07800
N 	N 	0.04321 0.92218 0.20451 -0.27300
N 	N 	0.09075 0.89921 0.48026 -0.27100
N 	N 	0.07151 0.90787 0.40586 -0.28400
N 	N 	0.05371 0.92727 0.28396 -0.28400
N 	N 	0.98940 0.90720 0.32440 -0.16700
N 	N 	0.95100 0.89360 0.34060 -0.07800
N 	N 	0.21767 0.83870 0.29549 -0.27100
N 	N 	0.91895 0.61049 0.01974 -0.27100
N 	N 	0.00201 0.66565 0.09414 -0.28600
N 	N 	0.14331 0.76975 0.21604 -0.28400
N 	N 	0.08280 0.66500 0.17560 -0.16700
N 	N 	0.05300 0.61040 0.15940 -0.07800
N 	N 	0.28233 0.57782 0.62103 -0.27100
N 	N 	0.58105 0.60079 0.69154 -0.27100
N 	N 	0.49799 0.59213 0.66364 -0.28400
N 	N 	0.35669 0.57273 0.62644 -0.28400
N 	N 	0.41720 0.59280 0.58220 -0.16700
N 	N 	0.44700 0.60640 0.55740 -0.07800
N 	N 	0.45679 0.66130 0.87897 -0.27100
N 	N 	0.40925 0.88951 0.80846 -0.27100
N 	N 	0.42849 0.83435 0.83636 -0.28400
N 	N 	0.44629 0.73025 0.87356 -0.28400
N 	N 	0.51060 0.83500 0.91780 -0.16700
N 	N 	0.54900 0.88960 0.94260 -0.07800
N 	N 	0.12103 0.28233 0.07782 -0.27100
N 	N 	0.19154 0.58105 0.10079 -0.27100
N 	N 	0.16364 0.49799 0.09213 -0.28400
N 	N 	0.12644 0.35669 0.07273 -0.28400
N 	N 	0.08220 0.41720 0.09280 -0.16700
N 	N 	0.05740 0.44700 0.10640 -0.07800
N 	N 	0.37897 0.45679 0.16130 -0.27100
N 	N 	0.30846 0.40925 0.38951 -0.27100
N 	N 	0.33636 0.42849 0.33435 -0.28400
N 	N 	0.37356 0.44629 0.23025 -0.28400
N 	N 	0.41780 0.51060 0.33500 -0.16700
N 	N 	0.44260 0.54900 0.38960 -0.07800
N 	N 	0.70451 0.04321 0.42218 -0.27200
N 	N 	0.98026 0.09075 0.39921 -0.27200
N 	N 	0.90586 0.07151 0.40787 -0.28300
N 	N 	0.78396 0.05371 0.42727 -0.28400
N 	N 	0.82440 0.98940 0.40720 -0.16600
N 	N 	0.84060 0.95100 0.39360 -0.07800
N 	N 	0.79549 0.21767 0.33870 -0.27100
N 	N 	0.51974 0.91895 0.11049 -0.27100
N 	N 	0.59414 0.00201 0.16565 -0.28400
N 	N 	0.71604 0.14331 0.26975 -0.28400
N 	N 	0.67560 0.08280 0.16500 -0.16700
N 	N 	0.65940 0.05300 0.11040 -0.07800
N 	N 	0.83870 0.79549 0.71767 -0.27100
N 	N 	0.61049 0.51974 0.41895 -0.27100
N 	N 	0.66565 0.59414 0.50201 -0.28400
N 	N 	0.76975 0.71604 0.64331 -0.28400
N 	N 	0.66500 0.67560 0.58280 -0.16700
N 	N 	0.61040 0.65940 0.55300 -0.07800
N 	N 	0.92218 0.70451 0.54321 -0.27100
N 	N 	0.89921 0.98026 0.59075 -0.27100
N 	N 	0.90787 0.90586 0.57151 -0.28400
N 	N 	0.92727 0.78396 0.55371 -0.28400
N 	N 	0.90720 0.82440 0.48940 -0.16600
N 	N 	0.89360 0.84060 0.45100 -0.07800
N 	N 	0.66130 0.37897 0.95679 -0.27200
N 	N 	0.88951 0.30846 0.90925 -0.27200
N 	N 	0.83435 0.33636 0.92849 -0.28300
N 	N 	0.73025 0.37356 0.94629 -0.28400
N 	N 	0.83500 0.41780 0.01060 -0.16700
N 	N 	0.88960 0.44260 0.04900 -0.07800
N 	N 	0.57782 0.12103 0.78233 -0.27100
N 	N 	0.60079 0.19154 0.08105 -0.27100
N 	N 	0.59213 0.16364 0.99799 -0.28400
N 	N 	0.57273 0.12644 0.85669 -0.28400
N 	N 	0.59280 0.08220 0.91720 -0.16700
N 	N 	0.60640 0.05740 0.94700 -0.07800
N 	N 	0.57782 0.45679 0.29549 -0.27100
N 	N 	0.60079 0.40925 0.01974 -0.27100
N 	N 	0.59213 0.42849 0.09414 -0.28400
N 	N 	0.57273 0.44629 0.21604 -0.28400
N 	N 	0.59280 0.51060 0.17560 -0.16700
N 	N 	0.60640 0.54900 0.15940 -0.07800
N 	N 	0.66130 0.28233 0.20451 -0.27100
N 	N 	0.88951 0.58105 0.48026 -0.27100
N 	N 	0.83435 0.49799 0.40586 -0.28400
N 	N 	0.73025 0.35669 0.28396 -0.28400
N 	N 	0.83500 0.41720 0.32440 -0.16700
N 	N 	0.88960 0.44700 0.34060 -0.07800
N 	N 	0.92218 0.21767 0.87897 -0.27100
N 	N 	0.89921 0.91895 0.80846 -0.27100
N 	N 	0.90787 0.00201 0.83636 -0.28500
N 	N 	0.92727 0.14331 0.87356 -0.28500
N 	N 	0.90720 0.08280 0.91780 -0.16700
N 	N 	0.89360 0.05300 0.94260 -0.07800
N 	N 	0.83870 0.04321 0.62103 -0.27200
N 	N 	0.61049 0.09075 0.69154 -0.27100
N 	N 	0.66565 0.07151 0.66364 -0.28400
N 	N 	0.76975 0.05371 0.62644 -0.28400
N 	N 	0.66500 0.98940 0.58220 -0.16700
N 	N 	0.61040 0.95100 0.55740 -0.07800
N 	N 	0.21767 0.37897 0.42218 -0.27100
N 	N 	0.91895 0.30846 0.39921 -0.27100
N 	N 	0.00201 0.33636 0.40787 -0.28400
N 	N 	0.14331 0.37356 0.42727 -0.28400
N 	N 	0.08280 0.41780 0.40720 -0.16700
N 	N 	0.05300 0.44260 0.39360 -0.07800
N 	N 	0.04321 0.12103 0.33870 -0.27100
N 	N 	0.09075 0.19154 0.11049 -0.27100
N 	N 	0.07151 0.16364 0.16565 -0.28400
N 	N 	0.05371 0.12644 0.26975 -0.28400
N 	N 	0.98940 0.08220 0.16500 -0.16600
N 	N 	0.95100 0.05740 0.11040 -0.07800
N 	N 	0.45679 0.79549 0.07782 -0.27100
N 	N 	0.40925 0.51974 0.10079 -0.27100
N 	N 	0.42849 0.59414 0.09213 -0.28400
N 	N 	0.44629 0.71604 0.07273 -0.28400
N 	N 	0.51060 0.67560 0.09280 -0.16700
N 	N 	0.54900 0.65940 0.10640 -0.07800
N 	N 	0.28233 0.70451 0.16130 -0.27100
N 	N 	0.58105 0.98026 0.38951 -0.27100
N 	N 	0.49799 0.90586 0.33435 -0.28400
N 	N 	0.35669 0.78396 0.23025 -0.28400
N 	N 	0.41720 0.82440 0.33500 -0.16700
N 	N 	0.44700 0.84060 0.38960 -0.07800
N 	N 	0.70451 0.66130 0.78233 -0.27100
N 	N 	0.98026 0.88951 0.08105 -0.27100
N 	N 	0.90586 0.83435 0.99799 -0.28500
N 	N 	0.78396 0.73025 0.85669 -0.28400
N 	N 	0.82440 0.83500 0.91720 -0.16700
N 	N 	0.84060 0.88960 0.94700 -0.07800
N 	N 	0.79549 0.57782 0.95679 -0.27200
N 	N 	0.51974 0.60079 0.90925 -0.27100
N 	N 	0.59414 0.59213 0.92849 -0.28400
N 	N 	0.71604 0.57273 0.94629 -0.28400
N 	N 	0.67560 0.59280 0.01060 -0.16700
N 	N 	0.65940 0.60640 0.04900 -0.07800
N 	N 	0.12103 0.83870 0.54321 -0.27100
N 	N 	0.19154 0.61049 0.59075 -0.27100
N 	N 	0.16364 0.66565 0.57151 -0.28400
N 	N 	0.12644 0.76975 0.55371 -0.28400
N 	N 	0.08220 0.66500 0.48940 -0.16700
N 	N 	0.05740 0.61040 0.45100 -0.07800
N 	N 	0.37897 0.92218 0.71767 -0.27100
N 	N 	0.30846 0.89921 0.41895 -0.27100
N 	N 	0.33636 0.90787 0.50201 -0.28400
N 	N 	0.37356 0.92727 0.64331 -0.28400
N 	N 	0.41780 0.90720 0.58280 -0.16700
N 	N 	0.44260 0.89360 0.55300 -0.07800
