data_crystal

_cell_length_a 29.69570
_cell_length_b 29.69570
_cell_length_c 29.69570
_cell_angle_alpha 109.47100
_cell_angle_beta  109.47100
_cell_angle_gamma 109.47100

_symmetry_space_group_name_	'P 1'
_symmetry_space_group_name_H-M	'P 1'

loop_
_symmetry_equiv_pos_as_xyz
  x,y,z

loop_
_atom_site_label
_atom_site_type_symbol
_atom_site_fract_x
_atom_site_fract_y
_atom_site_fract_z
_atom_site_charge
Cu	Cu	0.27854 0.92307 0.35249 0.87300
Cu	Cu	0.07058 0.92605 0.14751 0.87300
Cu	Cu	0.42942 0.57693 0.85547 0.87400
Cu	Cu	0.22146 0.57395 0.64453 0.87400
Cu	Cu	0.35547 0.42942 0.07693 0.87300
Cu	Cu	0.14453 0.22146 0.07395 0.87300
Cu	Cu	0.85249 0.27854 0.42307 0.87400
Cu	Cu	0.64751 0.07058 0.42605 0.87400
Cu	Cu	0.92605 0.64751 0.57058 0.87400
Cu	Cu	0.92307 0.85249 0.77854 0.87400
Cu	Cu	0.57395 0.14453 0.72146 0.87400
Cu	Cu	0.57693 0.35547 0.92942 0.87300
Cu	Cu	0.57693 0.22146 0.14751 0.87400
Cu	Cu	0.57395 0.42942 0.35249 0.87400
Cu	Cu	0.92307 0.07058 0.64453 0.87300
Cu	Cu	0.92605 0.27854 0.85547 0.87300
Cu	Cu	0.07058 0.14453 0.42307 0.87400
Cu	Cu	0.27854 0.35547 0.42605 0.87400
Cu	Cu	0.22146 0.64751 0.07693 0.87300
Cu	Cu	0.42942 0.85249 0.07395 0.87300
Cu	Cu	0.85249 0.57395 0.92942 0.87300
Cu	Cu	0.64751 0.57693 0.72146 0.87400
Cu	Cu	0.35547 0.92605 0.77854 0.87400
Cu	Cu	0.14453 0.92307 0.57058 0.87300
Cu	Cu	0.72146 0.07693 0.64751 0.87300
Cu	Cu	0.92942 0.07395 0.85249 0.87300
Cu	Cu	0.57058 0.42307 0.14453 0.87400
Cu	Cu	0.77854 0.42605 0.35547 0.87400
Cu	Cu	0.64453 0.57058 0.92307 0.87300
Cu	Cu	0.85547 0.77854 0.92605 0.87300
Cu	Cu	0.14751 0.72146 0.57693 0.87400
Cu	Cu	0.35249 0.92942 0.57395 0.87400
Cu	Cu	0.07395 0.35249 0.42942 0.87400
Cu	Cu	0.07693 0.14751 0.22146 0.87400
Cu	Cu	0.42605 0.85547 0.27854 0.87400
Cu	Cu	0.42307 0.64453 0.07058 0.87300
Cu	Cu	0.42307 0.77854 0.85249 0.87400
Cu	Cu	0.42605 0.57058 0.64751 0.87400
Cu	Cu	0.07693 0.92942 0.35547 0.87300
Cu	Cu	0.07395 0.72146 0.14453 0.87300
Cu	Cu	0.92942 0.85547 0.57693 0.87400
Cu	Cu	0.72146 0.64453 0.57395 0.87400
Cu	Cu	0.77854 0.35249 0.92307 0.87300
Cu	Cu	0.57058 0.14751 0.92605 0.87300
Cu	Cu	0.14751 0.42605 0.07058 0.87300
Cu	Cu	0.35249 0.42307 0.27854 0.87400
Cu	Cu	0.64453 0.07395 0.22146 0.87500
Cu	Cu	0.85547 0.07693 0.42942 0.87400
H 	H 	0.31350 0.85490 0.27320 -0.01800
H 	H 	0.45980 0.98460 0.36680 0.03900
H 	H 	0.14730 0.87670 0.32080 -0.03100
H 	H 	0.20170 0.02310 0.43920 0.03200
H 	H 	0.44510 0.05110 0.42960 0.06000
H 	H 	0.30350 0.06410 0.48140 0.05900
H 	H 	0.08170 0.04030 0.22680 -0.01800
H 	H 	0.11780 0.09300 0.13320 0.04000
H 	H 	0.05590 0.82650 0.17920 -0.03100
H 	H 	0.08390 0.76250 0.06080 0.03100
H 	H 	0.12150 0.01550 0.07040 0.06200
H 	H 	0.08270 0.82210 0.01860 0.05900
H 	H 	0.41830 0.64510 0.95860 -0.01800
H 	H 	0.38220 0.51540 0.97520 0.04000
H 	H 	0.44410 0.62330 0.77060 -0.03100
H 	H 	0.41610 0.47690 0.67860 0.03100
H 	H 	0.37850 0.44890 0.89400 0.06000
H 	H 	0.41730 0.43590 0.73940 0.05900
H 	H 	0.18650 0.45970 0.54140 -0.01800
H 	H 	0.04020 0.40700 0.52480 0.04000
H 	H 	0.35270 0.67350 0.72940 -0.03100
H 	H 	0.29830 0.73750 0.82140 0.03100
H 	H 	0.05490 0.48450 0.60600 0.06000
H 	H 	0.19650 0.67790 0.76060 0.05900
H 	H 	0.45860 0.41830 0.14510 -0.01800
H 	H 	0.47520 0.38220 0.01540 0.03900
H 	H 	0.27060 0.44410 0.12330 -0.03100
H 	H 	0.17860 0.41610 0.97690 0.03200
H 	H 	0.39400 0.37850 0.94890 0.06000
H 	H 	0.23940 0.41730 0.93590 0.05900
H 	H 	0.04140 0.18650 0.95970 -0.01800
H 	H 	0.02480 0.04020 0.90700 0.04000
H 	H 	0.22940 0.35270 0.17350 -0.03100
H 	H 	0.32140 0.29830 0.23750 0.03100
H 	H 	0.10600 0.05490 0.98450 0.06200
H 	H 	0.26060 0.19650 0.17790 0.05900
H 	H 	0.77320 0.31350 0.35490 -0.01800
H 	H 	0.86680 0.45980 0.48460 0.04000
H 	H 	0.82080 0.14730 0.37670 -0.03100
H 	H 	0.93920 0.20170 0.52310 0.03100
H 	H 	0.92960 0.44510 0.55110 0.06000
H 	H 	0.98140 0.30350 0.56410 0.05900
H 	H 	0.72680 0.08170 0.54030 -0.01800
H 	H 	0.63320 0.11780 0.59300 0.04000
H 	H 	0.67920 0.05590 0.32650 -0.03100
H 	H 	0.56080 0.08390 0.26250 0.03100
H 	H 	0.57040 0.12150 0.51550 0.06000
H 	H 	0.51860 0.08270 0.32210 0.05900
H 	H 	0.04030 0.72680 0.58170 -0.01800
H 	H 	0.09300 0.63320 0.61780 0.04000
H 	H 	0.82650 0.67920 0.55590 -0.03100
H 	H 	0.76250 0.56080 0.58390 0.03100
H 	H 	0.01550 0.57040 0.62150 0.06000
H 	H 	0.82210 0.51860 0.58270 0.05900
H 	H 	0.85490 0.77320 0.81350 -0.01800
H 	H 	0.98460 0.86680 0.95980 0.03900
H 	H 	0.87670 0.82080 0.64730 -0.03100
H 	H 	0.02310 0.93920 0.70170 0.03000
H 	H 	0.05110 0.92960 0.94510 0.06000
H 	H 	0.06410 0.98140 0.80350 0.05900
H 	H 	0.45970 0.04140 0.68650 -0.01800
H 	H 	0.40700 0.02480 0.54020 0.04000
H 	H 	0.67350 0.22940 0.85270 -0.03100
H 	H 	0.73750 0.32140 0.79830 0.03100
H 	H 	0.48450 0.10600 0.55490 0.06000
H 	H 	0.67790 0.26060 0.69650 0.05900
H 	H 	0.64510 0.45860 0.91830 -0.01800
H 	H 	0.51540 0.47520 0.88220 0.04000
H 	H 	0.62330 0.27060 0.94410 -0.03100
H 	H 	0.47690 0.17860 0.91610 0.03100
H 	H 	0.44890 0.39400 0.87850 0.06000
H 	H 	0.43590 0.23940 0.91730 0.05900
H 	H 	0.64510 0.18650 0.22680 -0.01800
H 	H 	0.51540 0.04020 0.13320 0.04000
H 	H 	0.62330 0.35270 0.17920 -0.03100
H 	H 	0.47690 0.29830 0.06080 0.03100
H 	H 	0.44890 0.05490 0.07040 0.06000
H 	H 	0.43590 0.19650 0.01860 0.05900
H 	H 	0.45970 0.41830 0.27320 -0.01800
H 	H 	0.40700 0.38220 0.36680 0.04000
H 	H 	0.67350 0.44410 0.32080 -0.03100
H 	H 	0.73750 0.41610 0.43920 0.03100
H 	H 	0.48450 0.37850 0.42960 0.06000
H 	H 	0.67790 0.41730 0.48140 0.05900
H 	H 	0.85490 0.08170 0.54140 -0.01800
H 	H 	0.98460 0.11780 0.52480 0.03900
H 	H 	0.87670 0.05590 0.72940 -0.03100
H 	H 	0.02310 0.08390 0.82140 0.03400
H 	H 	0.05110 0.12150 0.60600 0.05900
H 	H 	0.06410 0.08270 0.76060 0.05900
H 	H 	0.04030 0.31350 0.95860 -0.01800
H 	H 	0.09300 0.45980 0.97520 0.04000
H 	H 	0.82650 0.14730 0.77060 -0.03100
H 	H 	0.76250 0.20170 0.67860 0.03100
H 	H 	0.01550 0.44510 0.89400 0.06300
H 	H 	0.82210 0.30350 0.73940 0.05900
H 	H 	0.08170 0.04140 0.35490 -0.01800
H 	H 	0.11780 0.02480 0.48460 0.04000
H 	H 	0.05590 0.22940 0.37670 -0.03100
H 	H 	0.08390 0.32140 0.52310 0.03100
H 	H 	0.12150 0.10600 0.55110 0.06000
H 	H 	0.08270 0.26060 0.56410 0.05900
H 	H 	0.31350 0.45860 0.54030 -0.01800
H 	H 	0.45980 0.47520 0.59300 0.04000
H 	H 	0.14730 0.27060 0.32650 -0.03100
H 	H 	0.20170 0.17860 0.26250 0.03100
H 	H 	0.44510 0.39400 0.51550 0.06000
H 	H 	0.30350 0.23940 0.32210 0.05900
H 	H 	0.18650 0.72680 0.14510 -0.01800
H 	H 	0.04020 0.63320 0.01540 0.03800
H 	H 	0.35270 0.67920 0.12330 -0.03100
H 	H 	0.29830 0.56080 0.97690 0.03200
H 	H 	0.05490 0.57040 0.94890 0.06000
H 	H 	0.19650 0.51860 0.93590 0.05900
H 	H 	0.41830 0.77320 0.95970 -0.01800
H 	H 	0.38220 0.86680 0.90700 0.04000
H 	H 	0.44410 0.82080 0.17350 -0.03100
H 	H 	0.41610 0.93920 0.23750 0.03100
H 	H 	0.37850 0.92960 0.98450 0.06100
H 	H 	0.41730 0.98140 0.17790 0.05900
H 	H 	0.77320 0.45970 0.91830 -0.01800
H 	H 	0.86680 0.40700 0.88220 0.03900
H 	H 	0.82080 0.67350 0.94410 -0.03100
H 	H 	0.93920 0.73750 0.91610 0.03100
H 	H 	0.92960 0.48450 0.87850 0.06000
H 	H 	0.98140 0.67790 0.91730 0.05900
H 	H 	0.72680 0.64510 0.68650 -0.01800
H 	H 	0.63320 0.51540 0.54020 0.04000
H 	H 	0.67920 0.62330 0.85270 -0.03100
H 	H 	0.56080 0.47690 0.79830 0.03100
H 	H 	0.57040 0.44890 0.55490 0.06000
H 	H 	0.51860 0.43590 0.69650 0.05900
H 	H 	0.45860 0.04030 0.81350 -0.01800
H 	H 	0.47520 0.09300 0.95980 0.03900
H 	H 	0.27060 0.82650 0.64730 -0.03100
H 	H 	0.17860 0.76250 0.70170 0.03100
H 	H 	0.39400 0.01550 0.94510 0.06000
H 	H 	0.23940 0.82210 0.80350 0.05900
H 	H 	0.04140 0.85490 0.58170 -0.01800
H 	H 	0.02480 0.98460 0.61780 0.03900
H 	H 	0.22940 0.87670 0.55590 -0.03100
H 	H 	0.32140 0.02310 0.58390 0.03100
H 	H 	0.10600 0.05110 0.62150 0.06000
H 	H 	0.26060 0.06410 0.58270 0.05900
H 	H 	0.68650 0.14510 0.72680 -0.01800
H 	H 	0.54020 0.01540 0.63320 0.03900
H 	H 	0.85270 0.12330 0.67920 -0.03100
H 	H 	0.79830 0.97690 0.56080 0.03200
H 	H 	0.55490 0.94890 0.57040 0.06000
H 	H 	0.69650 0.93590 0.51860 0.05900
H 	H 	0.91830 0.95970 0.77320 -0.01800
H 	H 	0.88220 0.90700 0.86680 0.04000
H 	H 	0.94410 0.17350 0.82080 -0.03100
H 	H 	0.91610 0.23750 0.93920 0.03100
H 	H 	0.87850 0.98450 0.92960 0.06200
H 	H 	0.91730 0.17790 0.98140 0.05900
H 	H 	0.58170 0.35490 0.04140 -0.01800
H 	H 	0.61780 0.48460 0.02480 0.04000
H 	H 	0.55590 0.37670 0.22940 -0.03100
H 	H 	0.58390 0.52310 0.32140 0.03100
H 	H 	0.62150 0.55110 0.10600 0.06000
H 	H 	0.58270 0.56410 0.26060 0.05900
H 	H 	0.81350 0.54030 0.45860 -0.01800
H 	H 	0.95980 0.59300 0.47520 0.04000
H 	H 	0.64730 0.32650 0.27060 -0.03100
H 	H 	0.70170 0.26250 0.17860 0.03100
H 	H 	0.94510 0.51550 0.39400 0.06000
H 	H 	0.80350 0.32210 0.23940 0.05900
H 	H 	0.54140 0.58170 0.85490 -0.01800
H 	H 	0.52480 0.61780 0.98460 0.03900
H 	H 	0.72940 0.55590 0.87670 -0.03100
H 	H 	0.82140 0.58390 0.02310 0.03200
H 	H 	0.60600 0.62150 0.05110 0.06000
H 	H 	0.76060 0.58270 0.06410 0.05900
H 	H 	0.95860 0.81350 0.04030 -0.01800
H 	H 	0.97520 0.95980 0.09300 0.04000
H 	H 	0.77060 0.64730 0.82650 -0.03100
H 	H 	0.67860 0.70170 0.76250 0.03100
H 	H 	0.89400 0.94510 0.01550 0.06200
H 	H 	0.73940 0.80350 0.82210 0.05900
H 	H 	0.22680 0.68650 0.64510 -0.01800
H 	H 	0.13320 0.54020 0.51540 0.04000
H 	H 	0.17920 0.85270 0.62330 -0.03100
H 	H 	0.06080 0.79830 0.47690 0.03100
H 	H 	0.07040 0.55490 0.44890 0.06000
H 	H 	0.01860 0.69650 0.43590 0.05900
H 	H 	0.27320 0.91830 0.45970 -0.01800
H 	H 	0.36680 0.88220 0.40700 0.04000
H 	H 	0.32080 0.94410 0.67350 -0.03100
H 	H 	0.43920 0.91610 0.73750 0.03100
H 	H 	0.42960 0.87850 0.48450 0.06000
H 	H 	0.48140 0.91730 0.67790 0.05900
H 	H 	0.95970 0.27320 0.41830 -0.01800
H 	H 	0.90700 0.36680 0.38220 0.04000
H 	H 	0.17350 0.32080 0.44410 -0.03100
H 	H 	0.23750 0.43920 0.41610 0.03100
H 	H 	0.98450 0.42960 0.37850 0.06000
H 	H 	0.17790 0.48140 0.41730 0.05900
H 	H 	0.14510 0.22680 0.18650 -0.01800
H 	H 	0.01540 0.13320 0.04020 0.03900
H 	H 	0.12330 0.17920 0.35270 -0.03100
H 	H 	0.97690 0.06080 0.29830 0.03000
H 	H 	0.94890 0.07040 0.05490 0.06000
H 	H 	0.93590 0.01860 0.19650 0.05900
H 	H 	0.54030 0.95860 0.31350 -0.01800
H 	H 	0.59300 0.97520 0.45980 0.04000
H 	H 	0.32650 0.77060 0.14730 -0.03100
H 	H 	0.26250 0.67860 0.20170 0.03100
H 	H 	0.51550 0.89400 0.44510 0.06000
H 	H 	0.32210 0.73940 0.30350 0.05900
H 	H 	0.35490 0.54140 0.08170 -0.01800
H 	H 	0.48460 0.52480 0.11780 0.04000
H 	H 	0.37670 0.72940 0.05590 -0.03100
H 	H 	0.52310 0.82140 0.08390 0.03100
H 	H 	0.55110 0.60600 0.12150 0.06000
H 	H 	0.56410 0.76060 0.08270 0.05900
H 	H 	0.35490 0.81350 0.77320 -0.01800
H 	H 	0.48460 0.95980 0.86680 0.04000
H 	H 	0.37670 0.64730 0.82080 -0.03100
H 	H 	0.52310 0.70170 0.93920 0.03100
H 	H 	0.55110 0.94510 0.92960 0.06000
H 	H 	0.56410 0.80350 0.98140 0.05900
H 	H 	0.54030 0.58170 0.72680 -0.01800
H 	H 	0.59300 0.61780 0.63320 0.04000
H 	H 	0.32650 0.55590 0.67920 -0.03100
H 	H 	0.26250 0.58390 0.56080 0.03100
H 	H 	0.51550 0.62150 0.57040 0.06000
H 	H 	0.32210 0.58270 0.51860 0.05900
H 	H 	0.14510 0.91830 0.45860 -0.01800
H 	H 	0.01540 0.88220 0.47520 0.03900
H 	H 	0.12330 0.94410 0.27060 -0.03100
H 	H 	0.97690 0.91610 0.17860 0.03400
H 	H 	0.94890 0.87850 0.39400 0.05900
H 	H 	0.93590 0.91730 0.23940 0.05900
H 	H 	0.95970 0.68650 0.04140 -0.01800
H 	H 	0.90700 0.54020 0.02480 0.04000
H 	H 	0.17350 0.85270 0.22940 -0.03100
H 	H 	0.23750 0.79830 0.32140 0.03100
H 	H 	0.98450 0.55490 0.10600 0.06300
H 	H 	0.17790 0.69650 0.26060 0.05900
H 	H 	0.91830 0.95860 0.64510 -0.01800
H 	H 	0.88220 0.97520 0.51540 0.04000
H 	H 	0.94410 0.77060 0.62330 -0.03100
H 	H 	0.91610 0.67860 0.47690 0.03100
H 	H 	0.87850 0.89400 0.44890 0.06000
H 	H 	0.91730 0.73940 0.43590 0.05900
H 	H 	0.68650 0.54140 0.45970 -0.01800
H 	H 	0.54020 0.52480 0.40700 0.04000
H 	H 	0.85270 0.72940 0.67350 -0.03100
H 	H 	0.79830 0.82140 0.73750 0.03100
H 	H 	0.55490 0.60600 0.48450 0.06000
H 	H 	0.69650 0.76060 0.67790 0.05900
H 	H 	0.81350 0.27320 0.85490 -0.01800
H 	H 	0.95980 0.36680 0.98460 0.03800
H 	H 	0.64730 0.32080 0.87670 -0.03100
H 	H 	0.70170 0.43920 0.02310 0.03200
H 	H 	0.94510 0.42960 0.05110 0.06000
H 	H 	0.80350 0.48140 0.06410 0.05900
H 	H 	0.58170 0.22680 0.04030 -0.01800
H 	H 	0.61780 0.13320 0.09300 0.04000
H 	H 	0.55590 0.17920 0.82650 -0.03100
H 	H 	0.58390 0.06080 0.76250 0.03100
H 	H 	0.62150 0.07040 0.01550 0.06100
H 	H 	0.58270 0.01860 0.82210 0.05900
H 	H 	0.22680 0.54030 0.08170 -0.01800
H 	H 	0.13320 0.59300 0.11780 0.03900
H 	H 	0.17920 0.32650 0.05590 -0.03100
H 	H 	0.06080 0.26250 0.08390 0.03100
H 	H 	0.07040 0.51550 0.12150 0.06000
H 	H 	0.01860 0.32210 0.08270 0.05900
H 	H 	0.27320 0.35490 0.31350 -0.01800
H 	H 	0.36680 0.48460 0.45980 0.04000
H 	H 	0.32080 0.37670 0.14730 -0.03100
H 	H 	0.43920 0.52310 0.20170 0.03100
H 	H 	0.42960 0.55110 0.44510 0.06000
H 	H 	0.48140 0.56410 0.30350 0.05900
H 	H 	0.54140 0.95970 0.18650 -0.01800
H 	H 	0.52480 0.90700 0.04020 0.03900
H 	H 	0.72940 0.17350 0.35270 -0.03100
H 	H 	0.82140 0.23750 0.29830 0.03100
H 	H 	0.60600 0.98450 0.05490 0.06000
H 	H 	0.76060 0.17790 0.19650 0.05900
H 	H 	0.95860 0.14510 0.41830 -0.01800
H 	H 	0.97520 0.01540 0.38220 0.03900
H 	H 	0.77060 0.12330 0.44410 -0.03100
H 	H 	0.67860 0.97690 0.41610 0.03100
H 	H 	0.89400 0.94890 0.37850 0.06000
H 	H 	0.73940 0.93590 0.41730 0.05900
C 	C 	0.34237 0.89036 0.30013 0.09700
C 	C 	0.24402 0.99051 0.40985 0.06000
C 	C 	0.42231 0.96065 0.35092 -0.02700
C 	C 	0.38790 0.97317 0.36673 0.05500
C 	C 	0.17092 0.91305 0.34919 0.09700
C 	C 	0.19984 0.99289 0.41393 -0.03200
C 	C 	0.40800 0.02627 0.41367 -0.05200
C 	C 	0.30040 0.03760 0.45100 -0.07800
C 	C 	0.09023 0.04224 0.19987 0.09700
C 	C 	0.08066 0.83417 0.09015 0.06000
C 	C 	0.10973 0.07139 0.14908 -0.02800
C 	C 	0.10644 0.02117 0.13327 0.05800
C 	C 	0.06386 0.82173 0.15081 0.09700
C 	C 	0.07896 0.78591 0.08607 -0.03100
C 	C 	0.11260 0.99433 0.08633 -0.05700
C 	C 	0.08660 0.84940 0.04900 -0.07900
C 	C 	0.40977 0.60964 0.95201 0.09700
C 	C 	0.41934 0.50949 0.75351 0.06100
C 	C 	0.39027 0.53935 0.96166 -0.02700
C 	C 	0.39356 0.52683 0.91473 0.05500
C 	C 	0.43614 0.58695 0.75787 0.09700
C 	C 	0.42104 0.50711 0.70695 -0.03000
C 	C 	0.38740 0.47373 0.88173 -0.05300
C 	C 	0.41340 0.46240 0.76280 -0.07900
C 	C 	0.15763 0.45776 0.54799 0.09700
C 	C 	0.25598 0.66583 0.74649 0.06100
C 	C 	0.07769 0.42861 0.53834 -0.02700
C 	C 	0.11210 0.47883 0.58527 0.05500
C 	C 	0.32908 0.67827 0.74213 0.09700
C 	C 	0.30016 0.71409 0.79305 -0.03000
C 	C 	0.09200 0.50567 0.61827 -0.05300
C 	C 	0.19960 0.65060 0.73720 -0.07900
C 	C 	0.45201 0.40977 0.10964 0.09700
C 	C 	0.25351 0.41934 0.00949 0.06000
C 	C 	0.46166 0.39027 0.03935 -0.02700
C 	C 	0.41473 0.39356 0.02683 0.05500
C 	C 	0.25787 0.43614 0.08695 0.09700
C 	C 	0.20695 0.42104 0.00711 -0.03300
C 	C 	0.38173 0.38740 0.97373 -0.05200
C 	C 	0.26280 0.41340 0.96240 -0.07800
C 	C 	0.04799 0.15763 0.95776 0.09800
C 	C 	0.24649 0.25598 0.16583 0.06100
C 	C 	0.03834 0.07769 0.92861 -0.02800
C 	C 	0.08527 0.11210 0.97883 0.05800
C 	C 	0.24213 0.32908 0.17827 0.09700
C 	C 	0.29305 0.30016 0.21409 -0.03000
C 	C 	0.11827 0.09200 0.00567 -0.05700
C 	C 	0.23720 0.19960 0.15060 -0.07900
C 	C 	0.80013 0.34237 0.39036 0.09700
C 	C 	0.90985 0.24402 0.49051 0.06000
C 	C 	0.85092 0.42231 0.46065 -0.02700
C 	C 	0.86673 0.38790 0.47317 0.05500
C 	C 	0.84919 0.17092 0.41305 0.09700
C 	C 	0.91393 0.19984 0.49289 -0.03000
C 	C 	0.91367 0.40800 0.52627 -0.05300
C 	C 	0.95100 0.30040 0.53760 -0.07900
C 	C 	0.69987 0.09023 0.54224 0.09700
C 	C 	0.59015 0.08066 0.33417 0.06100
C 	C 	0.64908 0.10973 0.57139 -0.02700
C 	C 	0.63327 0.10644 0.52117 0.05500
C 	C 	0.65081 0.06386 0.32173 0.09700
C 	C 	0.58607 0.07896 0.28591 -0.03000
C 	C 	0.58633 0.11260 0.49433 -0.05300
C 	C 	0.54900 0.08660 0.34940 -0.07900
C 	C 	0.04224 0.69987 0.59023 0.09700
C 	C 	0.83417 0.59015 0.58066 0.06100
C 	C 	0.07139 0.64908 0.60973 -0.02700
C 	C 	0.02117 0.63327 0.60644 0.05600
C 	C 	0.82173 0.65081 0.56386 0.09700
C 	C 	0.78591 0.58607 0.57896 -0.03000
C 	C 	0.99433 0.58633 0.61260 -0.05300
C 	C 	0.84940 0.54900 0.58660 -0.07900
C 	C 	0.89036 0.80013 0.84237 0.09700
C 	C 	0.99051 0.90985 0.74402 0.06000
C 	C 	0.96065 0.85092 0.92231 -0.02700
C 	C 	0.97317 0.86673 0.88790 0.05500
C 	C 	0.91305 0.84919 0.67092 0.09700
C 	C 	0.99289 0.91393 0.69984 -0.03000
C 	C 	0.02627 0.91367 0.90800 -0.05200
C 	C 	0.03760 0.95100 0.80040 -0.07900
C 	C 	0.45776 0.04799 0.65763 0.09700
C 	C 	0.66583 0.24649 0.75598 0.06100
C 	C 	0.42861 0.03834 0.57769 -0.02700
C 	C 	0.47883 0.08527 0.61210 0.05500
C 	C 	0.67827 0.24213 0.82908 0.09700
C 	C 	0.71409 0.29305 0.80016 -0.03000
C 	C 	0.50567 0.11827 0.59200 -0.05300
C 	C 	0.65060 0.23720 0.69960 -0.07900
C 	C 	0.60964 0.45201 0.90977 0.09700
C 	C 	0.50949 0.25351 0.91934 0.06000
C 	C 	0.53935 0.46166 0.89027 -0.02700
C 	C 	0.52683 0.41473 0.89356 0.05500
C 	C 	0.58695 0.25787 0.93614 0.09700
C 	C 	0.50711 0.20695 0.92104 -0.03000
C 	C 	0.47373 0.38173 0.88740 -0.05300
C 	C 	0.46240 0.26280 0.91340 -0.07900
C 	C 	0.60964 0.15763 0.19987 0.09700
C 	C 	0.50949 0.25598 0.09015 0.06000
C 	C 	0.53935 0.07769 0.14908 -0.02700
C 	C 	0.52683 0.11210 0.13327 0.05500
C 	C 	0.58695 0.32908 0.15081 0.09700
C 	C 	0.50711 0.30016 0.08607 -0.03000
C 	C 	0.47373 0.09200 0.08633 -0.05300
C 	C 	0.46240 0.19960 0.04900 -0.07900
C 	C 	0.45776 0.40977 0.30013 0.09700
C 	C 	0.66583 0.41934 0.40985 0.06100
C 	C 	0.42861 0.39027 0.35092 -0.02700
C 	C 	0.47883 0.39356 0.36673 0.05500
C 	C 	0.67827 0.43614 0.34919 0.09700
C 	C 	0.71409 0.42104 0.41393 -0.03000
C 	C 	0.50567 0.38740 0.41367 -0.05300
C 	C 	0.65060 0.41340 0.45100 -0.07900
C 	C 	0.89036 0.09023 0.54799 0.09700
C 	C 	0.99051 0.08066 0.74649 0.06000
C 	C 	0.96065 0.10973 0.53834 -0.02600
C 	C 	0.97317 0.10644 0.58527 0.05300
C 	C 	0.91305 0.06386 0.74213 0.09700
C 	C 	0.99289 0.07896 0.79305 -0.03500
C 	C 	0.02627 0.11260 0.61827 -0.05100
C 	C 	0.03760 0.08660 0.73720 -0.07700
C 	C 	0.04224 0.34237 0.95201 0.09800
C 	C 	0.83417 0.24402 0.75351 0.06000
C 	C 	0.07139 0.42231 0.96166 -0.02800
C 	C 	0.02117 0.38790 0.91473 0.05900
C 	C 	0.82173 0.17092 0.75787 0.09700
C 	C 	0.78591 0.19984 0.70695 -0.03000
C 	C 	0.99433 0.40800 0.88173 -0.05900
C 	C 	0.84940 0.30040 0.76280 -0.07900
C 	C 	0.09023 0.04799 0.39036 0.09800
C 	C 	0.08066 0.24649 0.49051 0.06100
C 	C 	0.10973 0.03834 0.46065 -0.02700
C 	C 	0.10644 0.08527 0.47317 0.05500
C 	C 	0.06386 0.24213 0.41305 0.09700
C 	C 	0.07896 0.29305 0.49289 -0.03000
C 	C 	0.11260 0.11827 0.52627 -0.05300
C 	C 	0.08660 0.23720 0.53760 -0.07900
C 	C 	0.34237 0.45201 0.54224 0.09700
C 	C 	0.24402 0.25351 0.33417 0.06100
C 	C 	0.42231 0.46166 0.57139 -0.02700
C 	C 	0.38790 0.41473 0.52117 0.05500
C 	C 	0.17092 0.25787 0.32173 0.09700
C 	C 	0.19984 0.20695 0.28591 -0.03000
C 	C 	0.40800 0.38173 0.49433 -0.05300
C 	C 	0.30040 0.26280 0.34940 -0.07900
C 	C 	0.15763 0.69987 0.10964 0.09700
C 	C 	0.25598 0.59015 0.00949 0.06000
C 	C 	0.07769 0.64908 0.03935 -0.02600
C 	C 	0.11210 0.63327 0.02683 0.05300
C 	C 	0.32908 0.65081 0.08695 0.09700
C 	C 	0.30016 0.58607 0.00711 -0.03200
C 	C 	0.09200 0.58633 0.97373 -0.05000
C 	C 	0.19960 0.54900 0.96240 -0.07800
C 	C 	0.40977 0.80013 0.95776 0.09700
C 	C 	0.41934 0.90985 0.16583 0.06000
C 	C 	0.39027 0.85092 0.92861 -0.02700
C 	C 	0.39356 0.86673 0.97883 0.05700
C 	C 	0.43614 0.84919 0.17827 0.09700
C 	C 	0.42104 0.91393 0.21409 -0.03000
C 	C 	0.38740 0.91367 0.00567 -0.05500
C 	C 	0.41340 0.95100 0.15060 -0.07900
C 	C 	0.80013 0.45776 0.90977 0.09700
C 	C 	0.90985 0.66583 0.91934 0.06000
C 	C 	0.85092 0.42861 0.89027 -0.02700
C 	C 	0.86673 0.47883 0.89356 0.05500
C 	C 	0.84919 0.67827 0.93614 0.09700
C 	C 	0.91393 0.71409 0.92104 -0.03000
C 	C 	0.91367 0.50567 0.88740 -0.05300
C 	C 	0.95100 0.65060 0.91340 -0.07900
C 	C 	0.69987 0.60964 0.65763 0.09700
C 	C 	0.59015 0.50949 0.75598 0.06100
C 	C 	0.64908 0.53935 0.57769 -0.02700
C 	C 	0.63327 0.52683 0.61210 0.05500
C 	C 	0.65081 0.58695 0.82908 0.09700
C 	C 	0.58607 0.50711 0.80016 -0.03000
C 	C 	0.58633 0.47373 0.59200 -0.05300
C 	C 	0.54900 0.46240 0.69960 -0.07900
C 	C 	0.45201 0.04224 0.84237 0.09700
C 	C 	0.25351 0.83417 0.74402 0.06100
C 	C 	0.46166 0.07139 0.92231 -0.02700
C 	C 	0.41473 0.02117 0.88790 0.05600
C 	C 	0.25787 0.82173 0.67092 0.09700
C 	C 	0.20695 0.78591 0.69984 -0.03000
C 	C 	0.38173 0.99433 0.90800 -0.05300
C 	C 	0.26280 0.84940 0.80040 -0.07900
C 	C 	0.04799 0.89036 0.59023 0.09700
C 	C 	0.24649 0.99051 0.58066 0.06000
C 	C 	0.03834 0.96065 0.60973 -0.02600
C 	C 	0.08527 0.97317 0.60644 0.05400
C 	C 	0.24213 0.91305 0.56386 0.09700
C 	C 	0.29305 0.99289 0.57896 -0.03100
C 	C 	0.11827 0.02627 0.61260 -0.05100
C 	C 	0.23720 0.03760 0.58660 -0.07800
C 	C 	0.65763 0.10964 0.69987 0.09700
C 	C 	0.75598 0.00949 0.59015 0.06000
C 	C 	0.57769 0.03935 0.64908 -0.02700
C 	C 	0.61210 0.02683 0.63327 0.05500
C 	C 	0.82908 0.08695 0.65081 0.09700
C 	C 	0.80016 0.00711 0.58607 -0.03200
C 	C 	0.59200 0.97373 0.58633 -0.05200
C 	C 	0.69960 0.96240 0.54900 -0.07800
C 	C 	0.90977 0.95776 0.80013 0.09700
C 	C 	0.91934 0.16583 0.90985 0.06000
C 	C 	0.89027 0.92861 0.85092 -0.02800
C 	C 	0.89356 0.97883 0.86673 0.05800
C 	C 	0.93614 0.17827 0.84919 0.09700
C 	C 	0.92104 0.21409 0.91393 -0.03100
C 	C 	0.88740 0.00567 0.91367 -0.05700
C 	C 	0.91340 0.15060 0.95100 -0.07900
C 	C 	0.59023 0.39036 0.04799 0.09700
C 	C 	0.58066 0.49051 0.24649 0.06100
C 	C 	0.60973 0.46065 0.03834 -0.02700
C 	C 	0.60644 0.47317 0.08527 0.05500
C 	C 	0.56386 0.41305 0.24213 0.09700
C 	C 	0.57896 0.49289 0.29305 -0.03000
C 	C 	0.61260 0.52627 0.11827 -0.05300
C 	C 	0.58660 0.53760 0.23720 -0.07900
C 	C 	0.84237 0.54224 0.45201 0.09700
C 	C 	0.74402 0.33417 0.25351 0.06100
C 	C 	0.92231 0.57139 0.46166 -0.02700
C 	C 	0.88790 0.52117 0.41473 0.05500
C 	C 	0.67092 0.32173 0.25787 0.09700
C 	C 	0.69984 0.28591 0.20695 -0.03000
C 	C 	0.90800 0.49433 0.38173 -0.05300
C 	C 	0.80040 0.34940 0.26280 -0.07900
C 	C 	0.54799 0.59023 0.89036 0.09700
C 	C 	0.74649 0.58066 0.99051 0.06000
C 	C 	0.53834 0.60973 0.96065 -0.02700
C 	C 	0.58527 0.60644 0.97317 0.05500
C 	C 	0.74213 0.56386 0.91305 0.09700
C 	C 	0.79305 0.57896 0.99289 -0.03300
C 	C 	0.61827 0.61260 0.02627 -0.05200
C 	C 	0.73720 0.58660 0.03760 -0.07800
C 	C 	0.95201 0.84237 0.04224 0.09800
C 	C 	0.75351 0.74402 0.83417 0.06100
C 	C 	0.96166 0.92231 0.07139 -0.02800
C 	C 	0.91473 0.88790 0.02117 0.05800
C 	C 	0.75787 0.67092 0.82173 0.09700
C 	C 	0.70695 0.69984 0.78591 -0.03000
C 	C 	0.88173 0.90800 0.99433 -0.05700
C 	C 	0.76280 0.80040 0.84940 -0.07900
C 	C 	0.19987 0.65763 0.60964 0.09700
C 	C 	0.09015 0.75598 0.50949 0.06000
C 	C 	0.14908 0.57769 0.53935 -0.02700
C 	C 	0.13327 0.61210 0.52683 0.05500
C 	C 	0.15081 0.82908 0.58695 0.09700
C 	C 	0.08607 0.80016 0.50711 -0.03000
C 	C 	0.08633 0.59200 0.47373 -0.05300
C 	C 	0.04900 0.69960 0.46240 -0.07900
C 	C 	0.30013 0.90977 0.45776 0.09700
C 	C 	0.40985 0.91934 0.66583 0.06100
C 	C 	0.35092 0.89027 0.42861 -0.02700
C 	C 	0.36673 0.89356 0.47883 0.05500
C 	C 	0.34919 0.93614 0.67827 0.09700
C 	C 	0.41393 0.92104 0.71409 -0.03000
C 	C 	0.41367 0.88740 0.50567 -0.05300
C 	C 	0.45100 0.91340 0.65060 -0.07900
C 	C 	0.95776 0.30013 0.40977 0.09700
C 	C 	0.16583 0.40985 0.41934 0.06100
C 	C 	0.92861 0.35092 0.39027 -0.02700
C 	C 	0.97883 0.36673 0.39356 0.05600
C 	C 	0.17827 0.34919 0.43614 0.09700
C 	C 	0.21409 0.41393 0.42104 -0.03000
C 	C 	0.00567 0.41367 0.38740 -0.05300
C 	C 	0.15060 0.45100 0.41340 -0.07900
C 	C 	0.10964 0.19987 0.15763 0.09700
C 	C 	0.00949 0.09015 0.25598 0.06000
C 	C 	0.03935 0.14908 0.07769 -0.02700
C 	C 	0.02683 0.13327 0.11210 0.05500
C 	C 	0.08695 0.15081 0.32908 0.09700
C 	C 	0.00711 0.08607 0.30016 -0.03000
C 	C 	0.97373 0.08633 0.09200 -0.05200
C 	C 	0.96240 0.04900 0.19960 -0.07900
C 	C 	0.54224 0.95201 0.34237 0.09700
C 	C 	0.33417 0.75351 0.24402 0.06100
C 	C 	0.57139 0.96166 0.42231 -0.02700
C 	C 	0.52117 0.91473 0.38790 0.05500
C 	C 	0.32173 0.75787 0.17092 0.09700
C 	C 	0.28591 0.70695 0.19984 -0.03000
C 	C 	0.49433 0.88173 0.40800 -0.05300
C 	C 	0.34940 0.76280 0.30040 -0.07900
C 	C 	0.39036 0.54799 0.09023 0.09700
C 	C 	0.49051 0.74649 0.08066 0.06000
C 	C 	0.46065 0.53834 0.10973 -0.02700
C 	C 	0.47317 0.58527 0.10644 0.05500
C 	C 	0.41305 0.74213 0.06386 0.09700
C 	C 	0.49289 0.79305 0.07896 -0.03000
C 	C 	0.52627 0.61827 0.11260 -0.05300
C 	C 	0.53760 0.73720 0.08660 -0.07900
C 	C 	0.39036 0.84237 0.80013 0.09700
C 	C 	0.49051 0.74402 0.90985 0.06000
C 	C 	0.46065 0.92231 0.85092 -0.02700
C 	C 	0.47317 0.88790 0.86673 0.05500
C 	C 	0.41305 0.67092 0.84919 0.09700
C 	C 	0.49289 0.69984 0.91393 -0.03000
C 	C 	0.52627 0.90800 0.91367 -0.05300
C 	C 	0.53760 0.80040 0.95100 -0.07900
C 	C 	0.54224 0.59023 0.69987 0.09700
C 	C 	0.33417 0.58066 0.59015 0.06100
C 	C 	0.57139 0.60973 0.64908 -0.02700
C 	C 	0.52117 0.60644 0.63327 0.05500
C 	C 	0.32173 0.56386 0.65081 0.09700
C 	C 	0.28591 0.57896 0.58607 -0.03000
C 	C 	0.49433 0.61260 0.58633 -0.05300
C 	C 	0.34940 0.58660 0.54900 -0.07900
C 	C 	0.10964 0.90977 0.45201 0.09700
C 	C 	0.00949 0.91934 0.25351 0.06000
C 	C 	0.03935 0.89027 0.46166 -0.02600
C 	C 	0.02683 0.89356 0.41473 0.05300
C 	C 	0.08695 0.93614 0.25787 0.09700
C 	C 	0.00711 0.92104 0.20695 -0.03500
C 	C 	0.97373 0.88740 0.38173 -0.05100
C 	C 	0.96240 0.91340 0.26280 -0.07700
C 	C 	0.95776 0.65763 0.04799 0.09800
C 	C 	0.16583 0.75598 0.24649 0.06000
C 	C 	0.92861 0.57769 0.03834 -0.02800
C 	C 	0.97883 0.61210 0.08527 0.05900
C 	C 	0.17827 0.82908 0.24213 0.09700
C 	C 	0.21409 0.80016 0.29305 -0.03000
C 	C 	0.00567 0.59200 0.11827 -0.05900
C 	C 	0.15060 0.69960 0.23720 -0.07900
C 	C 	0.90977 0.95201 0.60964 0.09800
C 	C 	0.91934 0.75351 0.50949 0.06100
C 	C 	0.89027 0.96166 0.53935 -0.02700
C 	C 	0.89356 0.91473 0.52683 0.05500
C 	C 	0.93614 0.75787 0.58695 0.09700
C 	C 	0.92104 0.70695 0.50711 -0.03000
C 	C 	0.88740 0.88173 0.47373 -0.05300
C 	C 	0.91340 0.76280 0.46240 -0.07900
C 	C 	0.65763 0.54799 0.45776 0.09700
C 	C 	0.75598 0.74649 0.66583 0.06100
C 	C 	0.57769 0.53834 0.42861 -0.02700
C 	C 	0.61210 0.58527 0.47883 0.05500
C 	C 	0.82908 0.74213 0.67827 0.09700
C 	C 	0.80016 0.79305 0.71409 -0.03000
C 	C 	0.59200 0.61827 0.50567 -0.05300
C 	C 	0.69960 0.73720 0.65060 -0.07900
C 	C 	0.84237 0.30013 0.89036 0.09700
C 	C 	0.74402 0.40985 0.99051 0.06000
C 	C 	0.92231 0.35092 0.96065 -0.02600
C 	C 	0.88790 0.36673 0.97317 0.05300
C 	C 	0.67092 0.34919 0.91305 0.09700
C 	C 	0.69984 0.41393 0.99289 -0.03200
C 	C 	0.90800 0.41367 0.02627 -0.05000
C 	C 	0.80040 0.45100 0.03760 -0.07800
C 	C 	0.59023 0.19987 0.04224 0.09700
C 	C 	0.58066 0.09015 0.83417 0.06000
C 	C 	0.60973 0.14908 0.07139 -0.02700
C 	C 	0.60644 0.13327 0.02117 0.05700
C 	C 	0.56386 0.15081 0.82173 0.09700
C 	C 	0.57896 0.08607 0.78591 -0.03000
C 	C 	0.61260 0.08633 0.99433 -0.05500
C 	C 	0.58660 0.04900 0.84940 -0.07900
C 	C 	0.19987 0.54224 0.09023 0.09700
C 	C 	0.09015 0.33417 0.08066 0.06000
C 	C 	0.14908 0.57139 0.10973 -0.02700
C 	C 	0.13327 0.52117 0.10644 0.05500
C 	C 	0.15081 0.32173 0.06386 0.09700
C 	C 	0.08607 0.28591 0.07896 -0.03000
C 	C 	0.08633 0.49433 0.11260 -0.05300
C 	C 	0.04900 0.34940 0.08660 -0.07900
C 	C 	0.30013 0.39036 0.34237 0.09700
C 	C 	0.40985 0.49051 0.24402 0.06100
C 	C 	0.35092 0.46065 0.42231 -0.02700
C 	C 	0.36673 0.47317 0.38790 0.05500
C 	C 	0.34919 0.41305 0.17092 0.09700
C 	C 	0.41393 0.49289 0.19984 -0.03000
C 	C 	0.41367 0.52627 0.40800 -0.05300
C 	C 	0.45100 0.53760 0.30040 -0.07900
C 	C 	0.54799 0.95776 0.15763 0.09700
C 	C 	0.74649 0.16583 0.25598 0.06100
C 	C 	0.53834 0.92861 0.07769 -0.02700
C 	C 	0.58527 0.97883 0.11210 0.05600
C 	C 	0.74213 0.17827 0.32908 0.09700
C 	C 	0.79305 0.21409 0.30016 -0.03000
C 	C 	0.61827 0.00567 0.09200 -0.05300
C 	C 	0.73720 0.15060 0.19960 -0.07900
C 	C 	0.95201 0.10964 0.40977 0.09700
C 	C 	0.75351 0.00949 0.41934 0.06000
C 	C 	0.96166 0.03935 0.39027 -0.02600
C 	C 	0.91473 0.02683 0.39356 0.05400
C 	C 	0.75787 0.08695 0.43614 0.09700
C 	C 	0.70695 0.00711 0.42104 -0.03100
C 	C 	0.88173 0.97373 0.38740 -0.05100
C 	C 	0.76280 0.96240 0.41340 -0.07800
N 	N 	0.33610 0.92763 0.33337 -0.24000
N 	N 	0.39362 0.90827 0.30881 -0.19700
N 	N 	0.22474 0.93921 0.36797 -0.24100
N 	N 	0.15373 0.94432 0.37537 -0.22400
N 	N 	0.32730 0.00695 0.41005 -0.16100
N 	N 	0.38326 0.04485 0.43697 -0.07200
N 	N 	0.09426 0.00273 0.16663 -0.24000
N 	N 	0.09946 0.08481 0.19119 -0.19700
N 	N 	0.07124 0.85677 0.13203 -0.24100
N 	N 	0.06895 0.77836 0.12463 -0.22500
N 	N 	0.09690 0.91725 0.08995 -0.16200
N 	N 	0.10788 0.94629 0.06303 -0.07200
N 	N 	0.40574 0.57237 0.90847 -0.24000
N 	N 	0.40054 0.59173 0.98535 -0.19700
N 	N 	0.42876 0.56079 0.78553 -0.24100
N 	N 	0.43105 0.55568 0.70941 -0.22400
N 	N 	0.40310 0.49305 0.82035 -0.16100
N 	N 	0.39212 0.45515 0.83841 -0.07200
N 	N 	0.16390 0.49727 0.59153 -0.24000
N 	N 	0.10638 0.41519 0.51465 -0.19700
N 	N 	0.27526 0.64323 0.71447 -0.24100
N 	N 	0.34627 0.72164 0.79059 -0.22400
N 	N 	0.17270 0.58275 0.67965 -0.16100
N 	N 	0.11674 0.55371 0.66159 -0.07200
N 	N 	0.40847 0.40574 0.07237 -0.24000
N 	N 	0.48535 0.40054 0.09173 -0.19700
N 	N 	0.28553 0.42876 0.06079 -0.24100
N 	N 	0.20941 0.43105 0.05568 -0.22400
N 	N 	0.32035 0.40310 0.99305 -0.16100
N 	N 	0.33841 0.39212 0.95515 -0.07200
N 	N 	0.09153 0.16390 0.99727 -0.24000
N 	N 	0.01465 0.10638 0.91519 -0.19600
N 	N 	0.21447 0.27526 0.14323 -0.24100
N 	N 	0.29059 0.34627 0.22164 -0.22400
N 	N 	0.17965 0.17270 0.08275 -0.16100
N 	N 	0.16159 0.11674 0.05371 -0.07100
N 	N 	0.83337 0.33610 0.42763 -0.24000
N 	N 	0.80881 0.39362 0.40827 -0.19700
N 	N 	0.86797 0.22474 0.43921 -0.24100
N 	N 	0.87537 0.15373 0.44432 -0.22400
N 	N 	0.91005 0.32730 0.50695 -0.16100
N 	N 	0.93697 0.38326 0.54485 -0.07200
N 	N 	0.66663 0.09426 0.50273 -0.24000
N 	N 	0.69119 0.09946 0.58481 -0.19700
N 	N 	0.63203 0.07124 0.35677 -0.24100
N 	N 	0.62463 0.06895 0.27836 -0.22400
N 	N 	0.58995 0.09690 0.41725 -0.16100
N 	N 	0.56303 0.10788 0.44629 -0.07200
N 	N 	0.00273 0.66663 0.59426 -0.24100
N 	N 	0.08481 0.69119 0.59946 -0.19700
N 	N 	0.85677 0.63203 0.57124 -0.24100
N 	N 	0.77836 0.62463 0.56895 -0.22400
N 	N 	0.91725 0.58995 0.59690 -0.16100
N 	N 	0.94629 0.56303 0.60788 -0.07200
N 	N 	0.92763 0.83337 0.83610 -0.24000
N 	N 	0.90827 0.80881 0.89362 -0.19700
N 	N 	0.93921 0.86797 0.72474 -0.24100
N 	N 	0.94432 0.87537 0.65373 -0.22400
N 	N 	0.00695 0.91005 0.82730 -0.16100
N 	N 	0.04485 0.93697 0.88326 -0.07200
N 	N 	0.49727 0.09153 0.66390 -0.24000
N 	N 	0.41519 0.01465 0.60638 -0.19700
N 	N 	0.64323 0.21447 0.77526 -0.24100
N 	N 	0.72164 0.29059 0.84627 -0.22400
N 	N 	0.58275 0.17965 0.67270 -0.16100
N 	N 	0.55371 0.16159 0.61674 -0.07200
N 	N 	0.57237 0.40847 0.90574 -0.24000
N 	N 	0.59173 0.48535 0.90054 -0.19700
N 	N 	0.56079 0.28553 0.92876 -0.24100
N 	N 	0.55568 0.20941 0.93105 -0.22400
N 	N 	0.49305 0.32035 0.90310 -0.16100
N 	N 	0.45515 0.33841 0.89212 -0.07200
N 	N 	0.57237 0.16390 0.16663 -0.24000
N 	N 	0.59173 0.10638 0.19119 -0.19700
N 	N 	0.56079 0.27526 0.13203 -0.24100
N 	N 	0.55568 0.34627 0.12463 -0.22400
N 	N 	0.49305 0.17270 0.08995 -0.16100
N 	N 	0.45515 0.11674 0.06303 -0.07200
N 	N 	0.49727 0.40574 0.33337 -0.24000
N 	N 	0.41519 0.40054 0.30881 -0.19700
N 	N 	0.64323 0.42876 0.36797 -0.24100
N 	N 	0.72164 0.43105 0.37537 -0.22400
N 	N 	0.58275 0.40310 0.41005 -0.16100
N 	N 	0.55371 0.39212 0.43697 -0.07200
N 	N 	0.92763 0.09426 0.59153 -0.24000
N 	N 	0.90827 0.09946 0.51465 -0.19700
N 	N 	0.93921 0.07124 0.71447 -0.24100
N 	N 	0.94432 0.06895 0.79059 -0.22400
N 	N 	0.00695 0.09690 0.67965 -0.16100
N 	N 	0.04485 0.10788 0.66159 -0.07200
N 	N 	0.00273 0.33610 0.90847 -0.24000
N 	N 	0.08481 0.39362 0.98535 -0.19600
N 	N 	0.85677 0.22474 0.78553 -0.24100
N 	N 	0.77836 0.15373 0.70941 -0.22400
N 	N 	0.91725 0.32730 0.82035 -0.16100
N 	N 	0.94629 0.38326 0.83841 -0.07100
N 	N 	0.09426 0.09153 0.42763 -0.24000
N 	N 	0.09946 0.01465 0.40827 -0.19700
N 	N 	0.07124 0.21447 0.43921 -0.24100
N 	N 	0.06895 0.29059 0.44432 -0.22400
N 	N 	0.09690 0.17965 0.50695 -0.16100
N 	N 	0.10788 0.16159 0.54485 -0.07200
N 	N 	0.33610 0.40847 0.50273 -0.24000
N 	N 	0.39362 0.48535 0.58481 -0.19700
N 	N 	0.22474 0.28553 0.35677 -0.24100
N 	N 	0.15373 0.20941 0.27836 -0.22400
N 	N 	0.32730 0.32035 0.41725 -0.16100
N 	N 	0.38326 0.33841 0.44629 -0.07200
N 	N 	0.16390 0.66663 0.07237 -0.24000
N 	N 	0.10638 0.69119 0.09173 -0.19700
N 	N 	0.27526 0.63203 0.06079 -0.24100
N 	N 	0.34627 0.62463 0.05568 -0.22400
N 	N 	0.17270 0.58995 0.99305 -0.16100
N 	N 	0.11674 0.56303 0.95515 -0.07200
N 	N 	0.40574 0.83337 0.99727 -0.24100
N 	N 	0.40054 0.80881 0.91519 -0.19700
N 	N 	0.42876 0.86797 0.14323 -0.24100
N 	N 	0.43105 0.87537 0.22164 -0.22400
N 	N 	0.40310 0.91005 0.08275 -0.16100
N 	N 	0.39212 0.93697 0.05371 -0.07200
N 	N 	0.83337 0.49727 0.90574 -0.24100
N 	N 	0.80881 0.41519 0.90054 -0.19700
N 	N 	0.86797 0.64323 0.92876 -0.24100
N 	N 	0.87537 0.72164 0.93105 -0.22500
N 	N 	0.91005 0.58275 0.90310 -0.16100
N 	N 	0.93697 0.55371 0.89212 -0.07200
N 	N 	0.66663 0.57237 0.66390 -0.24000
N 	N 	0.69119 0.59173 0.60638 -0.19700
N 	N 	0.63203 0.56079 0.77526 -0.24100
N 	N 	0.62463 0.55568 0.84627 -0.22400
N 	N 	0.58995 0.49305 0.67270 -0.16100
N 	N 	0.56303 0.45515 0.61674 -0.07200
N 	N 	0.40847 0.00273 0.83610 -0.24000
N 	N 	0.48535 0.08481 0.89362 -0.19700
N 	N 	0.28553 0.85677 0.72474 -0.24100
N 	N 	0.20941 0.77836 0.65373 -0.22400
N 	N 	0.32035 0.91725 0.82730 -0.16100
N 	N 	0.33841 0.94629 0.88326 -0.07200
N 	N 	0.09153 0.92763 0.59426 -0.24000
N 	N 	0.01465 0.90827 0.59946 -0.19700
N 	N 	0.21447 0.93921 0.57124 -0.24100
N 	N 	0.29059 0.94432 0.56895 -0.22400
N 	N 	0.17965 0.00695 0.59690 -0.16100
N 	N 	0.16159 0.04485 0.60788 -0.07200
N 	N 	0.66390 0.07237 0.66663 -0.24000
N 	N 	0.60638 0.09173 0.69119 -0.19700
N 	N 	0.77526 0.06079 0.63203 -0.24100
N 	N 	0.84627 0.05568 0.62463 -0.22400
N 	N 	0.67270 0.99305 0.58995 -0.16100
N 	N 	0.61674 0.95515 0.56303 -0.07200
N 	N 	0.90574 0.99727 0.83337 -0.24000
N 	N 	0.90054 0.91519 0.80881 -0.19700
N 	N 	0.92876 0.14323 0.86797 -0.24100
N 	N 	0.93105 0.22164 0.87537 -0.22500
N 	N 	0.90310 0.08275 0.91005 -0.16200
N 	N 	0.89212 0.05371 0.93697 -0.07200
N 	N 	0.59426 0.42763 0.09153 -0.24000
N 	N 	0.59946 0.40827 0.01465 -0.19700
N 	N 	0.57124 0.43921 0.21447 -0.24100
N 	N 	0.56895 0.44432 0.29059 -0.22400
N 	N 	0.59690 0.50695 0.17965 -0.16100
N 	N 	0.60788 0.54485 0.16159 -0.07200
N 	N 	0.83610 0.50273 0.40847 -0.24000
N 	N 	0.89362 0.58481 0.48535 -0.19700
N 	N 	0.72474 0.35677 0.28553 -0.24100
N 	N 	0.65373 0.27836 0.20941 -0.22400
N 	N 	0.82730 0.41725 0.32035 -0.16100
N 	N 	0.88326 0.44629 0.33841 -0.07200
N 	N 	0.59153 0.59426 0.92763 -0.24000
N 	N 	0.51465 0.59946 0.90827 -0.19700
N 	N 	0.71447 0.57124 0.93921 -0.24100
N 	N 	0.79059 0.56895 0.94432 -0.22400
N 	N 	0.67965 0.59690 0.00695 -0.16100
N 	N 	0.66159 0.60788 0.04485 -0.07200
N 	N 	0.90847 0.83610 0.00273 -0.24000
N 	N 	0.98535 0.89362 0.08481 -0.19600
N 	N 	0.78553 0.72474 0.85677 -0.24100
N 	N 	0.70941 0.65373 0.77836 -0.22400
N 	N 	0.82035 0.82730 0.91725 -0.16100
N 	N 	0.83841 0.88326 0.94629 -0.07100
N 	N 	0.16663 0.66390 0.57237 -0.24000
N 	N 	0.19119 0.60638 0.59173 -0.19700
N 	N 	0.13203 0.77526 0.56079 -0.24100
N 	N 	0.12463 0.84627 0.55568 -0.22400
N 	N 	0.08995 0.67270 0.49305 -0.16100
N 	N 	0.06303 0.61674 0.45515 -0.07200
N 	N 	0.33337 0.90574 0.49727 -0.24000
N 	N 	0.30881 0.90054 0.41519 -0.19700
N 	N 	0.36797 0.92876 0.64323 -0.24100
N 	N 	0.37537 0.93105 0.72164 -0.22400
N 	N 	0.41005 0.90310 0.58275 -0.16100
N 	N 	0.43697 0.89212 0.55371 -0.07200
N 	N 	0.99727 0.33337 0.40574 -0.24100
N 	N 	0.91519 0.30881 0.40054 -0.19700
N 	N 	0.14323 0.36797 0.42876 -0.24100
N 	N 	0.22164 0.37537 0.43105 -0.22400
N 	N 	0.08275 0.41005 0.40310 -0.16100
N 	N 	0.05371 0.43697 0.39212 -0.07200
N 	N 	0.07237 0.16663 0.16390 -0.24000
N 	N 	0.09173 0.19119 0.10638 -0.19700
N 	N 	0.06079 0.13203 0.27526 -0.24100
N 	N 	0.05568 0.12463 0.34627 -0.22400
N 	N 	0.99305 0.08995 0.17270 -0.16100
N 	N 	0.95515 0.06303 0.11674 -0.07200
N 	N 	0.50273 0.90847 0.33610 -0.24000
N 	N 	0.58481 0.98535 0.39362 -0.19700
N 	N 	0.35677 0.78553 0.22474 -0.24100
N 	N 	0.27836 0.70941 0.15373 -0.22400
N 	N 	0.41725 0.82035 0.32730 -0.16100
N 	N 	0.44629 0.83841 0.38326 -0.07200
N 	N 	0.42763 0.59153 0.09426 -0.24000
N 	N 	0.40827 0.51465 0.09946 -0.19700
N 	N 	0.43921 0.71447 0.07124 -0.24100
N 	N 	0.44432 0.79059 0.06895 -0.22400
N 	N 	0.50695 0.67965 0.09690 -0.16100
N 	N 	0.54485 0.66159 0.10788 -0.07200
N 	N 	0.42763 0.83610 0.83337 -0.24000
N 	N 	0.40827 0.89362 0.80881 -0.19700
N 	N 	0.43921 0.72474 0.86797 -0.24100
N 	N 	0.44432 0.65373 0.87537 -0.22400
N 	N 	0.50695 0.82730 0.91005 -0.16100
N 	N 	0.54485 0.88326 0.93697 -0.07200
N 	N 	0.50273 0.59426 0.66663 -0.24000
N 	N 	0.58481 0.59946 0.69119 -0.19700
N 	N 	0.35677 0.57124 0.63203 -0.24100
N 	N 	0.27836 0.56895 0.62463 -0.22400
N 	N 	0.41725 0.59690 0.58995 -0.16100
N 	N 	0.44629 0.60788 0.56303 -0.07200
N 	N 	0.07237 0.90574 0.40847 -0.24000
N 	N 	0.09173 0.90054 0.48535 -0.19700
N 	N 	0.06079 0.92876 0.28553 -0.24100
N 	N 	0.05568 0.93105 0.20941 -0.22400
N 	N 	0.99305 0.90310 0.32035 -0.16100
N 	N 	0.95515 0.89212 0.33841 -0.07200
N 	N 	0.99727 0.66390 0.09153 -0.24000
N 	N 	0.91519 0.60638 0.01465 -0.19600
N 	N 	0.14323 0.77526 0.21447 -0.24100
N 	N 	0.22164 0.84627 0.29059 -0.22400
N 	N 	0.08275 0.67270 0.17965 -0.16100
N 	N 	0.05371 0.61674 0.16159 -0.07100
N 	N 	0.90574 0.90847 0.57237 -0.24000
N 	N 	0.90054 0.98535 0.59173 -0.19700
N 	N 	0.92876 0.78553 0.56079 -0.24100
N 	N 	0.93105 0.70941 0.55568 -0.22400
N 	N 	0.90310 0.82035 0.49305 -0.16100
N 	N 	0.89212 0.83841 0.45515 -0.07200
N 	N 	0.66390 0.59153 0.49727 -0.24000
N 	N 	0.60638 0.51465 0.41519 -0.19700
N 	N 	0.77526 0.71447 0.64323 -0.24100
N 	N 	0.84627 0.79059 0.72164 -0.22400
N 	N 	0.67270 0.67965 0.58275 -0.16100
N 	N 	0.61674 0.66159 0.55371 -0.07200
N 	N 	0.83610 0.33337 0.92763 -0.24000
N 	N 	0.89362 0.30881 0.90827 -0.19700
N 	N 	0.72474 0.36797 0.93921 -0.24100
N 	N 	0.65373 0.37537 0.94432 -0.22400
N 	N 	0.82730 0.41005 0.00695 -0.16100
N 	N 	0.88326 0.43697 0.04485 -0.07200
N 	N 	0.59426 0.16663 0.00273 -0.24100
N 	N 	0.59946 0.19119 0.08481 -0.19700
N 	N 	0.57124 0.13203 0.85677 -0.24100
N 	N 	0.56895 0.12463 0.77836 -0.22400
N 	N 	0.59690 0.08995 0.91725 -0.16100
N 	N 	0.60788 0.06303 0.94629 -0.07200
N 	N 	0.16663 0.50273 0.09426 -0.24100
N 	N 	0.19119 0.58481 0.09946 -0.19700
N 	N 	0.13203 0.35677 0.07124 -0.24100
N 	N 	0.12463 0.27836 0.06895 -0.22500
N 	N 	0.08995 0.41725 0.09690 -0.16100
N 	N 	0.06303 0.44629 0.10788 -0.07200
N 	N 	0.33337 0.42763 0.33610 -0.24000
N 	N 	0.30881 0.40827 0.39362 -0.19700
N 	N 	0.36797 0.43921 0.22474 -0.24100
N 	N 	0.37537 0.44432 0.15373 -0.22400
N 	N 	0.41005 0.50695 0.32730 -0.16100
N 	N 	0.43697 0.54485 0.38326 -0.07200
N 	N 	0.59153 0.99727 0.16390 -0.24000
N 	N 	0.51465 0.91519 0.10638 -0.19700
N 	N 	0.71447 0.14323 0.27526 -0.24100
N 	N 	0.79059 0.22164 0.34627 -0.22400
N 	N 	0.67965 0.08275 0.17270 -0.16100
N 	N 	0.66159 0.05371 0.11674 -0.07200
N 	N 	0.90847 0.07237 0.40574 -0.24000
N 	N 	0.98535 0.09173 0.40054 -0.19700
N 	N 	0.78553 0.06079 0.42876 -0.24100
N 	N 	0.70941 0.05568 0.43105 -0.22400
N 	N 	0.82035 0.99305 0.40310 -0.16100
N 	N 	0.83841 0.95515 0.39212 -0.07200
