data_crystal

_cell_length_a 29.31620
_cell_length_b 29.31620
_cell_length_c 29.31620
_cell_angle_alpha 109.47100
_cell_angle_beta  109.47100
_cell_angle_gamma 109.47100

_symmetry_space_group_name_	'P 1'
_symmetry_space_group_name_H-M	'P 1'

loop_
_symmetry_equiv_pos_as_xyz
  x,y,z

loop_
_atom_site_label
_atom_site_type_symbol
_atom_site_fract_x
_atom_site_fract_y
_atom_site_fract_z
_atom_site_charge
Ni	Ni	0.56127 0.14088 0.71807 1.05200
Ni	Ni	0.92281 0.84320 0.78193 1.05200
Ni	Ni	0.57719 0.35912 0.92039 1.05200
Ni	Ni	0.93873 0.65680 0.57961 1.05200
Ni	Ni	0.42039 0.57719 0.85912 1.05200
Ni	Ni	0.07961 0.93873 0.15680 1.05100
Ni	Ni	0.21807 0.56127 0.64088 1.05300
Ni	Ni	0.28193 0.92281 0.34320 1.05300
Ni	Ni	0.84320 0.28193 0.42281 1.05300
Ni	Ni	0.14088 0.21807 0.06127 1.05300
Ni	Ni	0.65680 0.07961 0.43873 1.05300
Ni	Ni	0.35912 0.42039 0.07719 1.05300
Ni	Ni	0.35912 0.93873 0.78193 1.05300
Ni	Ni	0.65680 0.57719 0.71807 1.05300
Ni	Ni	0.14088 0.92281 0.57961 1.05300
Ni	Ni	0.84320 0.56127 0.92039 1.05300
Ni	Ni	0.92281 0.07961 0.64088 1.05300
Ni	Ni	0.56127 0.42039 0.34320 1.05300
Ni	Ni	0.93873 0.28193 0.85912 1.05300
Ni	Ni	0.57719 0.21807 0.15680 1.05300
Ni	Ni	0.21807 0.65680 0.07719 1.05300
Ni	Ni	0.28193 0.35912 0.43873 1.05300
Ni	Ni	0.42039 0.84320 0.06127 1.05300
Ni	Ni	0.07961 0.14088 0.42281 1.05400
Ni	Ni	0.43873 0.85912 0.28193 1.05300
Ni	Ni	0.07719 0.15680 0.21807 1.05300
Ni	Ni	0.42281 0.64088 0.07961 1.05300
Ni	Ni	0.06127 0.34320 0.42039 1.05300
Ni	Ni	0.57961 0.42281 0.14088 1.05300
Ni	Ni	0.92039 0.06127 0.84320 1.05200
Ni	Ni	0.78193 0.43873 0.35912 1.05300
Ni	Ni	0.71807 0.07719 0.65680 1.05300
Ni	Ni	0.15680 0.71807 0.57719 1.05300
Ni	Ni	0.85912 0.78193 0.93873 1.05300
Ni	Ni	0.34320 0.92039 0.56127 1.05300
Ni	Ni	0.64088 0.57961 0.92281 1.05300
Ni	Ni	0.64088 0.06127 0.21807 1.05300
Ni	Ni	0.34320 0.42281 0.28193 1.05300
Ni	Ni	0.85912 0.07719 0.42039 1.05300
Ni	Ni	0.15680 0.43873 0.07961 1.05300
Ni	Ni	0.07719 0.92039 0.35912 1.05300
Ni	Ni	0.43873 0.57961 0.65680 1.05300
Ni	Ni	0.06127 0.71807 0.14088 1.05300
Ni	Ni	0.42281 0.78193 0.84320 1.05300
Ni	Ni	0.78193 0.34320 0.92281 1.05300
Ni	Ni	0.71807 0.64088 0.56127 1.05300
Ni	Ni	0.57961 0.15680 0.93873 1.05300
Ni	Ni	0.92039 0.85912 0.57719 1.05400
H 	H 	0.66890 0.22460 0.84950 -0.04000
H 	H 	0.44410 0.03040 0.67730 -0.01900
H 	H 	0.39960 0.01400 0.52580 0.03600
H 	H 	0.73930 0.31440 0.79350 0.02200
H 	H 	0.46760 0.11120 0.55300 0.06100
H 	H 	0.63930 0.23420 0.66970 0.04800
H 	H 	0.87510 0.81940 0.65050 -0.04000
H 	H 	0.85310 0.76680 0.82270 -0.01900
H 	H 	0.98820 0.87380 0.97420 0.03500
H 	H 	0.02090 0.94580 0.70650 0.02100
H 	H 	0.05820 0.91460 0.94700 0.06100
H 	H 	0.06450 0.96960 0.83030 0.04800
H 	H 	0.62490 0.27540 0.94430 -0.04100
H 	H 	0.64690 0.46960 0.91370 -0.01900
H 	H 	0.51180 0.48600 0.88560 0.03500
H 	H 	0.47910 0.18560 0.92490 0.02200
H 	H 	0.44180 0.38880 0.85640 0.06100
H 	H 	0.43550 0.26580 0.90510 0.04800
H 	H 	0.83110 0.68060 0.55570 -0.04000
H 	H 	0.05590 0.73320 0.58630 -0.01900
H 	H 	0.10040 0.62620 0.61440 0.03500
H 	H 	0.76070 0.55420 0.57510 0.02200
H 	H 	0.03240 0.58540 0.64360 0.06100
H 	H 	0.86070 0.53040 0.59490 0.04800
H 	H 	0.44430 0.62490 0.77540 -0.04000
H 	H 	0.41370 0.64690 0.96960 -0.01900
H 	H 	0.38560 0.51180 0.98600 0.03500
H 	H 	0.42490 0.47910 0.68560 0.02200
H 	H 	0.35640 0.44180 0.88880 0.06100
H 	H 	0.40510 0.43550 0.76580 0.04800
H 	H 	0.05570 0.83110 0.18060 -0.04100
H 	H 	0.08630 0.05590 0.23320 -0.01800
H 	H 	0.11440 0.10040 0.12620 0.03500
H 	H 	0.07510 0.76070 0.05420 0.02200
H 	H 	0.14360 0.03240 0.08540 0.06000
H 	H 	0.09490 0.86070 0.03040 0.04700
H 	H 	0.34950 0.66890 0.72460 -0.04000
H 	H 	0.17730 0.44410 0.53040 -0.01900
H 	H 	0.02580 0.39960 0.51400 0.03600
H 	H 	0.29350 0.73930 0.81440 0.02200
H 	H 	0.05300 0.46760 0.61120 0.06100
H 	H 	0.16970 0.63930 0.73420 0.04800
H 	H 	0.15050 0.87510 0.31940 -0.04000
H 	H 	0.32270 0.85310 0.26680 -0.01900
H 	H 	0.47420 0.98820 0.37380 0.03500
H 	H 	0.20650 0.02090 0.44580 0.02400
H 	H 	0.44700 0.05820 0.41460 0.06100
H 	H 	0.33030 0.06450 0.46960 0.04800
H 	H 	0.81940 0.15050 0.37510 -0.04000
H 	H 	0.76680 0.32270 0.35310 -0.01900
H 	H 	0.87380 0.47420 0.48820 0.03500
H 	H 	0.94580 0.20650 0.52090 0.02200
H 	H 	0.91460 0.44700 0.55820 0.06100
H 	H 	0.96960 0.33030 0.56450 0.04800
H 	H 	0.22460 0.34950 0.16890 -0.04000
H 	H 	0.03040 0.17730 0.94410 -0.01800
H 	H 	0.01400 0.02580 0.89960 0.03600
H 	H 	0.31440 0.29350 0.23930 0.02200
H 	H 	0.11120 0.05300 0.96760 0.06100
H 	H 	0.23420 0.16970 0.13930 0.04800
H 	H 	0.68060 0.05570 0.33110 -0.04000
H 	H 	0.73320 0.08630 0.55590 -0.01900
H 	H 	0.62620 0.11440 0.60040 0.03500
H 	H 	0.55420 0.07510 0.26070 0.02200
H 	H 	0.58540 0.14360 0.53240 0.06100
H 	H 	0.53040 0.09490 0.36070 0.04800
H 	H 	0.27540 0.44430 0.12490 -0.04000
H 	H 	0.46960 0.41370 0.14690 -0.01900
H 	H 	0.48600 0.38560 0.01180 0.03500
H 	H 	0.18560 0.42490 0.97910 0.02400
H 	H 	0.38880 0.35640 0.94180 0.06100
H 	H 	0.26580 0.40510 0.93550 0.04800
H 	H 	0.27540 0.83110 0.65050 -0.04000
H 	H 	0.46960 0.05590 0.82270 -0.01900
H 	H 	0.48600 0.10040 0.97420 0.03500
H 	H 	0.18560 0.76070 0.70650 0.02200
H 	H 	0.38880 0.03240 0.94700 0.06100
H 	H 	0.26580 0.86070 0.83030 0.04800
H 	H 	0.68060 0.62490 0.84950 -0.04000
H 	H 	0.73320 0.64690 0.67730 -0.01900
H 	H 	0.62620 0.51180 0.52580 0.03500
H 	H 	0.55420 0.47910 0.79350 0.02200
H 	H 	0.58540 0.44180 0.55300 0.06100
H 	H 	0.53040 0.43550 0.66970 0.04800
H 	H 	0.22460 0.87510 0.55570 -0.04000
H 	H 	0.03040 0.85310 0.58630 -0.01900
H 	H 	0.01400 0.98820 0.61440 0.03500
H 	H 	0.31440 0.02090 0.57510 0.02300
H 	H 	0.11120 0.05820 0.64360 0.06100
H 	H 	0.23420 0.06450 0.59490 0.04800
H 	H 	0.81940 0.66890 0.94430 -0.04100
H 	H 	0.76680 0.44410 0.91370 -0.01900
H 	H 	0.87380 0.39960 0.88560 0.03500
H 	H 	0.94580 0.73930 0.92490 0.02200
H 	H 	0.91460 0.46760 0.85640 0.06100
H 	H 	0.96960 0.63930 0.90510 0.04800
H 	H 	0.87510 0.05570 0.72460 -0.04100
H 	H 	0.85310 0.08630 0.53040 -0.01900
H 	H 	0.98820 0.11440 0.51400 0.03500
H 	H 	0.02090 0.07510 0.81440 0.02600
H 	H 	0.05820 0.14360 0.61120 0.06000
H 	H 	0.06450 0.09490 0.73420 0.04700
H 	H 	0.66890 0.44430 0.31940 -0.04000
H 	H 	0.44410 0.41370 0.26680 -0.01900
H 	H 	0.39960 0.38560 0.37380 0.03500
H 	H 	0.73930 0.42490 0.44580 0.02200
H 	H 	0.46760 0.35640 0.41460 0.06100
H 	H 	0.63930 0.40510 0.46960 0.04800
H 	H 	0.83110 0.15050 0.77540 -0.04000
H 	H 	0.05590 0.32270 0.96960 -0.01800
H 	H 	0.10040 0.47420 0.98600 0.03600
H 	H 	0.76070 0.20650 0.68560 0.02200
H 	H 	0.03240 0.44700 0.88880 0.06100
H 	H 	0.86070 0.33030 0.76580 0.04800
H 	H 	0.62490 0.34950 0.18060 -0.04000
H 	H 	0.64690 0.17730 0.23320 -0.01900
H 	H 	0.51180 0.02580 0.12620 0.03600
H 	H 	0.47910 0.29350 0.05420 0.02200
H 	H 	0.44180 0.05300 0.08540 0.06100
H 	H 	0.43550 0.16970 0.03040 0.04800
H 	H 	0.34950 0.68060 0.12490 -0.04000
H 	H 	0.17730 0.73320 0.14690 -0.01900
H 	H 	0.02580 0.62620 0.01180 0.03400
H 	H 	0.29350 0.55420 0.97910 0.02300
H 	H 	0.05300 0.58540 0.94180 0.06100
H 	H 	0.16970 0.53040 0.93550 0.04800
H 	H 	0.15050 0.27540 0.33110 -0.04000
H 	H 	0.32270 0.46960 0.55590 -0.01900
H 	H 	0.47420 0.48600 0.60040 0.03500
H 	H 	0.20650 0.18560 0.26070 0.02200
H 	H 	0.44700 0.38880 0.53240 0.06100
H 	H 	0.33030 0.26580 0.36070 0.04800
H 	H 	0.44430 0.81940 0.16890 -0.04000
H 	H 	0.41370 0.76680 0.94410 -0.01900
H 	H 	0.38560 0.87380 0.89960 0.03500
H 	H 	0.42490 0.94580 0.23930 0.02200
H 	H 	0.35640 0.91460 0.96760 0.06100
H 	H 	0.40510 0.96960 0.13930 0.04800
H 	H 	0.05570 0.22460 0.37510 -0.04000
H 	H 	0.08630 0.03040 0.35310 -0.01800
H 	H 	0.11440 0.01400 0.48820 0.03600
H 	H 	0.07510 0.31440 0.52090 0.02200
H 	H 	0.14360 0.11120 0.55820 0.06100
H 	H 	0.09490 0.23420 0.56450 0.04800
H 	H 	0.33110 0.77540 0.15050 -0.04000
H 	H 	0.55590 0.96960 0.32270 -0.01900
H 	H 	0.60040 0.98600 0.47420 0.03600
H 	H 	0.26070 0.68560 0.20650 0.02200
H 	H 	0.53240 0.88880 0.44700 0.06100
H 	H 	0.36070 0.76580 0.33030 0.04800
H 	H 	0.12490 0.18060 0.34950 -0.04000
H 	H 	0.14690 0.23320 0.17730 -0.01900
H 	H 	0.01180 0.12620 0.02580 0.03500
H 	H 	0.97910 0.05420 0.29350 0.02100
H 	H 	0.94180 0.08540 0.05300 0.06100
H 	H 	0.93550 0.03040 0.16970 0.04800
H 	H 	0.37510 0.72460 0.05570 -0.04100
H 	H 	0.35310 0.53040 0.08630 -0.01900
H 	H 	0.48820 0.51400 0.11440 0.03500
H 	H 	0.52090 0.81440 0.07510 0.02200
H 	H 	0.55820 0.61120 0.14360 0.06100
H 	H 	0.56450 0.73420 0.09490 0.04800
H 	H 	0.16890 0.31940 0.44430 -0.04000
H 	H 	0.94410 0.26680 0.41370 -0.01900
H 	H 	0.89960 0.37380 0.38560 0.03500
H 	H 	0.23930 0.44580 0.42490 0.02200
H 	H 	0.96760 0.41460 0.35640 0.06100
H 	H 	0.13930 0.46960 0.40510 0.04800
H 	H 	0.55570 0.37510 0.22460 -0.04000
H 	H 	0.58630 0.35310 0.03040 -0.01900
H 	H 	0.61440 0.48820 0.01400 0.03500
H 	H 	0.57510 0.52090 0.31440 0.02200
H 	H 	0.64360 0.55820 0.11120 0.06100
H 	H 	0.59490 0.56450 0.23420 0.04800
H 	H 	0.94430 0.16890 0.81940 -0.04100
H 	H 	0.91370 0.94410 0.76680 -0.01800
H 	H 	0.88560 0.89960 0.87380 0.03500
H 	H 	0.92490 0.23930 0.94580 0.02200
H 	H 	0.85640 0.96760 0.91460 0.06000
H 	H 	0.90510 0.13930 0.96960 0.04700
H 	H 	0.65050 0.33110 0.27540 -0.04000
H 	H 	0.82270 0.55590 0.46960 -0.01900
H 	H 	0.97420 0.60040 0.48600 0.03600
H 	H 	0.70650 0.26070 0.18560 0.02200
H 	H 	0.94700 0.53240 0.38880 0.06100
H 	H 	0.83030 0.36070 0.26580 0.04800
H 	H 	0.84950 0.12490 0.68060 -0.04000
H 	H 	0.67730 0.14690 0.73320 -0.01900
H 	H 	0.52580 0.01180 0.62620 0.03500
H 	H 	0.79350 0.97910 0.55420 0.02400
H 	H 	0.55300 0.94180 0.58540 0.06100
H 	H 	0.66970 0.93550 0.53040 0.04800
H 	H 	0.18060 0.84950 0.62490 -0.04000
H 	H 	0.23320 0.67730 0.64690 -0.01900
H 	H 	0.12620 0.52580 0.51180 0.03500
H 	H 	0.05420 0.79350 0.47910 0.02200
H 	H 	0.08540 0.55300 0.44180 0.06100
H 	H 	0.03040 0.66970 0.43550 0.04800
H 	H 	0.77540 0.65050 0.83110 -0.04000
H 	H 	0.96960 0.82270 0.05590 -0.01800
H 	H 	0.98600 0.97420 0.10040 0.03600
H 	H 	0.68560 0.70650 0.76070 0.02200
H 	H 	0.88880 0.94700 0.03240 0.06100
H 	H 	0.76580 0.83030 0.86070 0.04800
H 	H 	0.31940 0.94430 0.66890 -0.04000
H 	H 	0.26680 0.91370 0.44410 -0.01900
H 	H 	0.37380 0.88560 0.39960 0.03500
H 	H 	0.44580 0.92490 0.73930 0.02200
H 	H 	0.41460 0.85640 0.46760 0.06100
H 	H 	0.46960 0.90510 0.63930 0.04800
H 	H 	0.72460 0.55570 0.87510 -0.04000
H 	H 	0.53040 0.58630 0.85310 -0.01900
H 	H 	0.51400 0.61440 0.98820 0.03500
H 	H 	0.81440 0.57510 0.02090 0.02400
H 	H 	0.61120 0.64360 0.05820 0.06100
H 	H 	0.73420 0.59490 0.06450 0.04800
H 	H 	0.72460 0.16890 0.34950 -0.04000
H 	H 	0.53040 0.94410 0.17730 -0.01900
H 	H 	0.51400 0.89960 0.02580 0.03500
H 	H 	0.81440 0.23930 0.29350 0.02200
H 	H 	0.61120 0.96760 0.05300 0.06100
H 	H 	0.73420 0.13930 0.16970 0.04800
H 	H 	0.31940 0.37510 0.15050 -0.04000
H 	H 	0.26680 0.35310 0.32270 -0.01900
H 	H 	0.37380 0.48820 0.47420 0.03500
H 	H 	0.44580 0.52090 0.20650 0.02200
H 	H 	0.41460 0.55820 0.44700 0.06100
H 	H 	0.46960 0.56450 0.33030 0.04800
H 	H 	0.77540 0.12490 0.44430 -0.04000
H 	H 	0.96960 0.14690 0.41370 -0.01900
H 	H 	0.98600 0.01180 0.38560 0.03500
H 	H 	0.68560 0.97910 0.42490 0.02300
H 	H 	0.88880 0.94180 0.35640 0.06100
H 	H 	0.76580 0.93550 0.40510 0.04800
H 	H 	0.18060 0.33110 0.05570 -0.04100
H 	H 	0.23320 0.55590 0.08630 -0.01900
H 	H 	0.12620 0.60040 0.11440 0.03500
H 	H 	0.05420 0.26070 0.07510 0.02200
H 	H 	0.08540 0.53240 0.14360 0.06100
H 	H 	0.03040 0.36070 0.09490 0.04800
H 	H 	0.12490 0.94430 0.27540 -0.04100
H 	H 	0.14690 0.91370 0.46960 -0.01900
H 	H 	0.01180 0.88560 0.48600 0.03500
H 	H 	0.97910 0.92490 0.18560 0.02600
H 	H 	0.94180 0.85640 0.38880 0.06000
H 	H 	0.93550 0.90510 0.26580 0.04700
H 	H 	0.33110 0.55570 0.68060 -0.04000
H 	H 	0.55590 0.58630 0.73320 -0.01900
H 	H 	0.60040 0.61440 0.62620 0.03500
H 	H 	0.26070 0.57510 0.55420 0.02200
H 	H 	0.53240 0.64360 0.58540 0.06100
H 	H 	0.36070 0.59490 0.53040 0.04800
H 	H 	0.16890 0.84950 0.22460 -0.04000
H 	H 	0.94410 0.67730 0.03040 -0.01800
H 	H 	0.89960 0.52580 0.01400 0.03600
H 	H 	0.23930 0.79350 0.31440 0.02200
H 	H 	0.96760 0.55300 0.11120 0.06100
H 	H 	0.13930 0.66970 0.23420 0.04800
H 	H 	0.37510 0.65050 0.81940 -0.04000
H 	H 	0.35310 0.82270 0.76680 -0.01900
H 	H 	0.48820 0.97420 0.87380 0.03600
H 	H 	0.52090 0.70650 0.94580 0.02200
H 	H 	0.55820 0.94700 0.91460 0.06100
H 	H 	0.56450 0.83030 0.96960 0.04800
H 	H 	0.65050 0.31940 0.87510 -0.04000
H 	H 	0.82270 0.26680 0.85310 -0.01900
H 	H 	0.97420 0.37380 0.98820 0.03400
H 	H 	0.70650 0.44580 0.02090 0.02300
H 	H 	0.94700 0.41460 0.05820 0.06100
H 	H 	0.83030 0.46960 0.06450 0.04800
H 	H 	0.84950 0.72460 0.66890 -0.04000
H 	H 	0.67730 0.53040 0.44410 -0.01900
H 	H 	0.52580 0.51400 0.39960 0.03500
H 	H 	0.79350 0.81440 0.73930 0.02200
H 	H 	0.55300 0.61120 0.46760 0.06100
H 	H 	0.66970 0.73420 0.63930 0.04800
H 	H 	0.55570 0.18060 0.83110 -0.04000
H 	H 	0.58630 0.23320 0.05590 -0.01900
H 	H 	0.61440 0.12620 0.10040 0.03500
H 	H 	0.57510 0.05420 0.76070 0.02200
H 	H 	0.64360 0.08540 0.03240 0.06100
H 	H 	0.59490 0.03040 0.86070 0.04800
H 	H 	0.94430 0.77540 0.62490 -0.04000
H 	H 	0.91370 0.96960 0.64690 -0.01800
H 	H 	0.88560 0.98600 0.51180 0.03600
H 	H 	0.92490 0.68560 0.47910 0.02200
H 	H 	0.85640 0.88880 0.44180 0.06100
H 	H 	0.90510 0.76580 0.43550 0.04800
C 	C 	0.67490 0.23730 0.82500 0.08500
C 	C 	0.44410 0.03740 0.64790 0.08000
C 	C 	0.66000 0.24200 0.74920 0.03000
C 	C 	0.41880 0.02800 0.56500 -0.02200
C 	C 	0.71350 0.28620 0.79550 -0.01500
C 	C 	0.46820 0.07950 0.60370 0.04400
C 	C 	0.49200 0.11730 0.58810 -0.06500
C 	C 	0.62800 0.22200 0.69200 -0.04000
C 	C 	0.91230 0.84990 0.67500 0.08500
C 	C 	0.88950 0.79620 0.85210 0.08000
C 	C 	0.99280 0.91080 0.75080 0.02900
C 	C 	0.96300 0.85380 0.93500 -0.02200
C 	C 	0.99070 0.91800 0.70450 -0.01400
C 	C 	0.97580 0.86450 0.89630 0.04300
C 	C 	0.02920 0.90390 0.91190 -0.06400
C 	C 	0.03000 0.93600 0.80800 -0.04000
C 	C 	0.58770 0.26270 0.93760 0.08500
C 	C 	0.61050 0.46260 0.90670 0.08000
C 	C 	0.50720 0.25800 0.91800 0.03000
C 	C 	0.53700 0.47200 0.89080 -0.02200
C 	C 	0.50930 0.21380 0.92730 -0.01600
C 	C 	0.52420 0.42050 0.88870 0.04400
C 	C 	0.47080 0.38270 0.87470 -0.06500
C 	C 	0.47000 0.27800 0.90600 -0.04000
C 	C 	0.82510 0.65010 0.56240 0.08500
C 	C 	0.05590 0.70380 0.59330 0.08000
C 	C 	0.84000 0.58920 0.58200 0.03000
C 	C 	0.08120 0.64620 0.60920 -0.02200
C 	C 	0.78650 0.58200 0.57270 -0.01500
C 	C 	0.03180 0.63550 0.61130 0.04400
C 	C 	0.00800 0.59610 0.62530 -0.06500
C 	C 	0.87200 0.56400 0.59400 -0.04000
C 	C 	0.43760 0.58770 0.76270 0.08500
C 	C 	0.40670 0.61050 0.96260 0.08000
C 	C 	0.41800 0.50720 0.75800 0.03000
C 	C 	0.39080 0.53700 0.97200 -0.02200
C 	C 	0.42730 0.50930 0.71380 -0.01500
C 	C 	0.38870 0.52420 0.92050 0.04400
C 	C 	0.37470 0.47080 0.88270 -0.06500
C 	C 	0.40600 0.47000 0.77800 -0.04000
C 	C 	0.06240 0.82510 0.15010 0.08500
C 	C 	0.09330 0.05590 0.20380 0.08000
C 	C 	0.08200 0.84000 0.08920 0.02900
C 	C 	0.10920 0.08120 0.14620 -0.02200
C 	C 	0.07270 0.78650 0.08200 -0.01600
C 	C 	0.11130 0.03180 0.13550 0.04400
C 	C 	0.12530 0.00800 0.09610 -0.06300
C 	C 	0.09400 0.87200 0.06400 -0.04000
C 	C 	0.32500 0.67490 0.73730 0.08500
C 	C 	0.14790 0.44410 0.53740 0.08000
C 	C 	0.24920 0.66000 0.74200 0.03000
C 	C 	0.06500 0.41880 0.52800 -0.02200
C 	C 	0.29550 0.71350 0.78620 -0.01500
C 	C 	0.10370 0.46820 0.57950 0.04500
C 	C 	0.08810 0.49200 0.61730 -0.06500
C 	C 	0.19200 0.62800 0.72200 -0.04000
C 	C 	0.17500 0.91230 0.34990 0.08500
C 	C 	0.35210 0.88950 0.29620 0.08000
C 	C 	0.25080 0.99280 0.41080 0.02900
C 	C 	0.43500 0.96300 0.35380 -0.02200
C 	C 	0.20450 0.99070 0.41800 -0.01700
C 	C 	0.39630 0.97580 0.36450 0.04400
C 	C 	0.41190 0.02920 0.40390 -0.06400
C 	C 	0.30800 0.03000 0.43600 -0.03900
C 	C 	0.84990 0.17500 0.41230 0.08500
C 	C 	0.79620 0.35210 0.38950 0.08000
C 	C 	0.91080 0.25080 0.49280 0.03000
C 	C 	0.85380 0.43500 0.46300 -0.02200
C 	C 	0.91800 0.20450 0.49070 -0.01500
C 	C 	0.86450 0.39630 0.47580 0.04400
C 	C 	0.90390 0.41190 0.52920 -0.06500
C 	C 	0.93600 0.30800 0.53000 -0.04000
C 	C 	0.23730 0.32500 0.17490 0.08500
C 	C 	0.03740 0.14790 0.94410 0.08100
C 	C 	0.24200 0.24920 0.16000 0.03000
C 	C 	0.02800 0.06500 0.91880 -0.02200
C 	C 	0.28620 0.29550 0.21350 -0.01500
C 	C 	0.07950 0.10370 0.96820 0.04500
C 	C 	0.11730 0.08810 0.99200 -0.06300
C 	C 	0.22200 0.19200 0.12800 -0.04000
C 	C 	0.65010 0.06240 0.32510 0.08500
C 	C 	0.70380 0.09330 0.55590 0.08000
C 	C 	0.58920 0.08200 0.34000 0.03000
C 	C 	0.64620 0.10920 0.58120 -0.02200
C 	C 	0.58200 0.07270 0.28650 -0.01500
C 	C 	0.63550 0.11130 0.53180 0.04400
C 	C 	0.59610 0.12530 0.50800 -0.06500
C 	C 	0.56400 0.09400 0.37200 -0.04000
C 	C 	0.26270 0.43760 0.08770 0.08500
C 	C 	0.46260 0.40670 0.11050 0.08000
C 	C 	0.25800 0.41800 0.00720 0.02900
C 	C 	0.47200 0.39080 0.03700 -0.02200
C 	C 	0.21380 0.42730 0.00930 -0.01800
C 	C 	0.42050 0.38870 0.02420 0.04400
C 	C 	0.38270 0.37470 0.97080 -0.06400
C 	C 	0.27800 0.40600 0.97000 -0.03900
C 	C 	0.26270 0.82510 0.67500 0.08500
C 	C 	0.46260 0.05590 0.85210 0.08000
C 	C 	0.25800 0.84000 0.75080 0.03000
C 	C 	0.47200 0.08120 0.93500 -0.02200
C 	C 	0.21380 0.78650 0.70450 -0.01500
C 	C 	0.42050 0.03180 0.89630 0.04400
C 	C 	0.38270 0.00800 0.91190 -0.06500
C 	C 	0.27800 0.87200 0.80800 -0.04000
C 	C 	0.65010 0.58770 0.82500 0.08500
C 	C 	0.70380 0.61050 0.64790 0.08000
C 	C 	0.58920 0.50720 0.74920 0.03000
C 	C 	0.64620 0.53700 0.56500 -0.02200
C 	C 	0.58200 0.50930 0.79550 -0.01500
C 	C 	0.63550 0.52420 0.60370 0.04400
C 	C 	0.59610 0.47080 0.58810 -0.06500
C 	C 	0.56400 0.47000 0.69200 -0.04000
C 	C 	0.23730 0.91230 0.56240 0.08500
C 	C 	0.03740 0.88950 0.59330 0.08000
C 	C 	0.24200 0.99280 0.58200 0.02900
C 	C 	0.02800 0.96300 0.60920 -0.02200
C 	C 	0.28620 0.99070 0.57270 -0.01600
C 	C 	0.07950 0.97580 0.61130 0.04200
C 	C 	0.11730 0.02920 0.62530 -0.06300
C 	C 	0.22200 0.03000 0.59400 -0.03900
C 	C 	0.84990 0.67490 0.93760 0.08500
C 	C 	0.79620 0.44410 0.90670 0.08000
C 	C 	0.91080 0.66000 0.91800 0.03000
C 	C 	0.85380 0.41880 0.89080 -0.02200
C 	C 	0.91800 0.71350 0.92730 -0.01600
C 	C 	0.86450 0.46820 0.88870 0.04400
C 	C 	0.90390 0.49200 0.87470 -0.06500
C 	C 	0.93600 0.62800 0.90600 -0.04000
C 	C 	0.91230 0.06240 0.73730 0.08500
C 	C 	0.88950 0.09330 0.53740 0.08000
C 	C 	0.99280 0.08200 0.74200 0.02800
C 	C 	0.96300 0.10920 0.52800 -0.02100
C 	C 	0.99070 0.07270 0.78620 -0.02100
C 	C 	0.97580 0.11130 0.57950 0.04100
C 	C 	0.02920 0.12530 0.61730 -0.06200
C 	C 	0.03000 0.09400 0.72200 -0.03700
C 	C 	0.67490 0.43760 0.34990 0.08500
C 	C 	0.44410 0.40670 0.29620 0.08000
C 	C 	0.66000 0.41800 0.41080 0.03000
C 	C 	0.41880 0.39080 0.35380 -0.02200
C 	C 	0.71350 0.42730 0.41800 -0.01500
C 	C 	0.46820 0.38870 0.36450 0.04400
C 	C 	0.49200 0.37470 0.40390 -0.06500
C 	C 	0.62800 0.40600 0.43600 -0.04000
C 	C 	0.82510 0.17500 0.76270 0.08500
C 	C 	0.05590 0.35210 0.96260 0.08100
C 	C 	0.84000 0.25080 0.75800 0.03000
C 	C 	0.08120 0.43500 0.97200 -0.02200
C 	C 	0.78650 0.20450 0.71380 -0.01500
C 	C 	0.03180 0.39630 0.92050 0.04400
C 	C 	0.00800 0.41190 0.88270 -0.06200
C 	C 	0.87200 0.30800 0.77800 -0.04000
C 	C 	0.58770 0.32500 0.15010 0.08500
C 	C 	0.61050 0.14790 0.20380 0.08000
C 	C 	0.50720 0.24920 0.08920 0.03000
C 	C 	0.53700 0.06500 0.14620 -0.02200
C 	C 	0.50930 0.29550 0.08200 -0.01500
C 	C 	0.52420 0.10370 0.13550 0.04400
C 	C 	0.47080 0.08810 0.09610 -0.06500
C 	C 	0.47000 0.19200 0.06400 -0.04000
C 	C 	0.32500 0.65010 0.08770 0.08500
C 	C 	0.14790 0.70380 0.11050 0.08000
C 	C 	0.24920 0.58920 0.00720 0.02800
C 	C 	0.06500 0.64620 0.03700 -0.02100
C 	C 	0.29550 0.58200 0.00930 -0.01700
C 	C 	0.10370 0.63550 0.02420 0.04100
C 	C 	0.08810 0.59610 0.97080 -0.06200
C 	C 	0.19200 0.56400 0.97000 -0.03800
C 	C 	0.17500 0.26270 0.32510 0.08500
C 	C 	0.35210 0.46260 0.55590 0.08000
C 	C 	0.25080 0.25800 0.34000 0.03000
C 	C 	0.43500 0.47200 0.58120 -0.02200
C 	C 	0.20450 0.21380 0.28650 -0.01500
C 	C 	0.39630 0.42050 0.53180 0.04400
C 	C 	0.41190 0.38270 0.50800 -0.06500
C 	C 	0.30800 0.27800 0.37200 -0.04000
C 	C 	0.43760 0.84990 0.17490 0.08500
C 	C 	0.40670 0.79620 0.94410 0.08000
C 	C 	0.41800 0.91080 0.16000 0.03000
C 	C 	0.39080 0.85380 0.91880 -0.02200
C 	C 	0.42730 0.91800 0.21350 -0.01500
C 	C 	0.38870 0.86450 0.96820 0.04400
C 	C 	0.37470 0.90390 0.99200 -0.06400
C 	C 	0.40600 0.93600 0.12800 -0.04000
C 	C 	0.06240 0.23730 0.41230 0.08500
C 	C 	0.09330 0.03740 0.38950 0.08000
C 	C 	0.08200 0.24200 0.49280 0.03000
C 	C 	0.10920 0.02800 0.46300 -0.02200
C 	C 	0.07270 0.28620 0.49070 -0.01500
C 	C 	0.11130 0.07950 0.47580 0.04500
C 	C 	0.12530 0.11730 0.52920 -0.06500
C 	C 	0.09400 0.22200 0.53000 -0.04000
C 	C 	0.32510 0.76270 0.17500 0.08500
C 	C 	0.55590 0.96260 0.35210 0.08000
C 	C 	0.34000 0.75800 0.25080 0.03000
C 	C 	0.58120 0.97200 0.43500 -0.02200
C 	C 	0.28650 0.71380 0.20450 -0.01500
C 	C 	0.53180 0.92050 0.39630 0.04400
C 	C 	0.50800 0.88270 0.41190 -0.06500
C 	C 	0.37200 0.77800 0.30800 -0.04000
C 	C 	0.08770 0.15010 0.32500 0.08500
C 	C 	0.11050 0.20380 0.14790 0.08000
C 	C 	0.00720 0.08920 0.24920 0.02900
C 	C 	0.03700 0.14620 0.06500 -0.02200
C 	C 	0.00930 0.08200 0.29550 -0.01400
C 	C 	0.02420 0.13550 0.10370 0.04300
C 	C 	0.97080 0.09610 0.08810 -0.06400
C 	C 	0.97000 0.06400 0.19200 -0.04000
C 	C 	0.41230 0.73730 0.06240 0.08500
C 	C 	0.38950 0.53740 0.09330 0.08000
C 	C 	0.49280 0.74200 0.08200 0.03000
C 	C 	0.46300 0.52800 0.10920 -0.02200
C 	C 	0.49070 0.78620 0.07270 -0.01600
C 	C 	0.47580 0.57950 0.11130 0.04400
C 	C 	0.52920 0.61730 0.12530 -0.06500
C 	C 	0.53000 0.72200 0.09400 -0.04000
C 	C 	0.17490 0.34990 0.43760 0.08500
C 	C 	0.94410 0.29620 0.40670 0.08000
C 	C 	0.16000 0.41080 0.41800 0.03000
C 	C 	0.91880 0.35380 0.39080 -0.02200
C 	C 	0.21350 0.41800 0.42730 -0.01500
C 	C 	0.96820 0.36450 0.38870 0.04400
C 	C 	0.99200 0.40390 0.37470 -0.06500
C 	C 	0.12800 0.43600 0.40600 -0.04000
C 	C 	0.56240 0.41230 0.23730 0.08500
C 	C 	0.59330 0.38950 0.03740 0.08000
C 	C 	0.58200 0.49280 0.24200 0.03000
C 	C 	0.60920 0.46300 0.02800 -0.02200
C 	C 	0.57270 0.49070 0.28620 -0.01500
C 	C 	0.61130 0.47580 0.07950 0.04400
C 	C 	0.62530 0.52920 0.11730 -0.06500
C 	C 	0.59400 0.53000 0.22200 -0.04000
C 	C 	0.93760 0.17490 0.84990 0.08500
C 	C 	0.90670 0.94410 0.79620 0.08000
C 	C 	0.91800 0.16000 0.91080 0.02900
C 	C 	0.89080 0.91880 0.85380 -0.02200
C 	C 	0.92730 0.21350 0.91800 -0.01600
C 	C 	0.88870 0.96820 0.86450 0.04400
C 	C 	0.87470 0.99200 0.90390 -0.06300
C 	C 	0.90600 0.12800 0.93600 -0.04000
C 	C 	0.67500 0.32510 0.26270 0.08500
C 	C 	0.85210 0.55590 0.46260 0.08000
C 	C 	0.75080 0.34000 0.25800 0.03000
C 	C 	0.93500 0.58120 0.47200 -0.02200
C 	C 	0.70450 0.28650 0.21380 -0.01500
C 	C 	0.89630 0.53180 0.42050 0.04500
C 	C 	0.91190 0.50800 0.38270 -0.06500
C 	C 	0.80800 0.37200 0.27800 -0.04000
C 	C 	0.82500 0.08770 0.65010 0.08500
C 	C 	0.64790 0.11050 0.70380 0.08000
C 	C 	0.74920 0.00720 0.58920 0.02900
C 	C 	0.56500 0.03700 0.64620 -0.02200
C 	C 	0.79550 0.00930 0.58200 -0.01700
C 	C 	0.60370 0.02420 0.63550 0.04400
C 	C 	0.58810 0.97080 0.59610 -0.06400
C 	C 	0.69200 0.97000 0.56400 -0.03900
C 	C 	0.15010 0.82500 0.58770 0.08500
C 	C 	0.20380 0.64790 0.61050 0.08000
C 	C 	0.08920 0.74920 0.50720 0.03000
C 	C 	0.14620 0.56500 0.53700 -0.02200
C 	C 	0.08200 0.79550 0.50930 -0.01500
C 	C 	0.13550 0.60370 0.52420 0.04400
C 	C 	0.09610 0.58810 0.47080 -0.06500
C 	C 	0.06400 0.69200 0.47000 -0.04000
C 	C 	0.76270 0.67500 0.82510 0.08500
C 	C 	0.96260 0.85210 0.05590 0.08100
C 	C 	0.75800 0.75080 0.84000 0.03000
C 	C 	0.97200 0.93500 0.08120 -0.02200
C 	C 	0.71380 0.70450 0.78650 -0.01500
C 	C 	0.92050 0.89630 0.03180 0.04500
C 	C 	0.88270 0.91190 0.00800 -0.06300
C 	C 	0.77800 0.80800 0.87200 -0.04000
C 	C 	0.34990 0.93760 0.67490 0.08500
C 	C 	0.29620 0.90670 0.44410 0.08000
C 	C 	0.41080 0.91800 0.66000 0.03000
C 	C 	0.35380 0.89080 0.41880 -0.02200
C 	C 	0.41800 0.92730 0.71350 -0.01500
C 	C 	0.36450 0.88870 0.46820 0.04400
C 	C 	0.40390 0.87470 0.49200 -0.06500
C 	C 	0.43600 0.90600 0.62800 -0.04000
C 	C 	0.73730 0.56240 0.91230 0.08500
C 	C 	0.53740 0.59330 0.88950 0.08000
C 	C 	0.74200 0.58200 0.99280 0.02900
C 	C 	0.52800 0.60920 0.96300 -0.02200
C 	C 	0.78620 0.57270 0.99070 -0.01800
C 	C 	0.57950 0.61130 0.97580 0.04400
C 	C 	0.61730 0.62530 0.02920 -0.06400
C 	C 	0.72200 0.59400 0.03000 -0.03900
C 	C 	0.73730 0.17490 0.32500 0.08500
C 	C 	0.53740 0.94410 0.14790 0.08000
C 	C 	0.74200 0.16000 0.24920 0.03000
C 	C 	0.52800 0.91880 0.06500 -0.02200
C 	C 	0.78620 0.21350 0.29550 -0.01500
C 	C 	0.57950 0.96820 0.10370 0.04400
C 	C 	0.61730 0.99200 0.08810 -0.06500
C 	C 	0.72200 0.12800 0.19200 -0.04000
C 	C 	0.34990 0.41230 0.17500 0.08500
C 	C 	0.29620 0.38950 0.35210 0.08000
C 	C 	0.41080 0.49280 0.25080 0.03000
C 	C 	0.35380 0.46300 0.43500 -0.02200
C 	C 	0.41800 0.49070 0.20450 -0.01500
C 	C 	0.36450 0.47580 0.39630 0.04400
C 	C 	0.40390 0.52920 0.41190 -0.06500
C 	C 	0.43600 0.53000 0.30800 -0.04000
C 	C 	0.76270 0.08770 0.43760 0.08500
C 	C 	0.96260 0.11050 0.40670 0.08000
C 	C 	0.75800 0.00720 0.41800 0.02900
C 	C 	0.97200 0.03700 0.39080 -0.02200
C 	C 	0.71380 0.00930 0.42730 -0.01600
C 	C 	0.92050 0.02420 0.38870 0.04200
C 	C 	0.88270 0.97080 0.37470 -0.06300
C 	C 	0.77800 0.97000 0.40600 -0.03900
C 	C 	0.15010 0.32510 0.06240 0.08500
C 	C 	0.20380 0.55590 0.09330 0.08000
C 	C 	0.08920 0.34000 0.08200 0.03000
C 	C 	0.14620 0.58120 0.10920 -0.02200
C 	C 	0.08200 0.28650 0.07270 -0.01600
C 	C 	0.13550 0.53180 0.11130 0.04400
C 	C 	0.09610 0.50800 0.12530 -0.06500
C 	C 	0.06400 0.37200 0.09400 -0.04000
C 	C 	0.08770 0.93760 0.26270 0.08500
C 	C 	0.11050 0.90670 0.46260 0.08000
C 	C 	0.00720 0.91800 0.25800 0.02800
C 	C 	0.03700 0.89080 0.47200 -0.02100
C 	C 	0.00930 0.92730 0.21380 -0.02100
C 	C 	0.02420 0.88870 0.42050 0.04100
C 	C 	0.97080 0.87470 0.38270 -0.06200
C 	C 	0.97000 0.90600 0.27800 -0.03700
C 	C 	0.32510 0.56240 0.65010 0.08500
C 	C 	0.55590 0.59330 0.70380 0.08000
C 	C 	0.34000 0.58200 0.58920 0.03000
C 	C 	0.58120 0.60920 0.64620 -0.02200
C 	C 	0.28650 0.57270 0.58200 -0.01500
C 	C 	0.53180 0.61130 0.63550 0.04400
C 	C 	0.50800 0.62530 0.59610 -0.06500
C 	C 	0.37200 0.59400 0.56400 -0.04000
C 	C 	0.17490 0.82500 0.23730 0.08500
C 	C 	0.94410 0.64790 0.03740 0.08100
C 	C 	0.16000 0.74920 0.24200 0.03000
C 	C 	0.91880 0.56500 0.02800 -0.02200
C 	C 	0.21350 0.79550 0.28620 -0.01500
C 	C 	0.96820 0.60370 0.07950 0.04400
C 	C 	0.99200 0.58810 0.11730 -0.06200
C 	C 	0.12800 0.69200 0.22200 -0.04000
C 	C 	0.41230 0.67500 0.84990 0.08500
C 	C 	0.38950 0.85210 0.79620 0.08000
C 	C 	0.49280 0.75080 0.91080 0.03000
C 	C 	0.46300 0.93500 0.85380 -0.02200
C 	C 	0.49070 0.70450 0.91800 -0.01500
C 	C 	0.47580 0.89630 0.86450 0.04400
C 	C 	0.52920 0.91190 0.90390 -0.06500
C 	C 	0.53000 0.80800 0.93600 -0.04000
C 	C 	0.67500 0.34990 0.91230 0.08500
C 	C 	0.85210 0.29620 0.88950 0.08000
C 	C 	0.75080 0.41080 0.99280 0.02800
C 	C 	0.93500 0.35380 0.96300 -0.02100
C 	C 	0.70450 0.41800 0.99070 -0.01700
C 	C 	0.89630 0.36450 0.97580 0.04100
C 	C 	0.91190 0.40390 0.02920 -0.06200
C 	C 	0.80800 0.43600 0.03000 -0.03800
C 	C 	0.82500 0.73730 0.67490 0.08500
C 	C 	0.64790 0.53740 0.44410 0.08000
C 	C 	0.74920 0.74200 0.66000 0.03000
C 	C 	0.56500 0.52800 0.41880 -0.02200
C 	C 	0.79550 0.78620 0.71350 -0.01500
C 	C 	0.60370 0.57950 0.46820 0.04400
C 	C 	0.58810 0.61730 0.49200 -0.06500
C 	C 	0.69200 0.72200 0.62800 -0.04000
C 	C 	0.56240 0.15010 0.82510 0.08500
C 	C 	0.59330 0.20380 0.05590 0.08000
C 	C 	0.58200 0.08920 0.84000 0.03000
C 	C 	0.60920 0.14620 0.08120 -0.02200
C 	C 	0.57270 0.08200 0.78650 -0.01500
C 	C 	0.61130 0.13550 0.03180 0.04400
C 	C 	0.62530 0.09610 0.00800 -0.06400
C 	C 	0.59400 0.06400 0.87200 -0.04000
C 	C 	0.93760 0.76270 0.58770 0.08500
C 	C 	0.90670 0.96260 0.61050 0.08000
C 	C 	0.91800 0.75800 0.50720 0.03000
C 	C 	0.89080 0.97200 0.53700 -0.02200
C 	C 	0.92730 0.71380 0.50930 -0.01500
C 	C 	0.88870 0.92050 0.52420 0.04500
C 	C 	0.87470 0.88270 0.47080 -0.06500
C 	C 	0.90600 0.77800 0.47000 -0.04000
N 	N 	0.63610 0.21080 0.77110 -0.25200
N 	N 	0.72340 0.28330 0.84310 -0.25000
N 	N 	0.40188 0.00030 0.59178 -0.22900
N 	N 	0.48370 0.08290 0.65620 -0.25700
N 	N 	0.57500 0.18070 0.67350 -0.18900
N 	N 	0.54510 0.16160 0.61550 -0.08000
N 	N 	0.93970 0.86500 0.72890 -0.25200
N 	N 	0.94020 0.88030 0.65690 -0.25000
N 	N 	0.90852 0.81010 0.90822 -0.22900
N 	N 	0.92670 0.82750 0.84380 -0.25700
N 	N 	0.00720 0.90150 0.82650 -0.18900
N 	N 	0.04610 0.92960 0.88450 -0.08000
N 	N 	0.56030 0.28920 0.92530 -0.25200
N 	N 	0.55980 0.21670 0.94010 -0.25000
N 	N 	0.59148 0.49970 0.90158 -0.22900
N 	N 	0.57330 0.41710 0.90080 -0.25700
N 	N 	0.49280 0.31930 0.89430 -0.18900
N 	N 	0.45390 0.33840 0.88350 -0.08000
N 	N 	0.86390 0.63500 0.57470 -0.25200
N 	N 	0.77660 0.61970 0.55990 -0.25000
N 	N 	0.09812 0.68990 0.59842 -0.22900
N 	N 	0.01630 0.67250 0.59920 -0.25700
N 	N 	0.92500 0.59850 0.60570 -0.18900
N 	N 	0.95490 0.57040 0.61650 -0.08000
N 	N 	0.42530 0.56030 0.78920 -0.25200
N 	N 	0.44010 0.55980 0.71670 -0.25000
N 	N 	0.40158 0.59148 0.99970 -0.22900
N 	N 	0.40080 0.57330 0.91710 -0.25700
N 	N 	0.39430 0.49280 0.81930 -0.18900
N 	N 	0.38350 0.45390 0.83840 -0.08000
N 	N 	0.07470 0.86390 0.13500 -0.25200
N 	N 	0.05990 0.77660 0.11970 -0.25000
N 	N 	0.09842 0.09812 0.18990 -0.22900
N 	N 	0.09920 0.01630 0.17250 -0.25700
N 	N 	0.10570 0.92500 0.09850 -0.19000
N 	N 	0.11650 0.95490 0.07040 -0.08200
N 	N 	0.27110 0.63610 0.71080 -0.25200
N 	N 	0.34310 0.72340 0.78330 -0.25000
N 	N 	0.09178 0.40188 0.50030 -0.22900
N 	N 	0.15620 0.48370 0.58290 -0.25700
N 	N 	0.17350 0.57500 0.68070 -0.18900
N 	N 	0.11550 0.54510 0.66160 -0.08000
N 	N 	0.22890 0.93970 0.36500 -0.25200
N 	N 	0.15690 0.94020 0.38030 -0.25000
N 	N 	0.40822 0.90852 0.31010 -0.22900
N 	N 	0.34380 0.92670 0.32750 -0.25700
N 	N 	0.32650 0.00720 0.40150 -0.18900
N 	N 	0.38450 0.04610 0.42960 -0.08000
N 	N 	0.86500 0.22890 0.43970 -0.25200
N 	N 	0.88030 0.15690 0.44020 -0.25000
N 	N 	0.81010 0.40822 0.40852 -0.22900
N 	N 	0.82750 0.34380 0.42670 -0.25700
N 	N 	0.90150 0.32650 0.50720 -0.18900
N 	N 	0.92960 0.38450 0.54610 -0.08000
N 	N 	0.21080 0.27110 0.13610 -0.25200
N 	N 	0.28330 0.34310 0.22340 -0.25000
N 	N 	0.00030 0.09178 0.90188 -0.22800
N 	N 	0.08290 0.15620 0.98370 -0.25700
N 	N 	0.18070 0.17350 0.07500 -0.19000
N 	N 	0.16160 0.11550 0.04510 -0.08100
N 	N 	0.63500 0.07470 0.36390 -0.25200
N 	N 	0.61970 0.05990 0.27660 -0.25000
N 	N 	0.68990 0.09842 0.59812 -0.22900
N 	N 	0.67250 0.09920 0.51630 -0.25700
N 	N 	0.59850 0.10570 0.42500 -0.18900
N 	N 	0.57040 0.11650 0.45490 -0.08000
N 	N 	0.28920 0.42530 0.06030 -0.25200
N 	N 	0.21670 0.44010 0.05980 -0.25000
N 	N 	0.49970 0.40158 0.09148 -0.22900
N 	N 	0.41710 0.40080 0.07330 -0.25700
N 	N 	0.31930 0.39430 0.99280 -0.18900
N 	N 	0.33840 0.38350 0.95390 -0.08000
N 	N 	0.28920 0.86390 0.72890 -0.25200
N 	N 	0.21670 0.77660 0.65690 -0.25000
N 	N 	0.49970 0.09812 0.90822 -0.22900
N 	N 	0.41710 0.01630 0.84380 -0.25700
N 	N 	0.31930 0.92500 0.82650 -0.18900
N 	N 	0.33840 0.95490 0.88450 -0.08000
N 	N 	0.63500 0.56030 0.77110 -0.25200
N 	N 	0.61970 0.55980 0.84310 -0.25000
N 	N 	0.68990 0.59148 0.59178 -0.22900
N 	N 	0.67250 0.57330 0.65620 -0.25700
N 	N 	0.59850 0.49280 0.67350 -0.18900
N 	N 	0.57040 0.45390 0.61550 -0.08000
N 	N 	0.21080 0.93970 0.57470 -0.25200
N 	N 	0.28330 0.94020 0.55990 -0.25000
N 	N 	0.00030 0.90852 0.59842 -0.22900
N 	N 	0.08290 0.92670 0.59920 -0.25700
N 	N 	0.18070 0.00720 0.60570 -0.18900
N 	N 	0.16160 0.04610 0.61650 -0.08000
N 	N 	0.86500 0.63610 0.92530 -0.25200
N 	N 	0.88030 0.72340 0.94010 -0.25000
N 	N 	0.81010 0.40188 0.90158 -0.22900
N 	N 	0.82750 0.48370 0.90080 -0.25700
N 	N 	0.90150 0.57500 0.89430 -0.19000
N 	N 	0.92960 0.54510 0.88350 -0.08000
N 	N 	0.93970 0.07470 0.71080 -0.25200
N 	N 	0.94020 0.05990 0.78330 -0.25000
N 	N 	0.90852 0.09842 0.50030 -0.22900
N 	N 	0.92670 0.09920 0.58290 -0.25700
N 	N 	0.00720 0.10570 0.68070 -0.18900
N 	N 	0.04610 0.11650 0.66160 -0.08000
N 	N 	0.63610 0.42530 0.36500 -0.25200
N 	N 	0.72340 0.44010 0.38030 -0.25000
N 	N 	0.40188 0.40158 0.31010 -0.22900
N 	N 	0.48370 0.40080 0.32750 -0.25700
N 	N 	0.57500 0.39430 0.40150 -0.18900
N 	N 	0.54510 0.38350 0.42960 -0.08000
N 	N 	0.86390 0.22890 0.78920 -0.25200
N 	N 	0.77660 0.15690 0.71670 -0.25000
N 	N 	0.09812 0.40822 0.99970 -0.22800
N 	N 	0.01630 0.34380 0.91710 -0.25600
N 	N 	0.92500 0.32650 0.81930 -0.19000
N 	N 	0.95490 0.38450 0.83840 -0.08200
N 	N 	0.56030 0.27110 0.13500 -0.25200
N 	N 	0.55980 0.34310 0.11970 -0.25000
N 	N 	0.59148 0.09178 0.18990 -0.22900
N 	N 	0.57330 0.15620 0.17250 -0.25700
N 	N 	0.49280 0.17350 0.09850 -0.18900
N 	N 	0.45390 0.11550 0.07040 -0.08000
N 	N 	0.27110 0.63500 0.06030 -0.25200
N 	N 	0.34310 0.61970 0.05980 -0.25000
N 	N 	0.09178 0.68990 0.09148 -0.22900
N 	N 	0.15620 0.67250 0.07330 -0.25700
N 	N 	0.17350 0.59850 0.99280 -0.18900
N 	N 	0.11550 0.57040 0.95390 -0.08000
N 	N 	0.22890 0.28920 0.36390 -0.25200
N 	N 	0.15690 0.21670 0.27660 -0.25000
N 	N 	0.40822 0.49970 0.59812 -0.22900
N 	N 	0.34380 0.41710 0.51630 -0.25700
N 	N 	0.32650 0.31930 0.42500 -0.18900
N 	N 	0.38450 0.33840 0.45490 -0.08000
N 	N 	0.42530 0.86500 0.13610 -0.25200
N 	N 	0.44010 0.88030 0.22340 -0.25000
N 	N 	0.40158 0.81010 0.90188 -0.22900
N 	N 	0.40080 0.82750 0.98370 -0.25700
N 	N 	0.39430 0.90150 0.07500 -0.19000
N 	N 	0.38350 0.92960 0.04510 -0.08100
N 	N 	0.07470 0.21080 0.43970 -0.25200
N 	N 	0.05990 0.28330 0.44020 -0.25000
N 	N 	0.09842 0.00030 0.40852 -0.22800
N 	N 	0.09920 0.08290 0.42670 -0.25700
N 	N 	0.10570 0.18070 0.50720 -0.18900
N 	N 	0.11650 0.16160 0.54610 -0.08000
N 	N 	0.36390 0.78920 0.22890 -0.25200
N 	N 	0.27660 0.71670 0.15690 -0.25000
N 	N 	0.59812 0.99970 0.40822 -0.22900
N 	N 	0.51630 0.91710 0.34380 -0.25700
N 	N 	0.42500 0.81930 0.32650 -0.18900
N 	N 	0.45490 0.83840 0.38450 -0.08000
N 	N 	0.06030 0.13500 0.27110 -0.25200
N 	N 	0.05980 0.11970 0.34310 -0.25000
N 	N 	0.09148 0.18990 0.09178 -0.22900
N 	N 	0.07330 0.17250 0.15620 -0.25700
N 	N 	0.99280 0.09850 0.17350 -0.18900
N 	N 	0.95390 0.07040 0.11550 -0.08000
N 	N 	0.43970 0.71080 0.07470 -0.25200
N 	N 	0.44020 0.78330 0.05990 -0.25000
N 	N 	0.40852 0.50030 0.09842 -0.22900
N 	N 	0.42670 0.58290 0.09920 -0.25700
N 	N 	0.50720 0.68070 0.10570 -0.18900
N 	N 	0.54610 0.66160 0.11650 -0.08000
N 	N 	0.13610 0.36500 0.42530 -0.25200
N 	N 	0.22340 0.38030 0.44010 -0.25000
N 	N 	0.90188 0.31010 0.40158 -0.22900
N 	N 	0.98370 0.32750 0.40080 -0.25700
N 	N 	0.07500 0.40150 0.39430 -0.18900
N 	N 	0.04510 0.42960 0.38350 -0.08000
N 	N 	0.57470 0.43970 0.21080 -0.25200
N 	N 	0.55990 0.44020 0.28330 -0.25000
N 	N 	0.59842 0.40852 0.00030 -0.22900
N 	N 	0.59920 0.42670 0.08290 -0.25700
N 	N 	0.60570 0.50720 0.18070 -0.18900
N 	N 	0.61650 0.54610 0.16160 -0.08000
N 	N 	0.92530 0.13610 0.86500 -0.25200
N 	N 	0.94010 0.22340 0.88030 -0.25000
N 	N 	0.90158 0.90188 0.81010 -0.22900
N 	N 	0.90080 0.98370 0.82750 -0.25700
N 	N 	0.89430 0.07500 0.90150 -0.19000
N 	N 	0.88350 0.04510 0.92960 -0.08200
N 	N 	0.72890 0.36390 0.28920 -0.25200
N 	N 	0.65690 0.27660 0.21670 -0.25000
N 	N 	0.90822 0.59812 0.49970 -0.22900
N 	N 	0.84380 0.51630 0.41710 -0.25700
N 	N 	0.82650 0.42500 0.31930 -0.18900
N 	N 	0.88450 0.45490 0.33840 -0.08000
N 	N 	0.77110 0.06030 0.63500 -0.25200
N 	N 	0.84310 0.05980 0.61970 -0.25000
N 	N 	0.59178 0.09148 0.68990 -0.22900
N 	N 	0.65620 0.07330 0.67250 -0.25700
N 	N 	0.67350 0.99280 0.59850 -0.18900
N 	N 	0.61550 0.95390 0.57040 -0.08000
N 	N 	0.13500 0.77110 0.56030 -0.25200
N 	N 	0.11970 0.84310 0.55980 -0.25000
N 	N 	0.18990 0.59178 0.59148 -0.22900
N 	N 	0.17250 0.65620 0.57330 -0.25700
N 	N 	0.09850 0.67350 0.49280 -0.18900
N 	N 	0.07040 0.61550 0.45390 -0.08000
N 	N 	0.78920 0.72890 0.86390 -0.25200
N 	N 	0.71670 0.65690 0.77660 -0.25000
N 	N 	0.99970 0.90822 0.09812 -0.22800
N 	N 	0.91710 0.84380 0.01630 -0.25700
N 	N 	0.81930 0.82650 0.92500 -0.19000
N 	N 	0.83840 0.88450 0.95490 -0.08100
N 	N 	0.36500 0.92530 0.63610 -0.25200
N 	N 	0.38030 0.94010 0.72340 -0.25000
N 	N 	0.31010 0.90158 0.40188 -0.22900
N 	N 	0.32750 0.90080 0.48370 -0.25700
N 	N 	0.40150 0.89430 0.57500 -0.18900
N 	N 	0.42960 0.88350 0.54510 -0.08000
N 	N 	0.71080 0.57470 0.93970 -0.25200
N 	N 	0.78330 0.55990 0.94020 -0.25000
N 	N 	0.50030 0.59842 0.90852 -0.22900
N 	N 	0.58290 0.59920 0.92670 -0.25700
N 	N 	0.68070 0.60570 0.00720 -0.18900
N 	N 	0.66160 0.61650 0.04610 -0.08000
N 	N 	0.71080 0.13610 0.27110 -0.25200
N 	N 	0.78330 0.22340 0.34310 -0.25000
N 	N 	0.50030 0.90188 0.09178 -0.22900
N 	N 	0.58290 0.98370 0.15620 -0.25700
N 	N 	0.68070 0.07500 0.17350 -0.18900
N 	N 	0.66160 0.04510 0.11550 -0.08000
N 	N 	0.36500 0.43970 0.22890 -0.25200
N 	N 	0.38030 0.44020 0.15690 -0.25000
N 	N 	0.31010 0.40852 0.40822 -0.22900
N 	N 	0.32750 0.42670 0.34380 -0.25700
N 	N 	0.40150 0.50720 0.32650 -0.18900
N 	N 	0.42960 0.54610 0.38450 -0.08000
N 	N 	0.78920 0.06030 0.42530 -0.25200
N 	N 	0.71670 0.05980 0.44010 -0.25000
N 	N 	0.99970 0.09148 0.40158 -0.22900
N 	N 	0.91710 0.07330 0.40080 -0.25700
N 	N 	0.81930 0.99280 0.39430 -0.18900
N 	N 	0.83840 0.95390 0.38350 -0.08000
N 	N 	0.13500 0.36390 0.07470 -0.25200
N 	N 	0.11970 0.27660 0.05990 -0.25000
N 	N 	0.18990 0.59812 0.09842 -0.22900
N 	N 	0.17250 0.51630 0.09920 -0.25700
N 	N 	0.09850 0.42500 0.10570 -0.19000
N 	N 	0.07040 0.45490 0.11650 -0.08000
N 	N 	0.06030 0.92530 0.28920 -0.25200
N 	N 	0.05980 0.94010 0.21670 -0.25000
N 	N 	0.09148 0.90158 0.49970 -0.22900
N 	N 	0.07330 0.90080 0.41710 -0.25700
N 	N 	0.99280 0.89430 0.31930 -0.18900
N 	N 	0.95390 0.88350 0.33840 -0.08000
N 	N 	0.36390 0.57470 0.63500 -0.25200
N 	N 	0.27660 0.55990 0.61970 -0.25000
N 	N 	0.59812 0.59842 0.68990 -0.22900
N 	N 	0.51630 0.59920 0.67250 -0.25700
N 	N 	0.42500 0.60570 0.59850 -0.18900
N 	N 	0.45490 0.61650 0.57040 -0.08000
N 	N 	0.13610 0.77110 0.21080 -0.25200
N 	N 	0.22340 0.84310 0.28330 -0.25000
N 	N 	0.90188 0.59178 0.00030 -0.22800
N 	N 	0.98370 0.65620 0.08290 -0.25600
N 	N 	0.07500 0.67350 0.18070 -0.19000
N 	N 	0.04510 0.61550 0.16160 -0.08200
N 	N 	0.43970 0.72890 0.86500 -0.25200
N 	N 	0.44020 0.65690 0.88030 -0.25000
N 	N 	0.40852 0.90822 0.81010 -0.22900
N 	N 	0.42670 0.84380 0.82750 -0.25700
N 	N 	0.50720 0.82650 0.90150 -0.18900
N 	N 	0.54610 0.88450 0.92960 -0.08000
N 	N 	0.72890 0.36500 0.93970 -0.25200
N 	N 	0.65690 0.38030 0.94020 -0.25000
N 	N 	0.90822 0.31010 0.90852 -0.22900
N 	N 	0.84380 0.32750 0.92670 -0.25700
N 	N 	0.82650 0.40150 0.00720 -0.18900
N 	N 	0.88450 0.42960 0.04610 -0.08000
N 	N 	0.77110 0.71080 0.63610 -0.25200
N 	N 	0.84310 0.78330 0.72340 -0.25000
N 	N 	0.59178 0.50030 0.40188 -0.22900
N 	N 	0.65620 0.58290 0.48370 -0.25700
N 	N 	0.67350 0.68070 0.57500 -0.18900
N 	N 	0.61550 0.66160 0.54510 -0.08000
N 	N 	0.57470 0.13500 0.86390 -0.25200
N 	N 	0.55990 0.11970 0.77660 -0.25000
N 	N 	0.59842 0.18990 0.09812 -0.22900
N 	N 	0.59920 0.17250 0.01630 -0.25700
N 	N 	0.60570 0.09850 0.92500 -0.19000
N 	N 	0.61650 0.07040 0.95490 -0.08100
N 	N 	0.92530 0.78920 0.56030 -0.25200
N 	N 	0.94010 0.71670 0.55980 -0.25000
N 	N 	0.90158 0.99970 0.59148 -0.22800
N 	N 	0.90080 0.91710 0.57330 -0.25700
N 	N 	0.89430 0.81930 0.49280 -0.18900
N 	N 	0.88350 0.83840 0.45390 -0.08000
