data_crystal

_cell_length_a 19.63690
_cell_length_b 20.21590
_cell_length_c 22.11290
_cell_angle_alpha 90.00000
_cell_angle_beta  90.00000
_cell_angle_gamma 90.00000

_symmetry_space_group_name_	'P 1'
_symmetry_space_group_name_H-M	'P 1'

loop_
_symmetry_equiv_pos_as_xyz
  x,y,z

loop_
_atom_site_label
_atom_site_type_symbol
_atom_site_fract_x
_atom_site_fract_y
_atom_site_fract_z
_atom_site_charge
Na	Na	0.41873 0.05156 0.41323 0.55500
Na	Na	0.05376 0.93134 0.39225 0.56600
N 	N 	0.29500 0.01581 0.41170 -0.14700
N 	N 	0.16921 0.97527 0.40697 -0.13900
N 	N 	0.42550 0.17704 0.39650 -0.14400
N 	N 	0.07140 0.80559 0.38880 -0.13600
N 	N 	0.46800 0.00983 0.31496 -0.14700
N 	N 	0.02630 0.97360 0.28583 -0.13700
C 	C 	0.28000 0.98050 0.35440 -0.05200
H 	H 	0.31360 0.94460 0.34860 0.01900
H 	H 	0.28420 0.01160 0.32010 0.02500
C 	C 	0.20790 0.95120 0.35520 -0.05000
H 	H 	0.18400 0.96330 0.31740 0.01900
H 	H 	0.21090 0.90230 0.35700 0.02300
C 	C 	0.27920 0.96980 0.46160 -0.04200
H 	H 	0.29160 0.99060 0.50060 0.00700
H 	H 	0.30670 0.92900 0.45690 0.01300
C 	C 	0.20330 0.95170 0.46220 -0.05400
H 	H 	0.19830 0.90310 0.46540 0.02300
H 	H 	0.18130 0.97190 0.49810 0.03100
C 	C 	0.24710 0.07190 0.41570 -0.04800
H 	H 	0.25820 0.10480 0.38420 0.02200
H 	H 	0.25190 0.09350 0.45570 0.02100
C 	C 	0.17250 0.04770 0.40740 -0.04900
H 	H 	0.14390 0.06500 0.44070 0.02500
H 	H 	0.15410 0.06510 0.36880 0.02600
C 	C 	0.49610 0.20180 0.39370 -0.04500
H 	H 	0.51970 0.18160 0.35880 0.02000
H 	H 	0.52070 0.18890 0.43090 0.01200
C 	C 	0.00280 0.77750 0.38730 -0.05200
H 	H 	0.97550 0.79670 0.42060 0.02100
H 	H 	0.98070 0.78950 0.34860 0.02400
C 	C 	0.39060 0.20010 0.34210 -0.04600
H 	H 	0.34320 0.18350 0.34220 0.02200
H 	H 	0.41380 0.18200 0.30600 0.02600
C 	C 	0.11000 0.77650 0.33850 -0.04800
H 	H 	0.08970 0.79070 0.29960 0.02500
H 	H 	0.15760 0.79250 0.33980 0.02700
C 	C 	0.39310 0.20770 0.44910 -0.04600
H 	H 	0.41650 0.19310 0.48640 0.00900
H 	H 	0.34500 0.19330 0.45150 0.01700
C 	C 	0.10400 0.78400 0.44480 -0.04800
H 	H 	0.15080 0.80210 0.44660 0.02500
H 	H 	0.07830 0.80170 0.47980 0.02000
C 	C 	0.47830 0.93770 0.31340 -0.04300
H 	H 	0.43380 0.91510 0.31790 0.01800
H 	H 	0.50760 0.92420 0.34760 0.00900
C 	C 	0.01180 0.91630 0.24680 -0.05200
H 	H 	0.05480 0.89250 0.23810 0.02500
H 	H 	0.98100 0.88550 0.26840 0.02100
C 	C 	0.42690 0.02770 0.26170 -0.04700
H 	H 	0.41870 0.07600 0.26170 0.02200
H 	H 	0.38220 0.00520 0.26410 0.02400
C 	C 	0.96210 0.00830 0.29670 -0.04900
H 	H 	0.93150 0.97940 0.32050 0.01500
H 	H 	0.97120 0.04850 0.32090 0.02300
C 	C 	0.53530 0.04100 0.30740 -0.04700
H 	H 	0.56450 0.02940 0.34230 0.00800
H 	H 	0.52990 0.08970 0.30690 0.02000
C 	C 	0.07040 0.01880 0.25120 -0.04600
H 	H 	0.08120 0.05810 0.27620 0.02700
H 	H 	0.11370 0.99630 0.24120 0.02700
C 	C 	0.97790 0.03730 0.47400 -0.21100
C 	C 	0.97710 0.98440 0.48170 0.19900
H 	H 	0.94510 0.06540 0.43480 0.02600
C 	C 	0.98030 0.90460 0.50720 -0.15600
H 	H 	0.98110 0.85930 0.51850 0.04000
C 	C 	0.93530 0.92630 0.46290 -0.11800
H 	H 	0.90540 0.89570 0.44390 0.01600
C 	C 	0.93410 0.99260 0.44630 -0.09100
H 	H 	0.90330 0.00730 0.41600 0.01100
H 	H 	0.96460 0.90600 0.42860 0.01000
H 	H 	0.90720 0.91340 0.47950 0.10900
H 	H 	0.97710 0.08260 0.46270 0.17800
C 	C 	0.02410 0.94930 0.53490 -0.12500
C 	C 	0.06450 0.06260 0.54970 -0.11900
H 	H 	0.09380 0.03940 0.57860 0.06800
Na	Na	0.08127 0.94844 0.91323 0.55600
Na	Na	0.44624 0.06866 0.89225 0.56700
N 	N 	0.20500 0.98419 0.91170 -0.14500
N 	N 	0.33079 0.02473 0.90697 -0.13800
N 	N 	0.07450 0.82296 0.89650 -0.14300
N 	N 	0.42860 0.19441 0.88880 -0.13500
N 	N 	0.03200 0.99017 0.81496 -0.14600
N 	N 	0.47370 0.02640 0.78583 -0.13600
C 	C 	0.22000 0.01950 0.85440 -0.05100
H 	H 	0.18640 0.05540 0.84860 0.02000
H 	H 	0.21580 0.98840 0.82010 0.02600
C 	C 	0.29210 0.04880 0.85520 -0.04900
H 	H 	0.31600 0.03670 0.81740 0.02000
H 	H 	0.28910 0.09770 0.85700 0.02400
C 	C 	0.22080 0.03020 0.96160 -0.04300
H 	H 	0.20840 0.00940 0.00060 0.00900
H 	H 	0.19330 0.07100 0.95690 0.01300
C 	C 	0.29670 0.04830 0.96220 -0.05300
H 	H 	0.30170 0.09690 0.96540 0.02300
H 	H 	0.31870 0.02810 0.99810 0.03100
C 	C 	0.25290 0.92810 0.91570 -0.04800
H 	H 	0.24180 0.89520 0.88420 0.02200
H 	H 	0.24810 0.90650 0.95570 0.02100
C 	C 	0.32750 0.95230 0.90740 -0.04900
H 	H 	0.35610 0.93500 0.94070 0.02600
H 	H 	0.34590 0.93490 0.86880 0.02600
C 	C 	0.00390 0.79820 0.89370 -0.04500
H 	H 	0.98030 0.81840 0.85880 0.02100
H 	H 	0.97930 0.81110 0.93090 0.01200
C 	C 	0.49720 0.22250 0.88730 -0.05200
H 	H 	0.52450 0.20330 0.92060 0.02100
H 	H 	0.51930 0.21050 0.84860 0.02400
C 	C 	0.10940 0.79990 0.84210 -0.04600
H 	H 	0.15680 0.81650 0.84220 0.02200
H 	H 	0.08620 0.81800 0.80600 0.02500
C 	C 	0.39000 0.22350 0.83850 -0.04800
H 	H 	0.41030 0.20930 0.79960 0.02500
H 	H 	0.34240 0.20750 0.83980 0.02700
C 	C 	0.10690 0.79230 0.94910 -0.04600
H 	H 	0.08350 0.80690 0.98640 0.00900
H 	H 	0.15500 0.80670 0.95150 0.01700
C 	C 	0.39600 0.21600 0.94480 -0.04800
H 	H 	0.34920 0.19790 0.94660 0.02500
H 	H 	0.42170 0.19830 0.97980 0.02000
C 	C 	0.02170 0.06230 0.81340 -0.04300
H 	H 	0.06620 0.08490 0.81790 0.01800
H 	H 	0.99240 0.07580 0.84760 0.00800
C 	C 	0.48820 0.08370 0.74680 -0.05200
H 	H 	0.44520 0.10750 0.73810 0.02500
H 	H 	0.51900 0.11450 0.76840 0.02100
C 	C 	0.07310 0.97230 0.76170 -0.04700
H 	H 	0.08130 0.92400 0.76170 0.02200
H 	H 	0.11780 0.99480 0.76410 0.02400
C 	C 	0.53790 0.99170 0.79670 -0.04800
H 	H 	0.56850 0.02060 0.82050 0.01500
H 	H 	0.52880 0.95150 0.82090 0.02300
C 	C 	0.96470 0.95900 0.80740 -0.04700
H 	H 	0.93550 0.97060 0.84230 0.00900
H 	H 	0.97010 0.91030 0.80690 0.02000
C 	C 	0.42960 0.98120 0.75120 -0.04700
H 	H 	0.41880 0.94190 0.77620 0.02700
H 	H 	0.38630 0.00370 0.74120 0.02700
C 	C 	0.52210 0.96270 0.97400 -0.20800
C 	C 	0.52290 0.01560 0.98170 0.19600
H 	H 	0.55490 0.93460 0.93480 0.02600
C 	C 	0.51970 0.09540 0.00720 -0.15600
H 	H 	0.51890 0.14070 0.01850 0.04100
C 	C 	0.56470 0.07370 0.96290 -0.11600
H 	H 	0.59460 0.10430 0.94390 0.01500
C 	C 	0.56590 0.00740 0.94630 -0.09400
H 	H 	0.59670 0.99270 0.91600 0.01200
H 	H 	0.53540 0.09400 0.92860 0.00900
H 	H 	0.59280 0.08660 0.97950 0.10700
H 	H 	0.52290 0.91740 0.96270 0.17600
C 	C 	0.47590 0.05070 0.03490 -0.12200
C 	C 	0.43550 0.93740 0.04970 -0.11700
H 	H 	0.40620 0.96060 0.07860 0.06700
Na	Na	0.58127 0.55156 0.08677 0.55600
Na	Na	0.94624 0.43134 0.10775 0.56700
N 	N 	0.70500 0.51581 0.08830 -0.14600
N 	N 	0.83079 0.47527 0.09303 -0.13800
N 	N 	0.57450 0.67704 0.10350 -0.14300
N 	N 	0.92860 0.30559 0.11120 -0.13500
N 	N 	0.53200 0.50983 0.18504 -0.14600
N 	N 	0.97370 0.47360 0.21417 -0.13500
C 	C 	0.72000 0.48050 0.14560 -0.05000
H 	H 	0.68640 0.44460 0.15140 0.02000
H 	H 	0.71580 0.51160 0.17990 0.02500
C 	C 	0.79210 0.45120 0.14480 -0.04900
H 	H 	0.81600 0.46330 0.18260 0.02000
H 	H 	0.78910 0.40230 0.14300 0.02400
C 	C 	0.72080 0.46980 0.03840 -0.04100
H 	H 	0.70840 0.49060 0.99940 0.00800
H 	H 	0.69330 0.42900 0.04310 0.01300
C 	C 	0.79670 0.45170 0.03780 -0.05400
H 	H 	0.80170 0.40310 0.03460 0.02300
H 	H 	0.81870 0.47190 0.00190 0.03100
C 	C 	0.75290 0.57190 0.08430 -0.04800
H 	H 	0.74180 0.60480 0.11580 0.02200
H 	H 	0.74810 0.59350 0.04430 0.02100
C 	C 	0.82750 0.54770 0.09260 -0.05000
H 	H 	0.85610 0.56500 0.05930 0.02500
H 	H 	0.84590 0.56510 0.13120 0.02600
C 	C 	0.50390 0.70180 0.10630 -0.04500
H 	H 	0.48030 0.68160 0.14120 0.02000
H 	H 	0.47930 0.68890 0.06910 0.01200
C 	C 	0.99720 0.27750 0.11270 -0.05200
H 	H 	0.02450 0.29670 0.07940 0.02100
H 	H 	0.01930 0.28950 0.15140 0.02400
C 	C 	0.60940 0.70010 0.15790 -0.04600
H 	H 	0.65680 0.68350 0.15780 0.02200
H 	H 	0.58620 0.68200 0.19400 0.02500
C 	C 	0.89000 0.27650 0.16150 -0.04800
H 	H 	0.91030 0.29070 0.20040 0.02500
H 	H 	0.84240 0.29250 0.16020 0.02700
C 	C 	0.60690 0.70770 0.05090 -0.04600
H 	H 	0.58350 0.69310 0.01360 0.00900
H 	H 	0.65500 0.69330 0.04850 0.01700
C 	C 	0.89600 0.28400 0.05520 -0.04800
H 	H 	0.84920 0.30210 0.05340 0.02500
H 	H 	0.92170 0.30170 0.02020 0.02000
C 	C 	0.52170 0.43770 0.18660 -0.04300
H 	H 	0.56620 0.41510 0.18210 0.01800
H 	H 	0.49240 0.42420 0.15240 0.00900
C 	C 	0.98820 0.41630 0.25320 -0.05200
H 	H 	0.94520 0.39250 0.26190 0.02500
H 	H 	0.01900 0.38550 0.23160 0.02100
C 	C 	0.57310 0.52770 0.23830 -0.04600
H 	H 	0.58130 0.57600 0.23830 0.02200
H 	H 	0.61780 0.50520 0.23590 0.02400
C 	C 	0.03790 0.50830 0.20330 -0.04900
H 	H 	0.06850 0.47940 0.17950 0.01600
H 	H 	0.02880 0.54850 0.17910 0.02300
C 	C 	0.46470 0.54100 0.19260 -0.04600
H 	H 	0.43550 0.52940 0.15770 0.00800
H 	H 	0.47010 0.58970 0.19310 0.02000
C 	C 	0.92960 0.51880 0.24880 -0.04700
H 	H 	0.91880 0.55810 0.22380 0.02700
H 	H 	0.88630 0.49630 0.25880 0.02700
C 	C 	0.02210 0.53730 0.02600 -0.21100
C 	C 	0.02290 0.48440 0.01830 0.19900
H 	H 	0.05490 0.56540 0.06520 0.02600
C 	C 	0.01970 0.40460 0.99280 -0.15600
H 	H 	0.01890 0.35930 0.98150 0.04000
C 	C 	0.06470 0.42630 0.03710 -0.11800
H 	H 	0.09460 0.39570 0.05610 0.01600
C 	C 	0.06590 0.49260 0.05370 -0.09100
H 	H 	0.09670 0.50730 0.08400 0.01100
H 	H 	0.03540 0.40600 0.07140 0.01000
H 	H 	0.09280 0.41340 0.02050 0.10900
H 	H 	0.02290 0.58260 0.03730 0.17900
C 	C 	0.97590 0.44930 0.96510 -0.12500
C 	C 	0.93550 0.56260 0.95030 -0.11900
H 	H 	0.90620 0.53940 0.92140 0.06800
Na	Na	0.91873 0.44844 0.58677 0.55600
Na	Na	0.55376 0.56866 0.60775 0.56700
N 	N 	0.79500 0.48419 0.58830 -0.14600
N 	N 	0.66921 0.52473 0.59303 -0.13800
N 	N 	0.92550 0.32296 0.60350 -0.14300
N 	N 	0.57140 0.69441 0.61120 -0.13500
N 	N 	0.96800 0.49017 0.68504 -0.14600
N 	N 	0.52630 0.52640 0.71417 -0.13500
C 	C 	0.78000 0.51950 0.64560 -0.05000
H 	H 	0.81360 0.55540 0.65140 0.02000
H 	H 	0.78420 0.48840 0.67990 0.02500
C 	C 	0.70790 0.54880 0.64480 -0.04900
H 	H 	0.68400 0.53670 0.68260 0.02000
H 	H 	0.71090 0.59770 0.64300 0.02400
C 	C 	0.77920 0.53020 0.53840 -0.04100
H 	H 	0.79160 0.50940 0.49940 0.00800
H 	H 	0.80670 0.57100 0.54310 0.01300
C 	C 	0.70330 0.54830 0.53780 -0.05400
H 	H 	0.69830 0.59690 0.53460 0.02300
H 	H 	0.68130 0.52810 0.50190 0.03100
C 	C 	0.74710 0.42810 0.58430 -0.04800
H 	H 	0.75820 0.39520 0.61580 0.02200
H 	H 	0.75190 0.40650 0.54430 0.02100
C 	C 	0.67250 0.45230 0.59260 -0.05000
H 	H 	0.64390 0.43500 0.55930 0.02500
H 	H 	0.65410 0.43490 0.63120 0.02600
C 	C 	0.99610 0.29820 0.60630 -0.04500
H 	H 	0.01970 0.31840 0.64120 0.02000
H 	H 	0.02070 0.31110 0.56910 0.01200
C 	C 	0.50280 0.72250 0.61270 -0.05200
H 	H 	0.47550 0.70330 0.57940 0.02100
H 	H 	0.48070 0.71050 0.65140 0.02400
C 	C 	0.89060 0.29990 0.65790 -0.04600
H 	H 	0.84320 0.31650 0.65780 0.02200
H 	H 	0.91380 0.31800 0.69400 0.02500
C 	C 	0.61000 0.72350 0.66150 -0.04800
H 	H 	0.58970 0.70930 0.70040 0.02500
H 	H 	0.65760 0.70750 0.66020 0.02700
C 	C 	0.89310 0.29230 0.55090 -0.04600
H 	H 	0.91650 0.30690 0.51360 0.00900
H 	H 	0.84500 0.30670 0.54850 0.01700
C 	C 	0.60400 0.71600 0.55520 -0.04800
H 	H 	0.65080 0.69790 0.55340 0.02500
H 	H 	0.57830 0.69830 0.52020 0.02000
C 	C 	0.97830 0.56230 0.68660 -0.04300
H 	H 	0.93380 0.58490 0.68210 0.01800
H 	H 	0.00760 0.57580 0.65240 0.00800
C 	C 	0.51180 0.58370 0.75320 -0.05200
H 	H 	0.55480 0.60750 0.76190 0.02500
H 	H 	0.48100 0.61450 0.73160 0.02100
C 	C 	0.92690 0.47230 0.73830 -0.04600
H 	H 	0.91870 0.42400 0.73830 0.02200
H 	H 	0.88220 0.49480 0.73590 0.02400
C 	C 	0.46210 0.49170 0.70330 -0.04900
H 	H 	0.43150 0.52060 0.67950 0.01600
H 	H 	0.47120 0.45150 0.67910 0.02300
C 	C 	0.03530 0.45900 0.69260 -0.04600
H 	H 	0.06450 0.47060 0.65770 0.00800
H 	H 	0.02990 0.41030 0.69310 0.02000
C 	C 	0.57040 0.48120 0.74880 -0.04700
H 	H 	0.58120 0.44190 0.72380 0.02700
H 	H 	0.61370 0.50370 0.75880 0.02700
C 	C 	0.47790 0.46270 0.52600 -0.21100
C 	C 	0.47710 0.51560 0.51830 0.19900
H 	H 	0.44510 0.43460 0.56520 0.02600
C 	C 	0.48030 0.59540 0.49280 -0.15600
H 	H 	0.48110 0.64070 0.48150 0.04000
C 	C 	0.43530 0.57370 0.53710 -0.11800
H 	H 	0.40540 0.60430 0.55610 0.01600
C 	C 	0.43410 0.50740 0.55370 -0.09100
H 	H 	0.40330 0.49270 0.58400 0.01100
H 	H 	0.46460 0.59400 0.57140 0.01000
H 	H 	0.40720 0.58660 0.52050 0.10900
H 	H 	0.47710 0.41740 0.53730 0.17800
C 	C 	0.52410 0.55070 0.46510 -0.12400
C 	C 	0.56450 0.43740 0.45030 -0.11900
H 	H 	0.59380 0.46060 0.42140 0.06800
Na	Na	0.58127 0.94844 0.58677 0.55600
Na	Na	0.94624 0.06866 0.60775 0.56700
N 	N 	0.70500 0.98419 0.58830 -0.14600
N 	N 	0.83079 0.02473 0.59303 -0.13800
N 	N 	0.57450 0.82296 0.60350 -0.14300
N 	N 	0.92860 0.19441 0.61120 -0.13500
N 	N 	0.53200 0.99017 0.68504 -0.14600
N 	N 	0.97370 0.02640 0.71417 -0.13600
C 	C 	0.72000 0.01950 0.64560 -0.05100
H 	H 	0.68640 0.05540 0.65140 0.02000
H 	H 	0.71580 0.98840 0.67990 0.02600
C 	C 	0.79210 0.04880 0.64480 -0.04900
H 	H 	0.81600 0.03670 0.68260 0.02000
H 	H 	0.78910 0.09770 0.64300 0.02400
C 	C 	0.72080 0.03020 0.53840 -0.04100
H 	H 	0.70840 0.00940 0.49940 0.00800
H 	H 	0.69330 0.07100 0.54310 0.01300
C 	C 	0.79670 0.04830 0.53780 -0.05400
H 	H 	0.80170 0.09690 0.53460 0.02300
H 	H 	0.81870 0.02810 0.50190 0.03100
C 	C 	0.75290 0.92810 0.58430 -0.04800
H 	H 	0.74180 0.89520 0.61580 0.02200
H 	H 	0.74810 0.90650 0.54430 0.02100
C 	C 	0.82750 0.95230 0.59260 -0.04900
H 	H 	0.85610 0.93500 0.55930 0.02500
H 	H 	0.84590 0.93490 0.63120 0.02600
C 	C 	0.50390 0.79820 0.60630 -0.04500
H 	H 	0.48030 0.81840 0.64120 0.02000
H 	H 	0.47930 0.81110 0.56910 0.01200
C 	C 	0.99720 0.22250 0.61270 -0.05200
H 	H 	0.02450 0.20330 0.57940 0.02100
H 	H 	0.01930 0.21050 0.65140 0.02400
C 	C 	0.60940 0.79990 0.65790 -0.04600
H 	H 	0.65680 0.81650 0.65780 0.02200
H 	H 	0.58620 0.81800 0.69400 0.02600
C 	C 	0.89000 0.22350 0.66150 -0.04800
H 	H 	0.91030 0.20930 0.70040 0.02500
H 	H 	0.84240 0.20750 0.66020 0.02700
C 	C 	0.60690 0.79230 0.55090 -0.04600
H 	H 	0.58350 0.80690 0.51360 0.00900
H 	H 	0.65500 0.80670 0.54850 0.01700
C 	C 	0.89600 0.21600 0.55520 -0.04800
H 	H 	0.84920 0.19790 0.55340 0.02500
H 	H 	0.92170 0.19830 0.52020 0.02000
C 	C 	0.52170 0.06230 0.68660 -0.04300
H 	H 	0.56620 0.08490 0.68210 0.01800
H 	H 	0.49240 0.07580 0.65240 0.00900
C 	C 	0.98820 0.08370 0.75320 -0.05200
H 	H 	0.94520 0.10750 0.76190 0.02500
H 	H 	0.01900 0.11450 0.73160 0.02100
C 	C 	0.57310 0.97230 0.73830 -0.04700
H 	H 	0.58130 0.92400 0.73830 0.02200
H 	H 	0.61780 0.99480 0.73590 0.02400
C 	C 	0.03790 0.99170 0.70330 -0.04900
H 	H 	0.06850 0.02060 0.67950 0.01500
H 	H 	0.02880 0.95150 0.67910 0.02300
C 	C 	0.46470 0.95900 0.69260 -0.04700
H 	H 	0.43550 0.97060 0.65770 0.00800
H 	H 	0.47010 0.91030 0.69310 0.02000
C 	C 	0.92960 0.98120 0.74880 -0.04600
H 	H 	0.91880 0.94190 0.72380 0.02700
H 	H 	0.88630 0.00370 0.75880 0.02700
C 	C 	0.02210 0.96270 0.52600 -0.21100
C 	C 	0.02290 0.01560 0.51830 0.19900
H 	H 	0.05490 0.93460 0.56520 0.02600
C 	C 	0.01970 0.09540 0.49280 -0.15600
H 	H 	0.01890 0.14070 0.48150 0.04000
C 	C 	0.06470 0.07370 0.53710 -0.11800
H 	H 	0.09460 0.10430 0.55610 0.01600
C 	C 	0.06590 0.00740 0.55370 -0.09100
H 	H 	0.09670 0.99270 0.58400 0.01100
H 	H 	0.03540 0.09400 0.57140 0.01000
H 	H 	0.09280 0.08660 0.52050 0.10900
H 	H 	0.02290 0.91740 0.53730 0.17800
C 	C 	0.97590 0.05070 0.46510 -0.12500
C 	C 	0.93550 0.93740 0.45030 -0.11900
H 	H 	0.90620 0.96060 0.42140 0.06800
Na	Na	0.91873 0.05156 0.08677 0.55600
Na	Na	0.55376 0.93134 0.10775 0.56700
N 	N 	0.79500 0.01581 0.08830 -0.14500
N 	N 	0.66921 0.97527 0.09303 -0.13800
N 	N 	0.92550 0.17704 0.10350 -0.14300
N 	N 	0.57140 0.80559 0.11120 -0.13500
N 	N 	0.96800 0.00983 0.18504 -0.14600
N 	N 	0.52630 0.97360 0.21417 -0.13600
C 	C 	0.78000 0.98050 0.14560 -0.05100
H 	H 	0.81360 0.94460 0.15140 0.02000
H 	H 	0.78420 0.01160 0.17990 0.02600
C 	C 	0.70790 0.95120 0.14480 -0.04900
H 	H 	0.68400 0.96330 0.18260 0.02000
H 	H 	0.71090 0.90230 0.14300 0.02400
C 	C 	0.77920 0.96980 0.03840 -0.04300
H 	H 	0.79160 0.99060 0.99940 0.00900
H 	H 	0.80670 0.92900 0.04310 0.01300
C 	C 	0.70330 0.95170 0.03780 -0.05300
H 	H 	0.69830 0.90310 0.03460 0.02300
H 	H 	0.68130 0.97190 0.00190 0.03100
C 	C 	0.74710 0.07190 0.08430 -0.04800
H 	H 	0.75820 0.10480 0.11580 0.02200
H 	H 	0.75190 0.09350 0.04430 0.02100
C 	C 	0.67250 0.04770 0.09260 -0.04900
H 	H 	0.64390 0.06500 0.05930 0.02600
H 	H 	0.65410 0.06510 0.13120 0.02600
C 	C 	0.99610 0.20180 0.10630 -0.04500
H 	H 	0.01970 0.18160 0.14120 0.02100
H 	H 	0.02070 0.18890 0.06910 0.01200
C 	C 	0.50280 0.77750 0.11270 -0.05200
H 	H 	0.47550 0.79670 0.07940 0.02100
H 	H 	0.48070 0.78950 0.15140 0.02400
C 	C 	0.89060 0.20010 0.15790 -0.04600
H 	H 	0.84320 0.18350 0.15780 0.02200
H 	H 	0.91380 0.18200 0.19400 0.02500
C 	C 	0.61000 0.77650 0.16150 -0.04800
H 	H 	0.58970 0.79070 0.20040 0.02500
H 	H 	0.65760 0.79250 0.16020 0.02700
C 	C 	0.89310 0.20770 0.05090 -0.04600
H 	H 	0.91650 0.19310 0.01360 0.00900
H 	H 	0.84500 0.19330 0.04850 0.01700
C 	C 	0.60400 0.78400 0.05520 -0.04800
H 	H 	0.65080 0.80210 0.05340 0.02500
H 	H 	0.57830 0.80170 0.02020 0.02000
C 	C 	0.97830 0.93770 0.18660 -0.04300
H 	H 	0.93380 0.91510 0.18210 0.01800
H 	H 	0.00760 0.92420 0.15240 0.00800
C 	C 	0.51180 0.91630 0.25320 -0.05200
H 	H 	0.55480 0.89250 0.26190 0.02500
H 	H 	0.48100 0.88550 0.23160 0.02100
C 	C 	0.92690 0.02770 0.23830 -0.04700
H 	H 	0.91870 0.07600 0.23830 0.02200
H 	H 	0.88220 0.00520 0.23590 0.02400
C 	C 	0.46210 0.00830 0.20330 -0.04800
H 	H 	0.43150 0.97940 0.17950 0.01500
H 	H 	0.47120 0.04850 0.17910 0.02300
C 	C 	0.03530 0.04100 0.19260 -0.04700
H 	H 	0.06450 0.02940 0.15770 0.00900
H 	H 	0.02990 0.08970 0.19310 0.02000
C 	C 	0.57040 0.01880 0.24880 -0.04700
H 	H 	0.58120 0.05810 0.22380 0.02700
H 	H 	0.61370 0.99630 0.25880 0.02700
C 	C 	0.47790 0.03730 0.02600 -0.20800
C 	C 	0.47710 0.98440 0.01830 0.19600
H 	H 	0.44510 0.06540 0.06520 0.02600
C 	C 	0.48030 0.90460 0.99280 -0.15600
H 	H 	0.48110 0.85930 0.98150 0.04100
C 	C 	0.43530 0.92630 0.03710 -0.11600
H 	H 	0.40540 0.89570 0.05610 0.01500
C 	C 	0.43410 0.99260 0.05370 -0.09400
H 	H 	0.40330 0.00730 0.08400 0.01200
H 	H 	0.46460 0.90600 0.07140 0.00900
H 	H 	0.40720 0.91340 0.02050 0.10700
H 	H 	0.47710 0.08260 0.03730 0.17600
C 	C 	0.52410 0.94930 0.96510 -0.12200
C 	C 	0.56450 0.06260 0.95030 -0.11700
H 	H 	0.59380 0.03940 0.92140 0.06700
Na	Na	0.41873 0.44844 0.91323 0.55600
Na	Na	0.05376 0.56866 0.89225 0.56700
N 	N 	0.29500 0.48419 0.91170 -0.14600
N 	N 	0.16921 0.52473 0.90697 -0.13800
N 	N 	0.42550 0.32296 0.89650 -0.14300
N 	N 	0.07140 0.69441 0.88880 -0.13500
N 	N 	0.46800 0.49017 0.81496 -0.14600
N 	N 	0.02630 0.52640 0.78583 -0.13500
C 	C 	0.28000 0.51950 0.85440 -0.05000
H 	H 	0.31360 0.55540 0.84860 0.02000
H 	H 	0.28420 0.48840 0.82010 0.02500
C 	C 	0.20790 0.54880 0.85520 -0.04900
H 	H 	0.18400 0.53670 0.81740 0.02000
H 	H 	0.21090 0.59770 0.85700 0.02400
C 	C 	0.27920 0.53020 0.96160 -0.04100
H 	H 	0.29160 0.50940 0.00060 0.00800
H 	H 	0.30670 0.57100 0.95690 0.01300
C 	C 	0.20330 0.54830 0.96220 -0.05400
H 	H 	0.19830 0.59690 0.96540 0.02300
H 	H 	0.18130 0.52810 0.99810 0.03100
C 	C 	0.24710 0.42810 0.91570 -0.04800
H 	H 	0.25820 0.39520 0.88420 0.02200
H 	H 	0.25190 0.40650 0.95570 0.02100
C 	C 	0.17250 0.45230 0.90740 -0.05000
H 	H 	0.14390 0.43500 0.94070 0.02500
H 	H 	0.15410 0.43490 0.86880 0.02600
C 	C 	0.49610 0.29820 0.89370 -0.04500
H 	H 	0.51970 0.31840 0.85880 0.02000
H 	H 	0.52070 0.31110 0.93090 0.01200
C 	C 	0.00280 0.72250 0.88730 -0.05200
H 	H 	0.97550 0.70330 0.92060 0.02100
H 	H 	0.98070 0.71050 0.84860 0.02400
C 	C 	0.39060 0.29990 0.84210 -0.04600
H 	H 	0.34320 0.31650 0.84220 0.02200
H 	H 	0.41380 0.31800 0.80600 0.02500
C 	C 	0.11000 0.72350 0.83850 -0.04800
H 	H 	0.08970 0.70930 0.79960 0.02500
H 	H 	0.15760 0.70750 0.83980 0.02700
C 	C 	0.39310 0.29230 0.94910 -0.04600
H 	H 	0.41650 0.30690 0.98640 0.00900
H 	H 	0.34500 0.30670 0.95150 0.01700
C 	C 	0.10400 0.71600 0.94480 -0.04800
H 	H 	0.15080 0.69790 0.94660 0.02500
H 	H 	0.07830 0.69830 0.97980 0.02000
C 	C 	0.47830 0.56230 0.81340 -0.04300
H 	H 	0.43380 0.58490 0.81790 0.01800
H 	H 	0.50760 0.57580 0.84760 0.00900
C 	C 	0.01180 0.58370 0.74680 -0.05200
H 	H 	0.05480 0.60750 0.73810 0.02500
H 	H 	0.98100 0.61450 0.76840 0.02100
C 	C 	0.42690 0.47230 0.76170 -0.04600
H 	H 	0.41870 0.42400 0.76170 0.02200
H 	H 	0.38220 0.49480 0.76410 0.02400
C 	C 	0.96210 0.49170 0.79670 -0.04900
H 	H 	0.93150 0.52060 0.82050 0.01600
H 	H 	0.97120 0.45150 0.82090 0.02300
C 	C 	0.53530 0.45900 0.80740 -0.04600
H 	H 	0.56450 0.47060 0.84230 0.00800
H 	H 	0.52990 0.41030 0.80690 0.02000
C 	C 	0.07040 0.48120 0.75120 -0.04700
H 	H 	0.08120 0.44190 0.77620 0.02700
H 	H 	0.11370 0.50370 0.74120 0.02700
C 	C 	0.97790 0.46270 0.97400 -0.21100
C 	C 	0.97710 0.51560 0.98170 0.19900
H 	H 	0.94510 0.43460 0.93480 0.02600
C 	C 	0.98030 0.59540 0.00720 -0.15600
H 	H 	0.98110 0.64070 0.01850 0.04000
C 	C 	0.93530 0.57370 0.96290 -0.11800
H 	H 	0.90540 0.60430 0.94390 0.01600
C 	C 	0.93410 0.50740 0.94630 -0.09100
H 	H 	0.90330 0.49270 0.91600 0.01100
H 	H 	0.96460 0.59400 0.92860 0.01000
H 	H 	0.90720 0.58660 0.97950 0.10900
H 	H 	0.97710 0.41740 0.96270 0.17900
C 	C 	0.02410 0.55070 0.03490 -0.12500
C 	C 	0.06450 0.43740 0.04970 -0.11900
H 	H 	0.09380 0.46060 0.07860 0.06800
Na	Na	0.08127 0.55156 0.41323 0.55600
Na	Na	0.44624 0.43134 0.39225 0.56700
N 	N 	0.20500 0.51581 0.41170 -0.14600
N 	N 	0.33079 0.47527 0.40697 -0.13800
N 	N 	0.07450 0.67704 0.39650 -0.14300
N 	N 	0.42860 0.30559 0.38880 -0.13500
N 	N 	0.03200 0.50983 0.31496 -0.14600
N 	N 	0.47370 0.47360 0.28583 -0.13500
C 	C 	0.22000 0.48050 0.35440 -0.05000
H 	H 	0.18640 0.44460 0.34860 0.02000
H 	H 	0.21580 0.51160 0.32010 0.02500
C 	C 	0.29210 0.45120 0.35520 -0.04900
H 	H 	0.31600 0.46330 0.31740 0.02000
H 	H 	0.28910 0.40230 0.35700 0.02400
C 	C 	0.22080 0.46980 0.46160 -0.04100
H 	H 	0.20840 0.49060 0.50060 0.00800
H 	H 	0.19330 0.42900 0.45690 0.01300
C 	C 	0.29670 0.45170 0.46220 -0.05400
H 	H 	0.30170 0.40310 0.46540 0.02300
H 	H 	0.31870 0.47190 0.49810 0.03100
C 	C 	0.25290 0.57190 0.41570 -0.04800
H 	H 	0.24180 0.60480 0.38420 0.02200
H 	H 	0.24810 0.59350 0.45570 0.02100
C 	C 	0.32750 0.54770 0.40740 -0.05000
H 	H 	0.35610 0.56500 0.44070 0.02500
H 	H 	0.34590 0.56510 0.36880 0.02600
C 	C 	0.00390 0.70180 0.39370 -0.04500
H 	H 	0.98030 0.68160 0.35880 0.02000
H 	H 	0.97930 0.68890 0.43090 0.01200
C 	C 	0.49720 0.27750 0.38730 -0.05200
H 	H 	0.52450 0.29670 0.42060 0.02100
H 	H 	0.51930 0.28950 0.34860 0.02400
C 	C 	0.10940 0.70010 0.34210 -0.04600
H 	H 	0.15680 0.68350 0.34220 0.02200
H 	H 	0.08620 0.68200 0.30600 0.02500
C 	C 	0.39000 0.27650 0.33850 -0.04800
H 	H 	0.41030 0.29070 0.29960 0.02500
H 	H 	0.34240 0.29250 0.33980 0.02700
C 	C 	0.10690 0.70770 0.44910 -0.04600
H 	H 	0.08350 0.69310 0.48640 0.00900
H 	H 	0.15500 0.69330 0.45150 0.01700
C 	C 	0.39600 0.28400 0.44480 -0.04800
H 	H 	0.34920 0.30210 0.44660 0.02500
H 	H 	0.42170 0.30170 0.47980 0.02000
C 	C 	0.02170 0.43770 0.31340 -0.04300
H 	H 	0.06620 0.41510 0.31790 0.01800
H 	H 	0.99240 0.42420 0.34760 0.00800
C 	C 	0.48820 0.41630 0.24680 -0.05200
H 	H 	0.44520 0.39250 0.23810 0.02500
H 	H 	0.51900 0.38550 0.26840 0.02100
C 	C 	0.07310 0.52770 0.26170 -0.04600
H 	H 	0.08130 0.57600 0.26170 0.02200
H 	H 	0.11780 0.50520 0.26410 0.02400
C 	C 	0.53790 0.50830 0.29670 -0.04900
H 	H 	0.56850 0.47940 0.32050 0.01600
H 	H 	0.52880 0.54850 0.32090 0.02300
C 	C 	0.96470 0.54100 0.30740 -0.04600
H 	H 	0.93550 0.52940 0.34230 0.00800
H 	H 	0.97010 0.58970 0.30690 0.02000
C 	C 	0.42960 0.51880 0.25120 -0.04700
H 	H 	0.41880 0.55810 0.27620 0.02700
H 	H 	0.38630 0.49630 0.24120 0.02700
C 	C 	0.52210 0.53730 0.47400 -0.21100
C 	C 	0.52290 0.48440 0.48170 0.19900
H 	H 	0.55490 0.56540 0.43480 0.02600
C 	C 	0.51970 0.40460 0.50720 -0.15600
H 	H 	0.51890 0.35930 0.51850 0.04000
C 	C 	0.56470 0.42630 0.46290 -0.11800
H 	H 	0.59460 0.39570 0.44390 0.01600
C 	C 	0.56590 0.49260 0.44630 -0.09100
H 	H 	0.59670 0.50730 0.41600 0.01100
H 	H 	0.53540 0.40600 0.42860 0.01000
H 	H 	0.59280 0.41340 0.47950 0.10900
H 	H 	0.52290 0.58260 0.46270 0.17800
C 	C 	0.47590 0.44930 0.53490 -0.12400
C 	C 	0.43550 0.56260 0.54970 -0.11900
H 	H 	0.40620 0.53940 0.57860 0.06800
