data_crystal

_cell_length_a 19.46900
_cell_length_b 18.07700
_cell_length_c 13.26500
_cell_angle_alpha 90.00000
_cell_angle_beta  131.21300
_cell_angle_gamma 90.00000

_symmetry_space_group_name_	'P 1'
_symmetry_space_group_name_H-M	'P 1'

loop_
_symmetry_equiv_pos_as_xyz
  x,y,z

loop_
_atom_site_label
_atom_site_type_symbol
_atom_site_fract_x
_atom_site_fract_y
_atom_site_fract_z
_atom_site_charge
O 	O 	0.87631 0.96414 0.43340 -0.42300
O 	O 	0.84670 0.04370 0.52800 -0.33700
O 	O 	0.68680 0.05550 0.44210 -0.41900
H 	H 	0.74220 0.06140 0.49170 0.27600
N 	N 	0.06660 0.91631 0.64330 -0.23500
C 	C 	0.82330 0.99460 0.44210 0.38500
C 	C 	0.69560 0.92380 0.24480 -0.03600
H 	H 	0.73830 0.90190 0.24390 0.05800
C 	C 	0.72350 0.97310 0.34110 -0.11200
C 	C 	0.65930 0.00650 0.34410 0.11600
C 	C 	0.56680 0.98920 0.24880 0.06100
C 	C 	0.53740 0.93950 0.14660 -0.01000
C 	C 	0.60240 0.90470 0.14500 0.04400
C 	C 	0.57220 0.85620 0.04220 -0.13700
H 	H 	0.61460 0.83420 0.04040 0.07800
C 	C 	0.48120 0.83990 0.94270 0.03000
H 	H 	0.46230 0.80640 0.87550 0.03000
C 	C 	0.41780 0.87370 0.94370 -0.00000
H 	H 	0.35610 0.86260 0.87660 0.04100
C 	C 	0.44400 0.92250 0.04030 -0.09800
H 	H 	0.39990 0.94540 0.03710 0.07500
H 	H 	0.53540 0.06350 0.32810 0.13600
C 	C 	0.02970 0.84900 0.62100 0.05500
H 	H 	0.97320 0.83900 0.53750 0.01500
C 	C 	0.07240 0.79450 0.71670 -0.14900
H 	H 	0.04500 0.74830 0.69630 0.07700
C 	C 	0.15550 0.80740 0.84260 0.10000
C 	C 	0.19300 0.87650 0.86420 -0.15600
H 	H 	0.24950 0.88780 0.94700 0.10300
C 	C 	0.14760 0.92890 0.76420 0.09500
H 	H 	0.17450 0.97510 0.78170 0.01100
C 	C 	0.20150 0.74840 0.94810 -0.05200
H 	H 	0.18600 0.70100 0.90360 0.05200
H 	H 	0.17540 0.74950 0.99000 0.05800
O 	O 	0.37631 0.46414 0.43340 -0.43700
O 	O 	0.34670 0.54370 0.52800 -0.31900
O 	O 	0.18680 0.55550 0.44210 -0.44000
H 	H 	0.24220 0.56140 0.49170 0.28600
N 	N 	0.56660 0.41631 0.64330 -0.24900
C 	C 	0.32330 0.49460 0.44210 0.36700
C 	C 	0.19560 0.42380 0.24480 -0.02500
H 	H 	0.23830 0.40190 0.24390 0.05000
C 	C 	0.22350 0.47310 0.34110 -0.16300
C 	C 	0.15930 0.50650 0.34410 0.20200
C 	C 	0.06680 0.48920 0.24880 -0.02600
C 	C 	0.03740 0.43950 0.14660 -0.03000
C 	C 	0.10240 0.40470 0.14500 0.05500
C 	C 	0.07220 0.35620 0.04220 -0.20600
H 	H 	0.11460 0.33420 0.04040 0.09300
C 	C 	0.98120 0.33990 0.94270 0.10800
H 	H 	0.96230 0.30640 0.87550 0.00700
C 	C 	0.91780 0.37370 0.94370 -0.06100
H 	H 	0.85610 0.36260 0.87660 0.06100
C 	C 	0.94400 0.42250 0.04030 -0.04200
H 	H 	0.89990 0.44540 0.03710 0.05100
H 	H 	0.03540 0.56350 0.32810 0.10900
C 	C 	0.52970 0.34900 0.62100 0.10300
H 	H 	0.47320 0.33900 0.53750 -0.01600
C 	C 	0.57240 0.29450 0.71670 -0.17800
H 	H 	0.54500 0.24830 0.69630 0.09300
C 	C 	0.65550 0.30740 0.84260 0.11500
C 	C 	0.69300 0.37650 0.86420 -0.17000
H 	H 	0.74950 0.38780 0.94700 0.10500
C 	C 	0.64760 0.42890 0.76420 0.10300
H 	H 	0.67450 0.47510 0.78170 -0.00400
C 	C 	0.70150 0.24840 0.94810 -0.05600
H 	H 	0.68600 0.20100 0.90360 0.05300
H 	H 	0.67540 0.24950 0.99000 0.06000
O 	O 	0.12369 0.96414 0.06660 -0.43100
O 	O 	0.15330 0.04370 0.97200 -0.30200
O 	O 	0.31320 0.05550 0.05790 -0.42000
H 	H 	0.25780 0.06140 0.00830 0.25500
N 	N 	0.93340 0.91631 0.85670 -0.24400
C 	C 	0.17670 0.99460 0.05790 0.34300
C 	C 	0.30440 0.92380 0.25520 -0.04200
H 	H 	0.26170 0.90190 0.25610 0.05900
C 	C 	0.27650 0.97310 0.15890 -0.09900
C 	C 	0.34070 0.00650 0.15590 0.09800
C 	C 	0.43320 0.98920 0.25120 0.07300
C 	C 	0.46260 0.93950 0.35340 -0.02600
C 	C 	0.39760 0.90470 0.35500 0.04400
C 	C 	0.42780 0.85620 0.45780 -0.09100
H 	H 	0.38540 0.83420 0.45960 0.07200
C 	C 	0.51880 0.83990 0.55730 -0.00200
H 	H 	0.53770 0.80640 0.62450 0.03700
C 	C 	0.58220 0.87370 0.55630 -0.05600
H 	H 	0.64390 0.86260 0.62340 0.05600
C 	C 	0.55600 0.92250 0.45970 -0.03200
H 	H 	0.60010 0.94540 0.46290 0.06200
H 	H 	0.46460 0.06350 0.17190 0.13100
C 	C 	0.97030 0.84900 0.87900 0.16600
H 	H 	0.02680 0.83900 0.96250 -0.03300
C 	C 	0.92760 0.79450 0.78330 -0.23100
H 	H 	0.95500 0.74830 0.80370 0.12000
C 	C 	0.84450 0.80740 0.65740 0.17400
C 	C 	0.80700 0.87650 0.63580 -0.20900
H 	H 	0.75050 0.88780 0.55300 0.10900
C 	C 	0.85240 0.92890 0.73580 0.12600
H 	H 	0.82550 0.97510 0.71830 -0.00100
C 	C 	0.79850 0.74840 0.55190 -0.18700
H 	H 	0.81400 0.70100 0.59640 0.08500
H 	H 	0.82460 0.74950 0.51000 0.08600
O 	O 	0.62369 0.46414 0.06660 -0.44100
O 	O 	0.65330 0.54370 0.97200 -0.27900
O 	O 	0.81320 0.55550 0.05790 -0.44500
H 	H 	0.75780 0.56140 0.00830 0.27300
N 	N 	0.43340 0.41631 0.85670 -0.24700
C 	C 	0.67670 0.49460 0.05790 0.33500
C 	C 	0.80440 0.42380 0.25520 0.05600
H 	H 	0.76170 0.40190 0.25610 0.02400
C 	C 	0.77650 0.47310 0.15890 -0.19500
C 	C 	0.84070 0.50650 0.15590 0.22200
C 	C 	0.93320 0.48920 0.25120 -0.05500
C 	C 	0.96260 0.43950 0.35340 0.11100
C 	C 	0.89760 0.40470 0.35500 -0.08100
C 	C 	0.92780 0.35620 0.45780 0.06200
H 	H 	0.88540 0.33420 0.45960 0.02000
C 	C 	0.01880 0.33990 0.55730 -0.17200
H 	H 	0.03770 0.30640 0.62450 0.08800
C 	C 	0.08220 0.37370 0.55630 0.09000
H 	H 	0.14390 0.36260 0.62340 0.00200
C 	C 	0.05600 0.42250 0.45970 -0.19200
H 	H 	0.10010 0.44540 0.46290 0.10900
H 	H 	0.96460 0.56350 0.17190 0.12500
C 	C 	0.47030 0.34900 0.87900 0.12200
H 	H 	0.52680 0.33900 0.96250 -0.00700
C 	C 	0.42760 0.29450 0.78330 -0.20900
H 	H 	0.45500 0.24830 0.80370 0.10700
C 	C 	0.34450 0.30740 0.65740 0.16300
C 	C 	0.30700 0.37650 0.63580 -0.20300
H 	H 	0.25050 0.38780 0.55300 0.10300
C 	C 	0.35240 0.42890 0.73580 0.11900
H 	H 	0.32550 0.47510 0.71830 -0.01300
C 	C 	0.29850 0.24840 0.55190 -0.18700
H 	H 	0.31400 0.20100 0.59640 0.08400
H 	H 	0.32460 0.24950 0.51000 0.08500
O 	O 	0.12369 0.03586 0.56660 -0.44700
O 	O 	0.15330 0.95630 0.47200 -0.30500
O 	O 	0.31320 0.94450 0.55790 -0.47300
H 	H 	0.25780 0.93860 0.50830 0.30300
N 	N 	0.93340 0.08369 0.35670 -0.26900
C 	C 	0.17670 0.00540 0.55790 0.36600
C 	C 	0.30440 0.07620 0.75520 0.11200
H 	H 	0.26170 0.09810 0.75610 0.00800
C 	C 	0.27650 0.02690 0.65890 -0.27800
C 	C 	0.34070 0.99350 0.65590 0.35400
C 	C 	0.43320 0.01080 0.75120 -0.21000
C 	C 	0.46260 0.06050 0.85340 0.13300
C 	C 	0.39760 0.09530 0.85500 -0.11300
C 	C 	0.42780 0.14380 0.95780 0.08700
H 	H 	0.38540 0.16580 0.95960 0.01900
C 	C 	0.51880 0.16010 0.05730 -0.17200
H 	H 	0.53770 0.19360 0.12450 0.08300
C 	C 	0.58220 0.12630 0.05630 0.01700
H 	H 	0.64390 0.13740 0.12340 0.01800
C 	C 	0.55600 0.07750 0.95970 -0.11700
H 	H 	0.60010 0.05460 0.96290 0.09100
H 	H 	0.46460 0.93650 0.67190 0.04500
C 	C 	0.97030 0.15100 0.37900 0.19200
H 	H 	0.02680 0.16100 0.46250 -0.05900
C 	C 	0.92760 0.20550 0.28330 -0.27200
H 	H 	0.95500 0.25170 0.30370 0.13100
C 	C 	0.84450 0.19260 0.15740 0.21600
C 	C 	0.80700 0.12350 0.13580 -0.24600
H 	H 	0.75050 0.11220 0.05300 0.10200
C 	C 	0.85240 0.07110 0.23580 0.13800
H 	H 	0.82550 0.02490 0.21830 -0.03600
C 	C 	0.79850 0.25160 0.05190 -0.29400
H 	H 	0.81400 0.29900 0.09640 0.10700
H 	H 	0.82460 0.25050 0.01000 0.10500
O 	O 	0.62369 0.53586 0.56660 -0.43900
O 	O 	0.65330 0.45630 0.47200 -0.32700
O 	O 	0.81320 0.44450 0.55790 -0.44300
H 	H 	0.75780 0.43860 0.50830 0.28800
N 	N 	0.43340 0.58369 0.35670 -0.26000
C 	C 	0.67670 0.50540 0.55790 0.38200
C 	C 	0.80440 0.57620 0.75520 0.06700
H 	H 	0.76170 0.59810 0.75610 0.02600
C 	C 	0.77650 0.52690 0.65890 -0.20300
C 	C 	0.84070 0.49350 0.65590 0.23000
C 	C 	0.93320 0.51080 0.75120 -0.04600
C 	C 	0.96260 0.56050 0.85340 0.09200
C 	C 	0.89760 0.59530 0.85500 -0.08000
C 	C 	0.92780 0.64380 0.95780 0.10200
H 	H 	0.88540 0.66580 0.95960 0.01800
C 	C 	0.01880 0.66010 0.05730 -0.19500
H 	H 	0.03770 0.69360 0.12450 0.08700
C 	C 	0.08220 0.62630 0.05630 0.02500
H 	H 	0.14390 0.63740 0.12340 0.01600
C 	C 	0.05600 0.57750 0.95970 -0.11500
H 	H 	0.10010 0.55460 0.96290 0.09400
H 	H 	0.96460 0.43650 0.67190 0.13100
C 	C 	0.47030 0.65100 0.37900 0.13100
H 	H 	0.52680 0.66100 0.46250 -0.02300
C 	C 	0.42760 0.70550 0.28330 -0.23600
H 	H 	0.45500 0.75170 0.30370 0.11100
C 	C 	0.34450 0.69260 0.15740 0.19400
C 	C 	0.30700 0.62350 0.13580 -0.22900
H 	H 	0.25050 0.61220 0.05300 0.09900
C 	C 	0.35240 0.57110 0.23580 0.12700
H 	H 	0.32550 0.52490 0.21830 -0.02300
C 	C 	0.29850 0.75160 0.05190 -0.28300
H 	H 	0.31400 0.79900 0.09640 0.10300
H 	H 	0.32460 0.75050 0.01000 0.10000
O 	O 	0.87631 0.03586 0.93340 -0.42900
O 	O 	0.84670 0.95630 0.02800 -0.34000
O 	O 	0.68680 0.94450 0.94210 -0.46900
H 	H 	0.74220 0.93860 0.99170 0.31900
N 	N 	0.06660 0.08369 0.14330 -0.25400
C 	C 	0.82330 0.00540 0.94210 0.41100
C 	C 	0.69560 0.07620 0.74480 0.11000
H 	H 	0.73830 0.09810 0.74390 0.00900
C 	C 	0.72350 0.02690 0.84110 -0.28100
C 	C 	0.65930 0.99350 0.84410 0.35900
C 	C 	0.56680 0.01080 0.74880 -0.21300
C 	C 	0.53740 0.06050 0.64660 0.14300
C 	C 	0.60240 0.09530 0.64500 -0.10500
C 	C 	0.57220 0.14380 0.54220 0.03100
H 	H 	0.61460 0.16580 0.54040 0.02700
C 	C 	0.48120 0.16010 0.44270 -0.13000
H 	H 	0.46230 0.19360 0.37550 0.07300
C 	C 	0.41780 0.12630 0.44370 0.06900
H 	H 	0.35610 0.13740 0.37660 0.00400
C 	C 	0.44400 0.07750 0.54030 -0.18100
H 	H 	0.39990 0.05460 0.53710 0.10100
H 	H 	0.53540 0.93650 0.82810 0.04900
C 	C 	0.02970 0.15100 0.12100 0.04800
H 	H 	0.97320 0.16100 0.03750 0.00800
C 	C 	0.07240 0.20550 0.21670 -0.16900
H 	H 	0.04500 0.25170 0.19630 0.07800
C 	C 	0.15550 0.19260 0.34260 0.12800
C 	C 	0.19300 0.12350 0.36420 -0.18400
H 	H 	0.24950 0.11220 0.44700 0.09300
C 	C 	0.14760 0.07110 0.26420 0.10000
H 	H 	0.17450 0.02490 0.28170 -0.02400
C 	C 	0.20150 0.25160 0.44810 -0.14700
H 	H 	0.18600 0.29900 0.40360 0.07000
H 	H 	0.17540 0.25050 0.49000 0.07300
O 	O 	0.37631 0.53586 0.93340 -0.43000
O 	O 	0.34670 0.45630 0.02800 -0.36800
O 	O 	0.18680 0.44450 0.94210 -0.43800
H 	H 	0.24220 0.43860 0.99170 0.30300
N 	N 	0.56660 0.58369 0.14330 -0.25900
C 	C 	0.32330 0.50540 0.94210 0.41700
C 	C 	0.19560 0.57620 0.74480 -0.00200
H 	H 	0.23830 0.59810 0.74390 0.04800
C 	C 	0.22350 0.52690 0.84110 -0.17600
C 	C 	0.15930 0.49350 0.84410 0.21600
C 	C 	0.06680 0.51080 0.74880 -0.02400
C 	C 	0.03740 0.56050 0.64660 -0.02600
C 	C 	0.10240 0.59530 0.64500 0.03800
C 	C 	0.07220 0.64380 0.54220 -0.13700
H 	H 	0.11460 0.66580 0.54040 0.08300
C 	C 	0.98120 0.66010 0.44270 0.05200
H 	H 	0.96230 0.69360 0.37550 0.01700
C 	C 	0.91780 0.62630 0.44370 -0.09400
H 	H 	0.85610 0.63740 0.37660 0.06400
C 	C 	0.94400 0.57750 0.54030 0.00100
H 	H 	0.89990 0.55460 0.53710 0.04700
H 	H 	0.03540 0.43650 0.82810 0.11600
C 	C 	0.52970 0.65100 0.12100 0.11400
H 	H 	0.47320 0.66100 0.03750 -0.03100
C 	C 	0.57240 0.70550 0.21670 -0.20600
H 	H 	0.54500 0.75170 0.19630 0.09800
C 	C 	0.65550 0.69260 0.34260 0.15000
C 	C 	0.69300 0.62350 0.36420 -0.19800
H 	H 	0.74950 0.61220 0.44700 0.10200
C 	C 	0.64760 0.57110 0.26420 0.11300
H 	H 	0.67450 0.52490 0.28170 -0.01400
C 	C 	0.70150 0.75160 0.44810 -0.16000
H 	H 	0.68600 0.79900 0.40360 0.07500
H 	H 	0.67540 0.75050 0.49000 0.07800
Ni	Ni	0.00000 0.00000 0.50000 1.04200
Ni	Ni	0.50000 0.50000 0.50000 1.06400
Ni	Ni	-0.00000 0.00000 -0.00000 1.02600
Ni	Ni	0.50000 0.50000 -0.00000 1.04900
C 	C 	0.50000 0.03160 0.25000 -0.28300
C 	C 	0.00000 0.53160 0.25000 -0.18600
C 	C 	0.50000 0.96840 0.75000 0.08100
C 	C 	0.00000 0.46840 0.75000 -0.19100
