data_crystal

_cell_length_a 13.98300
_cell_length_b 23.77560
_cell_length_c 23.77560
_cell_angle_alpha 76.67630
_cell_angle_beta  72.89880
_cell_angle_gamma 72.89870

_symmetry_space_group_name_	'P 1'
_symmetry_space_group_name_H-M	'P 1'

loop_
_symmetry_equiv_pos_as_xyz
  x,y,z

loop_
_atom_site_label
_atom_site_type_symbol
_atom_site_fract_x
_atom_site_fract_y
_atom_site_fract_z
_atom_site_charge
Ni	Ni	0.92433 0.24338 0.64506 1.08000
Ni	Ni	0.80370 0.06798 0.32162 1.05300
Ni	Ni	0.68723 0.74338 0.14506 1.08100
Ni	Ni	0.30670 0.56798 0.82162 1.05300
H 	H 	0.74030 0.06600 0.74760 0.29000
H 	H 	0.63020 0.89440 0.03460 0.29300
H 	H 	0.04220 0.04340 0.34940 0.29500
H 	H 	0.55900 0.04630 0.35050 0.26800
H 	H 	0.87820 0.16480 0.82960 0.01100
H 	H 	0.85960 0.17020 0.92940 0.03200
H 	H 	0.84300 0.12250 0.02830 0.05600
H 	H 	0.75420 0.04860 0.06060 0.03200
H 	H 	0.71320 0.00540 0.99520 0.08600
H 	H 	0.68060 0.98150 0.86290 0.09500
H 	H 	0.64830 0.99350 0.92870 0.09400
H 	H 	0.92990 0.77710 0.97210 0.04300
H 	H 	0.06370 0.78140 0.88140 0.05800
H 	H 	0.12710 0.83070 0.78750 0.05400
H 	H 	0.03060 0.92190 0.75110 0.02000
H 	H 	0.87070 0.96410 0.80850 0.09500
H 	H 	0.98540 0.22590 0.37010 0.01800
H 	H 	0.08760 0.28430 0.38510 0.03800
H 	H 	0.24380 0.29270 0.39350 0.07000
H 	H 	0.38580 0.21170 0.38530 0.01700
H 	H 	0.37160 0.12240 0.36860 0.10500
H 	H 	0.32970 0.03400 0.38680 0.07800
H 	H 	0.26900 0.00660 0.35900 0.07600
H 	H 	0.61770 0.02530 0.16110 0.03700
H 	H 	0.51370 0.01030 0.10370 0.04600
H 	H 	0.35680 0.00160 0.09680 0.06000
H 	H 	0.21660 0.00880 0.17880 0.02900
H 	H 	0.23340 0.02470 0.26770 0.09600
H 	H 	0.04370 0.39220 0.82400 0.14300
H 	H 	0.95040 0.37040 0.86980 0.13500
H 	H 	0.96260 0.36080 0.66240 -0.00600
H 	H 	0.99180 0.40300 0.73280 0.11700
H 	H 	0.00770 0.24670 0.84370 0.12600
H 	H 	0.97840 0.20460 0.77340 -0.01000
H 	H 	0.08280 0.27450 0.88350 -0.01800
H 	H 	0.07090 0.32530 0.91890 -0.00900
H 	H 	0.22100 0.30520 0.81100 0.12400
H 	H 	0.24590 0.28580 0.87340 0.12800
H 	H 	0.34920 0.47000 0.74560 -0.02100
H 	H 	0.30350 0.38160 0.75480 0.10300
H 	H 	0.17490 0.38630 0.92910 0.12400
H 	H 	0.22060 0.47490 0.91990 -0.00900
H 	H 	0.07210 0.14810 0.69810 -0.02000
H 	H 	0.24330 0.10180 0.67620 0.14500
H 	H 	0.27540 0.19050 0.51110 0.15600
H 	H 	0.10380 0.23680 0.53220 -0.01900
H 	H 	0.42380 0.12310 0.60270 0.17700
H 	H 	0.42310 0.12530 0.53690 0.16300
H 	H 	0.42970 0.02940 0.54940 -0.03100
H 	H 	0.38650 0.02490 0.61850 -0.02700
H 	H 	0.55600 0.04100 0.61820 0.15400
H 	H 	0.55710 0.97690 0.60890 0.16200
H 	H 	0.67230 0.98340 0.40220 -0.02400
H 	H 	0.58100 0.96510 0.49830 0.13700
H 	H 	0.66050 0.09570 0.53790 0.12100
H 	H 	0.69080 0.13460 0.43540 -0.02000
H 	H 	0.94610 0.56600 0.24760 0.28600
H 	H 	0.94080 0.39440 0.53460 0.29100
H 	H 	0.06500 0.54340 0.84940 0.29000
H 	H 	0.54420 0.54630 0.85050 0.26800
H 	H 	0.62740 0.66480 0.32960 0.01100
H 	H 	0.54080 0.67020 0.42940 0.03300
H 	H 	0.50620 0.62250 0.52830 0.05800
H 	H 	0.63660 0.54860 0.56060 0.03300
H 	H 	0.78620 0.50540 0.49520 0.08600
H 	H 	0.97500 0.48150 0.36290 0.09300
H 	H 	0.92950 0.49350 0.42870 0.09500
H 	H 	0.82090 0.27710 0.47210 0.05000
H 	H 	0.77350 0.28140 0.38140 0.06800
H 	H 	0.75470 0.33070 0.28750 0.04300
H 	H 	0.79640 0.42190 0.25110 0.03000
H 	H 	0.85670 0.46410 0.30850 0.08500
H 	H 	0.91860 0.72590 0.87010 0.02500
H 	H 	0.74300 0.78430 0.88510 0.03700
H 	H 	0.57000 0.79270 0.89350 0.06800
H 	H 	0.51720 0.71170 0.88530 0.01700
H 	H 	0.63740 0.62240 0.86860 0.10500
H 	H 	0.74950 0.53400 0.88680 0.07600
H 	H 	0.86540 0.50660 0.85900 0.07200
H 	H 	0.69590 0.52530 0.66110 0.03000
H 	H 	0.87230 0.51030 0.60370 0.02900
H 	H 	0.04480 0.50160 0.59680 0.08900
H 	H 	0.09580 0.50880 0.67880 0.00600
H 	H 	0.97420 0.52470 0.76770 0.11100
H 	H 	0.24010 0.89220 0.32400 0.14100
H 	H 	0.30940 0.87040 0.36980 0.14000
H 	H 	0.51420 0.86080 0.16240 -0.00200
H 	H 	0.37240 0.90300 0.23280 0.11100
H 	H 	0.40190 0.74670 0.34370 0.10800
H 	H 	0.54360 0.70460 0.27340 -0.00200
H 	H 	0.25920 0.77450 0.38350 -0.02000
H 	H 	0.18490 0.82530 0.41890 -0.01200
H 	H 	0.16280 0.80520 0.31100 0.12700
H 	H 	0.09490 0.78580 0.37340 0.13300
H 	H 	0.93520 0.97000 0.24560 -0.02100
H 	H 	0.06010 0.88160 0.25480 0.10300
H 	H 	0.00970 0.88630 0.42910 0.13900
H 	H 	0.88460 0.97490 0.41990 -0.01600
H 	H 	0.58170 0.64810 0.19810 -0.02300
H 	H 	0.47870 0.60180 0.17620 0.14500
H 	H 	0.52300 0.69050 0.01110 0.15700
H 	H 	0.62720 0.73680 0.03220 -0.02000
H 	H 	0.35040 0.62310 0.10270 0.17800
H 	H 	0.41470 0.62530 0.03690 0.16400
H 	H 	0.49150 0.52940 0.04940 -0.03200
H 	H 	0.47010 0.52490 0.11850 -0.02900
H 	H 	0.28480 0.54100 0.11820 0.15500
H 	H 	0.35710 0.47690 0.10890 0.16500
H 	H 	0.44210 0.48340 0.90220 -0.02100
H 	H 	0.45560 0.46510 0.99830 0.13500
H 	H 	0.20590 0.59570 0.03790 0.12100
H 	H 	0.23920 0.63460 0.93540 -0.01800
C 	C 	0.83560 0.14530 0.73470 0.47600
C 	C 	0.74030 0.80180 0.05560 0.37300
C 	C 	0.84340 0.13460 0.84060 0.05600
C 	C 	0.81950 0.11430 0.79670 -0.23900
C 	C 	0.77290 0.06590 0.81790 0.23100
C 	C 	0.75920 0.03500 0.87600 -0.06700
C 	C 	0.77320 0.06010 0.92070 0.06700
C 	C 	0.81590 0.11020 0.90040 -0.04800
C 	C 	0.83630 0.13560 0.94180 -0.02200
C 	C 	0.82050 0.10940 0.00160 -0.07400
C 	C 	0.77150 0.06300 0.02000 0.01100
C 	C 	0.74600 0.03660 0.98160 -0.11600
C 	C 	0.70690 0.98430 0.89530 -0.10500
C 	C 	0.89120 0.81370 0.95750 0.01400
C 	C 	0.79550 0.83890 0.99190 -0.15400
C 	C 	0.73770 0.89360 0.97000 0.22500
C 	C 	0.77560 0.92320 0.91380 -0.07200
C 	C 	0.87150 0.89790 0.87930 0.07100
C 	C 	0.92920 0.84320 0.90120 -0.03500
C 	C 	0.02500 0.81800 0.86680 -0.02100
C 	C 	0.06300 0.84750 0.81050 -0.07100
C 	C 	0.00520 0.90230 0.78870 0.02500
C 	C 	0.90940 0.92750 0.82310 -0.13000
C 	C 	0.92880 0.14010 0.35510 0.39000
C 	C 	0.67730 0.04190 0.24930 0.33400
C 	C 	0.04230 0.19340 0.36680 0.06400
C 	C 	0.03370 0.14000 0.35680 -0.22200
C 	C 	0.11880 0.09150 0.35190 0.26100
C 	C 	0.21240 0.09640 0.35700 -0.10100
C 	C 	0.22100 0.14990 0.36690 0.09400
C 	C 	0.13590 0.19840 0.37180 -0.06400
C 	C 	0.14450 0.25180 0.38180 0.00100
C 	C 	0.23800 0.25690 0.38690 -0.09100
C 	C 	0.32320 0.20830 0.38190 0.03400
C 	C 	0.31460 0.15490 0.37190 -0.14200
C 	C 	0.29940 0.03990 0.35350 -0.08400
C 	C 	0.56160 0.02810 0.19390 0.01300
C 	C 	0.57150 0.03770 0.24730 -0.16300
C 	C 	0.48760 0.04200 0.29640 0.19900
C 	C 	0.39360 0.03680 0.29220 -0.07200
C 	C 	0.38350 0.02720 0.23900 0.06700
C 	C 	0.46760 0.02280 0.18980 -0.02900
C 	C 	0.45750 0.01320 0.13660 -0.03000
C 	C 	0.36350 0.00800 0.13240 -0.06900
C 	C 	0.27950 0.01230 0.18150 0.01100
C 	C 	0.28960 0.02180 0.23480 -0.12300
C 	C 	0.01680 0.35730 0.84310 -0.35100
C 	C 	0.97160 0.33800 0.69880 0.10100
C 	C 	0.98910 0.36320 0.74100 -0.24500
C 	C 	0.00270 0.32900 0.79520 0.23200
C 	C 	0.99860 0.26960 0.80740 -0.26000
C 	C 	0.98110 0.24430 0.76530 0.11100
C 	C 	0.08990 0.31480 0.87940 0.13800
C 	C 	0.20370 0.31640 0.85020 -0.33400
C 	C 	0.31430 0.45330 0.78230 0.09500
C 	C 	0.28690 0.40030 0.78790 -0.21900
C 	C 	0.23470 0.37520 0.84280 0.19900
C 	C 	0.20990 0.40310 0.89230 -0.22300
C 	C 	0.23720 0.45620 0.88680 0.10200
C 	C 	0.11240 0.15710 0.66010 0.13900
C 	C 	0.21600 0.12920 0.64680 -0.28700
C 	C 	0.28010 0.14060 0.59120 0.33700
C 	C 	0.23460 0.18170 0.54910 -0.33900
C 	C 	0.13120 0.20970 0.56190 0.16400
C 	C 	0.39320 0.10970 0.57790 -0.43900
C 	C 	0.43250 0.04250 0.58450 0.21100
C 	C 	0.54210 0.01900 0.59280 -0.41800
C 	C 	0.66660 0.00780 0.42900 0.13400
C 	C 	0.61200 0.99690 0.48710 -0.26600
C 	C 	0.60180 0.03080 0.52960 0.25200
C 	C 	0.65130 0.07710 0.51030 -0.25700
C 	C 	0.68650 0.09540 0.44960 0.12100
C 	C 	0.78440 0.64530 0.23470 0.47400
C 	C 	0.90230 0.30180 0.55560 0.36900
C 	C 	0.68140 0.63460 0.34060 0.05700
C 	C 	0.76950 0.61430 0.29670 -0.23900
C 	C 	0.84330 0.56590 0.31790 0.23200
C 	C 	0.82980 0.53500 0.37600 -0.06900
C 	C 	0.74600 0.56010 0.42070 0.06800
C 	C 	0.67350 0.61020 0.40040 -0.04900
C 	C 	0.58630 0.63560 0.44180 -0.02000
C 	C 	0.56850 0.60940 0.50160 -0.07400
C 	C 	0.64550 0.56300 0.52000 0.01100
C 	C 	0.73580 0.53660 0.48160 -0.11500
C 	C 	0.91350 0.48430 0.39530 -0.10500
C 	C 	0.83760 0.31370 0.45750 -0.00100
C 	C 	0.87370 0.33890 0.49190 -0.14600
C 	C 	0.89870 0.39360 0.47000 0.22100
C 	C 	0.88740 0.42320 0.41380 -0.06500
C 	C 	0.85130 0.39790 0.37930 0.05100
C 	C 	0.82640 0.34320 0.40120 -0.00800
C 	C 	0.79020 0.31800 0.36680 -0.05300
C 	C 	0.77900 0.34750 0.31050 -0.04300
C 	C 	0.80380 0.40230 0.28870 -0.00900
C 	C 	0.84000 0.42750 0.32310 -0.09900
C 	C 	0.07600 0.64010 0.85510 0.40300
C 	C 	0.53150 0.54190 0.74930 0.33700
C 	C 	0.89750 0.69340 0.86680 0.05200
C 	C 	0.96950 0.64000 0.85680 -0.23000
C 	C 	0.93780 0.59150 0.85190 0.25500
C 	C 	0.83420 0.59640 0.85700 -0.10100
C 	C 	0.76220 0.64990 0.86690 0.09200
C 	C 	0.79390 0.69840 0.87180 -0.05900
C 	C 	0.72190 0.75180 0.88180 -0.00400
C 	C 	0.61820 0.75690 0.88690 -0.08900
C 	C 	0.58660 0.70830 0.88190 0.03200
C 	C 	0.65860 0.65490 0.87190 -0.14000
C 	C 	0.80720 0.53990 0.85350 -0.07800
C 	C 	0.71640 0.52810 0.69390 0.03300
C 	C 	0.64350 0.53770 0.74730 -0.17300
C 	C 	0.67400 0.54200 0.79640 0.20700
C 	C 	0.77740 0.53680 0.79220 -0.08700
C 	C 	0.85030 0.52720 0.73900 0.09800
C 	C 	0.81980 0.52280 0.68980 -0.06100
C 	C 	0.89270 0.51320 0.63660 0.01700
C 	C 	0.99610 0.50800 0.63240 -0.13900
C 	C 	0.02670 0.51230 0.68150 0.07800
C 	C 	0.95380 0.52180 0.73480 -0.17400
C 	C 	0.28280 0.85730 0.34310 -0.35200
C 	C 	0.49160 0.83800 0.19880 0.09000
C 	C 	0.40670 0.86320 0.24100 -0.22100
C 	C 	0.37310 0.82900 0.29520 0.20300
C 	C 	0.42440 0.76960 0.30740 -0.22200
C 	C 	0.50930 0.74430 0.26530 0.09400
C 	C 	0.21590 0.81480 0.37940 0.14300
C 	C 	0.12970 0.81640 0.35020 -0.34500
C 	C 	0.95010 0.95330 0.28230 0.08800
C 	C 	0.02490 0.90030 0.28790 -0.21700
C 	C 	0.04730 0.87520 0.34280 0.21600
C 	C 	0.99470 0.90310 0.39230 -0.25400
C 	C 	0.91980 0.95620 0.38680 0.11400
C 	C 	0.57040 0.65710 0.16010 0.13900
C 	C 	0.50800 0.62920 0.14680 -0.28900
C 	C 	0.48810 0.64060 0.09120 0.33900
C 	C 	0.53460 0.68170 0.04910 -0.34100
C 	C 	0.59720 0.70970 0.06190 0.16500
C 	C 	0.41920 0.60970 0.07790 -0.44200
C 	C 	0.44050 0.54250 0.08450 0.21400
C 	C 	0.34610 0.51900 0.09280 -0.42200
C 	C 	0.39660 0.50780 0.92900 0.12600
C 	C 	0.40400 0.49690 0.98710 -0.26000
C 	C 	0.33780 0.53080 0.02960 0.25000
C 	C 	0.26130 0.57710 0.01030 -0.25200
C 	C 	0.26850 0.59540 0.94960 0.11700
N 	N 	0.06760 0.19820 0.61760 -0.27000
N 	N 	0.71420 0.05500 0.41020 -0.24800
N 	N 	0.96770 0.27850 0.71090 -0.22700
N 	N 	0.28940 0.48130 0.83190 -0.24300
N 	N 	0.61660 0.69820 0.11760 -0.27300
N 	N 	0.32060 0.55500 0.91020 -0.24600
N 	N 	0.54290 0.77850 0.21090 -0.22100
N 	N 	0.89740 0.98130 0.33190 -0.24500
O 	O 	0.88490 0.18140 0.71260 -0.49300
O 	O 	0.81910 0.12580 0.69580 -0.35400
O 	O 	0.66380 0.82140 0.08160 -0.47800
O 	O 	0.80600 0.75030 0.06330 -0.39600
O 	O 	0.73610 0.04400 0.78000 -0.44000
O 	O 	0.64170 0.91620 0.00260 -0.44200
O 	O 	0.91900 0.09060 0.34780 -0.45100
O 	O 	0.85570 0.18320 0.35980 -0.32200
O 	O 	0.69070 0.04830 0.29890 -0.44700
O 	O 	0.74770 0.04560 0.20160 -0.29200
O 	O 	0.10280 0.03870 0.34930 -0.46400
O 	O 	0.50030 0.04360 0.35400 -0.42400
O 	O 	0.72110 0.68140 0.21260 -0.49100
O 	O 	0.85930 0.62580 0.19580 -0.35300
O 	O 	0.93320 0.32140 0.58160 -0.47800
O 	O 	0.88040 0.25030 0.56330 -0.39700
O 	O 	0.93990 0.54400 0.28000 -0.44200
O 	O 	0.93950 0.41620 0.50260 -0.44400
O 	O 	0.14260 0.59060 0.84780 -0.45000
O 	O 	0.10130 0.68320 0.85980 -0.32200
O 	O 	0.46210 0.54830 0.79890 -0.44800
O 	O 	0.50510 0.54560 0.70160 -0.29200
O 	O 	0.00920 0.53870 0.84930 -0.45700
O 	O 	0.60210 0.54360 0.85400 -0.42600
Ni	Ni	0.18723 0.64506 0.24338 1.08000
Ni	Ni	0.80670 0.32162 0.06798 1.05200
Ni	Ni	0.42433 0.14506 0.74338 1.08000
Ni	Ni	0.30370 0.82162 0.56798 1.05200
H 	H 	0.44610 0.74760 0.06600 0.28900
H 	H 	0.44080 0.03460 0.89440 0.29100
H 	H 	0.56500 0.34940 0.04340 0.29100
H 	H 	0.04420 0.35050 0.04630 0.27000
H 	H 	0.12740 0.82960 0.16480 0.01200
H 	H 	0.04080 0.92940 0.17020 0.03600
H 	H 	0.00620 0.02830 0.12250 0.05900
H 	H 	0.13660 0.06060 0.04860 0.03400
H 	H 	0.28620 0.99520 0.00540 0.08600
H 	H 	0.47500 0.86290 0.98150 0.09700
H 	H 	0.42950 0.92870 0.99350 0.09600
H 	H 	0.32090 0.97210 0.77710 0.05000
H 	H 	0.27350 0.88140 0.78140 0.06800
H 	H 	0.25470 0.78750 0.83070 0.04300
H 	H 	0.29640 0.75110 0.92190 0.03100
H 	H 	0.35670 0.80850 0.96410 0.08400
H 	H 	0.41860 0.37010 0.22590 0.02900
H 	H 	0.24300 0.38510 0.28430 0.03800
H 	H 	0.07000 0.39350 0.29270 0.07000
H 	H 	0.01720 0.38530 0.21170 0.02100
H 	H 	0.13740 0.36860 0.12240 0.10500
H 	H 	0.24950 0.38680 0.03400 0.07800
H 	H 	0.36540 0.35900 0.00660 0.07600
H 	H 	0.19590 0.16110 0.02530 0.03700
H 	H 	0.37230 0.10370 0.01030 0.04600
H 	H 	0.54480 0.09680 0.00160 0.06000
H 	H 	0.59580 0.17880 0.00880 0.02800
H 	H 	0.47420 0.26770 0.02470 0.09600
H 	H 	0.74010 0.82400 0.39220 0.14000
H 	H 	0.80940 0.86980 0.37040 0.13800
H 	H 	0.01420 0.66240 0.36080 0.01100
H 	H 	0.87240 0.73280 0.40300 0.10700
H 	H 	0.90190 0.84370 0.24670 0.10900
H 	H 	0.04360 0.77340 0.20460 -0.00500
H 	H 	0.75920 0.88350 0.27450 -0.01800
H 	H 	0.68490 0.91890 0.32530 -0.01000
H 	H 	0.66280 0.81100 0.30520 0.12300
H 	H 	0.59490 0.87340 0.28580 0.12800
H 	H 	0.43520 0.74560 0.47000 -0.02100
H 	H 	0.56010 0.75480 0.38160 0.10300
H 	H 	0.50970 0.92910 0.38630 0.12300
H 	H 	0.38460 0.91990 0.47490 -0.01000
H 	H 	0.08170 0.69810 0.14810 -0.01300
H 	H 	0.97870 0.67620 0.10180 0.12300
H 	H 	0.02300 0.51110 0.19050 0.14700
H 	H 	0.12720 0.53220 0.23680 -0.01400
H 	H 	0.85040 0.60270 0.12310 0.16900
H 	H 	0.91470 0.53690 0.12530 0.15400
H 	H 	0.99150 0.54940 0.02940 -0.02700
H 	H 	0.97010 0.61850 0.02490 -0.02300
H 	H 	0.78480 0.61820 0.04100 0.15100
H 	H 	0.85710 0.60890 0.97690 0.15900
H 	H 	0.94210 0.40220 0.98340 -0.02400
H 	H 	0.95560 0.49830 0.96510 0.13400
H 	H 	0.70590 0.53790 0.09570 0.12000
H 	H 	0.73920 0.43540 0.13460 -0.01900
H 	H 	0.24030 0.24760 0.56600 0.29000
H 	H 	0.13020 0.53460 0.39440 0.29200
H 	H 	0.54220 0.84940 0.54340 0.29100
H 	H 	0.05900 0.85050 0.54630 0.26400
H 	H 	0.37820 0.32960 0.66480 0.01100
H 	H 	0.35960 0.42940 0.67020 0.03300
H 	H 	0.34300 0.52830 0.62250 0.05800
H 	H 	0.25420 0.56060 0.54860 0.03300
H 	H 	0.21320 0.49520 0.50540 0.08600
H 	H 	0.18060 0.36290 0.48150 0.09800
H 	H 	0.14830 0.42870 0.49350 0.09800
H 	H 	0.42990 0.47210 0.27710 0.05100
H 	H 	0.56370 0.38140 0.28140 0.06800
H 	H 	0.62710 0.28750 0.33070 0.04300
H 	H 	0.53060 0.25110 0.42190 0.03100
H 	H 	0.37070 0.30850 0.46410 0.08500
H 	H 	0.48540 0.87010 0.72590 0.02900
H 	H 	0.58760 0.88510 0.78430 0.03800
H 	H 	0.74380 0.89350 0.79270 0.06800
H 	H 	0.88580 0.88530 0.71170 0.01600
H 	H 	0.87160 0.86860 0.62240 0.10200
H 	H 	0.82970 0.88680 0.53400 0.07700
H 	H 	0.76900 0.85900 0.50660 0.07600
H 	H 	0.11770 0.66110 0.52530 0.03800
H 	H 	0.01370 0.60370 0.51030 0.05700
H 	H 	0.85680 0.59680 0.50160 0.05400
H 	H 	0.71660 0.67880 0.50880 0.03100
H 	H 	0.73340 0.76770 0.52470 0.09300
H 	H 	0.54370 0.32400 0.89220 0.14000
H 	H 	0.45040 0.36980 0.87040 0.13800
H 	H 	0.46260 0.16240 0.86080 -0.00100
H 	H 	0.49180 0.23280 0.90300 0.11000
H 	H 	0.50770 0.34370 0.74670 0.10700
H 	H 	0.47840 0.27340 0.70460 -0.00200
H 	H 	0.58280 0.38350 0.77450 -0.01800
H 	H 	0.57090 0.41890 0.82530 -0.01000
H 	H 	0.72100 0.31100 0.80520 0.12400
H 	H 	0.74590 0.37340 0.78580 0.12800
H 	H 	0.84920 0.24560 0.97000 -0.02200
H 	H 	0.80350 0.25480 0.88160 0.10300
H 	H 	0.67490 0.42910 0.88630 0.12400
H 	H 	0.72060 0.41990 0.97490 -0.01000
H 	H 	0.57210 0.19810 0.64810 -0.02200
H 	H 	0.74330 0.17620 0.60180 0.14300
H 	H 	0.77540 0.01110 0.69050 0.15500
H 	H 	0.60380 0.03220 0.73680 -0.01900
H 	H 	0.92380 0.10270 0.62310 0.17300
H 	H 	0.92310 0.03690 0.62530 0.15900
H 	H 	0.92970 0.04940 0.52940 -0.02800
H 	H 	0.88650 0.11850 0.52490 -0.02400
H 	H 	0.05600 0.11820 0.54100 0.15200
H 	H 	0.05710 0.10890 0.47690 0.16000
H 	H 	0.17230 0.90220 0.48340 -0.02000
H 	H 	0.08100 0.99830 0.46510 0.13500
H 	H 	0.16050 0.03790 0.59570 0.11900
H 	H 	0.19080 0.93540 0.63460 -0.01700
C 	C 	0.28440 0.73470 0.14530 0.47500
C 	C 	0.40230 0.05560 0.80180 0.37200
C 	C 	0.18140 0.84060 0.13460 0.05500
C 	C 	0.26950 0.79670 0.11430 -0.23800
C 	C 	0.34330 0.81790 0.06590 0.23000
C 	C 	0.32980 0.87600 0.03500 -0.06400
C 	C 	0.24600 0.92070 0.06010 0.06600
C 	C 	0.17350 0.90040 0.11020 -0.04600
C 	C 	0.08630 0.94180 0.13560 -0.02300
C 	C 	0.06850 0.00160 0.10940 -0.07100
C 	C 	0.14550 0.02000 0.06300 0.01200
C 	C 	0.23580 0.98160 0.03660 -0.11500
C 	C 	0.41350 0.89530 0.98430 -0.11200
C 	C 	0.33760 0.95750 0.81370 -0.00100
C 	C 	0.37370 0.99190 0.83890 -0.14600
C 	C 	0.39870 0.97000 0.89360 0.21800
C 	C 	0.38740 0.91380 0.92320 -0.06100
C 	C 	0.35130 0.87930 0.89790 0.04900
C 	C 	0.32640 0.90120 0.84320 -0.00700
C 	C 	0.29020 0.86680 0.81800 -0.05500
C 	C 	0.27900 0.81050 0.84750 -0.04100
C 	C 	0.30380 0.78870 0.90230 -0.01000
C 	C 	0.34000 0.82310 0.92750 -0.09600
C 	C 	0.57600 0.35510 0.14010 0.39600
C 	C 	0.03150 0.24930 0.04190 0.34200
C 	C 	0.39750 0.36680 0.19340 0.04800
C 	C 	0.46950 0.35680 0.14000 -0.22300
C 	C 	0.43780 0.35190 0.09150 0.25900
C 	C 	0.33420 0.35700 0.09640 -0.09900
C 	C 	0.26220 0.36690 0.14990 0.09000
C 	C 	0.29390 0.37180 0.19840 -0.05600
C 	C 	0.22190 0.38180 0.25180 -0.00500
C 	C 	0.11820 0.38690 0.25690 -0.08700
C 	C 	0.08660 0.38190 0.20830 0.03100
C 	C 	0.15860 0.37190 0.15490 -0.13800
C 	C 	0.30720 0.35350 0.03990 -0.08500
C 	C 	0.21640 0.19390 0.02810 0.01500
C 	C 	0.14350 0.24730 0.03770 -0.16500
C 	C 	0.17400 0.29640 0.04200 0.20100
C 	C 	0.27740 0.29220 0.03680 -0.07300
C 	C 	0.35030 0.23900 0.02720 0.06700
C 	C 	0.31980 0.18980 0.02280 -0.02900
C 	C 	0.39270 0.13660 0.01320 -0.02900
C 	C 	0.49610 0.13240 0.00800 -0.06900
C 	C 	0.52670 0.18150 0.01230 0.01100
C 	C 	0.45380 0.23480 0.02180 -0.12300
C 	C 	0.78280 0.84310 0.35730 -0.34800
C 	C 	0.99160 0.69880 0.33800 0.06700
C 	C 	0.90670 0.74100 0.36320 -0.21200
C 	C 	0.87310 0.79520 0.32900 0.20000
C 	C 	0.92440 0.80740 0.26960 -0.23100
C 	C 	0.00930 0.76530 0.24430 0.10400
C 	C 	0.71590 0.87940 0.31480 0.13500
C 	C 	0.62970 0.85020 0.31640 -0.33300
C 	C 	0.45010 0.78230 0.45330 0.09400
C 	C 	0.52490 0.78790 0.40030 -0.21900
C 	C 	0.54730 0.84280 0.37520 0.19900
C 	C 	0.49470 0.89230 0.40310 -0.22200
C 	C 	0.41980 0.88680 0.45620 0.10100
C 	C 	0.07040 0.66010 0.15710 0.11500
C 	C 	0.00800 0.64680 0.12920 -0.23900
C 	C 	0.98810 0.59120 0.14060 0.29500
C 	C 	0.03460 0.54910 0.18170 -0.30500
C 	C 	0.09720 0.56190 0.20970 0.14800
C 	C 	0.91920 0.57790 0.10970 -0.41100
C 	C 	0.94050 0.58450 0.04250 0.19400
C 	C 	0.84610 0.59280 0.01900 -0.40700
C 	C 	0.89660 0.42900 0.00780 0.13000
C 	C 	0.90400 0.48710 0.99690 -0.26100
C 	C 	0.83780 0.52960 0.03080 0.24700
C 	C 	0.76130 0.51030 0.07710 -0.25300
C 	C 	0.76850 0.44960 0.09540 0.11900
C 	C 	0.33560 0.23470 0.64530 0.47600
C 	C 	0.24030 0.55560 0.30180 0.36900
C 	C 	0.34340 0.34060 0.63460 0.05700
C 	C 	0.31950 0.29670 0.61430 -0.23900
C 	C 	0.27290 0.31790 0.56590 0.23200
C 	C 	0.25920 0.37600 0.53500 -0.06700
C 	C 	0.27320 0.42070 0.56010 0.06700
C 	C 	0.31590 0.40040 0.61020 -0.04800
C 	C 	0.33630 0.44180 0.63560 -0.02000
C 	C 	0.32050 0.50160 0.60940 -0.07400
C 	C 	0.27150 0.52000 0.56300 0.01100
C 	C 	0.24600 0.48160 0.53660 -0.11500
C 	C 	0.20690 0.39530 0.48430 -0.11000
C 	C 	0.39120 0.45750 0.31370 -0.00200
C 	C 	0.29550 0.49190 0.33890 -0.14400
C 	C 	0.23770 0.47000 0.39360 0.22000
C 	C 	0.27560 0.41380 0.42320 -0.06200
C 	C 	0.37150 0.37930 0.39790 0.05000
C 	C 	0.42920 0.40120 0.34320 -0.00700
C 	C 	0.52500 0.36680 0.31800 -0.05400
C 	C 	0.56300 0.31050 0.34750 -0.04200
C 	C 	0.50520 0.28870 0.40230 -0.01000
C 	C 	0.40940 0.32310 0.42750 -0.09700
C 	C 	0.42880 0.85510 0.64010 0.39600
C 	C 	0.17730 0.74930 0.54190 0.33100
C 	C 	0.54230 0.86680 0.69340 0.04800
C 	C 	0.53370 0.85680 0.64000 -0.22300
C 	C 	0.61880 0.85190 0.59150 0.25900
C 	C 	0.71240 0.85700 0.59640 -0.09800
C 	C 	0.72100 0.86690 0.64990 0.08900
C 	C 	0.63590 0.87180 0.69840 -0.05600
C 	C 	0.64450 0.88180 0.75180 -0.00600
C 	C 	0.73800 0.88690 0.75690 -0.08700
C 	C 	0.82320 0.88190 0.70830 0.03000
C 	C 	0.81460 0.87190 0.65490 -0.13800
C 	C 	0.79940 0.85350 0.53990 -0.08800
C 	C 	0.06160 0.69390 0.52810 0.01300
C 	C 	0.07150 0.74730 0.53770 -0.15100
C 	C 	0.98760 0.79640 0.54200 0.18200
C 	C 	0.89360 0.79220 0.53680 -0.06600
C 	C 	0.88350 0.73900 0.52720 0.05900
C 	C 	0.96760 0.68980 0.52280 -0.02500
C 	C 	0.95750 0.63660 0.51320 -0.05100
C 	C 	0.86350 0.63240 0.50800 -0.05500
C 	C 	0.77950 0.68150 0.51230 0.00000
C 	C 	0.78960 0.73480 0.52180 -0.11500
C 	C 	0.51680 0.34310 0.85730 -0.34800
C 	C 	0.47160 0.19880 0.83800 0.08900
C 	C 	0.48910 0.24100 0.86320 -0.22000
C 	C 	0.50270 0.29520 0.82900 0.20100
C 	C 	0.49860 0.30740 0.76960 -0.22000
C 	C 	0.48110 0.26530 0.74430 0.09300
C 	C 	0.58990 0.37940 0.81480 0.13500
C 	C 	0.70370 0.35020 0.81640 -0.33300
C 	C 	0.81430 0.28230 0.95330 0.09400
C 	C 	0.78690 0.28790 0.90030 -0.22000
C 	C 	0.73470 0.34280 0.87520 0.19900
C 	C 	0.70990 0.39230 0.90310 -0.22300
C 	C 	0.73720 0.38680 0.95620 0.10100
C 	C 	0.61240 0.16010 0.65710 0.13600
C 	C 	0.71600 0.14680 0.62920 -0.28500
C 	C 	0.78010 0.09120 0.64060 0.33200
C 	C 	0.73460 0.04910 0.68170 -0.33700
C 	C 	0.63120 0.06190 0.70970 0.16200
C 	C 	0.89320 0.07790 0.60970 -0.42900
C 	C 	0.93250 0.08450 0.54250 0.19500
C 	C 	0.04210 0.09280 0.51900 -0.40400
C 	C 	0.16660 0.92900 0.50780 0.12500
C 	C 	0.11200 0.98710 0.49690 -0.25600
C 	C 	0.10180 0.02960 0.53080 0.24600
C 	C 	0.15130 0.01030 0.57710 -0.24700
C 	C 	0.18650 0.94960 0.59540 0.11500
N 	N 	0.11660 0.61760 0.19820 -0.26600
N 	N 	0.82060 0.41020 0.05500 -0.24700
N 	N 	0.04290 0.71090 0.27850 -0.21600
N 	N 	0.39740 0.83190 0.48130 -0.24300
N 	N 	0.56760 0.11760 0.69820 -0.27200
N 	N 	0.21420 0.91020 0.55500 -0.24500
N 	N 	0.46770 0.21090 0.77850 -0.22100
N 	N 	0.78940 0.33190 0.98130 -0.24300
O 	O 	0.22110 0.71260 0.18140 -0.49100
O 	O 	0.35930 0.69580 0.12580 -0.35300
O 	O 	0.43320 0.08160 0.82140 -0.47700
O 	O 	0.38040 0.06330 0.75030 -0.39500
O 	O 	0.43990 0.78000 0.04400 -0.44000
O 	O 	0.43950 0.00260 0.91620 -0.43900
O 	O 	0.64260 0.34780 0.09060 -0.44900
O 	O 	0.60130 0.35980 0.18320 -0.32200
O 	O 	0.96210 0.29890 0.04830 -0.45500
O 	O 	0.00510 0.20160 0.04560 -0.29000
O 	O 	0.50920 0.34930 0.03870 -0.46300
O 	O 	0.10210 0.35400 0.04360 -0.42400
O 	O 	0.38490 0.21260 0.68140 -0.49100
O 	O 	0.31910 0.19580 0.62580 -0.35300
O 	O 	0.16380 0.58160 0.32140 -0.47500
O 	O 	0.30600 0.56330 0.25030 -0.39500
O 	O 	0.23610 0.28000 0.54400 -0.44000
O 	O 	0.14170 0.50260 0.41620 -0.44000
O 	O 	0.41900 0.84780 0.59060 -0.44900
O 	O 	0.35570 0.85980 0.68320 -0.32200
O 	O 	0.19070 0.79890 0.54830 -0.44500
O 	O 	0.24770 0.70160 0.54560 -0.29000
O 	O 	0.60280 0.84930 0.53870 -0.46400
O 	O 	0.00030 0.85400 0.54360 -0.41400
