data_crystal

_cell_length_a 11.54800
_cell_length_b 11.79730
_cell_length_c 14.06170
_cell_angle_alpha 112.92400
_cell_angle_beta  90.00000
_cell_angle_gamma 119.30300

_symmetry_space_group_name_	'P 1'
_symmetry_space_group_name_H-M	'P 1'

loop_
_symmetry_equiv_pos_as_xyz
  x,y,z

loop_
_atom_site_label
_atom_site_type_symbol
_atom_site_fract_x
_atom_site_fract_y
_atom_site_fract_z
_atom_site_charge
Zn	Zn	0.01175 0.00000 0.75000 1.19300
Zn	Zn	0.98825 0.00000 0.25000 1.19200
H 	H 	0.94500 0.16140 0.96540 0.04200
H 	H 	0.80280 0.74420 0.80420 0.02600
H 	H 	0.69900 0.77640 0.95640 0.04900
H 	H 	0.75920 0.02360 0.13540 0.05000
H 	H 	0.83140 0.16700 0.12150 0.06600
H 	H 	0.69810 0.20060 0.00700 0.00300
H 	H 	0.51270 0.85480 0.06620 -0.00000
H 	H 	0.45730 0.29600 0.85070 0.04400
H 	H 	0.32180 0.52960 0.04980 0.05300
H 	H 	0.78360 0.83860 0.53460 -0.03100
H 	H 	0.05860 0.25580 0.69580 0.03000
H 	H 	0.92260 0.22360 0.54360 0.03900
H 	H 	0.73560 0.97640 0.36460 0.11100
H 	H 	0.66440 0.83300 0.37850 0.09000
H 	H 	0.49750 0.79940 0.49300 0.12000
H 	H 	0.65790 0.14520 0.43380 0.12300
H 	H 	0.16130 0.70400 0.64930 0.05300
H 	H 	0.79220 0.47040 0.45020 0.05100
H 	H 	0.05500 0.83860 0.03460 -0.02900
H 	H 	0.19720 0.25580 0.19580 0.02600
H 	H 	0.30100 0.22360 0.04360 0.04100
H 	H 	0.24080 0.97640 0.86460 0.11200
H 	H 	0.16860 0.83300 0.87850 0.09000
H 	H 	0.30190 0.79940 0.99300 0.11700
H 	H 	0.48730 0.14520 0.93380 0.12100
H 	H 	0.54270 0.70400 0.14930 0.05500
H 	H 	0.67820 0.47040 0.95020 0.05200
H 	H 	0.21640 0.16140 0.46540 0.04100
H 	H 	0.94140 0.74420 0.30420 0.01900
H 	H 	0.07740 0.77640 0.45640 0.05200
H 	H 	0.26440 0.02360 0.63540 0.04900
H 	H 	0.33560 0.16700 0.62150 0.06600
H 	H 	0.50250 0.20060 0.50700 0.00200
H 	H 	0.34210 0.85480 0.56620 -0.00300
H 	H 	0.83870 0.29600 0.35070 0.04600
H 	H 	0.20780 0.52960 0.54980 0.05400
C 	C 	0.89725 0.06174 0.94375 -0.03900
C 	C 	0.81860 0.83240 0.85552 0.01500
C 	C 	0.76102 0.84924 0.93950 -0.00500
C 	C 	0.76590 0.06304 0.08520 -0.11100
C 	C 	0.62734 0.03330 0.04475 -0.10500
C 	C 	0.61887 0.11994 0.00450 0.08400
C 	C 	0.50798 0.91376 0.03960 0.13800
C 	C 	0.22141 0.27842 0.87899 0.31400
C 	C 	0.36600 0.39446 0.94018 -0.06500
C 	C 	0.47430 0.37790 0.91077 -0.02300
C 	C 	0.39323 0.51742 0.02966 -0.02500
C 	C 	0.83551 0.93826 0.55625 0.20500
C 	C 	0.98620 0.16760 0.64448 -0.00200
C 	C 	0.91178 0.15076 0.56050 -0.01800
C 	C 	0.70286 0.93696 0.41480 -0.17200
C 	C 	0.59404 0.96670 0.45525 0.25100
C 	C 	0.49893 0.88006 0.49550 -0.23300
C 	C 	0.59422 0.08624 0.46040 -0.29000
C 	C 	0.94299 0.72158 0.62101 0.30300
C 	C 	0.97154 0.60554 0.55982 -0.06200
C 	C 	0.09640 0.62210 0.58923 -0.01900
C 	C 	0.87581 0.48258 0.47034 -0.02700
C 	C 	0.10275 0.93826 0.05625 0.20400
C 	C 	0.18140 0.16760 0.14448 0.00500
C 	C 	0.23898 0.15076 0.06050 -0.02000
C 	C 	0.23410 0.93696 0.91480 -0.17100
C 	C 	0.37266 0.96670 0.95525 0.24700
C 	C 	0.38113 0.88006 0.99550 -0.22600
C 	C 	0.49202 0.08624 0.96040 -0.28500
C 	C 	0.77859 0.72158 0.12101 0.30500
C 	C 	0.63400 0.60554 0.05982 -0.05800
C 	C 	0.52570 0.62210 0.08923 -0.02700
C 	C 	0.60677 0.48258 0.97034 -0.03100
C 	C 	0.16449 0.06174 0.44375 -0.03900
C 	C 	0.01380 0.83240 0.35552 0.02700
C 	C 	0.08822 0.84924 0.43950 -0.01000
C 	C 	0.29714 0.06304 0.58520 -0.10700
C 	C 	0.40596 0.03330 0.54475 -0.11100
C 	C 	0.50107 0.11994 0.50450 0.09000
C 	C 	0.40578 0.91376 0.53960 0.14800
C 	C 	0.05701 0.27842 0.37899 0.31800
C 	C 	0.02846 0.39446 0.44018 -0.05800
C 	C 	0.90360 0.37790 0.41077 -0.03200
C 	C 	0.12419 0.51742 0.52966 -0.02900
N 	N 	0.90450 0.96592 0.85749 -0.21000
N 	N 	0.81211 0.99504 0.99471 -0.04400
N 	N 	0.93858 0.03408 0.64251 -0.31200
N 	N 	0.81707 0.00496 0.50529 -0.16300
N 	N 	0.09550 0.03408 0.14251 -0.31000
N 	N 	0.18789 0.00496 0.00529 -0.16100
N 	N 	0.06142 0.96592 0.35749 -0.20900
N 	N 	0.18293 0.99504 0.49471 -0.04300
O 	O 	0.20415 0.15670 0.81389 -0.46400
O 	O 	0.12892 0.30328 0.89464 -0.31500
O 	O 	0.04745 0.84330 0.68611 -0.42100
O 	O 	0.82564 0.69672 0.60536 -0.30200
O 	O 	0.79585 0.84330 0.18611 -0.42600
O 	O 	0.87108 0.69672 0.10536 -0.30500
O 	O 	0.95255 0.15670 0.31389 -0.46800
O 	O 	0.17436 0.30328 0.39464 -0.31600
