data_crystal

_cell_length_a 23.63000
_cell_length_b 23.63000
_cell_length_c 41.39000
_cell_angle_alpha 90.00000
_cell_angle_beta  90.00000
_cell_angle_gamma 120.00000

_symmetry_space_group_name_	'P 1'
_symmetry_space_group_name_H-M	'P 1'

loop_
_symmetry_equiv_pos_as_xyz
  x,y,z

loop_
_atom_site_label
_atom_site_type_symbol
_atom_site_fract_x
_atom_site_fract_y
_atom_site_fract_z
_atom_site_charge
Cu	Cu	0.28977 0.55695 0.57870 0.82800
F 	F 	0.59800 0.34600 0.64030 0.36100
F 	F 	0.50210 0.30960 0.66336 -0.36700
F 	F 	0.60380 0.54820 0.74501 -0.44500
F 	F 	0.67130 0.53610 0.76870 0.06300
F 	F 	0.69430 0.59560 0.72423 -0.43100
F 	F 	0.50230 0.70230 0.66710 -0.28600
F 	F 	0.41110 0.67250 0.68880 -0.35400
F 	F 	0.45280 0.61720 0.70225 -0.26200
F 	F 	0.33630 0.47060 0.56490 0.28100
F 	F 	0.42400 0.47090 0.58466 -0.36600
F 	F 	0.32910 0.41720 0.60433 -0.42200
F 	F 	0.16050 0.46060 0.59684 -0.47600
F 	F 	0.12210 0.39530 0.55589 -0.39300
F 	F 	0.07070 0.43520 0.57871 -0.43600
F 	F 	0.14890 0.59180 0.45913 -0.40400
F 	F 	0.18010 0.66940 0.49112 -0.41200
F 	F 	0.24930 0.65260 0.46825 -0.42100
N 	N 	0.66157 0.44565 0.72079 -0.16200
N 	N 	0.63735 0.39824 0.69820 -0.17100
N 	N 	0.37410 0.61120 0.62987 -0.13700
N 	N 	0.35298 0.56270 0.60736 -0.15900
N 	N 	0.22539 0.54859 0.54895 -0.17300
N 	N 	0.24280 0.59600 0.52554 -0.16700
C 	C 	0.63570 0.48280 0.71622 -0.11000
C 	C 	0.59140 0.46060 0.69076 0.17400
C 	C 	0.59420 0.40570 0.68047 -0.07700
C 	C 	0.55930 0.36050 0.65319 0.78600
C 	C 	0.65600 0.54250 0.73749 0.99100
C 	C 	0.54970 0.48600 0.67786 0.07900
C 	C 	0.47950 0.44470 0.67563 0.01300
H 	H 	0.45970 0.40183 0.68303 0.16000
C 	C 	0.44280 0.46760 0.66302 0.02100
H 	H 	0.39785 0.43997 0.66140 0.15200
C 	C 	0.47020 0.53190 0.65227 0.05700
C 	C 	0.53300 0.57150 0.65492 0.01900
H 	H 	0.55023 0.61484 0.64866 0.17700
C 	C 	0.57620 0.55080 0.66707 0.01500
H 	H 	0.62101 0.57965 0.66784 0.15600
C 	C 	0.42440 0.55290 0.63849 0.26400
C 	C 	0.38340 0.52900 0.61233 -0.18800
C 	C 	0.41710 0.60620 0.64886 -0.18000
C 	C 	0.44810 0.65180 0.67530 1.15800
C 	C 	0.36850 0.47540 0.59180 0.94500
C 	C 	0.16080 0.50510 0.54600 -0.12100
C 	C 	0.13400 0.52380 0.52093 0.19400
C 	C 	0.18730 0.57930 0.50951 -0.09200
C 	C 	0.19210 0.62250 0.48124 0.91800
C 	C 	0.12960 0.45100 0.56952 0.88800
C 	C 	0.06420 0.48750 0.50987 0.07500
C 	C 	0.03030 0.42160 0.50501 -0.00000
H 	H 	0.05084 0.39752 0.50894 0.15200
C 	C 	0.03210 0.52460 0.50546 0.01700
H 	H 	0.05363 0.56914 0.50981 0.17900
F 	F 	0.53400 0.38100 0.63270 -0.28800
F 	F 	0.58770 0.32530 0.64020 -0.72200
F 	F 	0.69100 0.54100 0.76000 -0.57400
F 	F 	0.49720 0.65700 0.68540 -0.37600
F 	F 	0.45600 0.71300 0.66920 -0.28800
F 	F 	0.36000 0.48120 0.56260 -0.78500
F 	F 	0.56500 0.39900 0.62670 -0.13000
Cu	Cu	0.44305 0.73282 0.57870 0.82700
F 	F 	0.65400 0.25200 0.64030 0.36000
F 	F 	0.69040 0.19250 0.66336 -0.36800
F 	F 	0.45180 0.05560 0.74501 -0.44600
F 	F 	0.46390 0.13520 0.76870 0.06200
F 	F 	0.40440 0.09870 0.72423 -0.43200
F 	F 	0.29770 0.80000 0.66710 -0.28700
F 	F 	0.32750 0.73860 0.68880 -0.35500
F 	F 	0.38280 0.83560 0.70225 -0.26200
F 	F 	0.52940 0.86570 0.56490 0.28100
F 	F 	0.52910 0.95310 0.58466 -0.36600
F 	F 	0.58280 0.91190 0.60433 -0.42200
F 	F 	0.53940 0.69990 0.59684 -0.47600
F 	F 	0.60470 0.72680 0.55589 -0.39300
F 	F 	0.56480 0.63550 0.57871 -0.43600
F 	F 	0.40820 0.55710 0.45913 -0.40400
F 	F 	0.33060 0.51070 0.49112 -0.41200
F 	F 	0.34740 0.59670 0.46825 -0.42100
N 	N 	0.55435 0.21592 0.72079 -0.16200
N 	N 	0.60176 0.23911 0.69820 -0.17100
N 	N 	0.38880 0.76290 0.62987 -0.13700
N 	N 	0.43730 0.79028 0.60736 -0.15900
N 	N 	0.45141 0.67680 0.54895 -0.17300
N 	N 	0.40400 0.64680 0.52554 -0.16700
C 	C 	0.51720 0.15290 0.71622 -0.11000
C 	C 	0.53940 0.13080 0.69076 0.17400
C 	C 	0.59430 0.18850 0.68047 -0.07700
C 	C 	0.63950 0.19880 0.65319 0.78600
C 	C 	0.45750 0.11350 0.73749 0.99100
C 	C 	0.51400 0.06370 0.67786 0.07900
C 	C 	0.55530 0.03480 0.67563 0.01300
H 	H 	0.59817 0.05787 0.68303 0.16000
C 	C 	0.53240 0.97520 0.66302 0.02100
H 	H 	0.56003 0.95788 0.66140 0.15200
C 	C 	0.46810 0.93830 0.65227 0.05700
C 	C 	0.42850 0.96150 0.65492 0.01900
H 	H 	0.38516 0.93539 0.64866 0.17700
C 	C 	0.44920 0.02540 0.66707 0.01500
H 	H 	0.42035 0.04136 0.66784 0.15600
C 	C 	0.44710 0.87150 0.63849 0.26400
C 	C 	0.47100 0.85440 0.61233 -0.18800
C 	C 	0.39380 0.81090 0.64886 -0.18000
C 	C 	0.34820 0.79630 0.67530 1.15800
C 	C 	0.52460 0.89310 0.59180 0.94500
C 	C 	0.49490 0.65570 0.54600 -0.12100
C 	C 	0.47620 0.61020 0.52093 0.19400
C 	C 	0.42070 0.60800 0.50951 -0.09200
C 	C 	0.37750 0.56960 0.48124 0.91800
C 	C 	0.54900 0.67860 0.56952 0.88800
C 	C 	0.51250 0.57670 0.50987 0.07500
C 	C 	0.57840 0.60870 0.50501 -0.00000
H 	H 	0.60248 0.65332 0.50894 0.15200
C 	C 	0.47540 0.50750 0.50546 0.01700
H 	H 	0.43086 0.48449 0.50981 0.17900
F 	F 	0.61900 0.15300 0.63270 -0.28800
F 	F 	0.67470 0.26240 0.64020 -0.72200
F 	F 	0.45900 0.15000 0.76000 -0.57400
F 	F 	0.34300 0.84020 0.68540 -0.37700
F 	F 	0.28700 0.74300 0.66920 -0.28800
F 	F 	0.51880 0.87880 0.56260 -0.78500
F 	F 	0.60100 0.16600 0.62670 -0.13000
Cu	Cu	0.26718 0.71023 0.57870 0.82700
F 	F 	0.74800 0.40200 0.64030 0.36000
F 	F 	0.80750 0.49790 0.66336 -0.36800
F 	F 	0.94440 0.39620 0.74501 -0.44600
F 	F 	0.86480 0.32870 0.76870 0.06200
F 	F 	0.90130 0.30570 0.72423 -0.43200
F 	F 	0.20000 0.49770 0.66710 -0.28700
F 	F 	0.26140 0.58890 0.68880 -0.35500
F 	F 	0.16440 0.54720 0.70225 -0.26200
F 	F 	0.13430 0.66370 0.56490 0.28100
F 	F 	0.04690 0.57600 0.58466 -0.36600
F 	F 	0.08810 0.67090 0.60433 -0.42200
F 	F 	0.30010 0.83950 0.59684 -0.47600
F 	F 	0.27320 0.87790 0.55589 -0.39300
F 	F 	0.36450 0.92930 0.57871 -0.43600
F 	F 	0.44290 0.85110 0.45913 -0.40400
F 	F 	0.48930 0.81990 0.49112 -0.41200
F 	F 	0.40330 0.75070 0.46825 -0.42100
N 	N 	0.78408 0.33843 0.72079 -0.16200
N 	N 	0.76089 0.36265 0.69820 -0.17100
N 	N 	0.23710 0.62590 0.62987 -0.13700
N 	N 	0.20972 0.64702 0.60736 -0.15900
N 	N 	0.32320 0.77461 0.54895 -0.17300
N 	N 	0.35320 0.75720 0.52554 -0.16700
C 	C 	0.84710 0.36430 0.71622 -0.11000
C 	C 	0.86920 0.40860 0.69076 0.17400
C 	C 	0.81150 0.40580 0.68047 -0.07700
C 	C 	0.80120 0.44070 0.65319 0.78600
C 	C 	0.88650 0.34400 0.73749 0.99100
C 	C 	0.93630 0.45030 0.67786 0.07900
C 	C 	0.96520 0.52050 0.67563 0.01300
H 	H 	0.94213 0.54030 0.68303 0.16000
C 	C 	0.02480 0.55720 0.66302 0.02100
H 	H 	0.04212 0.60215 0.66140 0.15200
C 	C 	0.06170 0.52980 0.65227 0.05700
C 	C 	0.03850 0.46700 0.65492 0.01900
H 	H 	0.06461 0.44977 0.64866 0.17700
C 	C 	0.97460 0.42380 0.66707 0.01500
H 	H 	0.95864 0.37899 0.66784 0.15600
C 	C 	0.12850 0.57560 0.63849 0.26400
C 	C 	0.14560 0.61660 0.61233 -0.18800
C 	C 	0.18910 0.58290 0.64886 -0.18000
C 	C 	0.20370 0.55190 0.67530 1.15800
C 	C 	0.10690 0.63150 0.59180 0.94500
C 	C 	0.34430 0.83920 0.54600 -0.12100
C 	C 	0.38980 0.86600 0.52093 0.19400
C 	C 	0.39200 0.81270 0.50951 -0.09200
C 	C 	0.43040 0.80790 0.48124 0.91800
C 	C 	0.32140 0.87040 0.56952 0.88800
C 	C 	0.42330 0.93580 0.50987 0.07500
C 	C 	0.39130 0.96970 0.50501 -0.00100
H 	H 	0.34668 0.94916 0.50894 0.15200
C 	C 	0.49250 0.96790 0.50546 0.01700
H 	H 	0.51551 0.94637 0.50981 0.17900
F 	F 	0.84700 0.46600 0.63270 -0.28800
F 	F 	0.73760 0.41230 0.64020 -0.72200
F 	F 	0.85000 0.30900 0.76000 -0.57400
F 	F 	0.15980 0.50280 0.68540 -0.37600
F 	F 	0.25700 0.54400 0.66920 -0.28800
F 	F 	0.12120 0.64000 0.56260 -0.78500
F 	F 	0.83400 0.43500 0.62670 -0.13000
Cu	Cu	0.71023 0.44305 0.07870 0.82700
F 	F 	0.40200 0.65400 0.14030 0.36000
F 	F 	0.49790 0.69040 0.16336 -0.36800
F 	F 	0.39620 0.45180 0.24501 -0.44600
F 	F 	0.32870 0.46390 0.26870 0.06200
F 	F 	0.30570 0.40440 0.22423 -0.43200
F 	F 	0.49770 0.29770 0.16710 -0.28700
F 	F 	0.58890 0.32750 0.18880 -0.35500
F 	F 	0.54720 0.38280 0.20225 -0.26200
F 	F 	0.66370 0.52940 0.06490 0.28100
F 	F 	0.57600 0.52910 0.08466 -0.36600
F 	F 	0.67090 0.58280 0.10433 -0.42200
F 	F 	0.83950 0.53940 0.09684 -0.47600
F 	F 	0.87790 0.60470 0.05589 -0.39300
F 	F 	0.92930 0.56480 0.07871 -0.43600
F 	F 	0.85110 0.40820 0.95913 -0.40400
F 	F 	0.81990 0.33060 0.99112 -0.41200
F 	F 	0.75070 0.34740 0.96825 -0.42100
N 	N 	0.33843 0.55435 0.22079 -0.16200
N 	N 	0.36265 0.60176 0.19820 -0.17100
N 	N 	0.62590 0.38880 0.12987 -0.13700
N 	N 	0.64702 0.43730 0.10736 -0.15900
N 	N 	0.77461 0.45141 0.04895 -0.17300
N 	N 	0.75720 0.40400 0.02554 -0.16700
C 	C 	0.36430 0.51720 0.21622 -0.11000
C 	C 	0.40860 0.53940 0.19076 0.17400
C 	C 	0.40580 0.59430 0.18047 -0.07700
C 	C 	0.44070 0.63950 0.15319 0.78600
C 	C 	0.34400 0.45750 0.23749 0.99100
C 	C 	0.45030 0.51400 0.17786 0.07900
C 	C 	0.52050 0.55530 0.17563 0.01300
H 	H 	0.54030 0.59817 0.18303 0.16000
C 	C 	0.55720 0.53240 0.16302 0.02100
H 	H 	0.60215 0.56003 0.16140 0.15200
C 	C 	0.52980 0.46810 0.15227 0.05700
C 	C 	0.46700 0.42850 0.15492 0.01900
H 	H 	0.44977 0.38516 0.14866 0.17700
C 	C 	0.42380 0.44920 0.16707 0.01500
H 	H 	0.37899 0.42035 0.16784 0.15600
C 	C 	0.57560 0.44710 0.13849 0.26400
C 	C 	0.61660 0.47100 0.11233 -0.18800
C 	C 	0.58290 0.39380 0.14886 -0.18000
C 	C 	0.55190 0.34820 0.17530 1.15800
C 	C 	0.63150 0.52460 0.09180 0.94500
C 	C 	0.83920 0.49490 0.04600 -0.12100
C 	C 	0.86600 0.47620 0.02093 0.19400
C 	C 	0.81270 0.42070 0.00951 -0.09200
C 	C 	0.80790 0.37750 0.98124 0.91800
C 	C 	0.87040 0.54900 0.06952 0.88800
C 	C 	0.93580 0.51250 0.00987 0.07500
C 	C 	0.96970 0.57840 0.00501 -0.00000
H 	H 	0.94916 0.60248 0.00894 0.15200
C 	C 	0.96790 0.47540 0.00546 0.01700
H 	H 	0.94637 0.43086 0.00981 0.17900
F 	F 	0.46600 0.61900 0.13270 -0.28800
F 	F 	0.41230 0.67470 0.14020 -0.72200
F 	F 	0.30900 0.45900 0.26000 -0.57400
F 	F 	0.50280 0.34300 0.18540 -0.37600
F 	F 	0.54400 0.28700 0.16920 -0.28800
F 	F 	0.64000 0.51880 0.06260 -0.78500
F 	F 	0.43500 0.60100 0.12670 -0.13000
Cu	Cu	0.55695 0.26718 0.07870 0.82700
F 	F 	0.34600 0.74800 0.14030 0.36000
F 	F 	0.30960 0.80750 0.16336 -0.36800
F 	F 	0.54820 0.94440 0.24501 -0.44600
F 	F 	0.53610 0.86480 0.26870 0.06200
F 	F 	0.59560 0.90130 0.22423 -0.43200
F 	F 	0.70230 0.20000 0.16710 -0.28700
F 	F 	0.67250 0.26140 0.18880 -0.35500
F 	F 	0.61720 0.16440 0.20225 -0.26200
F 	F 	0.47060 0.13430 0.06490 0.28100
F 	F 	0.47090 0.04690 0.08466 -0.36600
F 	F 	0.41720 0.08810 0.10433 -0.42200
F 	F 	0.46060 0.30010 0.09684 -0.47600
F 	F 	0.39530 0.27320 0.05589 -0.39300
F 	F 	0.43520 0.36450 0.07871 -0.43600
F 	F 	0.59180 0.44290 0.95913 -0.40400
F 	F 	0.66940 0.48930 0.99112 -0.41200
F 	F 	0.65260 0.40330 0.96825 -0.42100
N 	N 	0.44565 0.78408 0.22079 -0.16200
N 	N 	0.39824 0.76089 0.19820 -0.17100
N 	N 	0.61120 0.23710 0.12987 -0.13700
N 	N 	0.56270 0.20972 0.10736 -0.15900
N 	N 	0.54859 0.32320 0.04895 -0.17300
N 	N 	0.59600 0.35320 0.02554 -0.16700
C 	C 	0.48280 0.84710 0.21622 -0.11000
C 	C 	0.46060 0.86920 0.19076 0.17400
C 	C 	0.40570 0.81150 0.18047 -0.07700
C 	C 	0.36050 0.80120 0.15319 0.78600
C 	C 	0.54250 0.88650 0.23749 0.99100
C 	C 	0.48600 0.93630 0.17786 0.07900
C 	C 	0.44470 0.96520 0.17563 0.01300
H 	H 	0.40183 0.94213 0.18303 0.16000
C 	C 	0.46760 0.02480 0.16302 0.02100
H 	H 	0.43997 0.04212 0.16140 0.15200
C 	C 	0.53190 0.06170 0.15227 0.05700
C 	C 	0.57150 0.03850 0.15492 0.01900
H 	H 	0.61484 0.06461 0.14866 0.17700
C 	C 	0.55080 0.97460 0.16707 0.01600
H 	H 	0.57965 0.95864 0.16784 0.15600
C 	C 	0.55290 0.12850 0.13849 0.26400
C 	C 	0.52900 0.14560 0.11233 -0.18800
C 	C 	0.60620 0.18910 0.14886 -0.18000
C 	C 	0.65180 0.20370 0.17530 1.15800
C 	C 	0.47540 0.10690 0.09180 0.94500
C 	C 	0.50510 0.34430 0.04600 -0.12100
C 	C 	0.52380 0.38980 0.02093 0.19400
C 	C 	0.57930 0.39200 0.00951 -0.09200
C 	C 	0.62250 0.43040 0.98124 0.91800
C 	C 	0.45100 0.32140 0.06952 0.88800
C 	C 	0.48750 0.42330 0.00987 0.07500
C 	C 	0.42160 0.39130 0.00501 -0.00000
H 	H 	0.39752 0.34668 0.00894 0.15200
C 	C 	0.52460 0.49250 0.00546 0.01700
H 	H 	0.56914 0.51551 0.00981 0.17900
F 	F 	0.38100 0.84700 0.13270 -0.28800
F 	F 	0.32530 0.73760 0.14020 -0.72200
F 	F 	0.54100 0.85000 0.26000 -0.57400
F 	F 	0.65700 0.15980 0.18540 -0.37700
F 	F 	0.71300 0.25700 0.16920 -0.28800
F 	F 	0.48120 0.12120 0.06260 -0.78500
F 	F 	0.39900 0.83400 0.12670 -0.13000
Cu	Cu	0.73282 0.28977 0.07870 0.82700
F 	F 	0.25200 0.59800 0.14030 0.36000
F 	F 	0.19250 0.50210 0.16336 -0.36800
F 	F 	0.05560 0.60380 0.24501 -0.44600
F 	F 	0.13520 0.67130 0.26870 0.06200
F 	F 	0.09870 0.69430 0.22423 -0.43200
F 	F 	0.80000 0.50230 0.16710 -0.28700
F 	F 	0.73860 0.41110 0.18880 -0.35500
F 	F 	0.83560 0.45280 0.20225 -0.26200
F 	F 	0.86570 0.33630 0.06490 0.28100
F 	F 	0.95310 0.42400 0.08466 -0.36600
F 	F 	0.91190 0.32910 0.10433 -0.42200
F 	F 	0.69990 0.16050 0.09684 -0.47600
F 	F 	0.72680 0.12210 0.05589 -0.39300
F 	F 	0.63550 0.07070 0.07871 -0.43600
F 	F 	0.55710 0.14890 0.95913 -0.40400
F 	F 	0.51070 0.18010 0.99112 -0.41200
F 	F 	0.59670 0.24930 0.96825 -0.42100
N 	N 	0.21592 0.66157 0.22079 -0.16200
N 	N 	0.23911 0.63735 0.19820 -0.17100
N 	N 	0.76290 0.37410 0.12987 -0.13700
N 	N 	0.79028 0.35298 0.10736 -0.15900
N 	N 	0.67680 0.22539 0.04895 -0.17300
N 	N 	0.64680 0.24280 0.02554 -0.16700
C 	C 	0.15290 0.63570 0.21622 -0.11000
C 	C 	0.13080 0.59140 0.19076 0.17400
C 	C 	0.18850 0.59420 0.18047 -0.07700
C 	C 	0.19880 0.55930 0.15319 0.78600
C 	C 	0.11350 0.65600 0.23749 0.99100
C 	C 	0.06370 0.54970 0.17786 0.07900
C 	C 	0.03480 0.47950 0.17563 0.01300
H 	H 	0.05787 0.45970 0.18303 0.16000
C 	C 	0.97520 0.44280 0.16302 0.02100
H 	H 	0.95788 0.39785 0.16140 0.15200
C 	C 	0.93830 0.47020 0.15227 0.05700
C 	C 	0.96150 0.53300 0.15492 0.01900
H 	H 	0.93539 0.55023 0.14866 0.17700
C 	C 	0.02540 0.57620 0.16707 0.01500
H 	H 	0.04136 0.62101 0.16784 0.15600
C 	C 	0.87150 0.42440 0.13849 0.26400
C 	C 	0.85440 0.38340 0.11233 -0.18800
C 	C 	0.81090 0.41710 0.14886 -0.18000
C 	C 	0.79630 0.44810 0.17530 1.15800
C 	C 	0.89310 0.36850 0.09180 0.94500
C 	C 	0.65570 0.16080 0.04600 -0.12100
C 	C 	0.61020 0.13400 0.02093 0.19400
C 	C 	0.60800 0.18730 0.00951 -0.09200
C 	C 	0.56960 0.19210 0.98124 0.91800
C 	C 	0.67860 0.12960 0.06952 0.88800
C 	C 	0.57670 0.06420 0.00987 0.07600
C 	C 	0.60870 0.03030 0.00501 -0.00100
H 	H 	0.65332 0.05084 0.00894 0.15200
C 	C 	0.50750 0.03210 0.00546 0.01700
H 	H 	0.48449 0.05363 0.00981 0.17900
F 	F 	0.15300 0.53400 0.13270 -0.28800
F 	F 	0.26240 0.58770 0.14020 -0.72200
F 	F 	0.15000 0.69100 0.26000 -0.57400
F 	F 	0.84020 0.49720 0.18540 -0.37600
F 	F 	0.74300 0.45600 0.16920 -0.28800
F 	F 	0.87880 0.36000 0.06260 -0.78500
F 	F 	0.16600 0.56500 0.12670 -0.13000
Cu	Cu	0.55695 0.28977 0.42130 0.82700
F 	F 	0.34600 0.59800 0.35970 0.36000
F 	F 	0.30960 0.50210 0.33664 -0.36800
F 	F 	0.54820 0.60380 0.25499 -0.44600
F 	F 	0.53610 0.67130 0.23130 0.06200
F 	F 	0.59560 0.69430 0.27577 -0.43200
F 	F 	0.70230 0.50230 0.33290 -0.28700
F 	F 	0.67250 0.41110 0.31120 -0.35500
F 	F 	0.61720 0.45280 0.29775 -0.26200
F 	F 	0.47060 0.33630 0.43510 0.28100
F 	F 	0.47090 0.42400 0.41534 -0.36600
F 	F 	0.41720 0.32910 0.39567 -0.42200
F 	F 	0.46060 0.16050 0.40316 -0.47600
F 	F 	0.39530 0.12210 0.44411 -0.39300
F 	F 	0.43520 0.07070 0.42129 -0.43600
F 	F 	0.59180 0.14890 0.54087 -0.40400
F 	F 	0.66940 0.18010 0.50888 -0.41200
F 	F 	0.65260 0.24930 0.53175 -0.42100
N 	N 	0.44565 0.66157 0.27921 -0.16200
N 	N 	0.39824 0.63735 0.30180 -0.17100
N 	N 	0.61120 0.37410 0.37013 -0.13700
N 	N 	0.56270 0.35298 0.39264 -0.15900
N 	N 	0.54859 0.22539 0.45105 -0.17300
N 	N 	0.59600 0.24280 0.47446 -0.16700
C 	C 	0.48280 0.63570 0.28378 -0.11000
C 	C 	0.46060 0.59140 0.30924 0.17400
C 	C 	0.40570 0.59420 0.31953 -0.07700
C 	C 	0.36050 0.55930 0.34681 0.78600
C 	C 	0.54250 0.65600 0.26251 0.99100
C 	C 	0.48600 0.54970 0.32214 0.07900
C 	C 	0.44470 0.47950 0.32437 0.01300
H 	H 	0.40183 0.45970 0.31697 0.16000
C 	C 	0.46760 0.44280 0.33698 0.02100
H 	H 	0.43997 0.39785 0.33860 0.15200
C 	C 	0.53190 0.47020 0.34773 0.05700
C 	C 	0.57150 0.53300 0.34508 0.01900
H 	H 	0.61484 0.55023 0.35134 0.17700
C 	C 	0.55080 0.57620 0.33293 0.01500
H 	H 	0.57965 0.62101 0.33216 0.15600
C 	C 	0.55290 0.42440 0.36151 0.26400
C 	C 	0.52900 0.38340 0.38767 -0.18800
C 	C 	0.60620 0.41710 0.35114 -0.18000
C 	C 	0.65180 0.44810 0.32470 1.15800
C 	C 	0.47540 0.36850 0.40820 0.94500
C 	C 	0.50510 0.16080 0.45400 -0.12100
C 	C 	0.52380 0.13400 0.47907 0.19400
C 	C 	0.57930 0.18730 0.49049 -0.09200
C 	C 	0.62250 0.19210 0.51876 0.91800
C 	C 	0.45100 0.12960 0.43048 0.88800
C 	C 	0.48750 0.06420 0.49013 0.07500
C 	C 	0.42160 0.03030 0.49499 -0.00000
H 	H 	0.39752 0.05084 0.49106 0.15200
C 	C 	0.52460 0.03210 0.49454 0.01700
H 	H 	0.56914 0.05363 0.49019 0.17900
F 	F 	0.38100 0.53400 0.36730 -0.28800
F 	F 	0.32530 0.58770 0.35980 -0.72200
F 	F 	0.54100 0.69100 0.24000 -0.57400
F 	F 	0.65700 0.49720 0.31460 -0.37600
F 	F 	0.71300 0.45600 0.33080 -0.28800
F 	F 	0.48120 0.36000 0.43740 -0.78500
F 	F 	0.39900 0.56500 0.37330 -0.13000
Cu	Cu	0.73282 0.44305 0.42130 0.82700
F 	F 	0.25200 0.65400 0.35970 0.36000
F 	F 	0.19250 0.69040 0.33664 -0.36800
F 	F 	0.05560 0.45180 0.25499 -0.44600
F 	F 	0.13520 0.46390 0.23130 0.06200
F 	F 	0.09870 0.40440 0.27577 -0.43200
F 	F 	0.80000 0.29770 0.33290 -0.28700
F 	F 	0.73860 0.32750 0.31120 -0.35500
F 	F 	0.83560 0.38280 0.29775 -0.26200
F 	F 	0.86570 0.52940 0.43510 0.28100
F 	F 	0.95310 0.52910 0.41534 -0.36600
F 	F 	0.91190 0.58280 0.39567 -0.42200
F 	F 	0.69990 0.53940 0.40316 -0.47600
F 	F 	0.72680 0.60470 0.44411 -0.39300
F 	F 	0.63550 0.56480 0.42129 -0.43600
F 	F 	0.55710 0.40820 0.54087 -0.40400
F 	F 	0.51070 0.33060 0.50888 -0.41200
F 	F 	0.59670 0.34740 0.53175 -0.42100
N 	N 	0.21592 0.55435 0.27921 -0.16200
N 	N 	0.23911 0.60176 0.30180 -0.17100
N 	N 	0.76290 0.38880 0.37013 -0.13700
N 	N 	0.79028 0.43730 0.39264 -0.15900
N 	N 	0.67680 0.45141 0.45105 -0.17300
N 	N 	0.64680 0.40400 0.47446 -0.16700
C 	C 	0.15290 0.51720 0.28378 -0.11000
C 	C 	0.13080 0.53940 0.30924 0.17400
C 	C 	0.18850 0.59430 0.31953 -0.07700
C 	C 	0.19880 0.63950 0.34681 0.78600
C 	C 	0.11350 0.45750 0.26251 0.99100
C 	C 	0.06370 0.51400 0.32214 0.07900
C 	C 	0.03480 0.55530 0.32437 0.01300
H 	H 	0.05787 0.59817 0.31697 0.16000
C 	C 	0.97520 0.53240 0.33698 0.02100
H 	H 	0.95788 0.56003 0.33860 0.15200
C 	C 	0.93830 0.46810 0.34773 0.05700
C 	C 	0.96150 0.42850 0.34508 0.01900
H 	H 	0.93539 0.38516 0.35134 0.17700
C 	C 	0.02540 0.44920 0.33293 0.01500
H 	H 	0.04136 0.42035 0.33216 0.15600
C 	C 	0.87150 0.44710 0.36151 0.26400
C 	C 	0.85440 0.47100 0.38767 -0.18800
C 	C 	0.81090 0.39380 0.35114 -0.18000
C 	C 	0.79630 0.34820 0.32470 1.15800
C 	C 	0.89310 0.52460 0.40820 0.94500
C 	C 	0.65570 0.49490 0.45400 -0.12100
C 	C 	0.61020 0.47620 0.47907 0.19400
C 	C 	0.60800 0.42070 0.49049 -0.09200
C 	C 	0.56960 0.37750 0.51876 0.91800
C 	C 	0.67860 0.54900 0.43048 0.88800
C 	C 	0.57670 0.51250 0.49013 0.07500
C 	C 	0.60870 0.57840 0.49499 -0.00000
H 	H 	0.65332 0.60248 0.49106 0.15200
C 	C 	0.50750 0.47540 0.49454 0.01700
H 	H 	0.48449 0.43086 0.49019 0.17900
F 	F 	0.15300 0.61900 0.36730 -0.28800
F 	F 	0.26240 0.67470 0.35980 -0.72200
F 	F 	0.15000 0.45900 0.24000 -0.57400
F 	F 	0.84020 0.34300 0.31460 -0.37700
F 	F 	0.74300 0.28700 0.33080 -0.28800
F 	F 	0.87880 0.51880 0.43740 -0.78500
F 	F 	0.16600 0.60100 0.37330 -0.13000
Cu	Cu	0.71023 0.26718 0.42130 0.82700
F 	F 	0.40200 0.74800 0.35970 0.36000
F 	F 	0.49790 0.80750 0.33664 -0.36800
F 	F 	0.39620 0.94440 0.25499 -0.44600
F 	F 	0.32870 0.86480 0.23130 0.06200
F 	F 	0.30570 0.90130 0.27577 -0.43200
F 	F 	0.49770 0.20000 0.33290 -0.28700
F 	F 	0.58890 0.26140 0.31120 -0.35500
F 	F 	0.54720 0.16440 0.29775 -0.26200
F 	F 	0.66370 0.13430 0.43510 0.28100
F 	F 	0.57600 0.04690 0.41534 -0.36600
F 	F 	0.67090 0.08810 0.39567 -0.42200
F 	F 	0.83950 0.30010 0.40316 -0.47600
F 	F 	0.87790 0.27320 0.44411 -0.39300
F 	F 	0.92930 0.36450 0.42129 -0.43600
F 	F 	0.85110 0.44290 0.54087 -0.40400
F 	F 	0.81990 0.48930 0.50888 -0.41200
F 	F 	0.75070 0.40330 0.53175 -0.42100
N 	N 	0.33843 0.78408 0.27921 -0.16200
N 	N 	0.36265 0.76089 0.30180 -0.17100
N 	N 	0.62590 0.23710 0.37013 -0.13700
N 	N 	0.64702 0.20972 0.39264 -0.15900
N 	N 	0.77461 0.32320 0.45105 -0.17300
N 	N 	0.75720 0.35320 0.47446 -0.16700
C 	C 	0.36430 0.84710 0.28378 -0.11000
C 	C 	0.40860 0.86920 0.30924 0.17400
C 	C 	0.40580 0.81150 0.31953 -0.07700
C 	C 	0.44070 0.80120 0.34681 0.78600
C 	C 	0.34400 0.88650 0.26251 0.99100
C 	C 	0.45030 0.93630 0.32214 0.07900
C 	C 	0.52050 0.96520 0.32437 0.01300
H 	H 	0.54030 0.94213 0.31697 0.16000
C 	C 	0.55720 0.02480 0.33698 0.02100
H 	H 	0.60215 0.04212 0.33860 0.15200
C 	C 	0.52980 0.06170 0.34773 0.05700
C 	C 	0.46700 0.03850 0.34508 0.01900
H 	H 	0.44977 0.06461 0.35134 0.17700
C 	C 	0.42380 0.97460 0.33293 0.01500
H 	H 	0.37899 0.95864 0.33216 0.15600
C 	C 	0.57560 0.12850 0.36151 0.26400
C 	C 	0.61660 0.14560 0.38767 -0.18800
C 	C 	0.58290 0.18910 0.35114 -0.18000
C 	C 	0.55190 0.20370 0.32470 1.15800
C 	C 	0.63150 0.10690 0.40820 0.94500
C 	C 	0.83920 0.34430 0.45400 -0.12100
C 	C 	0.86600 0.38980 0.47907 0.19400
C 	C 	0.81270 0.39200 0.49049 -0.09200
C 	C 	0.80790 0.43040 0.51876 0.91800
C 	C 	0.87040 0.32140 0.43048 0.88800
C 	C 	0.93580 0.42330 0.49013 0.07500
C 	C 	0.96970 0.39130 0.49499 -0.00100
H 	H 	0.94916 0.34668 0.49106 0.15200
C 	C 	0.96790 0.49250 0.49454 0.01700
H 	H 	0.94637 0.51551 0.49019 0.17900
F 	F 	0.46600 0.84700 0.36730 -0.28800
F 	F 	0.41230 0.73760 0.35980 -0.72200
F 	F 	0.30900 0.85000 0.24000 -0.57400
F 	F 	0.50280 0.15980 0.31460 -0.37600
F 	F 	0.54400 0.25700 0.33080 -0.28800
F 	F 	0.64000 0.12120 0.43740 -0.78500
F 	F 	0.43500 0.83400 0.37330 -0.13000
Cu	Cu	0.44305 0.71023 0.92130 0.82700
F 	F 	0.65400 0.40200 0.85970 0.36000
F 	F 	0.69040 0.49790 0.83664 -0.36800
F 	F 	0.45180 0.39620 0.75499 -0.44600
F 	F 	0.46390 0.32870 0.73130 0.06200
F 	F 	0.40440 0.30570 0.77577 -0.43200
F 	F 	0.29770 0.49770 0.83290 -0.28700
F 	F 	0.32750 0.58890 0.81120 -0.35500
F 	F 	0.38280 0.54720 0.79775 -0.26200
F 	F 	0.52940 0.66370 0.93510 0.28100
F 	F 	0.52910 0.57600 0.91534 -0.36600
F 	F 	0.58280 0.67090 0.89567 -0.42200
F 	F 	0.53940 0.83950 0.90316 -0.47600
F 	F 	0.60470 0.87790 0.94411 -0.39300
F 	F 	0.56480 0.92930 0.92129 -0.43600
F 	F 	0.40820 0.85110 0.04087 -0.40400
F 	F 	0.33060 0.81990 0.00888 -0.41200
F 	F 	0.34740 0.75070 0.03175 -0.42100
N 	N 	0.55435 0.33843 0.77921 -0.16200
N 	N 	0.60176 0.36265 0.80180 -0.17100
N 	N 	0.38880 0.62590 0.87013 -0.13700
N 	N 	0.43730 0.64702 0.89264 -0.15900
N 	N 	0.45141 0.77461 0.95105 -0.17300
N 	N 	0.40400 0.75720 0.97446 -0.16700
C 	C 	0.51720 0.36430 0.78378 -0.11000
C 	C 	0.53940 0.40860 0.80924 0.17400
C 	C 	0.59430 0.40580 0.81953 -0.07700
C 	C 	0.63950 0.44070 0.84681 0.78600
C 	C 	0.45750 0.34400 0.76251 0.99100
C 	C 	0.51400 0.45030 0.82214 0.07900
C 	C 	0.55530 0.52050 0.82437 0.01300
H 	H 	0.59817 0.54030 0.81697 0.16000
C 	C 	0.53240 0.55720 0.83698 0.02100
H 	H 	0.56003 0.60215 0.83860 0.15200
C 	C 	0.46810 0.52980 0.84773 0.05700
C 	C 	0.42850 0.46700 0.84508 0.01900
H 	H 	0.38516 0.44977 0.85134 0.17700
C 	C 	0.44920 0.42380 0.83293 0.01500
H 	H 	0.42035 0.37899 0.83216 0.15600
C 	C 	0.44710 0.57560 0.86151 0.26400
C 	C 	0.47100 0.61660 0.88767 -0.18800
C 	C 	0.39380 0.58290 0.85114 -0.18000
C 	C 	0.34820 0.55190 0.82470 1.15800
C 	C 	0.52460 0.63150 0.90820 0.94500
C 	C 	0.49490 0.83920 0.95400 -0.12100
C 	C 	0.47620 0.86600 0.97907 0.19400
C 	C 	0.42070 0.81270 0.99049 -0.09200
C 	C 	0.37750 0.80790 0.01876 0.91800
C 	C 	0.54900 0.87040 0.93048 0.88800
C 	C 	0.51250 0.93580 0.99013 0.07500
C 	C 	0.57840 0.96970 0.99499 -0.00000
H 	H 	0.60248 0.94916 0.99106 0.15200
C 	C 	0.47540 0.96790 0.99454 0.01700
H 	H 	0.43086 0.94637 0.99019 0.17900
F 	F 	0.61900 0.46600 0.86730 -0.28800
F 	F 	0.67470 0.41230 0.85980 -0.72200
F 	F 	0.45900 0.30900 0.74000 -0.57400
F 	F 	0.34300 0.50280 0.81460 -0.37600
F 	F 	0.28700 0.54400 0.83080 -0.28800
F 	F 	0.51880 0.64000 0.93740 -0.78500
F 	F 	0.60100 0.43500 0.87330 -0.13000
Cu	Cu	0.26718 0.55695 0.92130 0.82700
F 	F 	0.74800 0.34600 0.85970 0.36000
F 	F 	0.80750 0.30960 0.83664 -0.36800
F 	F 	0.94440 0.54820 0.75499 -0.44600
F 	F 	0.86480 0.53610 0.73130 0.06200
F 	F 	0.90130 0.59560 0.77577 -0.43200
F 	F 	0.20000 0.70230 0.83290 -0.28700
F 	F 	0.26140 0.67250 0.81120 -0.35500
F 	F 	0.16440 0.61720 0.79775 -0.26200
F 	F 	0.13430 0.47060 0.93510 0.28100
F 	F 	0.04690 0.47090 0.91534 -0.36600
F 	F 	0.08810 0.41720 0.89567 -0.42200
F 	F 	0.30010 0.46060 0.90316 -0.47600
F 	F 	0.27320 0.39530 0.94411 -0.39300
F 	F 	0.36450 0.43520 0.92129 -0.43600
F 	F 	0.44290 0.59180 0.04087 -0.40400
F 	F 	0.48930 0.66940 0.00888 -0.41200
F 	F 	0.40330 0.65260 0.03175 -0.42100
N 	N 	0.78408 0.44565 0.77921 -0.16200
N 	N 	0.76089 0.39824 0.80180 -0.17100
N 	N 	0.23710 0.61120 0.87013 -0.13700
N 	N 	0.20972 0.56270 0.89264 -0.15900
N 	N 	0.32320 0.54859 0.95105 -0.17300
N 	N 	0.35320 0.59600 0.97446 -0.16700
C 	C 	0.84710 0.48280 0.78378 -0.11000
C 	C 	0.86920 0.46060 0.80924 0.17400
C 	C 	0.81150 0.40570 0.81953 -0.07700
C 	C 	0.80120 0.36050 0.84681 0.78600
C 	C 	0.88650 0.54250 0.76251 0.99100
C 	C 	0.93630 0.48600 0.82214 0.07900
C 	C 	0.96520 0.44470 0.82437 0.01300
H 	H 	0.94213 0.40183 0.81697 0.16000
C 	C 	0.02480 0.46760 0.83698 0.02100
H 	H 	0.04212 0.43997 0.83860 0.15200
C 	C 	0.06170 0.53190 0.84773 0.05700
C 	C 	0.03850 0.57150 0.84508 0.01900
H 	H 	0.06461 0.61484 0.85134 0.17700
C 	C 	0.97460 0.55080 0.83293 0.01600
H 	H 	0.95864 0.57965 0.83216 0.15600
C 	C 	0.12850 0.55290 0.86151 0.26400
C 	C 	0.14560 0.52900 0.88767 -0.18800
C 	C 	0.18910 0.60620 0.85114 -0.18000
C 	C 	0.20370 0.65180 0.82470 1.15800
C 	C 	0.10690 0.47540 0.90820 0.94500
C 	C 	0.34430 0.50510 0.95400 -0.12100
C 	C 	0.38980 0.52380 0.97907 0.19400
C 	C 	0.39200 0.57930 0.99049 -0.09200
C 	C 	0.43040 0.62250 0.01876 0.91800
C 	C 	0.32140 0.45100 0.93048 0.88800
C 	C 	0.42330 0.48750 0.99013 0.07500
C 	C 	0.39130 0.42160 0.99499 -0.00000
H 	H 	0.34668 0.39752 0.99106 0.15200
C 	C 	0.49250 0.52460 0.99454 0.01700
H 	H 	0.51551 0.56914 0.99019 0.17900
F 	F 	0.84700 0.38100 0.86730 -0.28800
F 	F 	0.73760 0.32530 0.85980 -0.72200
F 	F 	0.85000 0.54100 0.74000 -0.57400
F 	F 	0.15980 0.65700 0.81460 -0.37700
F 	F 	0.25700 0.71300 0.83080 -0.28800
F 	F 	0.12120 0.48120 0.93740 -0.78500
F 	F 	0.83400 0.39900 0.87330 -0.13000
Cu	Cu	0.28977 0.73282 0.92130 0.82700
F 	F 	0.59800 0.25200 0.85970 0.36000
F 	F 	0.50210 0.19250 0.83664 -0.36800
F 	F 	0.60380 0.05560 0.75499 -0.44600
F 	F 	0.67130 0.13520 0.73130 0.06200
F 	F 	0.69430 0.09870 0.77577 -0.43200
F 	F 	0.50230 0.80000 0.83290 -0.28700
F 	F 	0.41110 0.73860 0.81120 -0.35500
F 	F 	0.45280 0.83560 0.79775 -0.26200
F 	F 	0.33630 0.86570 0.93510 0.28100
F 	F 	0.42400 0.95310 0.91534 -0.36600
F 	F 	0.32910 0.91190 0.89567 -0.42200
F 	F 	0.16050 0.69990 0.90316 -0.47600
F 	F 	0.12210 0.72680 0.94411 -0.39300
F 	F 	0.07070 0.63550 0.92129 -0.43600
F 	F 	0.14890 0.55710 0.04087 -0.40400
F 	F 	0.18010 0.51070 0.00888 -0.41200
F 	F 	0.24930 0.59670 0.03175 -0.42100
N 	N 	0.66157 0.21592 0.77921 -0.16200
N 	N 	0.63735 0.23911 0.80180 -0.17100
N 	N 	0.37410 0.76290 0.87013 -0.13700
N 	N 	0.35298 0.79028 0.89264 -0.15900
N 	N 	0.22539 0.67680 0.95105 -0.17300
N 	N 	0.24280 0.64680 0.97446 -0.16700
C 	C 	0.63570 0.15290 0.78378 -0.11000
C 	C 	0.59140 0.13080 0.80924 0.17400
C 	C 	0.59420 0.18850 0.81953 -0.07700
C 	C 	0.55930 0.19880 0.84681 0.78600
C 	C 	0.65600 0.11350 0.76251 0.99100
C 	C 	0.54970 0.06370 0.82214 0.07900
C 	C 	0.47950 0.03480 0.82437 0.01300
H 	H 	0.45970 0.05787 0.81697 0.16000
C 	C 	0.44280 0.97520 0.83698 0.02100
H 	H 	0.39785 0.95788 0.83860 0.15200
C 	C 	0.47020 0.93830 0.84773 0.05700
C 	C 	0.53300 0.96150 0.84508 0.01900
H 	H 	0.55023 0.93539 0.85134 0.17700
C 	C 	0.57620 0.02540 0.83293 0.01500
H 	H 	0.62101 0.04136 0.83216 0.15600
C 	C 	0.42440 0.87150 0.86151 0.26400
C 	C 	0.38340 0.85440 0.88767 -0.18800
C 	C 	0.41710 0.81090 0.85114 -0.18000
C 	C 	0.44810 0.79630 0.82470 1.15800
C 	C 	0.36850 0.89310 0.90820 0.94500
C 	C 	0.16080 0.65570 0.95400 -0.12100
C 	C 	0.13400 0.61020 0.97907 0.19400
C 	C 	0.18730 0.60800 0.99049 -0.09200
C 	C 	0.19210 0.56960 0.01876 0.91800
C 	C 	0.12960 0.67860 0.93048 0.88800
C 	C 	0.06420 0.57670 0.99013 0.07600
C 	C 	0.03030 0.60870 0.99499 -0.00100
H 	H 	0.05084 0.65332 0.99106 0.15200
C 	C 	0.03210 0.50750 0.99454 0.01700
H 	H 	0.05363 0.48449 0.99019 0.17900
F 	F 	0.53400 0.15300 0.86730 -0.28800
F 	F 	0.58770 0.26240 0.85980 -0.72200
F 	F 	0.69100 0.15000 0.74000 -0.57400
F 	F 	0.49720 0.84020 0.81460 -0.37600
F 	F 	0.45600 0.74300 0.83080 -0.28800
F 	F 	0.36000 0.87880 0.93740 -0.78500
F 	F 	0.56500 0.16600 0.87330 -0.13000
Cu	Cu	0.72274 0.44548 0.75000 0.84400
Cu	Cu	0.55452 0.27726 0.75000 0.84400
Cu	Cu	0.72274 0.27726 0.75000 0.84400
Cu	Cu	0.27726 0.55452 0.25000 0.84400
Cu	Cu	0.44548 0.72274 0.25000 0.84400
Cu	Cu	0.27726 0.72274 0.25000 0.84400
Cu	Cu	0.66667 0.33333 0.69771 0.83100
Cu	Cu	0.33333 0.66667 0.19771 0.83100
Cu	Cu	0.33333 0.66667 0.30229 0.83100
Cu	Cu	0.66667 0.33333 0.80229 0.83100
Cu	Cu	0.33333 0.66667 0.63151 0.84800
Cu	Cu	0.33333 0.66667 0.52554 0.83400
Cu	Cu	0.66667 0.33333 0.13151 0.84800
Cu	Cu	0.66667 0.33333 0.02554 0.83400
Cu	Cu	0.66667 0.33333 0.36849 0.84800
Cu	Cu	0.66667 0.33333 0.47446 0.83400
Cu	Cu	0.33333 0.66667 0.86849 0.84800
Cu	Cu	0.33333 0.66667 0.97446 0.83400
