data_crystal

_cell_length_a 17.05600
_cell_length_b 16.62400
_cell_length_c 17.06300
_cell_angle_alpha 90.00000
_cell_angle_beta  90.00000
_cell_angle_gamma 90.00000

_symmetry_space_group_name_	'P 1'
_symmetry_space_group_name_H-M	'P 1'

loop_
_symmetry_equiv_pos_as_xyz
  x,y,z

loop_
_atom_site_label
_atom_site_type_symbol
_atom_site_fract_x
_atom_site_fract_y
_atom_site_fract_z
_atom_site_charge
C 	C 	0.19780 0.24690 0.55610 0.14400
N 	N 	0.13000 0.25320 0.56120 -0.29100
C 	C 	0.69780 0.74690 0.55610 0.16100
N 	N 	0.63000 0.75320 0.56120 -0.28900
C 	C 	0.80220 0.25310 0.05610 0.17500
N 	N 	0.87000 0.24680 0.06120 -0.25300
C 	C 	0.30220 0.75310 0.05610 0.14900
N 	N 	0.37000 0.74680 0.06120 -0.28200
C 	C 	0.80220 0.74690 0.94390 0.13100
N 	N 	0.87000 0.75320 0.93880 -0.26200
C 	C 	0.30220 0.24690 0.94390 0.11200
N 	N 	0.37000 0.25320 0.93880 -0.28900
C 	C 	0.19780 0.75310 0.44390 0.14300
N 	N 	0.13000 0.74680 0.43880 -0.29200
C 	C 	0.69780 0.25310 0.44390 0.16700
N 	N 	0.63000 0.24680 0.43880 -0.28700
C 	C 	0.80220 0.75310 0.44390 0.16700
N 	N 	0.87000 0.74680 0.43880 -0.26100
C 	C 	0.30220 0.25310 0.44390 0.14800
N 	N 	0.37000 0.24680 0.43880 -0.28800
C 	C 	0.19780 0.74690 0.94390 0.10800
N 	N 	0.13000 0.75320 0.93880 -0.29300
C 	C 	0.69780 0.24690 0.94390 0.13200
N 	N 	0.63000 0.25320 0.93880 -0.28900
C 	C 	0.19780 0.25310 0.05610 0.15200
N 	N 	0.13000 0.24680 0.06120 -0.28300
C 	C 	0.69780 0.75310 0.05610 0.16800
N 	N 	0.63000 0.74680 0.06120 -0.28100
C 	C 	0.80220 0.24690 0.55610 0.16900
N 	N 	0.87000 0.25320 0.56120 -0.26000
C 	C 	0.30220 0.74690 0.55610 0.14200
N 	N 	0.37000 0.75320 0.56120 -0.29000
N 	N 	0.25000 0.25000 0.50000 -0.18800
N 	N 	0.75000 0.25000 -0.00000 -0.16000
N 	N 	0.75000 0.75000 -0.00000 -0.16000
N 	N 	0.25000 0.75000 0.50000 -0.18900
N 	N 	0.75000 0.75000 0.50000 -0.18400
N 	N 	0.25000 0.75000 -0.00000 -0.16400
N 	N 	0.25000 0.25000 -0.00000 -0.16400
N 	N 	0.75000 0.25000 0.50000 -0.18400
N 	N 	0.00000 0.32770 0.28380 -0.19700
Cd	Cd	-0.00000 0.25298 0.55016 1.18100
N 	N 	-0.00000 0.13540 0.47420 -0.29000
C 	C 	0.00000 0.31310 0.35920 0.13300
C 	C 	0.00000 0.06620 0.47170 0.16400
N 	N 	0.00000 0.32090 0.42540 -0.28200
C 	C 	0.00000 0.27690 0.22590 0.14000
N 	N 	-0.00000 0.24010 0.17000 -0.32900
N 	N 	0.50000 0.82770 0.28380 -0.19300
Cd	Cd	0.50000 0.75298 0.55016 1.19100
N 	N 	0.50000 0.63540 0.47420 -0.28400
C 	C 	0.50000 0.81310 0.35920 0.14800
C 	C 	0.50000 0.56620 0.47170 0.18300
N 	N 	0.50000 0.82090 0.42540 -0.27300
C 	C 	0.50000 0.77690 0.22590 0.15500
N 	N 	0.50000 0.74010 0.17000 -0.32000
N 	N 	0.00000 0.17230 0.78380 -0.19800
Cd	Cd	-0.00000 0.24702 0.05016 1.18900
N 	N 	0.00000 0.36460 0.97420 -0.29300
C 	C 	0.00000 0.18690 0.85920 0.12700
C 	C 	0.00000 0.43380 0.97170 0.11900
N 	N 	0.00000 0.17910 0.92540 -0.29000
C 	C 	0.00000 0.22310 0.72590 0.13400
N 	N 	0.00000 0.25990 0.67000 -0.33400
N 	N 	0.50000 0.67230 0.78380 -0.19400
Cd	Cd	0.50000 0.74702 0.05016 1.20000
N 	N 	0.50000 0.86460 0.97420 -0.28200
C 	C 	0.50000 0.68690 0.85920 0.14200
C 	C 	0.50000 0.93380 0.97170 0.12000
N 	N 	0.50000 0.67910 0.92540 -0.28200
C 	C 	0.50000 0.72310 0.72590 0.15000
N 	N 	0.50000 0.75990 0.67000 -0.32400
N 	N 	0.00000 0.82770 0.21620 -0.19800
Cd	Cd	-0.00000 0.75298 0.94984 1.17200
N 	N 	0.00000 0.63540 0.02580 -0.28000
C 	C 	-0.00000 0.81310 0.14080 0.13400
C 	C 	0.00000 0.56620 0.02830 0.16500
N 	N 	-0.00000 0.82090 0.07460 -0.27400
C 	C 	0.00000 0.77690 0.27410 0.13600
N 	N 	-0.00000 0.74010 0.33000 -0.33300
N 	N 	0.50000 0.32770 0.21620 -0.19100
Cd	Cd	0.50000 0.25298 0.94984 1.18400
N 	N 	0.50000 0.13540 0.02580 -0.27000
C 	C 	0.50000 0.31310 0.14080 0.15600
C 	C 	0.50000 0.06620 0.02830 0.18800
N 	N 	0.50000 0.32090 0.07460 -0.26100
C 	C 	0.50000 0.27690 0.27410 0.15800
N 	N 	0.50000 0.24010 0.33000 -0.32100
N 	N 	0.00000 0.67230 0.71620 -0.19900
Cd	Cd	0.00000 0.74702 0.44984 1.18000
N 	N 	-0.00000 0.86460 0.52580 -0.28900
C 	C 	0.00000 0.68690 0.64080 0.12800
C 	C 	0.00000 0.93380 0.52830 0.14100
N 	N 	0.00000 0.67910 0.57460 -0.28200
C 	C 	0.00000 0.72310 0.77410 0.13100
N 	N 	0.00000 0.75990 0.83000 -0.33800
N 	N 	0.50000 0.17230 0.71620 -0.19200
Cd	Cd	0.50000 0.24702 0.44984 1.19300
N 	N 	0.50000 0.36460 0.52580 -0.28300
C 	C 	0.50000 0.18690 0.64080 0.15000
C 	C 	0.50000 0.43380 0.52830 0.18200
N 	N 	0.50000 0.17910 0.57460 -0.27000
C 	C 	0.50000 0.22310 0.77410 0.15300
N 	N 	0.50000 0.25990 0.83000 -0.32600
N 	N 	0.00000 0.00000 0.50000 -0.21800
N 	N 	0.50000 0.50000 0.50000 -0.23100
N 	N 	-0.00000 0.50000 -0.00000 -0.20300
N 	N 	0.50000 0.00000 -0.00000 -0.18800
