data_crystal

_cell_length_a 10.49800
_cell_length_b 16.50000
_cell_length_c 15.76300
_cell_angle_alpha 90.00000
_cell_angle_beta  128.04000
_cell_angle_gamma 90.00000

_symmetry_space_group_name_	'P 1'
_symmetry_space_group_name_H-M	'P 1'

loop_
_symmetry_equiv_pos_as_xyz
  x,y,z

loop_
_atom_site_label
_atom_site_type_symbol
_atom_site_fract_x
_atom_site_fract_y
_atom_site_fract_z
_atom_site_charge
C 	C 	0.52480 0.64640 0.67630 0.14900
Cd	Cd	0.56481 0.82341 0.80771 1.19700
N 	N 	0.40520 0.44502 0.61070 -0.26700
N 	N 	0.52600 0.70510 0.71680 -0.27000
N 	N 	0.50600 0.57920 0.61650 -0.18100
C 	C 	0.45130 0.51316 0.61480 0.16000
N 	N 	0.84690 0.80060 0.92010 -0.27800
C 	C 	0.94930 0.76100 0.96060 0.16900
N 	N 	0.51900 0.74930 0.91510 -0.27400
N 	N 	0.43750 0.64870 0.98460 -0.17200
C 	C 	0.49180 0.70670 0.95650 0.17400
N 	N 	0.28180 0.65300 0.17940 -0.25100
N 	N 	0.07360 0.71380 0.98460 -0.15900
C 	C 	0.18850 0.68140 0.10120 0.11900
N 	N 	0.57900 0.61090 0.17760 -0.24500
C 	C 	0.51300 0.63070 0.08900 0.13100
C 	C 	0.47520 0.14640 0.82370 0.14800
Cd	Cd	0.43519 0.32341 0.69229 1.19500
N 	N 	0.59480 0.94502 0.88930 -0.26600
N 	N 	0.47400 0.20510 0.78320 -0.27000
N 	N 	0.49400 0.07920 0.88350 -0.18100
C 	C 	0.54870 0.01316 0.88520 0.15900
N 	N 	0.15310 0.30060 0.57990 -0.27900
C 	C 	0.05070 0.26100 0.53940 0.17000
N 	N 	0.48100 0.24930 0.58490 -0.27500
N 	N 	0.56250 0.14870 0.51540 -0.17200
C 	C 	0.50820 0.20670 0.54350 0.17400
N 	N 	0.71820 0.15300 0.32060 -0.25100
N 	N 	0.92640 0.21380 0.51540 -0.16000
C 	C 	0.81150 0.18140 0.39880 0.12100
N 	N 	0.42100 0.11090 0.32240 -0.24600
C 	C 	0.48700 0.13070 0.41100 0.13200
C 	C 	0.47520 0.35360 0.32370 0.14800
Cd	Cd	0.43519 0.17659 0.19229 1.19600
N 	N 	0.59480 0.55498 0.38930 -0.26700
N 	N 	0.47400 0.29490 0.28320 -0.27000
N 	N 	0.49400 0.42080 0.38350 -0.18100
C 	C 	0.54870 0.48684 0.38520 0.16000
N 	N 	0.15310 0.19940 0.07990 -0.27800
C 	C 	0.05070 0.23900 0.03940 0.16900
N 	N 	0.48100 0.25070 0.08490 -0.27400
N 	N 	0.56250 0.35130 0.01540 -0.17200
C 	C 	0.50820 0.29330 0.04350 0.17400
N 	N 	0.71820 0.34700 0.82060 -0.25100
N 	N 	0.92640 0.28620 0.01540 -0.15900
C 	C 	0.81150 0.31860 0.89880 0.11900
N 	N 	0.42100 0.38910 0.82240 -0.24500
C 	C 	0.48700 0.36930 0.91100 0.13100
C 	C 	0.52480 0.85360 0.17630 0.14800
Cd	Cd	0.56481 0.67659 0.30771 1.19500
N 	N 	0.40520 0.05498 0.11070 -0.26600
N 	N 	0.52600 0.79490 0.21680 -0.27000
N 	N 	0.50600 0.92080 0.11650 -0.18100
C 	C 	0.45130 0.98684 0.11480 0.15900
N 	N 	0.84690 0.69940 0.42010 -0.27900
C 	C 	0.94930 0.73900 0.46060 0.17000
N 	N 	0.51900 0.75070 0.41510 -0.27500
N 	N 	0.43750 0.85130 0.48460 -0.17200
C 	C 	0.49180 0.79330 0.45650 0.17400
N 	N 	0.28180 0.84700 0.67940 -0.25100
N 	N 	0.07360 0.78620 0.48460 -0.16000
C 	C 	0.18850 0.81860 0.60120 0.12100
N 	N 	0.57900 0.88910 0.67760 -0.24600
C 	C 	0.51300 0.86930 0.58900 0.13200
