data_crystal

_cell_length_a 27.72050
_cell_length_b 27.72050
_cell_length_c 27.72050
_cell_angle_alpha 90.00000
_cell_angle_beta  90.00000
_cell_angle_gamma 90.00000

_symmetry_space_group_name_	'P 1'
_symmetry_space_group_name_H-M	'P 1'

loop_
_symmetry_equiv_pos_as_xyz
  x,y,z

loop_
_atom_site_label
_atom_site_type_symbol
_atom_site_fract_x
_atom_site_fract_y
_atom_site_fract_z
_atom_site_charge
O 	O 	0.44551 0.41895 0.85791 -0.41900
O 	O 	0.51700 0.39713 0.88770 -0.25300
C 	C 	0.48789 0.40286 0.85423 0.29100
C 	C 	0.50178 0.38834 0.80474 0.05300
C 	C 	0.47816 0.38480 0.76248 -0.04300
H 	H 	0.44560 0.39340 0.75630 0.06600
H 	H 	0.47960 0.52040 0.91710 0.05000
O 	O 	0.44551 0.91895 0.35791 -0.42000
O 	O 	0.51700 0.89713 0.38770 -0.25300
C 	C 	0.48789 0.90286 0.35423 0.29100
C 	C 	0.50178 0.88834 0.30474 0.05300
C 	C 	0.47816 0.88480 0.26248 -0.04300
H 	H 	0.44560 0.89340 0.25630 0.06600
H 	H 	0.47960 0.02040 0.41710 0.04900
O 	O 	0.94551 0.41895 0.35791 -0.41800
O 	O 	0.01700 0.39713 0.38770 -0.25000
C 	C 	0.98789 0.40286 0.35423 0.28700
C 	C 	0.00178 0.38834 0.30474 0.06000
C 	C 	0.97816 0.38480 0.26248 -0.05000
H 	H 	0.94560 0.39340 0.25630 0.06900
H 	H 	0.97960 0.52040 0.41710 0.04800
O 	O 	0.94551 0.91895 0.85791 -0.41800
O 	O 	0.01700 0.89713 0.88770 -0.24900
C 	C 	0.98789 0.90286 0.85423 0.28700
C 	C 	0.00178 0.88834 0.80474 0.06000
C 	C 	0.97816 0.88480 0.76248 -0.05000
H 	H 	0.94560 0.89340 0.75630 0.06900
H 	H 	0.97960 0.02040 0.91710 0.04700
O 	O 	0.55449 0.08105 0.35791 -0.41800
O 	O 	0.48300 0.10287 0.38770 -0.25200
C 	C 	0.51211 0.09714 0.35423 0.29200
C 	C 	0.49822 0.11166 0.30474 0.05400
C 	C 	0.52184 0.11520 0.26248 -0.04200
H 	H 	0.55440 0.10660 0.25630 0.06700
H 	H 	0.52040 0.97960 0.41710 0.04800
O 	O 	0.55449 0.58105 0.85791 -0.41800
O 	O 	0.48300 0.60287 0.88770 -0.25200
C 	C 	0.51211 0.59714 0.85423 0.29200
C 	C 	0.49822 0.61166 0.80474 0.05400
C 	C 	0.52184 0.61520 0.76248 -0.04200
H 	H 	0.55440 0.60660 0.75630 0.06700
H 	H 	0.52040 0.47960 0.91710 0.05100
O 	O 	0.05449 0.08105 0.85791 -0.41900
O 	O 	0.98300 0.10287 0.88770 -0.25400
C 	C 	0.01211 0.09714 0.85423 0.29800
C 	C 	0.99822 0.11166 0.80474 0.04800
C 	C 	0.02184 0.11520 0.76248 -0.03500
H 	H 	0.05440 0.10660 0.75630 0.06500
H 	H 	0.02040 0.97960 0.91710 0.04700
O 	O 	0.05449 0.58105 0.35791 -0.41900
O 	O 	0.98300 0.60287 0.38770 -0.25400
C 	C 	0.01211 0.59714 0.35423 0.29800
C 	C 	0.99822 0.61166 0.30474 0.04800
C 	C 	0.02184 0.61520 0.26248 -0.03500
H 	H 	0.05440 0.60660 0.25630 0.06500
H 	H 	0.02040 0.47960 0.41710 0.05000
O 	O 	0.05449 0.91895 0.14209 -0.42000
O 	O 	0.98300 0.89713 0.11230 -0.25400
C 	C 	0.01211 0.90286 0.14577 0.29800
C 	C 	0.99822 0.88834 0.19526 0.04800
C 	C 	0.02184 0.88480 0.23752 -0.03500
H 	H 	0.05440 0.89340 0.24370 0.06500
H 	H 	0.02040 0.02040 0.08290 0.04900
O 	O 	0.05449 0.41895 0.64209 -0.41900
O 	O 	0.98300 0.39713 0.61230 -0.25400
C 	C 	0.01211 0.40286 0.64577 0.29800
C 	C 	0.99822 0.38834 0.69526 0.04800
C 	C 	0.02184 0.38480 0.73752 -0.03500
H 	H 	0.05440 0.39340 0.74370 0.06500
H 	H 	0.02040 0.52040 0.58290 0.05000
O 	O 	0.55449 0.91895 0.64209 -0.41900
O 	O 	0.48300 0.89713 0.61230 -0.25200
C 	C 	0.51211 0.90286 0.64577 0.29200
C 	C 	0.49822 0.88834 0.69526 0.05400
C 	C 	0.52184 0.88480 0.73752 -0.04200
H 	H 	0.55440 0.89340 0.74370 0.06700
H 	H 	0.52040 0.02040 0.58290 0.05000
O 	O 	0.55449 0.41895 0.14209 -0.41800
O 	O 	0.48300 0.39713 0.11230 -0.25200
C 	C 	0.51211 0.40286 0.14577 0.29200
C 	C 	0.49822 0.38834 0.19526 0.05400
C 	C 	0.52184 0.38480 0.23752 -0.04200
H 	H 	0.55440 0.39340 0.24370 0.06700
H 	H 	0.52040 0.52040 0.08290 0.05100
O 	O 	0.94551 0.58105 0.64209 -0.41700
O 	O 	0.01700 0.60287 0.61230 -0.24900
C 	C 	0.98789 0.59714 0.64577 0.28700
C 	C 	0.00178 0.61166 0.69526 0.06000
C 	C 	0.97816 0.61520 0.73752 -0.05000
H 	H 	0.94560 0.60660 0.74370 0.06900
H 	H 	0.97960 0.47960 0.58290 0.04800
O 	O 	0.94551 0.08105 0.14209 -0.41700
O 	O 	0.01700 0.10287 0.11230 -0.24900
C 	C 	0.98789 0.09714 0.14577 0.28700
C 	C 	0.00178 0.11166 0.19526 0.06000
C 	C 	0.97816 0.11520 0.23752 -0.05000
H 	H 	0.94560 0.10660 0.24370 0.06900
H 	H 	0.97960 0.97960 0.08290 0.04600
O 	O 	0.44551 0.58105 0.14209 -0.41800
O 	O 	0.51700 0.60287 0.11230 -0.25200
C 	C 	0.48789 0.59714 0.14577 0.29200
C 	C 	0.50178 0.61166 0.19526 0.05400
C 	C 	0.47816 0.61520 0.23752 -0.04200
H 	H 	0.44560 0.60660 0.24370 0.06700
H 	H 	0.47960 0.47960 0.08290 0.05100
O 	O 	0.44551 0.08105 0.64209 -0.41800
O 	O 	0.51700 0.10287 0.61230 -0.25200
C 	C 	0.48789 0.09714 0.64577 0.29200
C 	C 	0.50178 0.11166 0.69526 0.05400
C 	C 	0.47816 0.11520 0.73752 -0.04200
H 	H 	0.44560 0.10660 0.74370 0.06700
H 	H 	0.47960 0.97960 0.58290 0.04800
O 	O 	0.85791 0.44551 0.41895 -0.41800
O 	O 	0.88770 0.51700 0.39713 -0.25200
C 	C 	0.85423 0.48789 0.40286 0.29200
C 	C 	0.80474 0.50178 0.38834 0.05400
C 	C 	0.76248 0.47816 0.38480 -0.04200
H 	H 	0.75630 0.44560 0.39340 0.06700
H 	H 	0.91710 0.47960 0.52040 0.05100
O 	O 	0.85791 0.94551 0.91895 -0.41800
O 	O 	0.88770 0.01700 0.89713 -0.24900
C 	C 	0.85423 0.98789 0.90286 0.28700
C 	C 	0.80474 0.00178 0.88834 0.06000
C 	C 	0.76248 0.97816 0.88480 -0.05000
H 	H 	0.75630 0.94560 0.89340 0.06900
H 	H 	0.91710 0.97960 0.02040 0.04700
O 	O 	0.35791 0.44551 0.91895 -0.41900
O 	O 	0.38770 0.51700 0.89713 -0.25200
C 	C 	0.35423 0.48789 0.90286 0.29200
C 	C 	0.30474 0.50178 0.88834 0.05400
C 	C 	0.26248 0.47816 0.88480 -0.04200
H 	H 	0.25630 0.44560 0.89340 0.06700
H 	H 	0.41710 0.47960 0.02040 0.05000
O 	O 	0.35791 0.94551 0.41895 -0.41700
O 	O 	0.38770 0.01700 0.39713 -0.24900
C 	C 	0.35423 0.98789 0.40286 0.28700
C 	C 	0.30474 0.00178 0.38834 0.06000
C 	C 	0.26248 0.97816 0.38480 -0.05000
H 	H 	0.25630 0.94560 0.39340 0.06900
H 	H 	0.41710 0.97960 0.52040 0.04800
O 	O 	0.35791 0.55449 0.08105 -0.41800
O 	O 	0.38770 0.48300 0.10287 -0.25200
C 	C 	0.35423 0.51211 0.09714 0.29200
C 	C 	0.30474 0.49822 0.11166 0.05400
C 	C 	0.26248 0.52184 0.11520 -0.04200
H 	H 	0.25630 0.55440 0.10660 0.06700
H 	H 	0.41710 0.52040 0.97960 0.04800
O 	O 	0.35791 0.05449 0.58105 -0.41900
O 	O 	0.38770 0.98300 0.60287 -0.25400
C 	C 	0.35423 0.01211 0.59714 0.29800
C 	C 	0.30474 0.99822 0.61166 0.04800
C 	C 	0.26248 0.02184 0.61520 -0.03500
H 	H 	0.25630 0.05440 0.60660 0.06500
H 	H 	0.41710 0.02040 0.47960 0.05000
O 	O 	0.85791 0.55449 0.58105 -0.41800
O 	O 	0.88770 0.48300 0.60287 -0.25200
C 	C 	0.85423 0.51211 0.59714 0.29200
C 	C 	0.80474 0.49822 0.61166 0.05400
C 	C 	0.76248 0.52184 0.61520 -0.04200
H 	H 	0.75630 0.55440 0.60660 0.06700
H 	H 	0.91710 0.52040 0.47960 0.05100
O 	O 	0.85791 0.05449 0.08105 -0.41900
O 	O 	0.88770 0.98300 0.10287 -0.25400
C 	C 	0.85423 0.01211 0.09714 0.29800
C 	C 	0.80474 0.99822 0.11166 0.04800
C 	C 	0.76248 0.02184 0.11520 -0.03500
H 	H 	0.75630 0.05440 0.10660 0.06500
H 	H 	0.91710 0.02040 0.97960 0.04700
O 	O 	0.14209 0.05449 0.91895 -0.42000
O 	O 	0.11230 0.98300 0.89713 -0.25400
C 	C 	0.14577 0.01211 0.90286 0.29800
C 	C 	0.19526 0.99822 0.88834 0.04800
C 	C 	0.23752 0.02184 0.88480 -0.03500
H 	H 	0.24370 0.05440 0.89340 0.06500
H 	H 	0.08290 0.02040 0.02040 0.04900
O 	O 	0.14209 0.55449 0.41895 -0.41800
O 	O 	0.11230 0.48300 0.39713 -0.25200
C 	C 	0.14577 0.51211 0.40286 0.29200
C 	C 	0.19526 0.49822 0.38834 0.05400
C 	C 	0.23752 0.52184 0.38480 -0.04200
H 	H 	0.24370 0.55440 0.39340 0.06700
H 	H 	0.08290 0.52040 0.52040 0.05100
O 	O 	0.64209 0.05449 0.41895 -0.41900
O 	O 	0.61230 0.98300 0.39713 -0.25400
C 	C 	0.64577 0.01211 0.40286 0.29800
C 	C 	0.69526 0.99822 0.38834 0.04800
C 	C 	0.73752 0.02184 0.38480 -0.03500
H 	H 	0.74370 0.05440 0.39340 0.06500
H 	H 	0.58290 0.02040 0.52040 0.05000
O 	O 	0.64209 0.55449 0.91895 -0.41900
O 	O 	0.61230 0.48300 0.89713 -0.25200
C 	C 	0.64577 0.51211 0.90286 0.29200
C 	C 	0.69526 0.49822 0.88834 0.05400
C 	C 	0.73752 0.52184 0.88480 -0.04200
H 	H 	0.74370 0.55440 0.89340 0.06700
H 	H 	0.58290 0.52040 0.02040 0.05000
O 	O 	0.64209 0.94551 0.58105 -0.41700
O 	O 	0.61230 0.01700 0.60287 -0.24900
C 	C 	0.64577 0.98789 0.59714 0.28700
C 	C 	0.69526 0.00178 0.61166 0.06000
C 	C 	0.73752 0.97816 0.61520 -0.05000
H 	H 	0.74370 0.94560 0.60660 0.06900
H 	H 	0.58290 0.97960 0.47960 0.04800
O 	O 	0.64209 0.44551 0.08105 -0.41800
O 	O 	0.61230 0.51700 0.10287 -0.25200
C 	C 	0.64577 0.48789 0.09714 0.29200
C 	C 	0.69526 0.50178 0.11166 0.05400
C 	C 	0.73752 0.47816 0.11520 -0.04200
H 	H 	0.74370 0.44560 0.10660 0.06700
H 	H 	0.58290 0.47960 0.97960 0.04800
O 	O 	0.14209 0.94551 0.08105 -0.41700
O 	O 	0.11230 0.01700 0.10287 -0.24900
C 	C 	0.14577 0.98789 0.09714 0.28700
C 	C 	0.19526 0.00178 0.11166 0.06000
C 	C 	0.23752 0.97816 0.11520 -0.05000
H 	H 	0.24370 0.94560 0.10660 0.06900
H 	H 	0.08290 0.97960 0.97960 0.04600
O 	O 	0.14209 0.44551 0.58105 -0.41800
O 	O 	0.11230 0.51700 0.60287 -0.25200
C 	C 	0.14577 0.48789 0.59714 0.29200
C 	C 	0.19526 0.50178 0.61166 0.05400
C 	C 	0.23752 0.47816 0.61520 -0.04200
H 	H 	0.24370 0.44560 0.60660 0.06700
H 	H 	0.08290 0.47960 0.47960 0.05100
O 	O 	0.41895 0.85791 0.44551 -0.41800
O 	O 	0.39713 0.88770 0.51700 -0.25200
C 	C 	0.40286 0.85423 0.48789 0.29200
C 	C 	0.38834 0.80474 0.50178 0.05400
C 	C 	0.38480 0.76248 0.47816 -0.04200
H 	H 	0.39340 0.75630 0.44560 0.06700
H 	H 	0.52040 0.91710 0.47960 0.05100
O 	O 	0.41895 0.35791 0.94551 -0.41700
O 	O 	0.39713 0.38770 0.01700 -0.24900
C 	C 	0.40286 0.35423 0.98789 0.28700
C 	C 	0.38834 0.30474 0.00178 0.06000
C 	C 	0.38480 0.26248 0.97816 -0.05000
H 	H 	0.39340 0.25630 0.94560 0.06900
H 	H 	0.52040 0.41710 0.97960 0.04800
O 	O 	0.91895 0.85791 0.94551 -0.41800
O 	O 	0.89713 0.88770 0.01700 -0.24900
C 	C 	0.90286 0.85423 0.98789 0.28700
C 	C 	0.88834 0.80474 0.00178 0.06000
C 	C 	0.88480 0.76248 0.97816 -0.05000
H 	H 	0.89340 0.75630 0.94560 0.06900
H 	H 	0.02040 0.91710 0.97960 0.04700
O 	O 	0.91895 0.35791 0.44551 -0.41900
O 	O 	0.89713 0.38770 0.51700 -0.25200
C 	C 	0.90286 0.35423 0.48789 0.29200
C 	C 	0.88834 0.30474 0.50178 0.05400
C 	C 	0.88480 0.26248 0.47816 -0.04200
H 	H 	0.89340 0.25630 0.44560 0.06700
H 	H 	0.02040 0.41710 0.47960 0.05000
O 	O 	0.08105 0.35791 0.55449 -0.41800
O 	O 	0.10287 0.38770 0.48300 -0.25200
C 	C 	0.09714 0.35423 0.51211 0.29200
C 	C 	0.11166 0.30474 0.49822 0.05400
C 	C 	0.11520 0.26248 0.52184 -0.04200
H 	H 	0.10660 0.25630 0.55440 0.06700
H 	H 	0.97960 0.41710 0.52040 0.04800
O 	O 	0.08105 0.85791 0.05449 -0.41900
O 	O 	0.10287 0.88770 0.98300 -0.25400
C 	C 	0.09714 0.85423 0.01211 0.29800
C 	C 	0.11166 0.80474 0.99822 0.04800
C 	C 	0.11520 0.76248 0.02184 -0.03500
H 	H 	0.10660 0.75630 0.05440 0.06500
H 	H 	0.97960 0.91710 0.02040 0.04700
O 	O 	0.58105 0.35791 0.05449 -0.41900
O 	O 	0.60287 0.38770 0.98300 -0.25400
C 	C 	0.59714 0.35423 0.01211 0.29800
C 	C 	0.61166 0.30474 0.99822 0.04800
C 	C 	0.61520 0.26248 0.02184 -0.03500
H 	H 	0.60660 0.25630 0.05440 0.06500
H 	H 	0.47960 0.41710 0.02040 0.05000
O 	O 	0.58105 0.85791 0.55449 -0.41800
O 	O 	0.60287 0.88770 0.48300 -0.25200
C 	C 	0.59714 0.85423 0.51211 0.29200
C 	C 	0.61166 0.80474 0.49822 0.05400
C 	C 	0.61520 0.76248 0.52184 -0.04200
H 	H 	0.60660 0.75630 0.55440 0.06700
H 	H 	0.47960 0.91710 0.52040 0.05100
O 	O 	0.91895 0.14209 0.05449 -0.42000
O 	O 	0.89713 0.11230 0.98300 -0.25400
C 	C 	0.90286 0.14577 0.01211 0.29800
C 	C 	0.88834 0.19526 0.99822 0.04800
C 	C 	0.88480 0.23752 0.02184 -0.03500
H 	H 	0.89340 0.24370 0.05440 0.06500
H 	H 	0.02040 0.08290 0.02040 0.04900
O 	O 	0.91895 0.64209 0.55449 -0.41900
O 	O 	0.89713 0.61230 0.48300 -0.25200
C 	C 	0.90286 0.64577 0.51211 0.29200
C 	C 	0.88834 0.69526 0.49822 0.05400
C 	C 	0.88480 0.73752 0.52184 -0.04200
H 	H 	0.89340 0.74370 0.55440 0.06700
H 	H 	0.02040 0.58290 0.52040 0.05000
O 	O 	0.41895 0.14209 0.55449 -0.41800
O 	O 	0.39713 0.11230 0.48300 -0.25200
C 	C 	0.40286 0.14577 0.51211 0.29200
C 	C 	0.38834 0.19526 0.49822 0.05400
C 	C 	0.38480 0.23752 0.52184 -0.04200
H 	H 	0.39340 0.24370 0.55440 0.06700
H 	H 	0.52040 0.08290 0.52040 0.05100
O 	O 	0.41895 0.64209 0.05449 -0.41900
O 	O 	0.39713 0.61230 0.98300 -0.25400
C 	C 	0.40286 0.64577 0.01211 0.29800
C 	C 	0.38834 0.69526 0.99822 0.04800
C 	C 	0.38480 0.73752 0.02184 -0.03500
H 	H 	0.39340 0.74370 0.05440 0.06500
H 	H 	0.52040 0.58290 0.02040 0.05000
O 	O 	0.58105 0.64209 0.94551 -0.41700
O 	O 	0.60287 0.61230 0.01700 -0.24900
C 	C 	0.59714 0.64577 0.98789 0.28700
C 	C 	0.61166 0.69526 0.00178 0.06000
C 	C 	0.61520 0.73752 0.97816 -0.05000
H 	H 	0.60660 0.74370 0.94560 0.06900
H 	H 	0.47960 0.58290 0.97960 0.04800
O 	O 	0.58105 0.14209 0.44551 -0.41800
O 	O 	0.60287 0.11230 0.51700 -0.25200
C 	C 	0.59714 0.14577 0.48789 0.29200
C 	C 	0.61166 0.19526 0.50178 0.05400
C 	C 	0.61520 0.23752 0.47816 -0.04200
H 	H 	0.60660 0.24370 0.44560 0.06700
H 	H 	0.47960 0.08290 0.47960 0.05100
O 	O 	0.08105 0.64209 0.44551 -0.41800
O 	O 	0.10287 0.61230 0.51700 -0.25200
C 	C 	0.09714 0.64577 0.48789 0.29200
C 	C 	0.11166 0.69526 0.50178 0.05400
C 	C 	0.11520 0.73752 0.47816 -0.04200
H 	H 	0.10660 0.74370 0.44560 0.06700
H 	H 	0.97960 0.58290 0.47960 0.04800
O 	O 	0.08105 0.14209 0.94551 -0.41700
O 	O 	0.10287 0.11230 0.01700 -0.24900
C 	C 	0.09714 0.14577 0.98789 0.28700
C 	C 	0.11166 0.19526 0.00178 0.06000
C 	C 	0.11520 0.23752 0.97816 -0.05000
H 	H 	0.10660 0.24370 0.94560 0.06900
H 	H 	0.97960 0.08290 0.97960 0.04600
O 	O 	0.16895 0.69551 0.89209 -0.41800
O 	O 	0.14713 0.76700 0.86230 -0.25200
C 	C 	0.15286 0.73789 0.89577 0.29200
C 	C 	0.13834 0.75178 0.94526 0.05500
C 	C 	0.13480 0.72816 0.98752 -0.04700
H 	H 	0.14340 0.69560 0.99370 0.06800
H 	H 	0.27040 0.72960 0.83290 0.05100
O 	O 	0.16895 0.19551 0.39209 -0.41800
O 	O 	0.14713 0.26700 0.36230 -0.25200
C 	C 	0.15286 0.23789 0.39577 0.29200
C 	C 	0.13834 0.25178 0.44526 0.05400
C 	C 	0.13480 0.22816 0.48752 -0.04200
H 	H 	0.14340 0.19560 0.49370 0.06700
H 	H 	0.27040 0.22960 0.33290 0.05100
O 	O 	0.66895 0.69551 0.39209 -0.41800
O 	O 	0.64713 0.76700 0.36230 -0.25200
C 	C 	0.65286 0.73789 0.39577 0.29200
C 	C 	0.63834 0.75178 0.44526 0.05400
C 	C 	0.63480 0.72816 0.48752 -0.04200
H 	H 	0.64340 0.69560 0.49370 0.06700
H 	H 	0.77040 0.72960 0.33290 0.05100
O 	O 	0.66895 0.19551 0.89209 -0.41800
O 	O 	0.64713 0.26700 0.86230 -0.25200
C 	C 	0.65286 0.23789 0.89577 0.29200
C 	C 	0.63834 0.25178 0.94526 0.05500
C 	C 	0.63480 0.22816 0.98752 -0.04700
H 	H 	0.64340 0.19560 0.99370 0.06800
H 	H 	0.77040 0.22960 0.83290 0.05100
O 	O 	0.83105 0.80449 0.39209 -0.41900
O 	O 	0.85287 0.73300 0.36230 -0.25200
C 	C 	0.84714 0.76211 0.39577 0.29200
C 	C 	0.86166 0.74822 0.44526 0.05400
C 	C 	0.86520 0.77184 0.48752 -0.04200
H 	H 	0.85660 0.80440 0.49370 0.06700
H 	H 	0.72960 0.77040 0.33290 0.05100
O 	O 	0.83105 0.30449 0.89209 -0.41800
O 	O 	0.85287 0.23300 0.86230 -0.25200
C 	C 	0.84714 0.26211 0.89577 0.29200
C 	C 	0.86166 0.24822 0.94526 0.05500
C 	C 	0.86520 0.27184 0.98752 -0.04700
H 	H 	0.85660 0.30440 0.99370 0.06800
H 	H 	0.72960 0.27040 0.83290 0.05100
O 	O 	0.33105 0.80449 0.89209 -0.41800
O 	O 	0.35287 0.73300 0.86230 -0.25200
C 	C 	0.34714 0.76211 0.89577 0.29200
C 	C 	0.36166 0.74822 0.94526 0.05500
C 	C 	0.36520 0.77184 0.98752 -0.04700
H 	H 	0.35660 0.80440 0.99370 0.06800
H 	H 	0.22960 0.77040 0.83290 0.05100
O 	O 	0.33105 0.30449 0.39209 -0.41800
O 	O 	0.35287 0.23300 0.36230 -0.25200
C 	C 	0.34714 0.26211 0.39577 0.29200
C 	C 	0.36166 0.24822 0.44526 0.05400
C 	C 	0.36520 0.27184 0.48752 -0.04200
H 	H 	0.35660 0.30440 0.49370 0.06700
H 	H 	0.22960 0.27040 0.33290 0.05100
O 	O 	0.66895 0.30449 0.60791 -0.41800
O 	O 	0.64713 0.23300 0.63770 -0.25200
C 	C 	0.65286 0.26211 0.60423 0.29200
C 	C 	0.63834 0.24822 0.55474 0.05400
C 	C 	0.63480 0.27184 0.51248 -0.04200
H 	H 	0.64340 0.30440 0.50630 0.06700
H 	H 	0.77040 0.27040 0.66710 0.05100
O 	O 	0.66895 0.80449 0.10791 -0.41900
O 	O 	0.64713 0.73300 0.13770 -0.25200
C 	C 	0.65286 0.76211 0.10423 0.29300
C 	C 	0.63834 0.74822 0.05474 0.05300
C 	C 	0.63480 0.77184 0.01248 -0.03800
H 	H 	0.64340 0.80440 0.00630 0.06600
H 	H 	0.77040 0.77040 0.16710 0.05100
O 	O 	0.16895 0.30449 0.10791 -0.41800
O 	O 	0.14713 0.23300 0.13770 -0.25200
C 	C 	0.15286 0.26211 0.10423 0.29300
C 	C 	0.13834 0.24822 0.05474 0.05300
C 	C 	0.13480 0.27184 0.01248 -0.03700
H 	H 	0.14340 0.30440 0.00630 0.06600
H 	H 	0.27040 0.27040 0.16710 0.05100
O 	O 	0.16895 0.80449 0.60791 -0.41800
O 	O 	0.14713 0.73300 0.63770 -0.25200
C 	C 	0.15286 0.76211 0.60423 0.29200
C 	C 	0.13834 0.74822 0.55474 0.05400
C 	C 	0.13480 0.77184 0.51248 -0.04200
H 	H 	0.14340 0.80440 0.50630 0.06700
H 	H 	0.27040 0.77040 0.66710 0.05100
O 	O 	0.33105 0.19551 0.10791 -0.41800
O 	O 	0.35287 0.26700 0.13770 -0.25200
C 	C 	0.34714 0.23789 0.10423 0.29300
C 	C 	0.36166 0.25178 0.05474 0.05300
C 	C 	0.36520 0.22816 0.01248 -0.03700
H 	H 	0.35660 0.19560 0.00630 0.06600
H 	H 	0.22960 0.22960 0.16710 0.05100
O 	O 	0.33105 0.69551 0.60791 -0.41800
O 	O 	0.35287 0.76700 0.63770 -0.25200
C 	C 	0.34714 0.73789 0.60423 0.29200
C 	C 	0.36166 0.75178 0.55474 0.05400
C 	C 	0.36520 0.72816 0.51248 -0.04200
H 	H 	0.35660 0.69560 0.50630 0.06700
H 	H 	0.22960 0.72960 0.66710 0.05100
O 	O 	0.83105 0.19551 0.60791 -0.41800
O 	O 	0.85287 0.26700 0.63770 -0.25200
C 	C 	0.84714 0.23789 0.60423 0.29200
C 	C 	0.86166 0.25178 0.55474 0.05400
C 	C 	0.86520 0.22816 0.51248 -0.04200
H 	H 	0.85660 0.19560 0.50630 0.06700
H 	H 	0.72960 0.22960 0.66710 0.05100
O 	O 	0.83105 0.69551 0.10791 -0.41900
O 	O 	0.85287 0.76700 0.13770 -0.25200
C 	C 	0.84714 0.73789 0.10423 0.29300
C 	C 	0.86166 0.75178 0.05474 0.05300
C 	C 	0.86520 0.72816 0.01248 -0.03800
H 	H 	0.85660 0.69560 0.00630 0.06600
H 	H 	0.72960 0.72960 0.16710 0.05100
O 	O 	0.19551 0.10791 0.33105 -0.41800
O 	O 	0.26700 0.13770 0.35287 -0.25200
C 	C 	0.23789 0.10423 0.34714 0.29300
C 	C 	0.25178 0.05474 0.36166 0.05300
C 	C 	0.22816 0.01248 0.36520 -0.03700
H 	H 	0.19560 0.00630 0.35660 0.06600
H 	H 	0.22960 0.16710 0.22960 0.05100
O 	O 	0.19551 0.60791 0.83105 -0.41800
O 	O 	0.26700 0.63770 0.85287 -0.25200
C 	C 	0.23789 0.60423 0.84714 0.29200
C 	C 	0.25178 0.55474 0.86166 0.05400
C 	C 	0.22816 0.51248 0.86520 -0.04200
H 	H 	0.19560 0.50630 0.85660 0.06700
H 	H 	0.22960 0.66710 0.72960 0.05100
O 	O 	0.69551 0.10791 0.83105 -0.41900
O 	O 	0.76700 0.13770 0.85287 -0.25200
C 	C 	0.73789 0.10423 0.84714 0.29300
C 	C 	0.75178 0.05474 0.86166 0.05300
C 	C 	0.72816 0.01248 0.86520 -0.03800
H 	H 	0.69560 0.00630 0.85660 0.06600
H 	H 	0.72960 0.16710 0.72960 0.05100
O 	O 	0.69551 0.60791 0.33105 -0.41800
O 	O 	0.76700 0.63770 0.35287 -0.25200
C 	C 	0.73789 0.60423 0.34714 0.29200
C 	C 	0.75178 0.55474 0.36166 0.05400
C 	C 	0.72816 0.51248 0.36520 -0.04200
H 	H 	0.69560 0.50630 0.35660 0.06700
H 	H 	0.72960 0.66710 0.22960 0.05100
O 	O 	0.30449 0.60791 0.66895 -0.41800
O 	O 	0.23300 0.63770 0.64713 -0.25200
C 	C 	0.26211 0.60423 0.65286 0.29200
C 	C 	0.24822 0.55474 0.63834 0.05400
C 	C 	0.27184 0.51248 0.63480 -0.04200
H 	H 	0.30440 0.50630 0.64340 0.06700
H 	H 	0.27040 0.66710 0.77040 0.05100
O 	O 	0.30449 0.10791 0.16895 -0.41800
O 	O 	0.23300 0.13770 0.14713 -0.25200
C 	C 	0.26211 0.10423 0.15286 0.29300
C 	C 	0.24822 0.05474 0.13834 0.05300
C 	C 	0.27184 0.01248 0.13480 -0.03700
H 	H 	0.30440 0.00630 0.14340 0.06600
H 	H 	0.27040 0.16710 0.27040 0.05100
O 	O 	0.80449 0.60791 0.16895 -0.41800
O 	O 	0.73300 0.63770 0.14713 -0.25200
C 	C 	0.76211 0.60423 0.15286 0.29200
C 	C 	0.74822 0.55474 0.13834 0.05400
C 	C 	0.77184 0.51248 0.13480 -0.04200
H 	H 	0.80440 0.50630 0.14340 0.06700
H 	H 	0.77040 0.66710 0.27040 0.05100
O 	O 	0.80449 0.10791 0.66895 -0.41900
O 	O 	0.73300 0.13770 0.64713 -0.25200
C 	C 	0.76211 0.10423 0.65286 0.29300
C 	C 	0.74822 0.05474 0.63834 0.05300
C 	C 	0.77184 0.01248 0.63480 -0.03800
H 	H 	0.80440 0.00630 0.64340 0.06600
H 	H 	0.77040 0.16710 0.77040 0.05100
O 	O 	0.80449 0.39209 0.83105 -0.41900
O 	O 	0.73300 0.36230 0.85287 -0.25200
C 	C 	0.76211 0.39577 0.84714 0.29200
C 	C 	0.74822 0.44526 0.86166 0.05400
C 	C 	0.77184 0.48752 0.86520 -0.04200
H 	H 	0.80440 0.49370 0.85660 0.06700
H 	H 	0.77040 0.33290 0.72960 0.05100
O 	O 	0.80449 0.89209 0.33105 -0.41800
O 	O 	0.73300 0.86230 0.35287 -0.25200
C 	C 	0.76211 0.89577 0.34714 0.29200
C 	C 	0.74822 0.94526 0.36166 0.05500
C 	C 	0.77184 0.98752 0.36520 -0.04700
H 	H 	0.80440 0.99370 0.35660 0.06800
H 	H 	0.77040 0.83290 0.22960 0.05100
O 	O 	0.30449 0.39209 0.33105 -0.41800
O 	O 	0.23300 0.36230 0.35287 -0.25200
C 	C 	0.26211 0.39577 0.34714 0.29200
C 	C 	0.24822 0.44526 0.36166 0.05400
C 	C 	0.27184 0.48752 0.36520 -0.04200
H 	H 	0.30440 0.49370 0.35660 0.06700
H 	H 	0.27040 0.33290 0.22960 0.05100
O 	O 	0.30449 0.89209 0.83105 -0.41800
O 	O 	0.23300 0.86230 0.85287 -0.25200
C 	C 	0.26211 0.89577 0.84714 0.29200
C 	C 	0.24822 0.94526 0.86166 0.05500
C 	C 	0.27184 0.98752 0.86520 -0.04700
H 	H 	0.30440 0.99370 0.85660 0.06800
H 	H 	0.27040 0.83290 0.72960 0.05100
O 	O 	0.69551 0.89209 0.16895 -0.41800
O 	O 	0.76700 0.86230 0.14713 -0.25200
C 	C 	0.73789 0.89577 0.15286 0.29200
C 	C 	0.75178 0.94526 0.13834 0.05500
C 	C 	0.72816 0.98752 0.13480 -0.04700
H 	H 	0.69560 0.99370 0.14340 0.06800
H 	H 	0.72960 0.83290 0.27040 0.05100
O 	O 	0.69551 0.39209 0.66895 -0.41800
O 	O 	0.76700 0.36230 0.64713 -0.25200
C 	C 	0.73789 0.39577 0.65286 0.29200
C 	C 	0.75178 0.44526 0.63834 0.05400
C 	C 	0.72816 0.48752 0.63480 -0.04200
H 	H 	0.69560 0.49370 0.64340 0.06700
H 	H 	0.72960 0.33290 0.77040 0.05100
O 	O 	0.19551 0.89209 0.66895 -0.41800
O 	O 	0.26700 0.86230 0.64713 -0.25200
C 	C 	0.23789 0.89577 0.65286 0.29200
C 	C 	0.25178 0.94526 0.63834 0.05500
C 	C 	0.22816 0.98752 0.63480 -0.04700
H 	H 	0.19560 0.99370 0.64340 0.06800
H 	H 	0.22960 0.83290 0.77040 0.05100
O 	O 	0.19551 0.39209 0.16895 -0.41800
O 	O 	0.26700 0.36230 0.14713 -0.25200
C 	C 	0.23789 0.39577 0.15286 0.29200
C 	C 	0.25178 0.44526 0.13834 0.05400
C 	C 	0.22816 0.48752 0.13480 -0.04200
H 	H 	0.19560 0.49370 0.14340 0.06700
H 	H 	0.22960 0.33290 0.27040 0.05100
O 	O 	0.60791 0.66895 0.30449 -0.41800
O 	O 	0.63770 0.64713 0.23300 -0.25200
C 	C 	0.60423 0.65286 0.26211 0.29200
C 	C 	0.55474 0.63834 0.24822 0.05400
C 	C 	0.51248 0.63480 0.27184 -0.04200
H 	H 	0.50630 0.64340 0.30440 0.06700
H 	H 	0.66710 0.77040 0.27040 0.05100
O 	O 	0.60791 0.16895 0.80449 -0.41800
O 	O 	0.63770 0.14713 0.73300 -0.25200
C 	C 	0.60423 0.15286 0.76211 0.29200
C 	C 	0.55474 0.13834 0.74822 0.05400
C 	C 	0.51248 0.13480 0.77184 -0.04200
H 	H 	0.50630 0.14340 0.80440 0.06700
H 	H 	0.66710 0.27040 0.77040 0.05100
O 	O 	0.10791 0.66895 0.80449 -0.41900
O 	O 	0.13770 0.64713 0.73300 -0.25200
C 	C 	0.10423 0.65286 0.76211 0.29300
C 	C 	0.05474 0.63834 0.74822 0.05300
C 	C 	0.01248 0.63480 0.77184 -0.03800
H 	H 	0.00630 0.64340 0.80440 0.06600
H 	H 	0.16710 0.77040 0.77040 0.05100
O 	O 	0.10791 0.16895 0.30449 -0.41800
O 	O 	0.13770 0.14713 0.23300 -0.25200
C 	C 	0.10423 0.15286 0.26211 0.29300
C 	C 	0.05474 0.13834 0.24822 0.05300
C 	C 	0.01248 0.13480 0.27184 -0.03700
H 	H 	0.00630 0.14340 0.30440 0.06600
H 	H 	0.16710 0.27040 0.27040 0.05100
O 	O 	0.10791 0.33105 0.19551 -0.41800
O 	O 	0.13770 0.35287 0.26700 -0.25200
C 	C 	0.10423 0.34714 0.23789 0.29300
C 	C 	0.05474 0.36166 0.25178 0.05300
C 	C 	0.01248 0.36520 0.22816 -0.03700
H 	H 	0.00630 0.35660 0.19560 0.06600
H 	H 	0.16710 0.22960 0.22960 0.05100
O 	O 	0.10791 0.83105 0.69551 -0.41900
O 	O 	0.13770 0.85287 0.76700 -0.25200
C 	C 	0.10423 0.84714 0.73789 0.29300
C 	C 	0.05474 0.86166 0.75178 0.05300
C 	C 	0.01248 0.86520 0.72816 -0.03800
H 	H 	0.00630 0.85660 0.69560 0.06600
H 	H 	0.16710 0.72960 0.72960 0.05100
O 	O 	0.60791 0.33105 0.69551 -0.41800
O 	O 	0.63770 0.35287 0.76700 -0.25200
C 	C 	0.60423 0.34714 0.73789 0.29200
C 	C 	0.55474 0.36166 0.75178 0.05400
C 	C 	0.51248 0.36520 0.72816 -0.04200
H 	H 	0.50630 0.35660 0.69560 0.06700
H 	H 	0.66710 0.22960 0.72960 0.05100
O 	O 	0.60791 0.83105 0.19551 -0.41800
O 	O 	0.63770 0.85287 0.26700 -0.25200
C 	C 	0.60423 0.84714 0.23789 0.29200
C 	C 	0.55474 0.86166 0.25178 0.05400
C 	C 	0.51248 0.86520 0.22816 -0.04200
H 	H 	0.50630 0.85660 0.19560 0.06700
H 	H 	0.66710 0.72960 0.22960 0.05100
O 	O 	0.89209 0.16895 0.69551 -0.41800
O 	O 	0.86230 0.14713 0.76700 -0.25200
C 	C 	0.89577 0.15286 0.73789 0.29200
C 	C 	0.94526 0.13834 0.75178 0.05500
C 	C 	0.98752 0.13480 0.72816 -0.04700
H 	H 	0.99370 0.14340 0.69560 0.06800
H 	H 	0.83290 0.27040 0.72960 0.05100
O 	O 	0.89209 0.66895 0.19551 -0.41800
O 	O 	0.86230 0.64713 0.26700 -0.25200
C 	C 	0.89577 0.65286 0.23789 0.29200
C 	C 	0.94526 0.63834 0.25178 0.05500
C 	C 	0.98752 0.63480 0.22816 -0.04700
H 	H 	0.99370 0.64340 0.19560 0.06800
H 	H 	0.83290 0.77040 0.22960 0.05100
O 	O 	0.39209 0.16895 0.19551 -0.41800
O 	O 	0.36230 0.14713 0.26700 -0.25200
C 	C 	0.39577 0.15286 0.23789 0.29200
C 	C 	0.44526 0.13834 0.25178 0.05400
C 	C 	0.48752 0.13480 0.22816 -0.04200
H 	H 	0.49370 0.14340 0.19560 0.06700
H 	H 	0.33290 0.27040 0.22960 0.05100
O 	O 	0.39209 0.66895 0.69551 -0.41800
O 	O 	0.36230 0.64713 0.76700 -0.25200
C 	C 	0.39577 0.65286 0.73789 0.29200
C 	C 	0.44526 0.63834 0.75178 0.05400
C 	C 	0.48752 0.63480 0.72816 -0.04200
H 	H 	0.49370 0.64340 0.69560 0.06700
H 	H 	0.33290 0.77040 0.72960 0.05100
O 	O 	0.39209 0.83105 0.80449 -0.41900
O 	O 	0.36230 0.85287 0.73300 -0.25200
C 	C 	0.39577 0.84714 0.76211 0.29200
C 	C 	0.44526 0.86166 0.74822 0.05400
C 	C 	0.48752 0.86520 0.77184 -0.04200
H 	H 	0.49370 0.85660 0.80440 0.06700
H 	H 	0.33290 0.72960 0.77040 0.05100
O 	O 	0.39209 0.33105 0.30449 -0.41800
O 	O 	0.36230 0.35287 0.23300 -0.25200
C 	C 	0.39577 0.34714 0.26211 0.29200
C 	C 	0.44526 0.36166 0.24822 0.05400
C 	C 	0.48752 0.36520 0.27184 -0.04200
H 	H 	0.49370 0.35660 0.30440 0.06700
H 	H 	0.33290 0.22960 0.27040 0.05100
O 	O 	0.89209 0.83105 0.30449 -0.41800
O 	O 	0.86230 0.85287 0.23300 -0.25200
C 	C 	0.89577 0.84714 0.26211 0.29200
C 	C 	0.94526 0.86166 0.24822 0.05500
C 	C 	0.98752 0.86520 0.27184 -0.04700
H 	H 	0.99370 0.85660 0.30440 0.06800
H 	H 	0.83290 0.72960 0.27040 0.05100
O 	O 	0.89209 0.33105 0.80449 -0.41800
O 	O 	0.86230 0.35287 0.73300 -0.25200
C 	C 	0.89577 0.34714 0.76211 0.29200
C 	C 	0.94526 0.36166 0.74822 0.05500
C 	C 	0.98752 0.36520 0.77184 -0.04700
H 	H 	0.99370 0.35660 0.80440 0.06800
H 	H 	0.83290 0.22960 0.77040 0.05100
Zn	Zn	0.42520 0.42520 0.92520 1.22500
N 	N 	0.46876 0.46876 0.96876 -0.18800
Zn	Zn	0.92520 0.92520 0.92520 1.22400
N 	N 	0.96876 0.96876 0.96876 -0.19200
Zn	Zn	0.57480 0.07480 0.42520 1.22500
N 	N 	0.53124 0.03124 0.46876 -0.18700
Zn	Zn	0.07480 0.92520 0.07480 1.22500
N 	N 	0.03124 0.96876 0.03124 -0.18900
Zn	Zn	0.07480 0.42520 0.57480 1.22500
N 	N 	0.03124 0.46876 0.53124 -0.18700
Zn	Zn	0.92520 0.57480 0.57480 1.22500
N 	N 	0.96876 0.53124 0.53124 -0.18800
Zn	Zn	0.42520 0.57480 0.07480 1.22500
N 	N 	0.46876 0.53124 0.03124 -0.18700
Zn	Zn	0.92520 0.42520 0.42520 1.22500
N 	N 	0.96876 0.46876 0.46876 -0.18800
Zn	Zn	0.42520 0.07480 0.57480 1.22500
N 	N 	0.46876 0.03124 0.53124 -0.18700
Zn	Zn	0.07480 0.07480 0.92520 1.22500
N 	N 	0.03124 0.03124 0.96876 -0.18900
Zn	Zn	0.07480 0.57480 0.42520 1.22500
N 	N 	0.03124 0.53124 0.46876 -0.18700
Zn	Zn	0.57480 0.92520 0.57480 1.22500
N 	N 	0.53124 0.96876 0.53124 -0.18800
Zn	Zn	0.57480 0.42520 0.07480 1.22500
N 	N 	0.53124 0.46876 0.03124 -0.18700
Zn	Zn	0.42520 0.92520 0.42520 1.22500
N 	N 	0.46876 0.96876 0.46876 -0.18800
Zn	Zn	0.92520 0.07480 0.07480 1.22500
N 	N 	0.96876 0.03124 0.03124 -0.18900
Zn	Zn	0.57480 0.57480 0.92520 1.22500
N 	N 	0.53124 0.53124 0.96876 -0.18800
Zn	Zn	0.17520 0.67520 0.82480 1.22500
N 	N 	0.21876 0.71876 0.78124 -0.18600
Zn	Zn	0.17520 0.17520 0.32480 1.22500
N 	N 	0.21876 0.21876 0.28124 -0.18600
Zn	Zn	0.67520 0.67520 0.32480 1.22500
N 	N 	0.71876 0.71876 0.28124 -0.18600
Zn	Zn	0.82480 0.82480 0.32480 1.22500
N 	N 	0.78124 0.78124 0.28124 -0.18600
Zn	Zn	0.67520 0.32480 0.67520 1.22500
N 	N 	0.71876 0.28124 0.71876 -0.18600
Zn	Zn	0.17520 0.82480 0.67520 1.22500
N 	N 	0.21876 0.78124 0.71876 -0.18600
Zn	Zn	0.32480 0.17520 0.17520 1.22500
N 	N 	0.28124 0.21876 0.21876 -0.18600
Zn	Zn	0.67520 0.17520 0.82480 1.22500
N 	N 	0.71876 0.21876 0.78124 -0.18600
Zn	Zn	0.32480 0.67520 0.67520 1.22500
N 	N 	0.28124 0.71876 0.71876 -0.18600
Zn	Zn	0.82480 0.32480 0.82480 1.22500
N 	N 	0.78124 0.28124 0.78124 -0.18600
Zn	Zn	0.67520 0.82480 0.17520 1.22500
N 	N 	0.71876 0.78124 0.21876 -0.18600
Zn	Zn	0.17520 0.32480 0.17520 1.22500
N 	N 	0.21876 0.28124 0.21876 -0.18600
Zn	Zn	0.82480 0.17520 0.67520 1.22500
N 	N 	0.78124 0.21876 0.71876 -0.18600
Zn	Zn	0.82480 0.67520 0.17520 1.22500
N 	N 	0.78124 0.71876 0.21876 -0.18600
Zn	Zn	0.32480 0.82480 0.82480 1.22500
N 	N 	0.28124 0.78124 0.78124 -0.18600
Zn	Zn	0.32480 0.32480 0.32480 1.22500
N 	N 	0.28124 0.28124 0.28124 -0.18600
O 	O 	0.54898 0.37500 0.79898 -0.14300
O 	O 	0.54898 0.87500 0.29898 -0.14300
O 	O 	0.04898 0.37500 0.29898 -0.14400
O 	O 	0.45102 0.12500 0.29898 -0.14300
O 	O 	0.45102 0.62500 0.79898 -0.14300
O 	O 	0.95102 0.87500 0.20102 -0.14200
O 	O 	0.95102 0.37500 0.70102 -0.14200
O 	O 	0.04898 0.62500 0.70102 -0.14400
O 	O 	0.04898 0.12500 0.20102 -0.14400
O 	O 	0.79898 0.54898 0.37500 -0.14300
O 	O 	0.79898 0.04898 0.87500 -0.14400
O 	O 	0.29898 0.04898 0.37500 -0.14400
O 	O 	0.29898 0.45102 0.12500 -0.14300
O 	O 	0.29898 0.95102 0.62500 -0.14200
O 	O 	0.20102 0.95102 0.87500 -0.14200
O 	O 	0.20102 0.45102 0.37500 -0.14300
O 	O 	0.70102 0.04898 0.62500 -0.14400
O 	O 	0.70102 0.54898 0.12500 -0.14300
O 	O 	0.37500 0.79898 0.54898 -0.14300
O 	O 	0.37500 0.29898 0.04898 -0.14400
O 	O 	0.87500 0.79898 0.04898 -0.14400
O 	O 	0.12500 0.29898 0.45102 -0.14300
O 	O 	0.62500 0.29898 0.95102 -0.14200
O 	O 	0.87500 0.20102 0.95102 -0.14200
O 	O 	0.37500 0.20102 0.45102 -0.14300
O 	O 	0.62500 0.70102 0.04898 -0.14400
O 	O 	0.12500 0.70102 0.54898 -0.14300
O 	O 	0.12500 0.79898 0.95102 -0.14200
O 	O 	0.62500 0.79898 0.45102 -0.14300
O 	O 	0.87500 0.70102 0.45102 -0.14300
O 	O 	0.37500 0.70102 0.95102 -0.14200
O 	O 	0.62500 0.20102 0.54898 -0.14300
O 	O 	0.12500 0.20102 0.04898 -0.14400
O 	O 	0.87500 0.29898 0.54898 -0.14300
O 	O 	0.29898 0.54898 0.87500 -0.14300
O 	O 	0.20102 0.54898 0.62500 -0.14300
O 	O 	0.20102 0.04898 0.12500 -0.14400
O 	O 	0.70102 0.45102 0.87500 -0.14300
O 	O 	0.70102 0.95102 0.37500 -0.14200
O 	O 	0.79898 0.95102 0.12500 -0.14200
O 	O 	0.79898 0.45102 0.62500 -0.14300
O 	O 	0.54898 0.62500 0.20102 -0.14300
O 	O 	0.54898 0.12500 0.70102 -0.14300
O 	O 	0.04898 0.87500 0.79898 -0.14400
O 	O 	0.95102 0.12500 0.79898 -0.14200
O 	O 	0.95102 0.62500 0.29898 -0.14200
O 	O 	0.45102 0.87500 0.70102 -0.14300
O 	O 	0.45102 0.37500 0.20102 -0.14300
C 	C 	0.50000 0.50000 0.93804 -0.05300
C 	C 	-0.00000 0.50000 0.43804 -0.04800
C 	C 	0.50000 -0.00000 0.43804 -0.04800
C 	C 	0.00000 0.00000 0.93804 -0.04400
C 	C 	-0.00000 0.00000 0.06196 -0.04400
C 	C 	0.50000 -0.00000 0.56196 -0.04800
C 	C 	-0.00000 0.50000 0.56196 -0.04800
C 	C 	0.50000 0.50000 0.06196 -0.05300
C 	C 	0.93804 0.50000 0.50000 -0.05300
C 	C 	0.93804 0.00000 -0.00000 -0.04400
C 	C 	0.43804 0.50000 -0.00000 -0.04800
C 	C 	0.43804 0.00000 0.50000 -0.04800
C 	C 	0.06196 0.00000 -0.00000 -0.04400
C 	C 	0.06196 0.50000 0.50000 -0.05300
C 	C 	0.56196 0.00000 0.50000 -0.04800
C 	C 	0.56196 0.50000 -0.00000 -0.04800
C 	C 	0.50000 0.93804 0.50000 -0.05300
C 	C 	0.50000 0.43804 -0.00000 -0.04800
C 	C 	-0.00000 0.43804 0.50000 -0.04800
C 	C 	-0.00000 0.93804 -0.00000 -0.04400
C 	C 	-0.00000 0.06196 -0.00000 -0.04400
C 	C 	0.00000 0.56196 0.50000 -0.04800
C 	C 	0.50000 0.56196 -0.00000 -0.04800
C 	C 	0.50000 0.06196 0.50000 -0.05300
C 	C 	0.25000 0.75000 0.81196 -0.05300
C 	C 	0.25000 0.25000 0.31196 -0.05300
C 	C 	0.75000 0.75000 0.31196 -0.05300
C 	C 	0.75000 0.25000 0.81196 -0.05300
C 	C 	0.75000 0.25000 0.68804 -0.05300
C 	C 	0.75000 0.75000 0.18804 -0.05300
C 	C 	0.25000 0.25000 0.18804 -0.05300
C 	C 	0.25000 0.75000 0.68804 -0.05300
C 	C 	0.25000 0.18804 0.25000 -0.05300
C 	C 	0.75000 0.18804 0.75000 -0.05300
C 	C 	0.25000 0.68804 0.75000 -0.05300
C 	C 	0.75000 0.68804 0.25000 -0.05300
C 	C 	0.75000 0.31196 0.75000 -0.05300
C 	C 	0.25000 0.31196 0.25000 -0.05300
C 	C 	0.75000 0.81196 0.25000 -0.05300
C 	C 	0.25000 0.81196 0.75000 -0.05300
C 	C 	0.68804 0.75000 0.25000 -0.05300
C 	C 	0.68804 0.25000 0.75000 -0.05300
C 	C 	0.18804 0.25000 0.25000 -0.05300
C 	C 	0.18804 0.75000 0.75000 -0.05300
C 	C 	0.81196 0.25000 0.75000 -0.05300
C 	C 	0.81196 0.75000 0.25000 -0.05300
C 	C 	0.31196 0.75000 0.75000 -0.05300
C 	C 	0.31196 0.25000 0.25000 -0.05300
