data_crystal

_cell_length_a 15.61670
_cell_length_b 15.61670
_cell_length_c 16.71780
_cell_angle_alpha 100.83500
_cell_angle_beta  100.83500
_cell_angle_gamma 119.90500

_symmetry_space_group_name_	'P 1'
_symmetry_space_group_name_H-M	'P 1'

loop_
_symmetry_equiv_pos_as_xyz
  x,y,z

loop_
_atom_site_label
_atom_site_type_symbol
_atom_site_fract_x
_atom_site_fract_y
_atom_site_fract_z
_atom_site_charge
Co	Co	0.50495 0.06877 0.62081 1.17400
Co	Co	0.93123 0.49505 0.87919 1.17300
Co	Co	0.49505 0.93123 0.37919 1.17300
Co	Co	0.06877 0.50495 0.12081 1.17200
H 	H 	0.66280 0.30440 0.65390 0.01100
H 	H 	0.66830 0.45270 0.65760 0.09500
H 	H 	0.35720 0.28540 0.57980 0.10400
H 	H 	0.35930 0.13930 0.57520 0.00100
H 	H 	0.64990 0.56630 0.60110 0.05000
H 	H 	0.64730 0.71190 0.60350 0.04900
H 	H 	0.37430 0.57910 0.64610 0.06100
H 	H 	0.37860 0.43400 0.64680 0.06500
H 	H 	0.66320 0.86360 0.67780 0.09700
H 	H 	0.65530 0.00530 0.67950 -0.00400
H 	H 	0.35330 0.83050 0.58050 -0.00800
H 	H 	0.35240 0.68380 0.57550 0.09500
H 	H 	0.77560 0.04580 0.46310 0.03900
H 	H 	0.94940 0.13560 0.47410 0.07200
H 	H 	0.00830 0.37690 0.66210 0.07800
H 	H 	0.83520 0.28380 0.65640 0.04900
H 	H 	0.10640 0.24980 0.40250 0.06400
H 	H 	0.08660 0.29540 0.28070 0.04300
H 	H 	0.12760 0.55820 0.41960 0.04100
H 	H 	0.14240 0.51180 0.54060 0.06400
H 	H 	0.69560 0.33720 0.84610 0.01100
H 	H 	0.54730 0.33170 0.84240 0.09500
H 	H 	0.71460 0.64280 0.92020 0.10300
H 	H 	0.86070 0.64070 0.92480 -0.00000
H 	H 	0.43370 0.35010 0.89890 0.05000
H 	H 	0.28810 0.35270 0.89650 0.04900
H 	H 	0.42090 0.62570 0.85390 0.06100
H 	H 	0.56600 0.62140 0.85320 0.06500
H 	H 	0.13640 0.33680 0.82220 0.09800
H 	H 	0.99470 0.34470 0.82050 -0.00700
H 	H 	0.16950 0.64670 0.91950 -0.00800
H 	H 	0.31620 0.64760 0.92450 0.09500
H 	H 	0.95420 0.22440 0.03690 0.04500
H 	H 	0.86440 0.05060 0.02590 0.07500
H 	H 	0.62310 0.99170 0.83790 0.07600
H 	H 	0.71620 0.16480 0.84360 0.05100
H 	H 	0.75020 0.89360 0.09750 0.06500
H 	H 	0.70460 0.91340 0.21930 0.04300
H 	H 	0.44180 0.87240 0.08040 0.04000
H 	H 	0.48820 0.85760 0.95940 0.06500
H 	H 	0.33720 0.69560 0.34610 0.01100
H 	H 	0.33170 0.54730 0.34240 0.09500
H 	H 	0.64280 0.71460 0.42020 0.10400
H 	H 	0.64070 0.86070 0.42480 0.00100
H 	H 	0.35010 0.43370 0.39890 0.05000
H 	H 	0.35270 0.28810 0.39650 0.04900
H 	H 	0.62570 0.42090 0.35390 0.06100
H 	H 	0.62140 0.56600 0.35320 0.06500
H 	H 	0.33680 0.13640 0.32220 0.09700
H 	H 	0.34470 0.99470 0.32050 -0.00400
H 	H 	0.64670 0.16950 0.41950 -0.00800
H 	H 	0.64760 0.31620 0.42450 0.09500
H 	H 	0.22440 0.95420 0.53690 0.03900
H 	H 	0.05060 0.86440 0.52590 0.07200
H 	H 	0.99170 0.62310 0.33790 0.07800
H 	H 	0.16480 0.71620 0.34360 0.04900
H 	H 	0.89360 0.75020 0.59750 0.06400
H 	H 	0.91340 0.70460 0.71930 0.04300
H 	H 	0.87240 0.44180 0.58040 0.04100
H 	H 	0.85760 0.48820 0.45940 0.06400
H 	H 	0.30440 0.66280 0.15390 0.01100
H 	H 	0.45270 0.66830 0.15760 0.09500
H 	H 	0.28540 0.35720 0.07980 0.10300
H 	H 	0.13930 0.35930 0.07520 -0.00000
H 	H 	0.56630 0.64990 0.10110 0.05000
H 	H 	0.71190 0.64730 0.10350 0.04900
H 	H 	0.57910 0.37430 0.14610 0.06100
H 	H 	0.43400 0.37860 0.14680 0.06500
H 	H 	0.86360 0.66320 0.17780 0.09800
H 	H 	0.00530 0.65530 0.17950 -0.00700
H 	H 	0.83050 0.35330 0.08050 -0.00800
H 	H 	0.68380 0.35240 0.07550 0.09500
H 	H 	0.04580 0.77560 0.96310 0.04500
H 	H 	0.13560 0.94940 0.97410 0.07500
H 	H 	0.37690 0.00830 0.16210 0.07600
H 	H 	0.28380 0.83520 0.15640 0.05100
H 	H 	0.24980 0.10640 0.90250 0.06500
H 	H 	0.29540 0.08660 0.78070 0.04300
H 	H 	0.55820 0.12760 0.91960 0.04000
H 	H 	0.51180 0.14240 0.04060 0.06500
C 	C 	0.59995 0.30005 0.63860 0.09600
C 	C 	0.60389 0.38971 0.64110 -0.16200
C 	C 	0.51282 0.38778 0.61950 0.10400
C 	C 	0.42089 0.29151 0.59500 -0.16900
C 	C 	0.42290 0.20370 0.59300 0.10200
C 	C 	0.51319 0.48301 0.62250 -0.01200
C 	C 	0.59401 0.56839 0.61030 -0.04200
C 	C 	0.59235 0.65565 0.61170 -0.03900
C 	C 	0.51042 0.66138 0.62510 -0.01000
C 	C 	0.43047 0.57713 0.63740 -0.03800
C 	C 	0.43268 0.48952 0.63700 -0.04400
C 	C 	0.50860 0.75520 0.62610 0.11000
C 	C 	0.59851 0.85429 0.65710 -0.16200
C 	C 	0.59318 0.93942 0.65760 0.10100
C 	C 	0.41699 0.83741 0.59980 0.10500
C 	C 	0.41573 0.74867 0.59700 -0.16700
C 	C 	0.67445 0.09615 0.55260 0.40200
C 	C 	0.78822 0.15518 0.55959 -0.11900
C 	C 	0.82276 0.11184 0.50430 0.03400
C 	C 	0.92555 0.16545 0.51000 -0.08200
C 	C 	0.99380 0.26480 0.56970 0.01000
C 	C 	0.96130 0.30950 0.62310 -0.08600
C 	C 	0.85792 0.25428 0.61910 0.02900
C 	C 	0.12364 0.37596 0.48350 -0.00800
C 	C 	0.10892 0.31108 0.40550 -0.06700
C 	C 	0.09798 0.33902 0.33330 0.00500
C 	C 	0.10363 0.43037 0.33720 -0.08000
C 	C 	0.12171 0.49529 0.41600 0.00400
C 	C 	0.13104 0.46796 0.48810 -0.06800
C 	C 	0.08851 0.45829 0.25660 0.30700
C 	C 	0.69995 0.40005 0.86140 0.09600
C 	C 	0.61029 0.39611 0.85890 -0.16200
C 	C 	0.61222 0.48718 0.88050 0.10400
C 	C 	0.70849 0.57911 0.90500 -0.17000
C 	C 	0.79630 0.57710 0.90700 0.10200
C 	C 	0.51699 0.48681 0.87750 -0.01100
C 	C 	0.43161 0.40599 0.88970 -0.04200
C 	C 	0.34435 0.40765 0.88830 -0.03900
C 	C 	0.33862 0.48958 0.87490 -0.01100
C 	C 	0.42287 0.56953 0.86260 -0.03700
C 	C 	0.51048 0.56732 0.86300 -0.04400
C 	C 	0.24480 0.49140 0.87390 0.11200
C 	C 	0.14571 0.40149 0.84290 -0.16500
C 	C 	0.06058 0.40682 0.84240 0.10700
C 	C 	0.16259 0.58301 0.90020 0.10600
C 	C 	0.25133 0.58427 0.90300 -0.16800
C 	C 	0.90385 0.32555 0.94740 0.39500
C 	C 	0.84482 0.21178 0.94041 -0.11400
C 	C 	0.88816 0.17724 0.99570 0.02500
C 	C 	0.83455 0.07445 0.99000 -0.08300
C 	C 	0.73520 0.00620 0.93030 0.00800
C 	C 	0.69050 0.03870 0.87690 -0.08200
C 	C 	0.74572 0.14208 0.88090 0.02400
C 	C 	0.62404 0.87636 0.01650 -0.00700
C 	C 	0.68892 0.89108 0.09450 -0.06800
C 	C 	0.66098 0.90202 0.16670 0.00600
C 	C 	0.56963 0.89637 0.16280 -0.08000
C 	C 	0.50471 0.87829 0.08400 0.00600
C 	C 	0.53204 0.86896 0.01190 -0.07000
C 	C 	0.54171 0.91149 0.24340 0.30800
C 	C 	0.40005 0.69995 0.36140 0.09600
C 	C 	0.39611 0.61029 0.35890 -0.16200
C 	C 	0.48718 0.61222 0.38050 0.10400
C 	C 	0.57911 0.70849 0.40500 -0.16900
C 	C 	0.57710 0.79630 0.40700 0.10200
C 	C 	0.48681 0.51699 0.37750 -0.01200
C 	C 	0.40599 0.43161 0.38970 -0.04200
C 	C 	0.40765 0.34435 0.38830 -0.03900
C 	C 	0.48958 0.33862 0.37490 -0.01000
C 	C 	0.56953 0.42287 0.36260 -0.03800
C 	C 	0.56732 0.51048 0.36300 -0.04400
C 	C 	0.49140 0.24480 0.37390 0.11000
C 	C 	0.40149 0.14571 0.34290 -0.16200
C 	C 	0.40682 0.06058 0.34240 0.10100
C 	C 	0.58301 0.16259 0.40020 0.10500
C 	C 	0.58427 0.25133 0.40300 -0.16700
C 	C 	0.32555 0.90385 0.44740 0.40200
C 	C 	0.21178 0.84482 0.44041 -0.11900
C 	C 	0.17724 0.88816 0.49570 0.03400
C 	C 	0.07445 0.83455 0.49000 -0.08200
C 	C 	0.00620 0.73520 0.43030 0.01000
C 	C 	0.03870 0.69050 0.37690 -0.08600
C 	C 	0.14208 0.74572 0.38090 0.02900
C 	C 	0.87636 0.62404 0.51650 -0.00800
C 	C 	0.89108 0.68892 0.59450 -0.06700
C 	C 	0.90202 0.66098 0.66670 0.00500
C 	C 	0.89637 0.56963 0.66280 -0.08000
C 	C 	0.87829 0.50471 0.58400 0.00400
C 	C 	0.86896 0.53204 0.51190 -0.06800
C 	C 	0.91149 0.54171 0.74340 0.30700
C 	C 	0.30005 0.59995 0.13860 0.09600
C 	C 	0.38971 0.60389 0.14110 -0.16200
C 	C 	0.38778 0.51282 0.11950 0.10400
C 	C 	0.29151 0.42089 0.09500 -0.17000
C 	C 	0.20370 0.42290 0.09300 0.10200
C 	C 	0.48301 0.51319 0.12250 -0.01100
C 	C 	0.56839 0.59401 0.11030 -0.04200
C 	C 	0.65565 0.59235 0.11170 -0.03900
C 	C 	0.66138 0.51042 0.12510 -0.01100
C 	C 	0.57713 0.43047 0.13740 -0.03700
C 	C 	0.48952 0.43268 0.13700 -0.04400
C 	C 	0.75520 0.50860 0.12610 0.11200
C 	C 	0.85429 0.59851 0.15710 -0.16500
C 	C 	0.93942 0.59318 0.15760 0.10700
C 	C 	0.83741 0.41699 0.09980 0.10600
C 	C 	0.74867 0.41573 0.09700 -0.16800
C 	C 	0.09615 0.67445 0.05260 0.39500
C 	C 	0.15518 0.78822 0.05959 -0.11400
C 	C 	0.11184 0.82276 0.00430 0.02500
C 	C 	0.16545 0.92555 0.01000 -0.08300
C 	C 	0.26480 0.99380 0.06970 0.00800
C 	C 	0.30950 0.96130 0.12310 -0.08200
C 	C 	0.25428 0.85792 0.11910 0.02400
C 	C 	0.37596 0.12364 0.98350 -0.00700
C 	C 	0.31108 0.10892 0.90550 -0.06800
C 	C 	0.33902 0.09798 0.83330 0.00600
C 	C 	0.43037 0.10363 0.83720 -0.08000
C 	C 	0.49529 0.12171 0.91600 0.00600
C 	C 	0.46796 0.13104 0.98810 -0.07000
C 	C 	0.45829 0.08851 0.75660 0.30800
S 	S 	0.12752 0.33602 0.57537 0.28100
S 	S 	0.66398 0.87248 0.92463 0.28100
S 	S 	0.87248 0.66398 0.42463 0.28100
S 	S 	0.33602 0.12752 0.07537 0.28100
N 	N 	0.51081 0.20631 0.61525 -0.23200
N 	N 	0.50363 0.93287 0.62840 -0.23900
N 	N 	0.79369 0.48919 0.88475 -0.23200
N 	N 	0.06713 0.49637 0.87160 -0.24000
N 	N 	0.48919 0.79369 0.38475 -0.23200
N 	N 	0.49637 0.06713 0.37160 -0.23900
N 	N 	0.20631 0.51081 0.11525 -0.23200
N 	N 	0.93287 0.50363 0.12840 -0.24000
O 	O 	0.61386 0.01164 0.49248 -0.46700
O 	O 	0.64949 0.13577 0.60859 -0.44300
O 	O 	0.16057 0.26623 0.56500 -0.22800
O 	O 	0.18490 0.42710 0.65020 -0.22500
O 	O 	0.03546 0.38708 0.18633 -0.36900
O 	O 	0.12919 0.55259 0.26163 -0.37400
O 	O 	0.98836 0.38614 0.00752 -0.46100
O 	O 	0.86423 0.35051 0.89141 -0.44200
O 	O 	0.73377 0.83943 0.93500 -0.22800
O 	O 	0.57290 0.81510 0.84980 -0.22500
O 	O 	0.61292 0.96454 0.31367 -0.36700
O 	O 	0.44741 0.87081 0.23837 -0.37400
O 	O 	0.38614 0.98836 0.50752 -0.46700
O 	O 	0.35051 0.86423 0.39141 -0.44300
O 	O 	0.83943 0.73377 0.43500 -0.22800
O 	O 	0.81510 0.57290 0.34980 -0.22500
O 	O 	0.96454 0.61292 0.81367 -0.36900
O 	O 	0.87081 0.44741 0.73837 -0.37400
O 	O 	0.01164 0.61386 0.99248 -0.46100
O 	O 	0.13577 0.64949 0.10859 -0.44200
O 	O 	0.26623 0.16057 0.06500 -0.22800
O 	O 	0.42710 0.18490 0.15020 -0.22500
O 	O 	0.38708 0.03546 0.68633 -0.36700
O 	O 	0.55259 0.12919 0.76163 -0.37400
