data_crystal

_cell_length_a 18.74030
_cell_length_b 18.74030
_cell_length_c 41.27150
_cell_angle_alpha 90.00000
_cell_angle_beta  90.00000
_cell_angle_gamma 120.00000

_symmetry_space_group_name_	'P 1'
_symmetry_space_group_name_H-M	'P 1'

loop_
_symmetry_equiv_pos_as_xyz
  x,y,z

loop_
_atom_site_label
_atom_site_type_symbol
_atom_site_fract_x
_atom_site_fract_y
_atom_site_fract_z
_atom_site_charge
O 	O 	0.36665 0.11000 0.62692 -0.40200
C 	C 	0.42790 0.12050 0.64389 0.34700
O 	O 	0.44480 0.14969 0.67172 -0.40300
C 	C 	0.48660 0.10550 0.62730 -0.01700
C 	C 	0.47430 0.07890 0.59500 -0.08100
H 	H 	0.42680 0.07060 0.58350 0.07400
C 	C 	0.56530 0.02200 0.52710 -0.24500
N 	N 	0.45070 0.02470 0.53050 0.07400
C 	C 	0.53560 0.97370 0.46740 -0.06700
C 	C 	0.48280 0.09120 0.62860 -0.03700
C 	C 	0.46220 0.04900 0.60060 0.03300
H 	H 	0.41200 0.03670 0.59030 -0.00900
H 	H 	0.61670 0.02540 0.53140 -0.71200
H 	H 	0.59520 0.99600 0.46340 0.88400
H 	H 	0.50710 0.91290 0.46590 0.13800
O 	O 	0.03332 0.44333 0.96025 -0.40300
C 	C 	0.09457 0.45383 0.97722 0.34700
O 	O 	0.11147 0.48302 0.00505 -0.40400
C 	C 	0.15327 0.43883 0.96063 -0.01800
C 	C 	0.14097 0.41223 0.92833 -0.08400
H 	H 	0.09347 0.40393 0.91683 0.07600
C 	C 	0.23197 0.35533 0.86043 -0.24600
N 	N 	0.11737 0.35803 0.86383 0.07200
C 	C 	0.20227 0.30703 0.80073 -0.06900
C 	C 	0.14947 0.42453 0.96193 -0.03700
C 	C 	0.12887 0.38233 0.93393 0.03500
H 	H 	0.07867 0.37003 0.92363 -0.01200
H 	H 	0.28337 0.35873 0.86473 -0.72800
H 	H 	0.26187 0.32933 0.79673 0.87900
H 	H 	0.17377 0.24623 0.79923 0.13600
O 	O 	0.69998 0.77667 0.29359 -0.40300
C 	C 	0.76123 0.78717 0.31056 0.34600
O 	O 	0.77813 0.81636 0.33839 -0.40400
C 	C 	0.81993 0.77217 0.29397 -0.01800
C 	C 	0.80763 0.74557 0.26167 -0.08500
H 	H 	0.76013 0.73727 0.25017 0.07500
C 	C 	0.89863 0.68867 0.19377 -0.24700
N 	N 	0.78403 0.69137 0.19717 0.07200
C 	C 	0.86893 0.64037 0.13407 -0.06900
C 	C 	0.81613 0.75787 0.29527 -0.03700
C 	C 	0.79553 0.71567 0.26727 0.03500
H 	H 	0.74533 0.70337 0.25697 -0.01200
H 	H 	0.95003 0.69207 0.19807 -0.72500
H 	H 	0.92853 0.66267 0.13007 0.87700
H 	H 	0.84043 0.57957 0.13257 0.13700
O 	O 	0.89000 0.25665 0.62692 -0.40300
C 	C 	0.87950 0.30740 0.64389 0.34600
O 	O 	0.85031 0.29511 0.67172 -0.40400
C 	C 	0.89450 0.38110 0.62730 -0.01900
C 	C 	0.92110 0.39540 0.59500 -0.08900
H 	H 	0.92940 0.35620 0.58350 0.07700
C 	C 	0.97800 0.54330 0.52710 -0.24800
N 	N 	0.97530 0.42600 0.53050 0.07300
C 	C 	0.02630 0.56190 0.46740 -0.07100
C 	C 	0.90880 0.39160 0.62860 -0.03700
C 	C 	0.95100 0.41320 0.60060 0.03800
H 	H 	0.96330 0.37530 0.59030 -0.01400
H 	H 	0.97460 0.59130 0.53140 -0.73800
H 	H 	0.00400 0.59920 0.46340 0.85600
H 	H 	0.08710 0.59420 0.46590 0.13600
O 	O 	0.55667 0.58998 0.96025 -0.40300
C 	C 	0.54617 0.64073 0.97722 0.34600
O 	O 	0.51698 0.62844 0.00505 -0.40400
C 	C 	0.56117 0.71443 0.96063 -0.01800
C 	C 	0.58777 0.72873 0.92833 -0.08600
H 	H 	0.59607 0.68953 0.91683 0.07500
C 	C 	0.64467 0.87663 0.86043 -0.24700
N 	N 	0.64197 0.75933 0.86383 0.07200
C 	C 	0.69297 0.89523 0.80073 -0.07000
C 	C 	0.57547 0.72493 0.96193 -0.03700
C 	C 	0.61767 0.74653 0.93393 0.03500
H 	H 	0.62997 0.70863 0.92363 -0.01200
H 	H 	0.64127 0.92463 0.86473 -0.73400
H 	H 	0.67067 0.93253 0.79673 0.86900
H 	H 	0.75377 0.92753 0.79923 0.13700
O 	O 	0.22333 0.92332 0.29359 -0.40300
C 	C 	0.21283 0.97407 0.31056 0.34800
O 	O 	0.18364 0.96178 0.33839 -0.40400
C 	C 	0.22783 0.04777 0.29397 -0.01900
C 	C 	0.25443 0.06207 0.26167 -0.08500
H 	H 	0.26273 0.02287 0.25017 0.07500
C 	C 	0.31133 0.20997 0.19377 -0.24700
N 	N 	0.30863 0.09267 0.19717 0.07200
C 	C 	0.35963 0.22857 0.13407 -0.06900
C 	C 	0.24213 0.05827 0.29527 -0.03800
C 	C 	0.28433 0.07987 0.26727 0.03500
H 	H 	0.29663 0.04197 0.25697 -0.01300
H 	H 	0.30793 0.25797 0.19807 -0.73600
H 	H 	0.33733 0.26587 0.13007 0.87100
H 	H 	0.42043 0.26087 0.13257 0.13600
O 	O 	0.74335 0.63335 0.62692 -0.40200
C 	C 	0.69260 0.57210 0.64389 0.34600
O 	O 	0.70489 0.55520 0.67172 -0.40400
C 	C 	0.61890 0.51340 0.62730 -0.01800
C 	C 	0.60460 0.52570 0.59500 -0.08500
H 	H 	0.64380 0.57320 0.58350 0.07500
C 	C 	0.45670 0.43470 0.52710 -0.24700
N 	N 	0.57400 0.54930 0.53050 0.07200
C 	C 	0.43810 0.46440 0.46740 -0.06900
C 	C 	0.60840 0.51720 0.62860 -0.03700
C 	C 	0.58680 0.53780 0.60060 0.03500
H 	H 	0.62470 0.58800 0.59030 -0.01200
H 	H 	0.40870 0.38330 0.53140 -0.73400
H 	H 	0.40080 0.40480 0.46340 0.87700
H 	H 	0.40580 0.49290 0.46590 0.13700
O 	O 	0.41002 0.96668 0.96025 -0.40200
C 	C 	0.35927 0.90543 0.97722 0.34600
O 	O 	0.37156 0.88853 0.00505 -0.40400
C 	C 	0.28557 0.84673 0.96063 -0.01800
C 	C 	0.27127 0.85903 0.92833 -0.08500
H 	H 	0.31047 0.90653 0.91683 0.07500
C 	C 	0.12337 0.76803 0.86043 -0.24700
N 	N 	0.24067 0.88263 0.86383 0.07200
C 	C 	0.10477 0.79773 0.80073 -0.06900
C 	C 	0.27507 0.85053 0.96193 -0.03700
C 	C 	0.25347 0.87113 0.93393 0.03500
H 	H 	0.29137 0.92133 0.92363 -0.01200
H 	H 	0.07537 0.71663 0.86473 -0.73200
H 	H 	0.06747 0.73813 0.79673 0.87700
H 	H 	0.07247 0.82623 0.79923 0.13700
O 	O 	0.07668 0.30002 0.29359 -0.40300
C 	C 	0.02593 0.23877 0.31056 0.34300
O 	O 	0.03822 0.22187 0.33839 -0.40400
C 	C 	0.95223 0.18007 0.29397 -0.01800
C 	C 	0.93793 0.19237 0.26167 -0.08600
H 	H 	0.97713 0.23987 0.25017 0.07600
C 	C 	0.79003 0.10137 0.19377 -0.24700
N 	N 	0.90733 0.21597 0.19717 0.07200
C 	C 	0.77143 0.13107 0.13407 -0.06900
C 	C 	0.94173 0.18387 0.29527 -0.03600
C 	C 	0.92013 0.20447 0.26727 0.03500
H 	H 	0.95803 0.25467 0.25697 -0.01200
H 	H 	0.74203 0.04997 0.19807 -0.73400
H 	H 	0.73413 0.07147 0.13007 0.87600
H 	H 	0.73913 0.15957 0.13257 0.13600
O 	O 	0.11000 0.36665 0.37308 -0.40300
C 	C 	0.12050 0.42790 0.35611 0.34600
O 	O 	0.14969 0.44480 0.32828 -0.40400
C 	C 	0.10550 0.48660 0.37270 -0.01800
C 	C 	0.07890 0.47430 0.40500 -0.08200
H 	H 	0.07060 0.42680 0.41650 0.07300
C 	C 	0.02200 0.56530 0.47290 -0.24600
N 	N 	0.02470 0.45070 0.46950 0.07300
C 	C 	0.97370 0.53560 0.53260 -0.06800
C 	C 	0.09120 0.48280 0.37140 -0.03800
C 	C 	0.04900 0.46220 0.39940 0.03200
H 	H 	0.03670 0.41200 0.40970 -0.01000
H 	H 	0.02540 0.61670 0.46860 -0.71300
H 	H 	0.99600 0.59520 0.53660 0.88300
H 	H 	0.91290 0.50710 0.53410 0.13700
O 	O 	0.77667 0.69998 0.70641 -0.40300
C 	C 	0.78717 0.76123 0.68944 0.34600
O 	O 	0.81636 0.77813 0.66161 -0.40400
C 	C 	0.77217 0.81993 0.70603 -0.01800
C 	C 	0.74557 0.80763 0.73833 -0.08500
H 	H 	0.73727 0.76013 0.74983 0.07500
C 	C 	0.68867 0.89863 0.80623 -0.24700
N 	N 	0.69137 0.78403 0.80283 0.07200
C 	C 	0.64037 0.86893 0.86593 -0.06900
C 	C 	0.75787 0.81613 0.70473 -0.03700
C 	C 	0.71567 0.79553 0.73273 0.03500
H 	H 	0.70337 0.74533 0.74303 -0.01200
H 	H 	0.69207 0.95003 0.80193 -0.72500
H 	H 	0.66267 0.92853 0.86993 0.87700
H 	H 	0.57957 0.84043 0.86743 0.13700
O 	O 	0.44333 0.03332 0.03975 -0.40400
C 	C 	0.45383 0.09457 0.02278 0.34600
O 	O 	0.48302 0.11147 0.99495 -0.40500
C 	C 	0.43883 0.15327 0.03937 -0.01900
C 	C 	0.41223 0.14097 0.07167 -0.08500
H 	H 	0.40393 0.09347 0.08317 0.07500
C 	C 	0.35533 0.23197 0.13957 -0.24700
N 	N 	0.35803 0.11737 0.13617 0.07200
C 	C 	0.30703 0.20227 0.19927 -0.06900
C 	C 	0.42453 0.14947 0.03807 -0.03700
C 	C 	0.38233 0.12887 0.06607 0.03500
H 	H 	0.37003 0.07867 0.07637 -0.01200
H 	H 	0.35873 0.28337 0.13527 -0.72800
H 	H 	0.32933 0.26187 0.20327 0.87900
H 	H 	0.24623 0.17377 0.20077 0.13600
O 	O 	0.25665 0.89000 0.37308 -0.40300
C 	C 	0.30740 0.87950 0.35611 0.34600
O 	O 	0.29511 0.85031 0.32828 -0.40400
C 	C 	0.38110 0.89450 0.37270 -0.01900
C 	C 	0.39540 0.92110 0.40500 -0.08900
H 	H 	0.35620 0.92940 0.41650 0.07700
C 	C 	0.54330 0.97800 0.47290 -0.24800
N 	N 	0.42600 0.97530 0.46950 0.07300
C 	C 	0.56190 0.02630 0.53260 -0.07100
C 	C 	0.39160 0.90880 0.37140 -0.03700
C 	C 	0.41320 0.95100 0.39940 0.03800
H 	H 	0.37530 0.96330 0.40970 -0.01400
H 	H 	0.59130 0.97460 0.46860 -0.73800
H 	H 	0.59920 0.00400 0.53660 0.85600
H 	H 	0.59420 0.08710 0.53410 0.13600
O 	O 	0.92332 0.22333 0.70641 -0.40300
C 	C 	0.97407 0.21283 0.68944 0.34800
O 	O 	0.96178 0.18364 0.66161 -0.40400
C 	C 	0.04777 0.22783 0.70603 -0.01900
C 	C 	0.06207 0.25443 0.73833 -0.08500
H 	H 	0.02287 0.26273 0.74983 0.07500
C 	C 	0.20997 0.31133 0.80623 -0.24700
N 	N 	0.09267 0.30863 0.80283 0.07200
C 	C 	0.22857 0.35963 0.86593 -0.06900
C 	C 	0.05827 0.24213 0.70473 -0.03800
C 	C 	0.07987 0.28433 0.73273 0.03500
H 	H 	0.04197 0.29663 0.74303 -0.01300
H 	H 	0.25797 0.30793 0.80193 -0.73600
H 	H 	0.26587 0.33733 0.86993 0.87100
H 	H 	0.26087 0.42043 0.86743 0.13600
O 	O 	0.58998 0.55667 0.03975 -0.40300
C 	C 	0.64073 0.54617 0.02278 0.34600
O 	O 	0.62844 0.51698 0.99495 -0.40400
C 	C 	0.71443 0.56117 0.03937 -0.01800
C 	C 	0.72873 0.58777 0.07167 -0.08600
H 	H 	0.68953 0.59607 0.08317 0.07500
C 	C 	0.87663 0.64467 0.13957 -0.24700
N 	N 	0.75933 0.64197 0.13617 0.07200
C 	C 	0.89523 0.69297 0.19927 -0.07000
C 	C 	0.72493 0.57547 0.03807 -0.03700
C 	C 	0.74653 0.61767 0.06607 0.03500
H 	H 	0.70863 0.62997 0.07637 -0.01200
H 	H 	0.92463 0.64127 0.13527 -0.73400
H 	H 	0.93253 0.67067 0.20327 0.86900
H 	H 	0.92753 0.75377 0.20077 0.13700
O 	O 	0.63335 0.74335 0.37308 -0.40200
C 	C 	0.57210 0.69260 0.35611 0.34600
O 	O 	0.55520 0.70489 0.32828 -0.40400
C 	C 	0.51340 0.61890 0.37270 -0.01800
C 	C 	0.52570 0.60460 0.40500 -0.08500
H 	H 	0.57320 0.64380 0.41650 0.07500
C 	C 	0.43470 0.45670 0.47290 -0.24700
N 	N 	0.54930 0.57400 0.46950 0.07200
C 	C 	0.46440 0.43810 0.53260 -0.06900
C 	C 	0.51720 0.60840 0.37140 -0.03700
C 	C 	0.53780 0.58680 0.39940 0.03500
H 	H 	0.58800 0.62470 0.40970 -0.01200
H 	H 	0.38330 0.40870 0.46860 -0.73400
H 	H 	0.40480 0.40080 0.53660 0.87700
H 	H 	0.49290 0.40580 0.53410 0.13700
O 	O 	0.30002 0.07668 0.70641 -0.40300
C 	C 	0.23877 0.02593 0.68944 0.34300
O 	O 	0.22187 0.03822 0.66161 -0.40400
C 	C 	0.18007 0.95223 0.70603 -0.01800
C 	C 	0.19237 0.93793 0.73833 -0.08600
H 	H 	0.23987 0.97713 0.74983 0.07600
C 	C 	0.10137 0.79003 0.80623 -0.24700
N 	N 	0.21597 0.90733 0.80283 0.07200
C 	C 	0.13107 0.77143 0.86593 -0.06900
C 	C 	0.18387 0.94173 0.70473 -0.03600
C 	C 	0.20447 0.92013 0.73273 0.03500
H 	H 	0.25467 0.95803 0.74303 -0.01200
H 	H 	0.04997 0.74203 0.80193 -0.73400
H 	H 	0.07147 0.73413 0.86993 0.87600
H 	H 	0.15957 0.73913 0.86743 0.13600
O 	O 	0.96668 0.41002 0.03975 -0.40200
C 	C 	0.90543 0.35927 0.02278 0.34600
O 	O 	0.88853 0.37156 0.99495 -0.40400
C 	C 	0.84673 0.28557 0.03937 -0.01800
C 	C 	0.85903 0.27127 0.07167 -0.08500
H 	H 	0.90653 0.31047 0.08317 0.07500
C 	C 	0.76803 0.12337 0.13957 -0.24700
N 	N 	0.88263 0.24067 0.13617 0.07200
C 	C 	0.79773 0.10477 0.19927 -0.06900
C 	C 	0.85053 0.27507 0.03807 -0.03700
C 	C 	0.87113 0.25347 0.06607 0.03500
H 	H 	0.92133 0.29137 0.07637 -0.01200
H 	H 	0.71663 0.07537 0.13527 -0.73200
H 	H 	0.73813 0.06747 0.20327 0.87700
H 	H 	0.82623 0.07247 0.20077 0.13700
O 	O 	0.63335 0.89000 0.37308 -0.40200
C 	C 	0.57210 0.87950 0.35611 0.34600
O 	O 	0.55520 0.85031 0.32828 -0.40400
C 	C 	0.51340 0.89450 0.37270 -0.01900
C 	C 	0.52570 0.92110 0.40500 -0.08900
H 	H 	0.57320 0.92940 0.41650 0.07700
C 	C 	0.43470 0.97800 0.47290 -0.24800
N 	N 	0.54930 0.97530 0.46950 0.07300
C 	C 	0.46440 0.02630 0.53260 -0.07000
C 	C 	0.51720 0.90880 0.37140 -0.03700
C 	C 	0.53780 0.95100 0.39940 0.03800
H 	H 	0.58800 0.96330 0.40970 -0.01300
H 	H 	0.38330 0.97460 0.46860 -0.74000
H 	H 	0.40480 0.00400 0.53660 0.85800
H 	H 	0.49290 0.08710 0.53410 0.13600
O 	O 	0.30002 0.22333 0.70641 -0.40300
C 	C 	0.23877 0.21283 0.68944 0.34600
O 	O 	0.22187 0.18364 0.66161 -0.40500
C 	C 	0.18007 0.22783 0.70603 -0.01900
C 	C 	0.19237 0.25443 0.73833 -0.08600
H 	H 	0.23987 0.26273 0.74983 0.07500
C 	C 	0.10137 0.31133 0.80623 -0.24700
N 	N 	0.21597 0.30863 0.80283 0.07200
C 	C 	0.13107 0.35963 0.86593 -0.06900
C 	C 	0.18387 0.24213 0.70473 -0.03700
C 	C 	0.20447 0.28433 0.73273 0.03500
H 	H 	0.25467 0.29663 0.74303 -0.01200
H 	H 	0.04997 0.30793 0.80193 -0.73800
H 	H 	0.07147 0.33733 0.86993 0.87100
H 	H 	0.15957 0.42043 0.86743 0.13600
O 	O 	0.96668 0.55667 0.03975 -0.40200
C 	C 	0.90543 0.54617 0.02278 0.34600
O 	O 	0.88853 0.51698 0.99495 -0.40400
C 	C 	0.84673 0.56117 0.03937 -0.01800
C 	C 	0.85903 0.58777 0.07167 -0.08600
H 	H 	0.90653 0.59607 0.08317 0.07500
C 	C 	0.76803 0.64467 0.13957 -0.24700
N 	N 	0.88263 0.64197 0.13617 0.07200
C 	C 	0.79773 0.69297 0.19927 -0.06900
C 	C 	0.85053 0.57547 0.03807 -0.03700
C 	C 	0.87113 0.61767 0.06607 0.03500
H 	H 	0.92133 0.62997 0.07637 -0.01200
H 	H 	0.71663 0.64127 0.13527 -0.73500
H 	H 	0.73813 0.67067 0.20327 0.87200
H 	H 	0.82623 0.75377 0.20077 0.13700
O 	O 	0.11000 0.74335 0.37308 -0.40300
C 	C 	0.12050 0.69260 0.35611 0.34600
O 	O 	0.14969 0.70489 0.32828 -0.40400
C 	C 	0.10550 0.61890 0.37270 -0.01800
C 	C 	0.07890 0.60460 0.40500 -0.08200
H 	H 	0.07060 0.64380 0.41650 0.07300
C 	C 	0.02200 0.45670 0.47290 -0.24600
N 	N 	0.02470 0.57400 0.46950 0.07300
C 	C 	0.97370 0.43810 0.53260 -0.06800
C 	C 	0.09120 0.60840 0.37140 -0.03800
C 	C 	0.04900 0.58680 0.39940 0.03200
H 	H 	0.03670 0.62470 0.40970 -0.01000
H 	H 	0.02540 0.40870 0.46860 -0.71500
H 	H 	0.99600 0.40080 0.53660 0.88400
H 	H 	0.91290 0.40580 0.53410 0.13700
O 	O 	0.77667 0.07668 0.70641 -0.40300
C 	C 	0.78717 0.02593 0.68944 0.34300
O 	O 	0.81636 0.03822 0.66161 -0.40400
C 	C 	0.77217 0.95223 0.70603 -0.01800
C 	C 	0.74557 0.93793 0.73833 -0.08600
H 	H 	0.73727 0.97713 0.74983 0.07600
C 	C 	0.68867 0.79003 0.80623 -0.24700
N 	N 	0.69137 0.90733 0.80283 0.07200
C 	C 	0.64037 0.77143 0.86593 -0.06900
C 	C 	0.75787 0.94173 0.70473 -0.03500
C 	C 	0.71567 0.92013 0.73273 0.03400
H 	H 	0.70337 0.95803 0.74303 -0.01100
H 	H 	0.69207 0.74203 0.80193 -0.72900
H 	H 	0.66267 0.73413 0.86993 0.87900
H 	H 	0.57957 0.73913 0.86743 0.13700
O 	O 	0.44333 0.41002 0.03975 -0.40300
C 	C 	0.45383 0.35927 0.02278 0.34600
O 	O 	0.48302 0.37156 0.99495 -0.40400
C 	C 	0.43883 0.28557 0.03937 -0.01900
C 	C 	0.41223 0.27127 0.07167 -0.08500
H 	H 	0.40393 0.31047 0.08317 0.07500
C 	C 	0.35533 0.12337 0.13957 -0.24700
N 	N 	0.35803 0.24067 0.13617 0.07200
C 	C 	0.30703 0.10477 0.19927 -0.06800
C 	C 	0.42453 0.27507 0.03807 -0.03700
C 	C 	0.38233 0.25347 0.06607 0.03500
H 	H 	0.37003 0.29137 0.07637 -0.01200
H 	H 	0.35873 0.07537 0.13527 -0.72900
H 	H 	0.32933 0.06747 0.20327 0.88100
H 	H 	0.24623 0.07247 0.20077 0.13600
O 	O 	0.25665 0.36665 0.37308 -0.40300
C 	C 	0.30740 0.42790 0.35611 0.34600
O 	O 	0.29511 0.44480 0.32828 -0.40400
C 	C 	0.38110 0.48660 0.37270 -0.01900
C 	C 	0.39540 0.47430 0.40500 -0.08500
H 	H 	0.35620 0.42680 0.41650 0.07500
C 	C 	0.54330 0.56530 0.47290 -0.24700
N 	N 	0.42600 0.45070 0.46950 0.07200
C 	C 	0.56190 0.53560 0.53260 -0.06900
C 	C 	0.39160 0.48280 0.37140 -0.03700
C 	C 	0.41320 0.46220 0.39940 0.03500
H 	H 	0.37530 0.41200 0.40970 -0.01200
H 	H 	0.59130 0.61670 0.46860 -0.73000
H 	H 	0.59920 0.59520 0.53660 0.87400
H 	H 	0.59420 0.50710 0.53410 0.13700
O 	O 	0.92332 0.69998 0.70641 -0.40200
C 	C 	0.97407 0.76123 0.68944 0.34800
O 	O 	0.96178 0.77813 0.66161 -0.40400
C 	C 	0.04777 0.81993 0.70603 -0.01900
C 	C 	0.06207 0.80763 0.73833 -0.08500
H 	H 	0.02287 0.76013 0.74983 0.07500
C 	C 	0.20997 0.89863 0.80623 -0.24700
N 	N 	0.09267 0.78403 0.80283 0.07200
C 	C 	0.22857 0.86893 0.86593 -0.06900
C 	C 	0.05827 0.81613 0.70473 -0.03800
C 	C 	0.07987 0.79553 0.73273 0.03500
H 	H 	0.04197 0.74533 0.74303 -0.01200
H 	H 	0.25797 0.95003 0.80193 -0.72800
H 	H 	0.26587 0.92853 0.86993 0.87400
H 	H 	0.26087 0.84043 0.86743 0.13700
O 	O 	0.58998 0.03332 0.03975 -0.40400
C 	C 	0.64073 0.09457 0.02278 0.34600
O 	O 	0.62844 0.11147 0.99495 -0.40500
C 	C 	0.71443 0.15327 0.03937 -0.01900
C 	C 	0.72873 0.14097 0.07167 -0.08500
H 	H 	0.68953 0.09347 0.08317 0.07500
C 	C 	0.87663 0.23197 0.13957 -0.24700
N 	N 	0.75933 0.11737 0.13617 0.07200
C 	C 	0.89523 0.20227 0.19927 -0.06900
C 	C 	0.72493 0.14947 0.03807 -0.03700
C 	C 	0.74653 0.12887 0.06607 0.03500
H 	H 	0.70863 0.07867 0.07637 -0.01200
H 	H 	0.92463 0.28337 0.13527 -0.73000
H 	H 	0.93253 0.26187 0.20327 0.87100
H 	H 	0.92753 0.17377 0.20077 0.13700
O 	O 	0.89000 0.63335 0.62692 -0.40200
C 	C 	0.87950 0.57210 0.64389 0.34600
O 	O 	0.85031 0.55520 0.67172 -0.40400
C 	C 	0.89450 0.51340 0.62730 -0.01900
C 	C 	0.92110 0.52570 0.59500 -0.08900
H 	H 	0.92940 0.57320 0.58350 0.07700
C 	C 	0.97800 0.43470 0.52710 -0.24800
N 	N 	0.97530 0.54930 0.53050 0.07300
C 	C 	0.02630 0.46440 0.46740 -0.07000
C 	C 	0.90880 0.51720 0.62860 -0.03700
C 	C 	0.95100 0.53780 0.60060 0.03800
H 	H 	0.96330 0.58800 0.59030 -0.01300
H 	H 	0.97460 0.38330 0.53140 -0.74000
H 	H 	0.00400 0.40480 0.46340 0.85800
H 	H 	0.08710 0.49290 0.46590 0.13600
O 	O 	0.55667 0.96668 0.96025 -0.40200
C 	C 	0.54617 0.90543 0.97722 0.34600
O 	O 	0.51698 0.88853 0.00505 -0.40400
C 	C 	0.56117 0.84673 0.96063 -0.01800
C 	C 	0.58777 0.85903 0.92833 -0.08600
H 	H 	0.59607 0.90653 0.91683 0.07500
C 	C 	0.64467 0.76803 0.86043 -0.24700
N 	N 	0.64197 0.88263 0.86383 0.07200
C 	C 	0.69297 0.79773 0.80073 -0.06900
C 	C 	0.57547 0.85053 0.96193 -0.03700
C 	C 	0.61767 0.87113 0.93393 0.03500
H 	H 	0.62997 0.92133 0.92363 -0.01200
H 	H 	0.64127 0.71663 0.86473 -0.73500
H 	H 	0.67067 0.73813 0.79673 0.87200
H 	H 	0.75377 0.82623 0.79923 0.13700
O 	O 	0.22333 0.30002 0.29359 -0.40300
C 	C 	0.21283 0.23877 0.31056 0.34600
O 	O 	0.18364 0.22187 0.33839 -0.40500
C 	C 	0.22783 0.18007 0.29397 -0.01900
C 	C 	0.25443 0.19237 0.26167 -0.08600
H 	H 	0.26273 0.23987 0.25017 0.07500
C 	C 	0.31133 0.10137 0.19377 -0.24700
N 	N 	0.30863 0.21597 0.19717 0.07200
C 	C 	0.35963 0.13107 0.13407 -0.06900
C 	C 	0.24213 0.18387 0.29527 -0.03700
C 	C 	0.28433 0.20447 0.26727 0.03500
H 	H 	0.29663 0.25467 0.25697 -0.01200
H 	H 	0.30793 0.04997 0.19807 -0.73800
H 	H 	0.33733 0.07147 0.13007 0.87100
H 	H 	0.42043 0.15957 0.13257 0.13600
O 	O 	0.74335 0.11000 0.62692 -0.40300
C 	C 	0.69260 0.12050 0.64389 0.34600
O 	O 	0.70489 0.14969 0.67172 -0.40400
C 	C 	0.61890 0.10550 0.62730 -0.01800
C 	C 	0.60460 0.07890 0.59500 -0.08200
H 	H 	0.64380 0.07060 0.58350 0.07300
C 	C 	0.45670 0.02200 0.52710 -0.24600
N 	N 	0.57400 0.02470 0.53050 0.07300
C 	C 	0.43810 0.97370 0.46740 -0.06800
C 	C 	0.60840 0.09120 0.62860 -0.03800
C 	C 	0.58680 0.04900 0.60060 0.03200
H 	H 	0.62470 0.03670 0.59030 -0.01000
H 	H 	0.40870 0.02540 0.53140 -0.71500
H 	H 	0.40080 0.99600 0.46340 0.88400
H 	H 	0.40580 0.91290 0.46590 0.13700
O 	O 	0.41002 0.44333 0.96025 -0.40300
C 	C 	0.35927 0.45383 0.97722 0.34600
O 	O 	0.37156 0.48302 0.00505 -0.40400
C 	C 	0.28557 0.43883 0.96063 -0.01900
C 	C 	0.27127 0.41223 0.92833 -0.08500
H 	H 	0.31047 0.40393 0.91683 0.07500
C 	C 	0.12337 0.35533 0.86043 -0.24700
N 	N 	0.24067 0.35803 0.86383 0.07200
C 	C 	0.10477 0.30703 0.80073 -0.06800
C 	C 	0.27507 0.42453 0.96193 -0.03700
C 	C 	0.25347 0.38233 0.93393 0.03500
H 	H 	0.29137 0.37003 0.92363 -0.01200
H 	H 	0.07537 0.35873 0.86473 -0.72900
H 	H 	0.06747 0.32933 0.79673 0.88100
H 	H 	0.07247 0.24623 0.79923 0.13600
O 	O 	0.07668 0.77667 0.29359 -0.40300
C 	C 	0.02593 0.78717 0.31056 0.34300
O 	O 	0.03822 0.81636 0.33839 -0.40400
C 	C 	0.95223 0.77217 0.29397 -0.01800
C 	C 	0.93793 0.74557 0.26167 -0.08600
H 	H 	0.97713 0.73727 0.25017 0.07600
C 	C 	0.79003 0.68867 0.19377 -0.24700
N 	N 	0.90733 0.69137 0.19717 0.07200
C 	C 	0.77143 0.64037 0.13407 -0.06900
C 	C 	0.94173 0.75787 0.29527 -0.03500
C 	C 	0.92013 0.71567 0.26727 0.03400
H 	H 	0.95803 0.70337 0.25697 -0.01100
H 	H 	0.74203 0.69207 0.19807 -0.72900
H 	H 	0.73413 0.66267 0.13007 0.87900
H 	H 	0.73913 0.57957 0.13257 0.13700
O 	O 	0.36665 0.25665 0.62692 -0.40300
C 	C 	0.42790 0.30740 0.64389 0.34600
O 	O 	0.44480 0.29511 0.67172 -0.40400
C 	C 	0.48660 0.38110 0.62730 -0.01900
C 	C 	0.47430 0.39540 0.59500 -0.08500
H 	H 	0.42680 0.35620 0.58350 0.07500
C 	C 	0.56530 0.54330 0.52710 -0.24700
N 	N 	0.45070 0.42600 0.53050 0.07200
C 	C 	0.53560 0.56190 0.46740 -0.06900
C 	C 	0.48280 0.39160 0.62860 -0.03700
C 	C 	0.46220 0.41320 0.60060 0.03500
H 	H 	0.41200 0.37530 0.59030 -0.01200
H 	H 	0.61670 0.59130 0.53140 -0.73000
H 	H 	0.59520 0.59920 0.46340 0.87400
H 	H 	0.50710 0.59420 0.46590 0.13700
O 	O 	0.03332 0.58998 0.96025 -0.40400
C 	C 	0.09457 0.64073 0.97722 0.34600
O 	O 	0.11147 0.62844 0.00505 -0.40500
C 	C 	0.15327 0.71443 0.96063 -0.01900
C 	C 	0.14097 0.72873 0.92833 -0.08500
H 	H 	0.09347 0.68953 0.91683 0.07500
C 	C 	0.23197 0.87663 0.86043 -0.24700
N 	N 	0.11737 0.75933 0.86383 0.07200
C 	C 	0.20227 0.89523 0.80073 -0.06900
C 	C 	0.14947 0.72493 0.96193 -0.03700
C 	C 	0.12887 0.74653 0.93393 0.03500
H 	H 	0.07867 0.70863 0.92363 -0.01200
H 	H 	0.28337 0.92463 0.86473 -0.73000
H 	H 	0.26187 0.93253 0.79673 0.87100
H 	H 	0.17377 0.92753 0.79923 0.13700
O 	O 	0.69998 0.92332 0.29359 -0.40200
C 	C 	0.76123 0.97407 0.31056 0.34800
O 	O 	0.77813 0.96178 0.33839 -0.40400
C 	C 	0.81993 0.04777 0.29397 -0.01900
C 	C 	0.80763 0.06207 0.26167 -0.08500
H 	H 	0.76013 0.02287 0.25017 0.07500
C 	C 	0.89863 0.20997 0.19377 -0.24700
N 	N 	0.78403 0.09267 0.19717 0.07200
C 	C 	0.86893 0.22857 0.13407 -0.06900
C 	C 	0.81613 0.05827 0.29527 -0.03800
C 	C 	0.79553 0.07987 0.26727 0.03500
H 	H 	0.74533 0.04197 0.25697 -0.01200
H 	H 	0.95003 0.25797 0.19807 -0.72800
H 	H 	0.92853 0.26587 0.13007 0.87400
H 	H 	0.84043 0.26087 0.13257 0.13700
Cu	Cu	0.28764 0.14382 0.63978 0.90700
Cu	Cu	0.95431 0.47715 0.97311 0.90800
Cu	Cu	0.62097 0.81049 0.30644 0.90800
Cu	Cu	0.85618 0.14382 0.63978 0.90800
Cu	Cu	0.52285 0.47715 0.97311 0.90800
Cu	Cu	0.18951 0.81049 0.30644 0.90800
Cu	Cu	0.85618 0.71236 0.63978 0.90800
Cu	Cu	0.52285 0.04569 0.97311 0.90700
Cu	Cu	0.18951 0.37903 0.30644 0.90800
Cu	Cu	0.14382 0.28764 0.36022 0.90700
Cu	Cu	0.81049 0.62097 0.69356 0.90800
Cu	Cu	0.47715 0.95431 0.02689 0.90800
Cu	Cu	0.14382 0.85618 0.36022 0.90800
Cu	Cu	0.81049 0.18951 0.69356 0.90800
Cu	Cu	0.47715 0.52285 0.02689 0.90800
Cu	Cu	0.71236 0.85618 0.36022 0.90800
Cu	Cu	0.37903 0.18951 0.69356 0.90800
Cu	Cu	0.04569 0.52285 0.02689 0.90700
C 	C 	0.53255 0.06510 0.58010 -0.13500
C 	C 	0.55855 0.11710 0.64290 -0.01100
H 	H 	0.56680 0.13360 0.66500 0.06300
N 	N 	0.51910 0.03820 0.54690 0.08200
O 	O 	0.50290 0.00580 0.44490 -0.30500
C 	C 	0.51160 0.02320 0.58650 0.20500
C 	C 	0.55505 0.11010 0.64490 0.00500
C 	C 	0.19922 0.39843 0.91343 -0.14200
C 	C 	0.22522 0.45043 0.97623 -0.01200
H 	H 	0.23347 0.46693 0.99833 0.06300
N 	N 	0.18577 0.37153 0.88023 0.08900
O 	O 	0.16957 0.33913 0.77823 -0.29700
C 	C 	0.17827 0.35653 0.91983 0.21400
C 	C 	0.22172 0.44343 0.97823 0.00500
C 	C 	0.86588 0.73177 0.24677 -0.14200
C 	C 	0.89188 0.78377 0.30957 -0.01200
H 	H 	0.90013 0.80027 0.33167 0.06400
N 	N 	0.85243 0.70487 0.21357 0.08900
O 	O 	0.83623 0.67247 0.11157 -0.29600
C 	C 	0.84493 0.68987 0.25317 0.21400
C 	C 	0.88838 0.77677 0.31157 0.00500
C 	C 	0.93490 0.46745 0.58010 -0.15000
C 	C 	0.88290 0.44145 0.64290 -0.01200
H 	H 	0.86640 0.43320 0.66500 0.06300
N 	N 	0.96180 0.48090 0.54690 0.09400
O 	O 	0.99420 0.49710 0.44490 -0.28500
C 	C 	0.97680 0.48840 0.58650 0.22400
C 	C 	0.88990 0.44495 0.64490 0.00500
C 	C 	0.60157 0.80078 0.91343 -0.14400
C 	C 	0.54957 0.77478 0.97623 -0.01200
H 	H 	0.53307 0.76653 0.99833 0.06300
N 	N 	0.62847 0.81423 0.88023 0.08900
O 	O 	0.66087 0.83043 0.77823 -0.29500
C 	C 	0.64347 0.82173 0.91983 0.21600
C 	C 	0.55657 0.77828 0.97823 0.00500
C 	C 	0.26823 0.13412 0.24677 -0.14500
C 	C 	0.21623 0.10812 0.30957 -0.01100
H 	H 	0.19973 0.09987 0.33167 0.06200
N 	N 	0.29513 0.14757 0.21357 0.08900
O 	O 	0.32753 0.16377 0.11157 -0.29600
C 	C 	0.31013 0.15507 0.25317 0.21600
C 	C 	0.22323 0.11162 0.31157 0.00500
C 	C 	0.53255 0.46745 0.58010 -0.14300
C 	C 	0.55855 0.44145 0.64290 -0.01200
H 	H 	0.56680 0.43320 0.66500 0.06300
N 	N 	0.51910 0.48090 0.54690 0.08900
O 	O 	0.50290 0.49710 0.44490 -0.29600
C 	C 	0.51160 0.48840 0.58650 0.21500
C 	C 	0.55505 0.44495 0.64490 0.00500
C 	C 	0.19922 0.80078 0.91343 -0.14300
C 	C 	0.22522 0.77478 0.97623 -0.01200
H 	H 	0.23347 0.76653 0.99833 0.06300
N 	N 	0.18577 0.81423 0.88023 0.08900
O 	O 	0.16957 0.83043 0.77823 -0.29600
C 	C 	0.17827 0.82173 0.91983 0.21500
C 	C 	0.22172 0.77828 0.97823 0.00500
C 	C 	0.86588 0.13412 0.24677 -0.14300
C 	C 	0.89188 0.10812 0.30957 -0.01200
H 	H 	0.90013 0.09987 0.33167 0.06300
N 	N 	0.85243 0.14757 0.21357 0.08900
O 	O 	0.83623 0.16377 0.11157 -0.29600
C 	C 	0.84493 0.15507 0.25317 0.21500
C 	C 	0.88838 0.11162 0.31157 0.00500
C 	C 	0.06510 0.53255 0.41990 -0.13500
C 	C 	0.11710 0.55855 0.35710 -0.01100
H 	H 	0.13360 0.56680 0.33500 0.06300
N 	N 	0.03820 0.51910 0.45310 0.08200
O 	O 	0.00580 0.50290 0.55510 -0.30500
C 	C 	0.02320 0.51160 0.41350 0.20500
C 	C 	0.11010 0.55505 0.35510 0.00500
C 	C 	0.73177 0.86588 0.75323 -0.14200
C 	C 	0.78377 0.89188 0.69043 -0.01200
H 	H 	0.80027 0.90013 0.66833 0.06400
N 	N 	0.70487 0.85243 0.78643 0.08900
O 	O 	0.67247 0.83623 0.88843 -0.29600
C 	C 	0.68987 0.84493 0.74683 0.21400
C 	C 	0.77677 0.88838 0.68843 0.00500
C 	C 	0.39843 0.19922 0.08657 -0.14200
C 	C 	0.45043 0.22522 0.02377 -0.01200
H 	H 	0.46693 0.23347 0.00167 0.06300
N 	N 	0.37153 0.18577 0.11977 0.08900
O 	O 	0.33913 0.16957 0.22177 -0.29700
C 	C 	0.35653 0.17827 0.08017 0.21400
C 	C 	0.44343 0.22172 0.02177 0.00500
C 	C 	0.46745 0.93490 0.41990 -0.15000
C 	C 	0.44145 0.88290 0.35710 -0.01200
H 	H 	0.43320 0.86640 0.33500 0.06300
N 	N 	0.48090 0.96180 0.45310 0.09400
O 	O 	0.49710 0.99420 0.55510 -0.28500
C 	C 	0.48840 0.97680 0.41350 0.22400
C 	C 	0.44495 0.88990 0.35510 0.00500
C 	C 	0.13412 0.26823 0.75323 -0.14500
C 	C 	0.10812 0.21623 0.69043 -0.01100
H 	H 	0.09987 0.19973 0.66833 0.06200
N 	N 	0.14757 0.29513 0.78643 0.08900
O 	O 	0.16377 0.32753 0.88843 -0.29600
C 	C 	0.15507 0.31013 0.74683 0.21600
C 	C 	0.11162 0.22323 0.68843 0.00500
C 	C 	0.80078 0.60157 0.08657 -0.14400
C 	C 	0.77478 0.54957 0.02377 -0.01200
H 	H 	0.76653 0.53307 0.00167 0.06300
N 	N 	0.81423 0.62847 0.11977 0.08900
O 	O 	0.83043 0.66087 0.22177 -0.29500
C 	C 	0.82173 0.64347 0.08017 0.21600
C 	C 	0.77828 0.55657 0.02177 0.00500
C 	C 	0.46745 0.53255 0.41990 -0.14300
C 	C 	0.44145 0.55855 0.35710 -0.01200
H 	H 	0.43320 0.56680 0.33500 0.06300
N 	N 	0.48090 0.51910 0.45310 0.08900
O 	O 	0.49710 0.50290 0.55510 -0.29600
C 	C 	0.48840 0.51160 0.41350 0.21500
C 	C 	0.44495 0.55505 0.35510 0.00500
C 	C 	0.13412 0.86588 0.75323 -0.14300
C 	C 	0.10812 0.89188 0.69043 -0.01200
H 	H 	0.09987 0.90013 0.66833 0.06300
N 	N 	0.14757 0.85243 0.78643 0.08900
O 	O 	0.16377 0.83623 0.88843 -0.29600
C 	C 	0.15507 0.84493 0.74683 0.21500
C 	C 	0.11162 0.88838 0.68843 0.00500
C 	C 	0.80078 0.19922 0.08657 -0.14300
C 	C 	0.77478 0.22522 0.02377 -0.01200
H 	H 	0.76653 0.23347 0.00167 0.06300
N 	N 	0.81423 0.18577 0.11977 0.08900
O 	O 	0.83043 0.16957 0.22177 -0.29600
C 	C 	0.82173 0.17827 0.08017 0.21500
C 	C 	0.77828 0.22172 0.02177 0.00500
C 	C 	0.52200 0.00000 0.50000 0.73600
N 	N 	0.44890 0.00000 0.50000 -0.63200
C 	C 	0.18867 0.33333 0.83333 0.73600
N 	N 	0.11557 0.33333 0.83333 -0.63000
C 	C 	0.85533 0.66667 0.16667 0.73600
N 	N 	0.78223 0.66667 0.16667 -0.63100
C 	C 	-0.00000 0.52200 0.50000 0.73600
N 	N 	-0.00000 0.44890 0.50000 -0.63200
C 	C 	0.66667 0.85533 0.83333 0.73600
N 	N 	0.66667 0.78223 0.83333 -0.63100
C 	C 	0.33333 0.18867 0.16667 0.73600
N 	N 	0.33333 0.11557 0.16667 -0.63000
C 	C 	0.47800 0.47800 0.50000 0.73600
N 	N 	0.55110 0.55110 0.50000 -0.63000
C 	C 	0.14467 0.81133 0.83333 0.73600
N 	N 	0.21777 0.88443 0.83333 -0.63000
C 	C 	0.81133 0.14467 0.16667 0.73600
N 	N 	0.88443 0.21777 0.16667 -0.63000
C 	C 	0.47800 0.00000 0.50000 0.73700
N 	N 	0.55110 0.00000 0.50000 -0.63200
C 	C 	0.14467 0.33333 0.83333 0.73600
N 	N 	0.21777 0.33333 0.83333 -0.63000
C 	C 	0.81133 0.66667 0.16667 0.73700
N 	N 	0.88443 0.66667 0.16667 -0.63100
C 	C 	-0.00000 0.47800 0.50000 0.73700
N 	N 	-0.00000 0.55110 0.50000 -0.63200
C 	C 	0.66667 0.81133 0.83333 0.73700
N 	N 	0.66667 0.88443 0.83333 -0.63100
C 	C 	0.33333 0.14467 0.16667 0.73600
N 	N 	0.33333 0.21777 0.16667 -0.63000
C 	C 	0.52200 0.52200 0.50000 0.73600
N 	N 	0.44890 0.44890 0.50000 -0.63000
C 	C 	0.18867 0.85533 0.83333 0.73600
N 	N 	0.11557 0.78223 0.83333 -0.63100
C 	C 	0.85533 0.18867 0.16667 0.73600
N 	N 	0.78223 0.11557 0.16667 -0.63100
