data_crystal

_cell_length_a 21.87900
_cell_length_b 23.70100
_cell_length_c 19.68700
_cell_angle_alpha 90.00000
_cell_angle_beta  90.00000
_cell_angle_gamma 90.00000

_symmetry_space_group_name_	'P 1'
_symmetry_space_group_name_H-M	'P 1'

loop_
_symmetry_equiv_pos_as_xyz
  x,y,z

loop_
_atom_site_label
_atom_site_type_symbol
_atom_site_fract_x
_atom_site_fract_y
_atom_site_fract_z
_atom_site_charge
Co	Co	0.12550 0.67709 0.51616 1.16400
C 	C 	0.24010 0.66700 0.60130 0.08000
H 	H 	0.25240 0.69320 0.56880 -0.00700
C 	C 	0.17130 0.60550 0.64120 0.05700
H 	H 	0.13390 0.58730 0.63640 -0.00600
C 	C 	0.28200 0.65340 0.65370 0.06300
H 	H 	0.32000 0.67090 0.65590 0.00600
C 	C 	0.20830 0.59090 0.69370 -0.04100
H 	H 	0.19490 0.56470 0.72550 0.04400
C 	C 	0.26550 0.61440 0.70050 0.01300
C 	C 	0.30650 0.59700 0.75610 0.10900
C 	C 	0.38180 0.59660 0.82990 0.03900
C 	C 	0.34830 0.54680 0.83560 -0.01900
C 	C 	0.43730 0.61430 0.86320 0.05500
C 	C 	0.45300 0.66960 0.87460 -0.01900
H 	H 	0.42770 0.69810 0.85820 0.03000
C 	C 	0.48260 0.57560 0.88320 -0.04300
H 	H 	0.47640 0.53750 0.87430 0.03700
C 	C 	0.50400 0.68370 0.90890 -0.00300
H 	H 	0.51050 0.72170 0.91820 0.01800
C 	C 	0.53490 0.59110 0.91470 0.00000
H 	H 	0.56410 0.56420 0.92610 0.01500
C 	C 	0.35520 0.49720 0.87840 0.14200
C 	C 	0.41210 0.47200 0.89130 -0.06700
H 	H 	0.44770 0.48780 0.87380 0.04400
C 	C 	0.30480 0.47060 0.90970 -0.07800
H 	H 	0.26600 0.48610 0.90500 0.05900
C 	C 	0.41480 0.42380 0.93000 0.00400
H 	H 	0.45260 0.40630 0.93540 0.02000
C 	C 	0.31240 0.42250 0.94670 0.00100
H 	H 	0.27810 0.40390 0.96340 0.02300
C 	C 	0.28480 0.70020 0.35280 0.01100
H 	H 	0.26340 0.66720 0.36200 0.02400
C 	C 	0.32980 0.69990 0.30460 -0.02800
H 	H 	0.33930 0.66680 0.28160 0.02700
C 	C 	0.44000 0.70120 0.21670 -0.04200
H 	H 	0.42950 0.66770 0.23820 0.03400
C 	C 	0.48460 0.70020 0.16810 0.01800
H 	H 	0.50320 0.66630 0.15630 0.02000
N 	N 	0.18707 0.64600 0.59550 -0.21700
N 	N 	0.35390 0.62720 0.78010 -0.20600
H 	H 	0.36470 0.66020 0.76640 0.11400
N 	N 	0.30030 0.54950 0.78960 -0.12400
N 	N 	0.54477 0.64810 0.92990 -0.22100
N 	N 	0.36762 0.40120 0.95970 -0.24400
O 	O 	0.20197 0.70307 0.46180 -0.44600
O 	O 	0.56734 0.79658 0.05970 -0.45000
C 	C 	0.22500 0.68210 0.62220 -0.03900
H 	H 	0.22850 0.71740 0.60200 0.02500
C 	C 	0.19290 0.59410 0.61880 -0.01500
H 	H 	0.16800 0.56700 0.59870 0.01300
C 	C 	0.26170 0.67050 0.68080 -0.15900
H 	H 	0.28180 0.69900 0.70440 0.07400
C 	C 	0.22970 0.57610 0.66730 -0.06200
H 	H 	0.23120 0.53800 0.67860 0.04800
C 	C 	0.48120 0.64690 0.83340 -0.12200
H 	H 	0.47560 0.65820 0.78860 0.06600
C 	C 	0.44870 0.60040 0.93190 -0.09000
H 	H 	0.42090 0.57740 0.95450 0.04900
C 	C 	0.53240 0.66330 0.86580 0.06900
H 	H 	0.56020 0.68610 0.84290 -0.00000
C 	C 	0.49770 0.61890 0.96560 0.03700
H 	H 	0.50110 0.61280 0.01210 0.00700
C 	C 	0.37120 0.50170 0.94380 -0.16700
H 	H 	0.37930 0.53650 0.96360 0.07900
C 	C 	0.34830 0.44240 0.85010 -0.14300
H 	H 	0.34130 0.43730 0.80390 0.08300
C 	C 	0.37510 0.45190 0.98100 0.12000
H 	H 	0.38420 0.45590 0.02690 -0.03200
C 	C 	0.35250 0.39740 0.89350 0.08800
H 	H 	0.34440 0.36170 0.87610 0.00000
C 	C 	0.30440 0.70150 0.37640 -0.01400
H 	H 	0.29680 0.66870 0.40100 0.03100
C 	C 	0.34960 0.70190 0.32760 -0.05400
H 	H 	0.37230 0.66940 0.31980 0.03800
C 	C 	0.41910 0.70320 0.19400 -0.04900
H 	H 	0.39370 0.67190 0.19790 0.03600
C 	C 	0.46560 0.70370 0.14770 -0.00800
H 	H 	0.47290 0.67120 0.12250 0.02600
Co	Co	0.37450 0.32291 0.01616 1.16200
C 	C 	0.25990 0.33300 0.10130 0.07900
H 	H 	0.24760 0.30680 0.06880 -0.00800
C 	C 	0.32870 0.39450 0.14120 0.05600
H 	H 	0.36610 0.41270 0.13640 -0.00700
C 	C 	0.21800 0.34660 0.15370 0.06200
H 	H 	0.18000 0.32910 0.15590 0.00500
C 	C 	0.29170 0.40910 0.19370 -0.04200
H 	H 	0.30510 0.43530 0.22550 0.04300
C 	C 	0.23450 0.38560 0.20050 0.01200
C 	C 	0.19350 0.40300 0.25610 0.10800
C 	C 	0.11820 0.40340 0.32990 0.03800
C 	C 	0.15170 0.45320 0.33560 -0.02000
C 	C 	0.06270 0.38570 0.36320 0.05400
C 	C 	0.04700 0.33040 0.37460 -0.02100
H 	H 	0.07230 0.30190 0.35820 0.03000
C 	C 	0.01740 0.42440 0.38320 -0.04500
H 	H 	0.02360 0.46250 0.37430 0.03600
C 	C 	0.99600 0.31630 0.40890 -0.00300
H 	H 	0.98950 0.27830 0.41820 0.01700
C 	C 	0.96510 0.40890 0.41470 -0.00000
H 	H 	0.93590 0.43580 0.42610 0.01400
C 	C 	0.14480 0.50280 0.37840 0.14000
C 	C 	0.08790 0.52800 0.39130 -0.06900
H 	H 	0.05230 0.51220 0.37380 0.04500
C 	C 	0.19520 0.52940 0.40970 -0.07900
H 	H 	0.23400 0.51390 0.40500 0.06000
C 	C 	0.08520 0.57620 0.43000 0.00600
H 	H 	0.04740 0.59370 0.43540 0.01900
C 	C 	0.18760 0.57750 0.44670 0.00200
H 	H 	0.22190 0.59610 0.46340 0.02200
C 	C 	0.21520 0.29980 0.85280 0.01200
H 	H 	0.23660 0.33280 0.86200 0.02300
C 	C 	0.17020 0.30010 0.80460 -0.02600
H 	H 	0.16070 0.33320 0.78160 0.02600
C 	C 	0.06000 0.29880 0.71670 -0.04400
H 	H 	0.07050 0.33230 0.73820 0.03500
C 	C 	0.01540 0.29980 0.66810 0.01700
H 	H 	0.99680 0.33370 0.65630 0.02000
N 	N 	0.31293 0.35400 0.09550 -0.21700
N 	N 	0.14610 0.37280 0.28010 -0.20600
H 	H 	0.13530 0.33980 0.26640 0.11300
N 	N 	0.19970 0.45050 0.28960 -0.12400
N 	N 	0.95523 0.35190 0.42990 -0.22100
N 	N 	0.13238 0.59880 0.45970 -0.24400
O 	O 	0.29803 0.29693 0.96180 -0.44600
O 	O 	0.93266 0.20342 0.55970 -0.45100
C 	C 	0.27500 0.31790 0.12220 -0.03900
H 	H 	0.27150 0.28260 0.10200 0.02400
C 	C 	0.30710 0.40590 0.11880 -0.01500
H 	H 	0.33200 0.43300 0.09870 0.01300
C 	C 	0.23830 0.32950 0.18080 -0.15900
H 	H 	0.21820 0.30100 0.20440 0.07400
C 	C 	0.27030 0.42390 0.16730 -0.06200
H 	H 	0.26880 0.46200 0.17860 0.04800
C 	C 	0.01880 0.35310 0.33340 -0.12200
H 	H 	0.02440 0.34180 0.28860 0.06500
C 	C 	0.05130 0.39960 0.43190 -0.09000
H 	H 	0.07910 0.42260 0.45450 0.04900
C 	C 	0.96760 0.33670 0.36580 0.06800
H 	H 	0.93980 0.31390 0.34290 -0.00000
C 	C 	0.00230 0.38110 0.46560 0.03700
H 	H 	0.99890 0.38720 0.51210 0.00600
C 	C 	0.12880 0.49830 0.44380 -0.16500
H 	H 	0.12070 0.46350 0.46360 0.07800
C 	C 	0.15170 0.55760 0.35010 -0.14200
H 	H 	0.15870 0.56270 0.30390 0.08200
C 	C 	0.12490 0.54810 0.48100 0.11800
H 	H 	0.11580 0.54410 0.52690 -0.03100
C 	C 	0.14750 0.60260 0.39350 0.08600
H 	H 	0.15560 0.63830 0.37610 0.00100
C 	C 	0.19560 0.29850 0.87640 -0.01500
H 	H 	0.20320 0.33130 0.90100 0.03200
C 	C 	0.15040 0.29810 0.82760 -0.05500
H 	H 	0.12770 0.33060 0.81980 0.03800
C 	C 	0.08090 0.29680 0.69400 -0.04800
H 	H 	0.10630 0.32810 0.69790 0.03600
C 	C 	0.03440 0.29630 0.64770 -0.00500
H 	H 	0.02710 0.32880 0.62250 0.02500
Co	Co	0.87450 0.17709 0.48384 1.16300
C 	C 	0.75990 0.16700 0.39870 0.07900
H 	H 	0.74760 0.19320 0.43120 -0.00800
C 	C 	0.82870 0.10550 0.35880 0.05600
H 	H 	0.86610 0.08730 0.36360 -0.00700
C 	C 	0.71800 0.15340 0.34630 0.06200
H 	H 	0.68000 0.17090 0.34410 0.00500
C 	C 	0.79170 0.09090 0.30630 -0.04200
H 	H 	0.80510 0.06470 0.27450 0.04300
C 	C 	0.73450 0.11440 0.29950 0.01200
C 	C 	0.69350 0.09700 0.24390 0.10800
C 	C 	0.61820 0.09660 0.17010 0.04000
C 	C 	0.65170 0.04680 0.16440 -0.02300
C 	C 	0.56270 0.11430 0.13680 0.05300
C 	C 	0.54700 0.16960 0.12540 -0.01800
H 	H 	0.57230 0.19810 0.14180 0.02900
C 	C 	0.51740 0.07560 0.11680 -0.04500
H 	H 	0.52360 0.03750 0.12570 0.03600
C 	C 	0.49600 0.18370 0.09110 -0.00600
H 	H 	0.48950 0.22170 0.08180 0.01800
C 	C 	0.46510 0.09110 0.08530 -0.00100
H 	H 	0.43590 0.06420 0.07390 0.01500
C 	C 	0.64480 0.99720 0.12160 0.14700
C 	C 	0.58790 0.97200 0.10870 -0.05900
H 	H 	0.55230 0.98780 0.12620 0.04100
C 	C 	0.69520 0.97060 0.09030 -0.07100
H 	H 	0.73400 0.98610 0.09500 0.05700
C 	C 	0.58520 0.92380 0.07000 -0.00700
H 	H 	0.54740 0.90630 0.06460 0.02400
C 	C 	0.68760 0.92250 0.05330 -0.00900
H 	H 	0.72190 0.90390 0.03660 0.02700
C 	C 	0.71520 0.20020 0.64720 0.01100
H 	H 	0.73660 0.16720 0.63800 0.02400
C 	C 	0.67020 0.19990 0.69540 -0.02800
H 	H 	0.66070 0.16680 0.71840 0.02700
C 	C 	0.56000 0.20120 0.78330 -0.04200
H 	H 	0.57050 0.16770 0.76180 0.03400
C 	C 	0.51540 0.20020 0.83190 0.01800
H 	H 	0.49680 0.16630 0.84370 0.02000
N 	N 	0.81293 0.14600 0.40450 -0.21700
N 	N 	0.64610 0.12720 0.21990 -0.20600
H 	H 	0.63530 0.16020 0.23360 0.11400
N 	N 	0.69970 0.04950 0.21040 -0.12400
N 	N 	0.45523 0.14810 0.07010 -0.22100
N 	N 	0.63238 0.90120 0.04030 -0.24500
O 	O 	0.79803 0.20307 0.53820 -0.44600
O 	O 	0.43266 0.29658 0.94030 -0.45100
C 	C 	0.77500 0.18210 0.37780 -0.03900
H 	H 	0.77150 0.21740 0.39800 0.02500
C 	C 	0.80710 0.09410 0.38120 -0.01500
H 	H 	0.83200 0.06700 0.40130 0.01300
C 	C 	0.73830 0.17050 0.31920 -0.15900
H 	H 	0.71820 0.19900 0.29560 0.07400
C 	C 	0.77030 0.07610 0.33270 -0.06200
H 	H 	0.76880 0.03800 0.32140 0.04800
C 	C 	0.51880 0.14690 0.16660 -0.12300
H 	H 	0.52440 0.15820 0.21140 0.06600
C 	C 	0.55130 0.10040 0.06810 -0.08800
H 	H 	0.57910 0.07740 0.04550 0.04700
C 	C 	0.46760 0.16330 0.13420 0.07000
H 	H 	0.43980 0.18610 0.15710 -0.00100
C 	C 	0.50230 0.11890 0.03440 0.03500
H 	H 	0.49890 0.11280 0.98790 0.00700
C 	C 	0.62880 0.00170 0.05620 -0.18400
H 	H 	0.62070 0.03650 0.03640 0.08500
C 	C 	0.65170 0.94240 0.14990 -0.15400
H 	H 	0.65870 0.93730 0.19610 0.08600
C 	C 	0.62490 0.95190 0.01900 0.13700
H 	H 	0.61580 0.95590 0.97310 -0.03800
C 	C 	0.64750 0.89740 0.10650 0.09900
H 	H 	0.65560 0.86170 0.12390 -0.00400
C 	C 	0.69560 0.20150 0.62360 -0.01400
H 	H 	0.70320 0.16870 0.59900 0.03100
C 	C 	0.65040 0.20190 0.67240 -0.05400
H 	H 	0.62770 0.16940 0.68020 0.03800
C 	C 	0.58090 0.20320 0.80600 -0.04900
H 	H 	0.60630 0.17190 0.80210 0.03600
C 	C 	0.53440 0.20370 0.85230 -0.00800
H 	H 	0.52710 0.17120 0.87750 0.02600
Co	Co	0.62550 0.82291 0.98384 1.16200
C 	C 	0.74010 0.83300 0.89870 0.07900
H 	H 	0.75240 0.80680 0.93120 -0.00800
C 	C 	0.67130 0.89450 0.85880 0.05700
H 	H 	0.63390 0.91270 0.86360 -0.00800
C 	C 	0.78200 0.84660 0.84630 0.06200
H 	H 	0.82000 0.82910 0.84410 0.00500
C 	C 	0.70830 0.90910 0.80630 -0.04100
H 	H 	0.69490 0.93530 0.77450 0.04300
C 	C 	0.76550 0.88560 0.79950 0.01200
C 	C 	0.80650 0.90300 0.74390 0.10800
C 	C 	0.88180 0.90340 0.67010 0.03800
C 	C 	0.84830 0.95320 0.66440 -0.02000
C 	C 	0.93730 0.88570 0.63680 0.05400
C 	C 	0.95300 0.83040 0.62540 -0.02100
H 	H 	0.92770 0.80190 0.64180 0.03000
C 	C 	0.98260 0.92440 0.61680 -0.04500
H 	H 	0.97640 0.96250 0.62570 0.03600
C 	C 	0.00400 0.81630 0.59110 -0.00300
H 	H 	0.01050 0.77830 0.58180 0.01700
C 	C 	0.03490 0.90890 0.58530 -0.00100
H 	H 	0.06410 0.93580 0.57390 0.01400
C 	C 	0.85520 0.00280 0.62160 0.14100
C 	C 	0.91210 0.02800 0.60870 -0.06900
H 	H 	0.94770 0.01220 0.62620 0.04500
C 	C 	0.80480 0.02940 0.59030 -0.07900
H 	H 	0.76600 0.01390 0.59500 0.06000
C 	C 	0.91480 0.07620 0.57000 0.00500
H 	H 	0.95260 0.09370 0.56460 0.01900
C 	C 	0.81240 0.07750 0.55330 0.00200
H 	H 	0.77810 0.09610 0.53660 0.02300
C 	C 	0.78480 0.79980 0.14720 0.01200
H 	H 	0.76340 0.83280 0.13800 0.02300
C 	C 	0.82980 0.80010 0.19540 -0.02600
H 	H 	0.83930 0.83320 0.21840 0.02600
C 	C 	0.94000 0.79880 0.28330 -0.04400
H 	H 	0.92950 0.83230 0.26180 0.03500
C 	C 	0.98460 0.79980 0.33190 0.01700
H 	H 	0.00320 0.83370 0.34370 0.02000
N 	N 	0.68707 0.85400 0.90450 -0.21700
N 	N 	0.85390 0.87280 0.71990 -0.20600
H 	H 	0.86470 0.83980 0.73360 0.11300
N 	N 	0.80030 0.95050 0.71040 -0.12400
N 	N 	0.04477 0.85190 0.57010 -0.22100
N 	N 	0.86762 0.09880 0.54030 -0.24400
O 	O 	0.70197 0.79693 0.03820 -0.44600
O 	O 	0.06734 0.70342 0.44030 -0.45100
C 	C 	0.72500 0.81790 0.87780 -0.03900
H 	H 	0.72850 0.78260 0.89800 0.02400
C 	C 	0.69290 0.90590 0.88120 -0.01600
H 	H 	0.66800 0.93300 0.90130 0.01300
C 	C 	0.76170 0.82950 0.81920 -0.15900
H 	H 	0.78180 0.80100 0.79560 0.07400
C 	C 	0.72970 0.92390 0.83270 -0.06300
H 	H 	0.73120 0.96200 0.82140 0.04800
C 	C 	0.98120 0.85310 0.66660 -0.12100
H 	H 	0.97560 0.84180 0.71140 0.06500
C 	C 	0.94870 0.89960 0.56810 -0.09000
H 	H 	0.92090 0.92260 0.54550 0.04900
C 	C 	0.03240 0.83670 0.63420 0.06800
H 	H 	0.06020 0.81390 0.65710 0.00000
C 	C 	0.99770 0.88110 0.53440 0.03800
H 	H 	0.00110 0.88720 0.48790 0.00600
C 	C 	0.87120 0.99830 0.55620 -0.16600
H 	H 	0.87930 0.96350 0.53640 0.07800
C 	C 	0.84830 0.05760 0.64990 -0.14300
H 	H 	0.84130 0.06270 0.69610 0.08200
C 	C 	0.87510 0.04810 0.51900 0.11900
H 	H 	0.88420 0.04410 0.47310 -0.03100
C 	C 	0.85250 0.10260 0.60650 0.08700
H 	H 	0.84440 0.13830 0.62390 0.00100
C 	C 	0.80440 0.79850 0.12360 -0.01500
H 	H 	0.79680 0.83130 0.09900 0.03200
C 	C 	0.84960 0.79810 0.17240 -0.05500
H 	H 	0.87230 0.83060 0.18020 0.03800
C 	C 	0.91910 0.79680 0.30600 -0.04800
H 	H 	0.89370 0.82810 0.30210 0.03600
C 	C 	0.96560 0.79630 0.35230 -0.00500
H 	H 	0.97290 0.82880 0.37750 0.02500
Co	Co	0.87450 0.32291 0.48384 1.16300
C 	C 	0.75990 0.33300 0.39870 0.07900
H 	H 	0.74760 0.30680 0.43120 -0.00800
C 	C 	0.82870 0.39450 0.35880 0.05600
H 	H 	0.86610 0.41270 0.36360 -0.00700
C 	C 	0.71800 0.34660 0.34630 0.06200
H 	H 	0.68000 0.32910 0.34410 0.00500
C 	C 	0.79170 0.40910 0.30630 -0.04200
H 	H 	0.80510 0.43530 0.27450 0.04300
C 	C 	0.73450 0.38560 0.29950 0.01200
C 	C 	0.69350 0.40300 0.24390 0.10800
C 	C 	0.61820 0.40340 0.17010 0.03800
C 	C 	0.65170 0.45320 0.16440 -0.02000
C 	C 	0.56270 0.38570 0.13680 0.05400
C 	C 	0.54700 0.33040 0.12540 -0.02000
H 	H 	0.57230 0.30190 0.14180 0.02900
C 	C 	0.51740 0.42440 0.11680 -0.04400
H 	H 	0.52360 0.46250 0.12570 0.03600
C 	C 	0.49600 0.31630 0.09110 -0.00400
H 	H 	0.48950 0.27830 0.08180 0.01700
C 	C 	0.46510 0.40890 0.08530 -0.00100
H 	H 	0.43590 0.43580 0.07390 0.01400
C 	C 	0.64480 0.50280 0.12160 0.14100
C 	C 	0.58790 0.52800 0.10870 -0.06800
H 	H 	0.55230 0.51220 0.12620 0.04400
C 	C 	0.69520 0.52940 0.09030 -0.07800
H 	H 	0.73400 0.51390 0.09500 0.05900
C 	C 	0.58520 0.57620 0.07000 0.00400
H 	H 	0.54740 0.59370 0.06460 0.02000
C 	C 	0.68760 0.57750 0.05330 0.00100
H 	H 	0.72190 0.59610 0.03660 0.02300
C 	C 	0.71520 0.29980 0.64720 0.01100
H 	H 	0.73660 0.33280 0.63800 0.02400
C 	C 	0.67020 0.30010 0.69540 -0.02800
H 	H 	0.66070 0.33320 0.71840 0.02700
C 	C 	0.56000 0.29880 0.78330 -0.04200
H 	H 	0.57050 0.33230 0.76180 0.03400
C 	C 	0.51540 0.29980 0.83190 0.01800
H 	H 	0.49680 0.33370 0.84370 0.02000
N 	N 	0.81293 0.35400 0.40450 -0.21700
N 	N 	0.64610 0.37280 0.21990 -0.20600
H 	H 	0.63530 0.33980 0.23360 0.11400
N 	N 	0.69970 0.45050 0.21040 -0.12400
N 	N 	0.45523 0.35190 0.07010 -0.22100
N 	N 	0.63238 0.59880 0.04030 -0.24400
O 	O 	0.79803 0.29693 0.53820 -0.44600
O 	O 	0.43266 0.20342 0.94030 -0.45000
C 	C 	0.77500 0.31790 0.37780 -0.03900
H 	H 	0.77150 0.28260 0.39800 0.02500
C 	C 	0.80710 0.40590 0.38120 -0.01500
H 	H 	0.83200 0.43300 0.40130 0.01300
C 	C 	0.73830 0.32950 0.31920 -0.15900
H 	H 	0.71820 0.30100 0.29560 0.07400
C 	C 	0.77030 0.42390 0.33270 -0.06200
H 	H 	0.76880 0.46200 0.32140 0.04800
C 	C 	0.51880 0.35310 0.16660 -0.12200
H 	H 	0.52440 0.34180 0.21140 0.06600
C 	C 	0.55130 0.39960 0.06810 -0.09000
H 	H 	0.57910 0.42260 0.04550 0.04900
C 	C 	0.46760 0.33670 0.13420 0.06900
H 	H 	0.43980 0.31390 0.15710 -0.00000
C 	C 	0.50230 0.38110 0.03440 0.03700
H 	H 	0.49890 0.38720 0.98790 0.00700
C 	C 	0.62880 0.49830 0.05620 -0.16700
H 	H 	0.62070 0.46350 0.03640 0.07900
C 	C 	0.65170 0.55760 0.14990 -0.14300
H 	H 	0.65870 0.56270 0.19610 0.08300
C 	C 	0.62490 0.54810 0.01900 0.12000
H 	H 	0.61580 0.54410 0.97310 -0.03200
C 	C 	0.64750 0.60260 0.10650 0.08800
H 	H 	0.65560 0.63830 0.12390 0.00000
C 	C 	0.69560 0.29850 0.62360 -0.01400
H 	H 	0.70320 0.33130 0.59900 0.03100
C 	C 	0.65040 0.29810 0.67240 -0.05400
H 	H 	0.62770 0.33060 0.68020 0.03800
C 	C 	0.58090 0.29680 0.80600 -0.04900
H 	H 	0.60630 0.32810 0.80210 0.03600
C 	C 	0.53440 0.29630 0.85230 -0.00800
H 	H 	0.52710 0.32880 0.87750 0.02600
Co	Co	0.62550 0.67709 0.98384 1.16200
C 	C 	0.74010 0.66700 0.89870 0.07900
H 	H 	0.75240 0.69320 0.93120 -0.00800
C 	C 	0.67130 0.60550 0.85880 0.05600
H 	H 	0.63390 0.58730 0.86360 -0.00700
C 	C 	0.78200 0.65340 0.84630 0.06200
H 	H 	0.82000 0.67090 0.84410 0.00500
C 	C 	0.70830 0.59090 0.80630 -0.04200
H 	H 	0.69490 0.56470 0.77450 0.04300
C 	C 	0.76550 0.61440 0.79950 0.01200
C 	C 	0.80650 0.59700 0.74390 0.10800
C 	C 	0.88180 0.59660 0.67010 0.03800
C 	C 	0.84830 0.54680 0.66440 -0.02000
C 	C 	0.93730 0.61430 0.63680 0.05400
C 	C 	0.95300 0.66960 0.62540 -0.02100
H 	H 	0.92770 0.69810 0.64180 0.03000
C 	C 	0.98260 0.57560 0.61680 -0.04500
H 	H 	0.97640 0.53750 0.62570 0.03600
C 	C 	0.00400 0.68370 0.59110 -0.00300
H 	H 	0.01050 0.72170 0.58180 0.01700
C 	C 	0.03490 0.59110 0.58530 -0.00000
H 	H 	0.06410 0.56420 0.57390 0.01400
C 	C 	0.85520 0.49720 0.62160 0.14000
C 	C 	0.91210 0.47200 0.60870 -0.06900
H 	H 	0.94770 0.48780 0.62620 0.04500
C 	C 	0.80480 0.47060 0.59030 -0.07900
H 	H 	0.76600 0.48610 0.59500 0.06000
C 	C 	0.91480 0.42380 0.57000 0.00600
H 	H 	0.95260 0.40630 0.56460 0.01900
C 	C 	0.81240 0.42250 0.55330 0.00200
H 	H 	0.77810 0.40390 0.53660 0.02200
C 	C 	0.78480 0.70020 0.14720 0.01200
H 	H 	0.76340 0.66720 0.13800 0.02300
C 	C 	0.82980 0.69990 0.19540 -0.02600
H 	H 	0.83930 0.66680 0.21840 0.02600
C 	C 	0.94000 0.70120 0.28330 -0.04400
H 	H 	0.92950 0.66770 0.26180 0.03500
C 	C 	0.98460 0.70020 0.33190 0.01700
H 	H 	0.00320 0.66630 0.34370 0.02000
N 	N 	0.68707 0.64600 0.90450 -0.21700
N 	N 	0.85390 0.62720 0.71990 -0.20600
H 	H 	0.86470 0.66020 0.73360 0.11300
N 	N 	0.80030 0.54950 0.71040 -0.12400
N 	N 	0.04477 0.64810 0.57010 -0.22100
N 	N 	0.86762 0.40120 0.54030 -0.24400
O 	O 	0.70197 0.70307 0.03820 -0.44600
O 	O 	0.06734 0.79658 0.44030 -0.45100
C 	C 	0.72500 0.68210 0.87780 -0.03900
H 	H 	0.72850 0.71740 0.89800 0.02400
C 	C 	0.69290 0.59410 0.88120 -0.01500
H 	H 	0.66800 0.56700 0.90130 0.01300
C 	C 	0.76170 0.67050 0.81920 -0.15900
H 	H 	0.78180 0.69900 0.79560 0.07400
C 	C 	0.72970 0.57610 0.83270 -0.06200
H 	H 	0.73120 0.53800 0.82140 0.04800
C 	C 	0.98120 0.64690 0.66660 -0.12200
H 	H 	0.97560 0.65820 0.71140 0.06500
C 	C 	0.94870 0.60040 0.56810 -0.09000
H 	H 	0.92090 0.57740 0.54550 0.04900
C 	C 	0.03240 0.66330 0.63420 0.06800
H 	H 	0.06020 0.68610 0.65710 -0.00000
C 	C 	0.99770 0.61890 0.53440 0.03700
H 	H 	0.00110 0.61280 0.48790 0.00600
C 	C 	0.87120 0.50170 0.55620 -0.16500
H 	H 	0.87930 0.53650 0.53640 0.07800
C 	C 	0.84830 0.44240 0.64990 -0.14200
H 	H 	0.84130 0.43730 0.69610 0.08200
C 	C 	0.87510 0.45190 0.51900 0.11800
H 	H 	0.88420 0.45590 0.47310 -0.03100
C 	C 	0.85250 0.39740 0.60650 0.08600
H 	H 	0.84440 0.36170 0.62390 0.00100
C 	C 	0.80440 0.70150 0.12360 -0.01500
H 	H 	0.79680 0.66870 0.09900 0.03200
C 	C 	0.84960 0.70190 0.17240 -0.05500
H 	H 	0.87230 0.66940 0.18020 0.03800
C 	C 	0.91910 0.70320 0.30600 -0.04800
H 	H 	0.89370 0.67190 0.30210 0.03600
C 	C 	0.96560 0.70370 0.35230 -0.00500
H 	H 	0.97290 0.67120 0.37750 0.02500
Co	Co	0.12550 0.82291 0.51616 1.16300
C 	C 	0.24010 0.83300 0.60130 0.07900
H 	H 	0.25240 0.80680 0.56880 -0.00800
C 	C 	0.17130 0.89450 0.64120 0.05600
H 	H 	0.13390 0.91270 0.63640 -0.00700
C 	C 	0.28200 0.84660 0.65370 0.06200
H 	H 	0.32000 0.82910 0.65590 0.00500
C 	C 	0.20830 0.90910 0.69370 -0.04200
H 	H 	0.19490 0.93530 0.72550 0.04300
C 	C 	0.26550 0.88560 0.70050 0.01200
C 	C 	0.30650 0.90300 0.75610 0.10800
C 	C 	0.38180 0.90340 0.82990 0.04000
C 	C 	0.34830 0.95320 0.83560 -0.02300
C 	C 	0.43730 0.88570 0.86320 0.05300
C 	C 	0.45300 0.83040 0.87460 -0.01800
H 	H 	0.42770 0.80190 0.85820 0.02900
C 	C 	0.48260 0.92440 0.88320 -0.04500
H 	H 	0.47640 0.96250 0.87430 0.03600
C 	C 	0.50400 0.81630 0.90890 -0.00600
H 	H 	0.51050 0.77830 0.91820 0.01800
C 	C 	0.53490 0.90890 0.91470 -0.00100
H 	H 	0.56410 0.93580 0.92610 0.01500
C 	C 	0.35520 0.00280 0.87840 0.14700
C 	C 	0.41210 0.02800 0.89130 -0.05900
H 	H 	0.44770 0.01220 0.87380 0.04100
C 	C 	0.30480 0.02940 0.90970 -0.07100
H 	H 	0.26600 0.01390 0.90500 0.05700
C 	C 	0.41480 0.07620 0.93000 -0.00700
H 	H 	0.45260 0.09370 0.93540 0.02400
C 	C 	0.31240 0.07750 0.94670 -0.00900
H 	H 	0.27810 0.09610 0.96340 0.02700
C 	C 	0.28480 0.79980 0.35280 0.01100
H 	H 	0.26340 0.83280 0.36200 0.02400
C 	C 	0.32980 0.80010 0.30460 -0.02800
H 	H 	0.33930 0.83320 0.28160 0.02700
C 	C 	0.44000 0.79880 0.21670 -0.04200
H 	H 	0.42950 0.83230 0.23820 0.03400
C 	C 	0.48460 0.79980 0.16810 0.01800
H 	H 	0.50320 0.83370 0.15630 0.02000
N 	N 	0.18707 0.85400 0.59550 -0.21700
N 	N 	0.35390 0.87280 0.78010 -0.20600
H 	H 	0.36470 0.83980 0.76640 0.11400
N 	N 	0.30030 0.95050 0.78960 -0.12400
N 	N 	0.54477 0.85190 0.92990 -0.22100
N 	N 	0.36762 0.09880 0.95970 -0.24500
O 	O 	0.20197 0.79693 0.46180 -0.44600
O 	O 	0.56734 0.70342 0.05970 -0.45100
C 	C 	0.22500 0.81790 0.62220 -0.03900
H 	H 	0.22850 0.78260 0.60200 0.02500
C 	C 	0.19290 0.90590 0.61880 -0.01500
H 	H 	0.16800 0.93300 0.59870 0.01300
C 	C 	0.26170 0.82950 0.68080 -0.15900
H 	H 	0.28180 0.80100 0.70440 0.07400
C 	C 	0.22970 0.92390 0.66730 -0.06200
H 	H 	0.23120 0.96200 0.67860 0.04800
C 	C 	0.48120 0.85310 0.83340 -0.12300
H 	H 	0.47560 0.84180 0.78860 0.06600
C 	C 	0.44870 0.89960 0.93190 -0.08800
H 	H 	0.42090 0.92260 0.95450 0.04700
C 	C 	0.53240 0.83670 0.86580 0.07000
H 	H 	0.56020 0.81390 0.84290 -0.00100
C 	C 	0.49770 0.88110 0.96560 0.03500
H 	H 	0.50110 0.88720 0.01210 0.00700
C 	C 	0.37120 0.99830 0.94380 -0.18400
H 	H 	0.37930 0.96350 0.96360 0.08500
C 	C 	0.34830 0.05760 0.85010 -0.15400
H 	H 	0.34130 0.06270 0.80390 0.08600
C 	C 	0.37510 0.04810 0.98100 0.13700
H 	H 	0.38420 0.04410 0.02690 -0.03800
C 	C 	0.35250 0.10260 0.89350 0.09900
H 	H 	0.34440 0.13830 0.87610 -0.00400
C 	C 	0.30440 0.79850 0.37640 -0.01400
H 	H 	0.29680 0.83130 0.40100 0.03100
C 	C 	0.34960 0.79810 0.32760 -0.05400
H 	H 	0.37230 0.83060 0.31980 0.03800
C 	C 	0.41910 0.79680 0.19400 -0.04900
H 	H 	0.39370 0.82810 0.19790 0.03600
C 	C 	0.46560 0.79630 0.14770 -0.00800
H 	H 	0.47290 0.82880 0.12250 0.02600
Co	Co	0.37450 0.17709 0.01616 1.16200
C 	C 	0.25990 0.16700 0.10130 0.07900
H 	H 	0.24760 0.19320 0.06880 -0.00800
C 	C 	0.32870 0.10550 0.14120 0.05700
H 	H 	0.36610 0.08730 0.13640 -0.00800
C 	C 	0.21800 0.15340 0.15370 0.06200
H 	H 	0.18000 0.17090 0.15590 0.00500
C 	C 	0.29170 0.09090 0.19370 -0.04100
H 	H 	0.30510 0.06470 0.22550 0.04300
C 	C 	0.23450 0.11440 0.20050 0.01200
C 	C 	0.19350 0.09700 0.25610 0.10800
C 	C 	0.11820 0.09660 0.32990 0.03800
C 	C 	0.15170 0.04680 0.33560 -0.02000
C 	C 	0.06270 0.11430 0.36320 0.05400
C 	C 	0.04700 0.16960 0.37460 -0.02100
H 	H 	0.07230 0.19810 0.35820 0.03000
C 	C 	0.01740 0.07560 0.38320 -0.04500
H 	H 	0.02360 0.03750 0.37430 0.03600
C 	C 	0.99600 0.18370 0.40890 -0.00300
H 	H 	0.98950 0.22170 0.41820 0.01700
C 	C 	0.96510 0.09110 0.41470 -0.00100
H 	H 	0.93590 0.06420 0.42610 0.01400
C 	C 	0.14480 0.99720 0.37840 0.14100
C 	C 	0.08790 0.97200 0.39130 -0.06900
H 	H 	0.05230 0.98780 0.37380 0.04500
C 	C 	0.19520 0.97060 0.40970 -0.07900
H 	H 	0.23400 0.98610 0.40500 0.06000
C 	C 	0.08520 0.92380 0.43000 0.00500
H 	H 	0.04740 0.90630 0.43540 0.01900
C 	C 	0.18760 0.92250 0.44670 0.00200
H 	H 	0.22190 0.90390 0.46340 0.02300
C 	C 	0.21520 0.20020 0.85280 0.01200
H 	H 	0.23660 0.16720 0.86200 0.02300
C 	C 	0.17020 0.19990 0.80460 -0.02600
H 	H 	0.16070 0.16680 0.78160 0.02600
C 	C 	0.06000 0.20120 0.71670 -0.04400
H 	H 	0.07050 0.16770 0.73820 0.03500
C 	C 	0.01540 0.20020 0.66810 0.01700
H 	H 	0.99680 0.16630 0.65630 0.02000
N 	N 	0.31293 0.14600 0.09550 -0.21700
N 	N 	0.14610 0.12720 0.28010 -0.20600
H 	H 	0.13530 0.16020 0.26640 0.11300
N 	N 	0.19970 0.04950 0.28960 -0.12400
N 	N 	0.95523 0.14810 0.42990 -0.22100
N 	N 	0.13238 0.90120 0.45970 -0.24400
O 	O 	0.29803 0.20307 0.96180 -0.44600
O 	O 	0.93266 0.29658 0.55970 -0.45100
C 	C 	0.27500 0.18210 0.12220 -0.03900
H 	H 	0.27150 0.21740 0.10200 0.02400
C 	C 	0.30710 0.09410 0.11880 -0.01600
H 	H 	0.33200 0.06700 0.09870 0.01300
C 	C 	0.23830 0.17050 0.18080 -0.15900
H 	H 	0.21820 0.19900 0.20440 0.07400
C 	C 	0.27030 0.07610 0.16730 -0.06300
H 	H 	0.26880 0.03800 0.17860 0.04800
C 	C 	0.01880 0.14690 0.33340 -0.12100
H 	H 	0.02440 0.15820 0.28860 0.06500
C 	C 	0.05130 0.10040 0.43190 -0.09000
H 	H 	0.07910 0.07740 0.45450 0.04900
C 	C 	0.96760 0.16330 0.36580 0.06800
H 	H 	0.93980 0.18610 0.34290 0.00000
C 	C 	0.00230 0.11890 0.46560 0.03800
H 	H 	0.99890 0.11280 0.51210 0.00600
C 	C 	0.12880 0.00170 0.44380 -0.16600
H 	H 	0.12070 0.03650 0.46360 0.07800
C 	C 	0.15170 0.94240 0.35010 -0.14300
H 	H 	0.15870 0.93730 0.30390 0.08200
C 	C 	0.12490 0.95190 0.48100 0.11900
H 	H 	0.11580 0.95590 0.52690 -0.03100
C 	C 	0.14750 0.89740 0.39350 0.08700
H 	H 	0.15560 0.86170 0.37610 0.00100
C 	C 	0.19560 0.20150 0.87640 -0.01500
H 	H 	0.20320 0.16870 0.90100 0.03200
C 	C 	0.15040 0.20190 0.82760 -0.05500
H 	H 	0.12770 0.16940 0.81980 0.03800
C 	C 	0.08090 0.20320 0.69400 -0.04800
H 	H 	0.10630 0.17190 0.69790 0.03600
C 	C 	0.03440 0.20370 0.64770 -0.00500
H 	H 	0.02710 0.17120 0.62250 0.02500
C 	C 	0.21990 0.75000 0.44240 0.39600
C 	C 	0.27010 0.75000 0.38890 -0.10100
C 	C 	0.36170 0.75000 0.29010 0.01800
C 	C 	0.41020 0.75000 0.23490 0.02600
C 	C 	0.50210 0.75000 0.13640 -0.11400
C 	C 	0.55000 0.75000 0.08120 0.40500
O 	O 	0.12077 0.75000 0.56860 -0.47100
C 	C 	0.28010 0.25000 0.94240 0.39600
C 	C 	0.22990 0.25000 0.88890 -0.10000
C 	C 	0.13830 0.25000 0.79010 0.01800
C 	C 	0.08980 0.25000 0.73490 0.02700
C 	C 	0.99790 0.25000 0.63640 -0.11600
C 	C 	0.95000 0.25000 0.58120 0.40500
O 	O 	0.37923 0.25000 0.06860 -0.47100
C 	C 	0.78010 0.25000 0.55760 0.39600
C 	C 	0.72990 0.25000 0.61110 -0.10100
C 	C 	0.63830 0.25000 0.70990 0.01800
C 	C 	0.58980 0.25000 0.76510 0.02600
C 	C 	0.49790 0.25000 0.86360 -0.11400
C 	C 	0.45000 0.25000 0.91880 0.40500
O 	O 	0.87923 0.25000 0.43140 -0.47100
C 	C 	0.71990 0.75000 0.05760 0.39600
C 	C 	0.77010 0.75000 0.11110 -0.10000
C 	C 	0.86170 0.75000 0.20990 0.01800
C 	C 	0.91020 0.75000 0.26510 0.02700
C 	C 	0.00210 0.75000 0.36360 -0.11600
C 	C 	0.05000 0.75000 0.41880 0.40500
O 	O 	0.62077 0.75000 0.93140 -0.47100
