data_crystal

_cell_length_a 21.48170
_cell_length_b 23.38670
_cell_length_c 19.87580
_cell_angle_alpha 90.00000
_cell_angle_beta  90.00000
_cell_angle_gamma 90.00000

_symmetry_space_group_name_	'P 1'
_symmetry_space_group_name_H-M	'P 1'

loop_
_symmetry_equiv_pos_as_xyz
  x,y,z

loop_
_atom_site_label
_atom_site_type_symbol
_atom_site_fract_x
_atom_site_fract_y
_atom_site_fract_z
_atom_site_charge
Ni	Ni	0.12714 0.32374 0.01604 1.10100
C 	C 	0.44900 0.39940 0.43180 -0.10700
H 	H 	0.42030 0.42220 0.45420 0.05800
C 	C 	0.50050 0.38130 0.46450 0.05500
H 	H 	0.50450 0.38880 0.51020 0.00300
C 	C 	0.53610 0.33510 0.36910 0.09500
H 	H 	0.56500 0.31200 0.34730 -0.00600
C 	C 	0.48270 0.35090 0.33490 -0.14200
H 	H 	0.47690 0.33850 0.29090 0.07300
C 	C 	0.30120 0.52950 0.40810 -0.10500
H 	H 	0.26140 0.51470 0.40210 0.06800
C 	C 	0.31150 0.57800 0.44660 0.04900
H 	H 	0.27700 0.59690 0.46410 0.00600
C 	C 	0.41440 0.57730 0.43220 0.05800
H 	H 	0.45250 0.59520 0.43930 0.00200
C 	C 	0.41340 0.52860 0.39210 -0.10900
H 	H 	0.45010 0.51330 0.37500 0.06000
C 	C 	0.22910 0.31910 0.11660 -0.04300
H 	H 	0.23610 0.28480 0.09400 0.02600
C 	C 	0.26350 0.33150 0.17610 -0.14300
H 	H 	0.28400 0.30220 0.19880 0.06900
C 	C 	0.18830 0.40440 0.12010 0.04600
H 	H 	0.15920 0.43070 0.10450 -0.00700
C 	C 	0.22800 0.42180 0.16960 0.01800
H 	H 	0.22830 0.45990 0.18280 0.02500
C 	C 	0.30280 0.29990 0.87200 0.00400
H 	H 	0.29140 0.33400 0.89260 0.02500
C 	C 	0.34780 0.30040 0.82400 -0.03800
H 	H 	0.36670 0.33470 0.81210 0.03000
C 	C 	0.49150 0.20220 0.67250 -0.01100
H 	H 	0.51420 0.16920 0.66360 0.03100
C 	C 	0.44740 0.20090 0.72190 -0.06100
H 	H 	0.43990 0.16710 0.74520 0.04100
C 	C 	0.38234 0.40340 0.32840 0.03300
C 	C 	0.34840 0.45277 0.33450 -0.01500
C 	C 	0.30768 0.40263 0.25450 0.10900
C 	C 	0.26664 0.38458 0.19940 0.01300
C 	C 	0.35501 0.50285 0.37770 0.13100
C 	C 	0.43847 0.38417 0.36430 0.06900
N 	N 	0.35554 0.37182 0.27800 -0.20600
H 	H 	0.36720 0.33870 0.26420 0.11400
N 	N 	0.30107 0.45099 0.28720 -0.12600
N 	N 	0.18802 0.35482 0.09353 -0.21400
N 	N 	0.36631 0.59877 0.45997 -0.24000
N 	N 	0.54761 0.35162 0.43147 -0.22500
O 	O 	0.20382 0.29756 0.96274 -0.43300
O 	O 	0.56859 0.20270 0.55845 -0.43700
C 	C 	0.48330 0.42330 0.38260 -0.04700
H 	H 	0.47770 0.46170 0.37240 0.03500
C 	C 	0.53600 0.40620 0.41550 0.00600
H 	H 	0.56510 0.43380 0.42750 0.01000
C 	C 	0.50410 0.31210 0.41380 -0.03400
H 	H 	0.51060 0.27390 0.42460 0.02900
C 	C 	0.45080 0.32750 0.38030 -0.01000
H 	H 	0.42230 0.29940 0.36810 0.02700
C 	C 	0.34630 0.55750 0.35220 -0.11200
H 	H 	0.33650 0.56280 0.30710 0.07200
C 	C 	0.35210 0.60260 0.39340 0.04500
H 	H 	0.34600 0.63880 0.37540 0.01800
C 	C 	0.37380 0.54730 0.48240 0.06000
H 	H 	0.38320 0.54350 0.52780 -0.00900
C 	C 	0.36910 0.49580 0.44460 -0.11900
H 	H 	0.37510 0.46000 0.46380 0.06100
C 	C 	0.24440 0.33560 0.09970 0.07800
H 	H 	0.25930 0.31240 0.06530 -0.00600
C 	C 	0.28310 0.34620 0.15120 0.04700
H 	H 	0.32110 0.32730 0.15390 0.00900
C 	C 	0.16910 0.39100 0.14450 -0.00200
H 	H 	0.12840 0.40460 0.14340 0.01600
C 	C 	0.20610 0.40800 0.19600 -0.12200
H 	H 	0.19220 0.43400 0.22800 0.06900
C 	C 	0.28470 0.29730 0.85190 -0.00200
H 	H 	0.26070 0.32980 0.85890 0.02600
C 	C 	0.32930 0.29800 0.80340 -0.04200
H 	H 	0.33540 0.33080 0.77760 0.03200
C 	C 	0.47090 0.20130 0.65070 0.02000
H 	H 	0.47960 0.16770 0.62760 0.02000
C 	C 	0.42490 0.20120 0.69970 -0.03000
H 	H 	0.40170 0.16820 0.70730 0.02900
Ni	Ni	0.37286 0.67626 0.51604 1.10300
C 	C 	0.05100 0.60060 0.93180 -0.12500
H 	H 	0.07970 0.57780 0.95420 0.06400
C 	C 	0.99950 0.61870 0.96450 0.06900
H 	H 	0.99550 0.61120 0.01020 -0.00000
C 	C 	0.96390 0.66490 0.86910 0.13200
H 	H 	0.93500 0.68800 0.84730 -0.01900
C 	C 	0.01730 0.64910 0.83490 -0.17800
H 	H 	0.02310 0.66150 0.79090 0.08600
C 	C 	0.19880 0.47050 0.90810 -0.10000
H 	H 	0.23860 0.48530 0.90210 0.06700
C 	C 	0.18850 0.42200 0.94660 0.04200
H 	H 	0.22300 0.40310 0.96410 0.01000
C 	C 	0.08560 0.42270 0.93220 0.05000
H 	H 	0.04750 0.40480 0.93930 0.00600
C 	C 	0.08660 0.47140 0.89210 -0.10600
H 	H 	0.04990 0.48670 0.87500 0.06000
C 	C 	0.27090 0.68090 0.61660 -0.04300
H 	H 	0.26390 0.71520 0.59400 0.02700
C 	C 	0.23650 0.66850 0.67610 -0.14400
H 	H 	0.21600 0.69780 0.69880 0.06900
C 	C 	0.31170 0.59560 0.62010 0.04700
H 	H 	0.34080 0.56930 0.60450 -0.00700
C 	C 	0.27200 0.57820 0.66960 0.01900
H 	H 	0.27170 0.54010 0.68280 0.02400
C 	C 	0.19720 0.70010 0.37200 0.00600
H 	H 	0.20860 0.66600 0.39260 0.02400
C 	C 	0.15220 0.69960 0.32400 -0.03700
H 	H 	0.13330 0.66530 0.31210 0.03000
C 	C 	0.00850 0.79780 0.17250 -0.00000
H 	H 	0.98580 0.83080 0.16360 0.03000
C 	C 	0.05260 0.79910 0.22190 -0.04500
H 	H 	0.06010 0.83290 0.24520 0.03500
C 	C 	0.11766 0.59660 0.82840 0.03600
C 	C 	0.15160 0.54723 0.83450 -0.01700
C 	C 	0.19232 0.59737 0.75450 0.10900
C 	C 	0.23336 0.61542 0.69940 0.01300
C 	C 	0.14499 0.49715 0.87770 0.13400
C 	C 	0.06153 0.61583 0.86430 0.06200
N 	N 	0.14446 0.62818 0.77800 -0.20700
H 	H 	0.13280 0.66130 0.76420 0.11400
N 	N 	0.19893 0.54901 0.78720 -0.12500
N 	N 	0.31198 0.64518 0.59353 -0.21400
N 	N 	0.13369 0.40123 0.95997 -0.24000
N 	N 	0.95239 0.64838 0.93147 -0.22300
O 	O 	0.29618 0.70244 0.46274 -0.43500
O 	O 	0.93141 0.79730 0.05845 -0.43400
C 	C 	0.01670 0.57670 0.88260 -0.01700
H 	H 	0.02230 0.53830 0.87240 0.02500
C 	C 	0.96400 0.59380 0.91550 -0.02200
H 	H 	0.93490 0.56620 0.92750 0.01900
C 	C 	0.99590 0.68790 0.91380 -0.07600
H 	H 	0.98940 0.72610 0.92460 0.04100
C 	C 	0.04920 0.67250 0.88030 0.03400
H 	H 	0.07770 0.70060 0.86810 0.01300
C 	C 	0.15370 0.44250 0.85220 -0.11900
H 	H 	0.16350 0.43720 0.80710 0.07400
C 	C 	0.14790 0.39740 0.89340 0.05300
H 	H 	0.15400 0.36120 0.87540 0.01500
C 	C 	0.12620 0.45270 0.98240 0.07400
H 	H 	0.11680 0.45650 0.02780 -0.01600
C 	C 	0.13090 0.50420 0.94460 -0.12600
H 	H 	0.12490 0.54000 0.96380 0.06300
C 	C 	0.25560 0.66440 0.59970 0.07800
H 	H 	0.24070 0.68760 0.56530 -0.00500
C 	C 	0.21690 0.65380 0.65120 0.04700
H 	H 	0.17890 0.67270 0.65390 0.00800
C 	C 	0.33090 0.60900 0.64450 -0.00300
H 	H 	0.37160 0.59540 0.64340 0.01700
C 	C 	0.29390 0.59200 0.69600 -0.12400
H 	H 	0.30780 0.56600 0.72800 0.06900
C 	C 	0.21530 0.70270 0.35190 -0.00300
H 	H 	0.23930 0.67020 0.35890 0.02600
C 	C 	0.17070 0.70200 0.30340 -0.04400
H 	H 	0.16460 0.66920 0.27760 0.03200
C 	C 	0.02910 0.79870 0.15070 0.00000
H 	H 	0.02040 0.83230 0.12760 0.02500
C 	C 	0.07510 0.79880 0.19970 -0.04100
H 	H 	0.09830 0.83180 0.20730 0.03300
Ni	Ni	0.87286 0.82374 0.98396 1.10100
C 	C 	0.55100 0.89940 0.56820 -0.10700
H 	H 	0.57970 0.92220 0.54580 0.05700
C 	C 	0.49950 0.88130 0.53550 0.05500
H 	H 	0.49550 0.88880 0.48980 0.00300
C 	C 	0.46390 0.83510 0.63090 0.09500
H 	H 	0.43500 0.81200 0.65270 -0.00600
C 	C 	0.51730 0.85090 0.66510 -0.14200
H 	H 	0.52310 0.83850 0.70910 0.07300
C 	C 	0.69880 0.02950 0.59190 -0.10400
H 	H 	0.73860 0.01470 0.59790 0.06800
C 	C 	0.68850 0.07800 0.55340 0.04800
H 	H 	0.72300 0.09690 0.53590 0.00700
C 	C 	0.58560 0.07730 0.56780 0.05700
H 	H 	0.54750 0.09520 0.56070 0.00200
C 	C 	0.58660 0.02860 0.60790 -0.10900
H 	H 	0.54990 0.01330 0.62500 0.06000
C 	C 	0.77090 0.81910 0.88340 -0.04300
H 	H 	0.76390 0.78480 0.90600 0.02600
C 	C 	0.73650 0.83150 0.82390 -0.14300
H 	H 	0.71600 0.80220 0.80120 0.06900
C 	C 	0.81170 0.90440 0.87990 0.04500
H 	H 	0.84080 0.93070 0.89550 -0.00700
C 	C 	0.77200 0.92180 0.83040 0.01600
H 	H 	0.77170 0.95990 0.81720 0.02500
C 	C 	0.69720 0.79990 0.12800 0.00400
H 	H 	0.70860 0.83400 0.10740 0.02500
C 	C 	0.65220 0.80040 0.17600 -0.03800
H 	H 	0.63330 0.83470 0.18790 0.03000
C 	C 	0.50850 0.70220 0.32750 -0.01100
H 	H 	0.48580 0.66920 0.33640 0.03100
C 	C 	0.55260 0.70090 0.27810 -0.06100
H 	H 	0.56010 0.66710 0.25480 0.04100
C 	C 	0.61766 0.90340 0.67160 0.03300
C 	C 	0.65160 0.95277 0.66550 -0.01600
C 	C 	0.69232 0.90263 0.74550 0.10900
C 	C 	0.73336 0.88458 0.80060 0.01300
C 	C 	0.64499 0.00285 0.62230 0.13300
C 	C 	0.56153 0.88417 0.63570 0.06800
N 	N 	0.64446 0.87182 0.72200 -0.20600
H 	H 	0.63280 0.83870 0.73580 0.11400
N 	N 	0.69893 0.95099 0.71280 -0.12600
N 	N 	0.81198 0.85482 0.90647 -0.21500
N 	N 	0.63369 0.09877 0.54003 -0.24100
N 	N 	0.45239 0.85162 0.56853 -0.22500
O 	O 	0.79618 0.79756 0.03726 -0.43300
O 	O 	0.43141 0.70270 0.44155 -0.43700
C 	C 	0.51670 0.92330 0.61740 -0.04700
H 	H 	0.52230 0.96170 0.62760 0.03500
C 	C 	0.46400 0.90620 0.58450 0.00600
H 	H 	0.43490 0.93380 0.57250 0.01000
C 	C 	0.49590 0.81210 0.58620 -0.03400
H 	H 	0.48940 0.77390 0.57540 0.02900
C 	C 	0.54920 0.82750 0.61970 -0.01000
H 	H 	0.57770 0.79940 0.63190 0.02700
C 	C 	0.65370 0.05750 0.64780 -0.11400
H 	H 	0.66350 0.06280 0.69290 0.07200
C 	C 	0.64790 0.10260 0.60660 0.04700
H 	H 	0.65400 0.13880 0.62460 0.01700
C 	C 	0.62620 0.04730 0.51760 0.06200
H 	H 	0.61680 0.04350 0.47220 -0.01000
C 	C 	0.63090 0.99580 0.55540 -0.12100
H 	H 	0.62490 0.96000 0.53620 0.06100
C 	C 	0.75560 0.83560 0.90030 0.07800
H 	H 	0.74070 0.81240 0.93470 -0.00600
C 	C 	0.71690 0.84620 0.84880 0.04600
H 	H 	0.67890 0.82730 0.84610 0.00900
C 	C 	0.83090 0.89100 0.85550 -0.00100
H 	H 	0.87160 0.90460 0.85660 0.01600
C 	C 	0.79390 0.90800 0.80400 -0.12100
H 	H 	0.80780 0.93400 0.77200 0.06800
C 	C 	0.71530 0.79730 0.14810 -0.00200
H 	H 	0.73930 0.82980 0.14110 0.02600
C 	C 	0.67070 0.79800 0.19660 -0.04200
H 	H 	0.66460 0.83080 0.22240 0.03200
C 	C 	0.52910 0.70130 0.34930 0.02000
H 	H 	0.52040 0.66770 0.37240 0.02000
C 	C 	0.57510 0.70120 0.30030 -0.03000
H 	H 	0.59830 0.66820 0.29270 0.02900
Ni	Ni	0.62714 0.17626 0.48396 1.10300
C 	C 	0.94900 0.10060 0.06820 -0.12400
H 	H 	0.92030 0.07780 0.04580 0.06300
C 	C 	0.00050 0.11870 0.03550 0.06900
H 	H 	0.00450 0.11120 0.98980 0.00000
C 	C 	0.03610 0.16490 0.13090 0.13500
H 	H 	0.06500 0.18800 0.15270 -0.02000
C 	C 	0.98270 0.14910 0.16510 -0.18000
H 	H 	0.97690 0.16150 0.20910 0.08700
C 	C 	0.80120 0.97050 0.09190 -0.09500
H 	H 	0.76140 0.98530 0.09790 0.06500
C 	C 	0.81150 0.92200 0.05340 0.03500
H 	H 	0.77700 0.90310 0.03590 0.01300
C 	C 	0.91440 0.92270 0.06780 0.04200
H 	H 	0.95250 0.90480 0.06070 0.00900
C 	C 	0.91340 0.97140 0.10790 -0.10000
H 	H 	0.95010 0.98670 0.12500 0.05800
C 	C 	0.72910 0.18090 0.38340 -0.04300
H 	H 	0.73610 0.21520 0.40600 0.02700
C 	C 	0.76350 0.16850 0.32390 -0.14300
H 	H 	0.78400 0.19780 0.30120 0.06900
C 	C 	0.68830 0.09560 0.37990 0.04700
H 	H 	0.65920 0.06930 0.39550 -0.00700
C 	C 	0.72800 0.07820 0.33040 0.01900
H 	H 	0.72830 0.04010 0.31720 0.02400
C 	C 	0.80280 0.20010 0.62800 0.00600
H 	H 	0.79140 0.16600 0.60740 0.02400
C 	C 	0.84780 0.19960 0.67600 -0.03700
H 	H 	0.86670 0.16530 0.68790 0.03000
C 	C 	0.99150 0.29780 0.82750 -0.00000
H 	H 	0.01420 0.33080 0.83640 0.03000
C 	C 	0.94740 0.29910 0.77810 -0.04500
H 	H 	0.93990 0.33290 0.75480 0.03500
C 	C 	0.88234 0.09660 0.17160 0.03700
C 	C 	0.84840 0.04723 0.16550 -0.01900
C 	C 	0.80768 0.09737 0.24550 0.10900
C 	C 	0.76664 0.11542 0.30060 0.01300
C 	C 	0.85501 0.99715 0.12230 0.13900
C 	C 	0.93847 0.11583 0.13570 0.06000
N 	N 	0.85554 0.12818 0.22200 -0.20700
H 	H 	0.86720 0.16130 0.23580 0.11400
N 	N 	0.80107 0.04901 0.21280 -0.12500
N 	N 	0.68802 0.14518 0.40647 -0.21400
N 	N 	0.86631 0.90123 0.04003 -0.24100
N 	N 	0.04761 0.14838 0.06853 -0.22200
O 	O 	0.70382 0.20244 0.53726 -0.43500
O 	O 	0.06859 0.29730 0.94155 -0.43400
C 	C 	0.98330 0.07670 0.11740 -0.01500
H 	H 	0.97770 0.03830 0.12760 0.02500
C 	C 	0.03600 0.09380 0.08450 -0.02300
H 	H 	0.06510 0.06620 0.07250 0.02000
C 	C 	0.00410 0.18790 0.08620 -0.08000
H 	H 	0.01060 0.22610 0.07540 0.04300
C 	C 	0.95080 0.17250 0.11970 0.03800
H 	H 	0.92230 0.20060 0.13190 0.01100
C 	C 	0.84630 0.94250 0.14780 -0.12700
H 	H 	0.83650 0.93720 0.19290 0.07700
C 	C 	0.85210 0.89740 0.10660 0.06200
H 	H 	0.84600 0.86120 0.12460 0.01200
C 	C 	0.87380 0.95270 0.01760 0.08600
H 	H 	0.88320 0.95650 0.97220 -0.02200
C 	C 	0.86910 0.00420 0.05540 -0.13800
H 	H 	0.87510 0.04000 0.03620 0.06700
C 	C 	0.74440 0.16440 0.40030 0.07800
H 	H 	0.75930 0.18760 0.43470 -0.00500
C 	C 	0.78310 0.15380 0.34880 0.04700
H 	H 	0.82110 0.17270 0.34610 0.00800
C 	C 	0.66910 0.10900 0.35550 -0.00300
H 	H 	0.62840 0.09540 0.35660 0.01700
C 	C 	0.70610 0.09200 0.30400 -0.12400
H 	H 	0.69220 0.06600 0.27200 0.06900
C 	C 	0.78470 0.20270 0.64810 -0.00300
H 	H 	0.76070 0.17020 0.64110 0.02600
C 	C 	0.82930 0.20200 0.69660 -0.04400
H 	H 	0.83540 0.16920 0.72240 0.03200
C 	C 	0.97090 0.29870 0.84930 -0.00000
H 	H 	0.97960 0.33230 0.87240 0.02500
C 	C 	0.92490 0.29880 0.80030 -0.04100
H 	H 	0.90170 0.33180 0.79270 0.03300
Ni	Ni	0.87286 0.67626 0.98396 1.10100
C 	C 	0.55100 0.60060 0.56820 -0.10700
H 	H 	0.57970 0.57780 0.54580 0.05800
C 	C 	0.49950 0.61870 0.53550 0.05500
H 	H 	0.49550 0.61120 0.48980 0.00300
C 	C 	0.46390 0.66490 0.63090 0.09500
H 	H 	0.43500 0.68800 0.65270 -0.00600
C 	C 	0.51730 0.64910 0.66510 -0.14200
H 	H 	0.52310 0.66150 0.70910 0.07300
C 	C 	0.69880 0.47050 0.59190 -0.10500
H 	H 	0.73860 0.48530 0.59790 0.06800
C 	C 	0.68850 0.42200 0.55340 0.04900
H 	H 	0.72300 0.40310 0.53590 0.00600
C 	C 	0.58560 0.42270 0.56780 0.05800
H 	H 	0.54750 0.40480 0.56070 0.00200
C 	C 	0.58660 0.47140 0.60790 -0.10900
H 	H 	0.54990 0.48670 0.62500 0.06000
C 	C 	0.77090 0.68090 0.88340 -0.04300
H 	H 	0.76390 0.71520 0.90600 0.02600
C 	C 	0.73650 0.66850 0.82390 -0.14300
H 	H 	0.71600 0.69780 0.80120 0.06900
C 	C 	0.81170 0.59560 0.87990 0.04600
H 	H 	0.84080 0.56930 0.89550 -0.00700
C 	C 	0.77200 0.57820 0.83040 0.01800
H 	H 	0.77170 0.54010 0.81720 0.02500
C 	C 	0.69720 0.70010 0.12800 0.00400
H 	H 	0.70860 0.66600 0.10740 0.02500
C 	C 	0.65220 0.69960 0.17600 -0.03800
H 	H 	0.63330 0.66530 0.18790 0.03000
C 	C 	0.50850 0.79780 0.32750 -0.01100
H 	H 	0.48580 0.83080 0.33640 0.03100
C 	C 	0.55260 0.79910 0.27810 -0.06100
H 	H 	0.56010 0.83290 0.25480 0.04100
C 	C 	0.61766 0.59660 0.67160 0.03300
C 	C 	0.65160 0.54723 0.66550 -0.01500
C 	C 	0.69232 0.59737 0.74550 0.10900
C 	C 	0.73336 0.61542 0.80060 0.01300
C 	C 	0.64499 0.49715 0.62230 0.13100
C 	C 	0.56153 0.61583 0.63570 0.06900
N 	N 	0.64446 0.62818 0.72200 -0.20600
H 	H 	0.63280 0.66130 0.73580 0.11400
N 	N 	0.69893 0.54901 0.71280 -0.12600
N 	N 	0.81198 0.64518 0.90647 -0.21400
N 	N 	0.63369 0.40123 0.54003 -0.24000
N 	N 	0.45239 0.64838 0.56853 -0.22500
O 	O 	0.79618 0.70244 0.03726 -0.43300
O 	O 	0.43141 0.79730 0.44155 -0.43700
C 	C 	0.51670 0.57670 0.61740 -0.04700
H 	H 	0.52230 0.53830 0.62760 0.03500
C 	C 	0.46400 0.59380 0.58450 0.00600
H 	H 	0.43490 0.56620 0.57250 0.01000
C 	C 	0.49590 0.68790 0.58620 -0.03400
H 	H 	0.48940 0.72610 0.57540 0.02900
C 	C 	0.54920 0.67250 0.61970 -0.01000
H 	H 	0.57770 0.70060 0.63190 0.02700
C 	C 	0.65370 0.44250 0.64780 -0.11200
H 	H 	0.66350 0.43720 0.69290 0.07200
C 	C 	0.64790 0.39740 0.60660 0.04500
H 	H 	0.65400 0.36120 0.62460 0.01800
C 	C 	0.62620 0.45270 0.51760 0.06000
H 	H 	0.61680 0.45650 0.47220 -0.00900
C 	C 	0.63090 0.50420 0.55540 -0.11900
H 	H 	0.62490 0.54000 0.53620 0.06100
C 	C 	0.75560 0.66440 0.90030 0.07800
H 	H 	0.74070 0.68760 0.93470 -0.00600
C 	C 	0.71690 0.65380 0.84880 0.04700
H 	H 	0.67890 0.67270 0.84610 0.00900
C 	C 	0.83090 0.60900 0.85550 -0.00200
H 	H 	0.87160 0.59540 0.85660 0.01600
C 	C 	0.79390 0.59200 0.80400 -0.12200
H 	H 	0.80780 0.56600 0.77200 0.06900
C 	C 	0.71530 0.70270 0.14810 -0.00200
H 	H 	0.73930 0.67020 0.14110 0.02600
C 	C 	0.67070 0.70200 0.19660 -0.04200
H 	H 	0.66460 0.66920 0.22240 0.03200
C 	C 	0.52910 0.79870 0.34930 0.02000
H 	H 	0.52040 0.83230 0.37240 0.02000
C 	C 	0.57510 0.79880 0.30030 -0.03000
H 	H 	0.59830 0.83180 0.29270 0.02900
Ni	Ni	0.62714 0.32374 0.48396 1.10300
C 	C 	0.94900 0.39940 0.06820 -0.12500
H 	H 	0.92030 0.42220 0.04580 0.06400
C 	C 	0.00050 0.38130 0.03550 0.06900
H 	H 	0.00450 0.38880 0.98980 -0.00000
C 	C 	0.03610 0.33510 0.13090 0.13200
H 	H 	0.06500 0.31200 0.15270 -0.01900
C 	C 	0.98270 0.35090 0.16510 -0.17800
H 	H 	0.97690 0.33850 0.20910 0.08600
C 	C 	0.80120 0.52950 0.09190 -0.10000
H 	H 	0.76140 0.51470 0.09790 0.06700
C 	C 	0.81150 0.57800 0.05340 0.04200
H 	H 	0.77700 0.59690 0.03590 0.01000
C 	C 	0.91440 0.57730 0.06780 0.05000
H 	H 	0.95250 0.59520 0.06070 0.00600
C 	C 	0.91340 0.52860 0.10790 -0.10600
H 	H 	0.95010 0.51330 0.12500 0.06000
C 	C 	0.72910 0.31910 0.38340 -0.04300
H 	H 	0.73610 0.28480 0.40600 0.02700
C 	C 	0.76350 0.33150 0.32390 -0.14400
H 	H 	0.78400 0.30220 0.30120 0.06900
C 	C 	0.68830 0.40440 0.37990 0.04700
H 	H 	0.65920 0.43070 0.39550 -0.00700
C 	C 	0.72800 0.42180 0.33040 0.01900
H 	H 	0.72830 0.45990 0.31720 0.02400
C 	C 	0.80280 0.29990 0.62800 0.00600
H 	H 	0.79140 0.33400 0.60740 0.02400
C 	C 	0.84780 0.30040 0.67600 -0.03700
H 	H 	0.86670 0.33470 0.68790 0.03000
C 	C 	0.99150 0.20220 0.82750 -0.00000
H 	H 	0.01420 0.16920 0.83640 0.03000
C 	C 	0.94740 0.20090 0.77810 -0.04500
H 	H 	0.93990 0.16710 0.75480 0.03500
C 	C 	0.88234 0.40340 0.17160 0.03600
C 	C 	0.84840 0.45277 0.16550 -0.01700
C 	C 	0.80768 0.40263 0.24550 0.10900
C 	C 	0.76664 0.38458 0.30060 0.01300
C 	C 	0.85501 0.50285 0.12230 0.13400
C 	C 	0.93847 0.38417 0.13570 0.06200
N 	N 	0.85554 0.37182 0.22200 -0.20700
H 	H 	0.86720 0.33870 0.23580 0.11400
N 	N 	0.80107 0.45099 0.21280 -0.12500
N 	N 	0.68802 0.35482 0.40647 -0.21400
N 	N 	0.86631 0.59877 0.04003 -0.24000
N 	N 	0.04761 0.35162 0.06853 -0.22300
O 	O 	0.70382 0.29756 0.53726 -0.43500
O 	O 	0.06859 0.20270 0.94155 -0.43400
C 	C 	0.98330 0.42330 0.11740 -0.01700
H 	H 	0.97770 0.46170 0.12760 0.02500
C 	C 	0.03600 0.40620 0.08450 -0.02200
H 	H 	0.06510 0.43380 0.07250 0.01900
C 	C 	0.00410 0.31210 0.08620 -0.07600
H 	H 	0.01060 0.27390 0.07540 0.04100
C 	C 	0.95080 0.32750 0.11970 0.03400
H 	H 	0.92230 0.29940 0.13190 0.01300
C 	C 	0.84630 0.55750 0.14780 -0.11900
H 	H 	0.83650 0.56280 0.19290 0.07400
C 	C 	0.85210 0.60260 0.10660 0.05300
H 	H 	0.84600 0.63880 0.12460 0.01500
C 	C 	0.87380 0.54730 0.01760 0.07400
H 	H 	0.88320 0.54350 0.97220 -0.01600
C 	C 	0.86910 0.49580 0.05540 -0.12600
H 	H 	0.87510 0.46000 0.03620 0.06300
C 	C 	0.74440 0.33560 0.40030 0.07800
H 	H 	0.75930 0.31240 0.43470 -0.00500
C 	C 	0.78310 0.34620 0.34880 0.04700
H 	H 	0.82110 0.32730 0.34610 0.00800
C 	C 	0.66910 0.39100 0.35550 -0.00300
H 	H 	0.62840 0.40460 0.35660 0.01700
C 	C 	0.70610 0.40800 0.30400 -0.12400
H 	H 	0.69220 0.43400 0.27200 0.06900
C 	C 	0.78470 0.29730 0.64810 -0.00300
H 	H 	0.76070 0.32980 0.64110 0.02600
C 	C 	0.82930 0.29800 0.69660 -0.04400
H 	H 	0.83540 0.33080 0.72240 0.03200
C 	C 	0.97090 0.20130 0.84930 0.00000
H 	H 	0.97960 0.16770 0.87240 0.02500
C 	C 	0.92490 0.20120 0.80030 -0.04100
H 	H 	0.90170 0.16820 0.79270 0.03300
Ni	Ni	0.12714 0.17626 0.01604 1.10100
C 	C 	0.44900 0.10060 0.43180 -0.10700
H 	H 	0.42030 0.07780 0.45420 0.05700
C 	C 	0.50050 0.11870 0.46450 0.05500
H 	H 	0.50450 0.11120 0.51020 0.00300
C 	C 	0.53610 0.16490 0.36910 0.09500
H 	H 	0.56500 0.18800 0.34730 -0.00600
C 	C 	0.48270 0.14910 0.33490 -0.14200
H 	H 	0.47690 0.16150 0.29090 0.07300
C 	C 	0.30120 0.97050 0.40810 -0.10400
H 	H 	0.26140 0.98530 0.40210 0.06800
C 	C 	0.31150 0.92200 0.44660 0.04800
H 	H 	0.27700 0.90310 0.46410 0.00700
C 	C 	0.41440 0.92270 0.43220 0.05700
H 	H 	0.45250 0.90480 0.43930 0.00200
C 	C 	0.41340 0.97140 0.39210 -0.10900
H 	H 	0.45010 0.98670 0.37500 0.06000
C 	C 	0.22910 0.18090 0.11660 -0.04300
H 	H 	0.23610 0.21520 0.09400 0.02600
C 	C 	0.26350 0.16850 0.17610 -0.14300
H 	H 	0.28400 0.19780 0.19880 0.06900
C 	C 	0.18830 0.09560 0.12010 0.04500
H 	H 	0.15920 0.06930 0.10450 -0.00700
C 	C 	0.22800 0.07820 0.16960 0.01600
H 	H 	0.22830 0.04010 0.18280 0.02500
C 	C 	0.30280 0.20010 0.87200 0.00400
H 	H 	0.29140 0.16600 0.89260 0.02500
C 	C 	0.34780 0.19960 0.82400 -0.03800
H 	H 	0.36670 0.16530 0.81210 0.03000
C 	C 	0.49150 0.29780 0.67250 -0.01100
H 	H 	0.51420 0.33080 0.66360 0.03100
C 	C 	0.44740 0.29910 0.72190 -0.06100
H 	H 	0.43990 0.33290 0.74520 0.04100
C 	C 	0.38234 0.09660 0.32840 0.03300
C 	C 	0.34840 0.04723 0.33450 -0.01600
C 	C 	0.30768 0.09737 0.25450 0.10900
C 	C 	0.26664 0.11542 0.19940 0.01300
C 	C 	0.35501 0.99715 0.37770 0.13300
C 	C 	0.43847 0.11583 0.36430 0.06800
N 	N 	0.35554 0.12818 0.27800 -0.20600
H 	H 	0.36720 0.16130 0.26420 0.11400
N 	N 	0.30107 0.04901 0.28720 -0.12600
N 	N 	0.18802 0.14518 0.09353 -0.21500
N 	N 	0.36631 0.90123 0.45997 -0.24100
N 	N 	0.54761 0.14838 0.43147 -0.22500
O 	O 	0.20382 0.20244 0.96274 -0.43300
O 	O 	0.56859 0.29730 0.55845 -0.43700
C 	C 	0.48330 0.07670 0.38260 -0.04700
H 	H 	0.47770 0.03830 0.37240 0.03500
C 	C 	0.53600 0.09380 0.41550 0.00600
H 	H 	0.56510 0.06620 0.42750 0.01000
C 	C 	0.50410 0.18790 0.41380 -0.03400
H 	H 	0.51060 0.22610 0.42460 0.02900
C 	C 	0.45080 0.17250 0.38030 -0.01000
H 	H 	0.42230 0.20060 0.36810 0.02700
C 	C 	0.34630 0.94250 0.35220 -0.11400
H 	H 	0.33650 0.93720 0.30710 0.07200
C 	C 	0.35210 0.89740 0.39340 0.04700
H 	H 	0.34600 0.86120 0.37540 0.01700
C 	C 	0.37380 0.95270 0.48240 0.06200
H 	H 	0.38320 0.95650 0.52780 -0.01000
C 	C 	0.36910 0.00420 0.44460 -0.12100
H 	H 	0.37510 0.04000 0.46380 0.06100
C 	C 	0.24440 0.16440 0.09970 0.07800
H 	H 	0.25930 0.18760 0.06530 -0.00600
C 	C 	0.28310 0.15380 0.15120 0.04600
H 	H 	0.32110 0.17270 0.15390 0.00900
C 	C 	0.16910 0.10900 0.14450 -0.00100
H 	H 	0.12840 0.09540 0.14340 0.01600
C 	C 	0.20610 0.09200 0.19600 -0.12100
H 	H 	0.19220 0.06600 0.22800 0.06800
C 	C 	0.28470 0.20270 0.85190 -0.00200
H 	H 	0.26070 0.17020 0.85890 0.02600
C 	C 	0.32930 0.20200 0.80340 -0.04200
H 	H 	0.33540 0.16920 0.77760 0.03200
C 	C 	0.47090 0.29870 0.65070 0.02000
H 	H 	0.47960 0.33230 0.62760 0.02000
C 	C 	0.42490 0.29880 0.69970 -0.03000
H 	H 	0.40170 0.33180 0.70730 0.02900
Ni	Ni	0.37286 0.82374 0.51604 1.10300
C 	C 	0.05100 0.89940 0.93180 -0.12400
H 	H 	0.07970 0.92220 0.95420 0.06300
C 	C 	0.99950 0.88130 0.96450 0.06900
H 	H 	0.99550 0.88880 0.01020 0.00000
C 	C 	0.96390 0.83510 0.86910 0.13500
H 	H 	0.93500 0.81200 0.84730 -0.02000
C 	C 	0.01730 0.85090 0.83490 -0.18000
H 	H 	0.02310 0.83850 0.79090 0.08700
C 	C 	0.19880 0.02950 0.90810 -0.09500
H 	H 	0.23860 0.01470 0.90210 0.06500
C 	C 	0.18850 0.07800 0.94660 0.03500
H 	H 	0.22300 0.09690 0.96410 0.01300
C 	C 	0.08560 0.07730 0.93220 0.04200
H 	H 	0.04750 0.09520 0.93930 0.00900
C 	C 	0.08660 0.02860 0.89210 -0.10000
H 	H 	0.04990 0.01330 0.87500 0.05800
C 	C 	0.27090 0.81910 0.61660 -0.04300
H 	H 	0.26390 0.78480 0.59400 0.02700
C 	C 	0.23650 0.83150 0.67610 -0.14300
H 	H 	0.21600 0.80220 0.69880 0.06900
C 	C 	0.31170 0.90440 0.62010 0.04700
H 	H 	0.34080 0.93070 0.60450 -0.00700
C 	C 	0.27200 0.92180 0.66960 0.01900
H 	H 	0.27170 0.95990 0.68280 0.02400
C 	C 	0.19720 0.79990 0.37200 0.00600
H 	H 	0.20860 0.83400 0.39260 0.02400
C 	C 	0.15220 0.80040 0.32400 -0.03700
H 	H 	0.13330 0.83470 0.31210 0.03000
C 	C 	0.00850 0.70220 0.17250 -0.00000
H 	H 	0.98580 0.66920 0.16360 0.03000
C 	C 	0.05260 0.70090 0.22190 -0.04500
H 	H 	0.06010 0.66710 0.24520 0.03500
C 	C 	0.11766 0.90340 0.82840 0.03700
C 	C 	0.15160 0.95277 0.83450 -0.01900
C 	C 	0.19232 0.90263 0.75450 0.10900
C 	C 	0.23336 0.88458 0.69940 0.01300
C 	C 	0.14499 0.00285 0.87770 0.13900
C 	C 	0.06153 0.88417 0.86430 0.06000
N 	N 	0.14446 0.87182 0.77800 -0.20700
H 	H 	0.13280 0.83870 0.76420 0.11400
N 	N 	0.19893 0.95099 0.78720 -0.12500
N 	N 	0.31198 0.85482 0.59353 -0.21400
N 	N 	0.13369 0.09877 0.95997 -0.24100
N 	N 	0.95239 0.85162 0.93147 -0.22200
O 	O 	0.29618 0.79756 0.46274 -0.43500
O 	O 	0.93141 0.70270 0.05845 -0.43400
C 	C 	0.01670 0.92330 0.88260 -0.01500
H 	H 	0.02230 0.96170 0.87240 0.02500
C 	C 	0.96400 0.90620 0.91550 -0.02300
H 	H 	0.93490 0.93380 0.92750 0.02000
C 	C 	0.99590 0.81210 0.91380 -0.08000
H 	H 	0.98940 0.77390 0.92460 0.04300
C 	C 	0.04920 0.82750 0.88030 0.03800
H 	H 	0.07770 0.79940 0.86810 0.01100
C 	C 	0.15370 0.05750 0.85220 -0.12700
H 	H 	0.16350 0.06280 0.80710 0.07700
C 	C 	0.14790 0.10260 0.89340 0.06200
H 	H 	0.15400 0.13880 0.87540 0.01200
C 	C 	0.12620 0.04730 0.98240 0.08600
H 	H 	0.11680 0.04350 0.02780 -0.02200
C 	C 	0.13090 0.99580 0.94460 -0.13800
H 	H 	0.12490 0.96000 0.96380 0.06700
C 	C 	0.25560 0.83560 0.59970 0.07800
H 	H 	0.24070 0.81240 0.56530 -0.00500
C 	C 	0.21690 0.84620 0.65120 0.04700
H 	H 	0.17890 0.82730 0.65390 0.00800
C 	C 	0.33090 0.89100 0.64450 -0.00300
H 	H 	0.37160 0.90460 0.64340 0.01700
C 	C 	0.29390 0.90800 0.69600 -0.12400
H 	H 	0.30780 0.93400 0.72800 0.06900
C 	C 	0.21530 0.79730 0.35190 -0.00300
H 	H 	0.23930 0.82980 0.35890 0.02600
C 	C 	0.17070 0.79800 0.30340 -0.04400
H 	H 	0.16460 0.83080 0.27760 0.03200
C 	C 	0.02910 0.70130 0.15070 -0.00000
H 	H 	0.02040 0.66770 0.12760 0.02500
C 	C 	0.07510 0.70120 0.19970 -0.04100
H 	H 	0.09830 0.66820 0.20730 0.03300
C 	C 	0.22280 0.25000 0.94370 0.39000
C 	C 	0.55070 0.25000 0.57960 0.39800
C 	C 	0.27400 0.25000 0.89070 -0.10400
C 	C 	0.50370 0.25000 0.63560 -0.11400
C 	C 	0.36580 0.25000 0.79220 0.01700
C 	C 	0.41350 0.25000 0.73730 0.02600
O 	O 	0.12202 0.25000 0.06613 -0.45000
C 	C 	0.27720 0.75000 0.44370 0.39000
C 	C 	0.94930 0.75000 0.07960 0.39500
C 	C 	0.22600 0.75000 0.39070 -0.10400
C 	C 	0.99630 0.75000 0.13560 -0.10400
C 	C 	0.13420 0.75000 0.29220 0.01800
C 	C 	0.08650 0.75000 0.23730 0.02300
O 	O 	0.37798 0.75000 0.56613 -0.45000
C 	C 	0.77720 0.75000 0.05630 0.39000
C 	C 	0.44930 0.75000 0.42040 0.39800
C 	C 	0.72600 0.75000 0.10930 -0.10400
C 	C 	0.49630 0.75000 0.36440 -0.11400
C 	C 	0.63420 0.75000 0.20780 0.01700
C 	C 	0.58650 0.75000 0.26270 0.02600
O 	O 	0.87798 0.75000 0.93387 -0.45000
C 	C 	0.72280 0.25000 0.55630 0.39000
C 	C 	0.05070 0.25000 0.92040 0.39500
C 	C 	0.77400 0.25000 0.60930 -0.10400
C 	C 	0.00370 0.25000 0.86440 -0.10400
C 	C 	0.86580 0.25000 0.70780 0.01800
C 	C 	0.91350 0.25000 0.76270 0.02300
O 	O 	0.62202 0.25000 0.43387 -0.45000
