data_crystal

_cell_length_a 26.97680
_cell_length_b 26.97680
_cell_length_c 39.20600
_cell_angle_alpha 90.00000
_cell_angle_beta  90.00000
_cell_angle_gamma 90.00000

_symmetry_space_group_name_	'P 1'
_symmetry_space_group_name_H-M	'P 1'

loop_
_symmetry_equiv_pos_as_xyz
  x,y,z

loop_
_atom_site_label
_atom_site_type_symbol
_atom_site_fract_x
_atom_site_fract_y
_atom_site_fract_z
_atom_site_charge
Cu	Cu	0.12650 0.24749 0.30212 0.93700
Cu	Cu	0.09332 0.18407 0.34926 0.91000
O 	O 	0.15024 0.18552 0.28192 -0.39300
O 	O 	0.12634 0.13275 0.32270 -0.40500
O 	O 	0.18193 0.96260 0.31755 -0.40700
O 	O 	0.23647 0.93760 0.27835 -0.37100
O 	O 	0.33932 0.15500 0.03562 -0.41000
O 	O 	0.36412 0.23370 0.03596 -0.41100
O 	O 	0.30528 0.34418 0.12699 -0.40000
O 	O 	0.25408 0.31516 0.16705 -0.38900
O 	O 	0.06595 0.24426 0.36913 -0.40700
O 	O 	0.09383 0.29808 0.33050 -0.37700
O 	O 	0.96054 0.29626 0.46388 -0.40500
O 	O 	0.93472 0.37521 0.46488 -0.40400
O 	O 	0.15405 0.30083 0.26708 -0.40200
N 	N 	0.24022 0.13246 0.18195 -0.24000
H 	H 	0.23380 0.15920 0.19300 0.14300
N 	N 	0.24760 0.05491 0.16841 -0.08900
N 	N 	0.26370 0.08202 0.14134 -0.09100
N 	N 	0.00410 0.47471 0.33285 -0.08600
C 	C 	0.17200 0.10209 0.27623 -0.09100
C 	C 	0.17558 0.05541 0.29058 0.03300
H 	H 	0.16150 0.04920 0.31180 0.05400
C 	C 	0.20049 0.01748 0.27314 -0.08100
C 	C 	0.21537 0.07353 0.22646 -0.04500
C 	C 	0.19232 0.11043 0.24435 0.01500
H 	H 	0.19030 0.14190 0.23480 0.04600
C 	C 	0.22013 0.02635 0.24136 0.01100
H 	H 	0.23650 0.00120 0.22970 0.06100
C 	C 	0.23400 0.08637 0.19265 0.15300
C 	C 	0.25830 0.12907 0.15075 0.15400
C 	C 	0.31181 0.20639 0.07987 -0.09700
C 	C 	0.30659 0.25359 0.09344 0.04200
H 	H 	0.31860 0.28090 0.08150 0.04800
C 	C 	0.28330 0.26018 0.12500 -0.09400
C 	C 	0.26675 0.21878 0.14286 0.01800
H 	H 	0.25130 0.22310 0.16390 0.04400
C 	C 	0.27282 0.17157 0.13008 -0.05000
C 	C 	0.29476 0.16513 0.09807 0.01600
H 	H 	0.29800 0.13350 0.08890 0.05500
C 	C 	0.14714 0.14310 0.29538 0.36500
C 	C 	0.20709 0.96831 0.29096 0.35600
C 	C 	0.34058 0.19794 0.04762 0.37600
C 	C 	0.28031 0.31039 0.14096 0.36100
C 	C 	0.04130 0.32673 0.37456 -0.08800
C 	C 	0.01666 0.31556 0.40464 0.04000
H 	H 	0.01860 0.28370 0.41360 0.05100
C 	C 	0.98891 0.35167 0.42174 -0.09700
C 	C 	0.98710 0.39920 0.40812 0.01100
H 	H 	0.96980 0.42400 0.41960 0.04600
C 	C 	0.01052 0.41000 0.37789 -0.04100
C 	C 	0.03807 0.37447 0.36088 0.01000
H 	H 	0.05420 0.38230 0.34060 0.06300
C 	C 	0.00581 0.46130 0.36492 0.15300
C 	C 	0.06946 0.28683 0.35636 0.36300
C 	C 	0.95968 0.33945 0.45278 0.36500
Cu	Cu	0.87350 0.75251 0.30212 0.93600
Cu	Cu	0.90668 0.81593 0.34926 0.90900
O 	O 	0.84976 0.81448 0.28192 -0.39500
O 	O 	0.87366 0.86725 0.32270 -0.40700
O 	O 	0.81807 0.03740 0.31755 -0.40800
O 	O 	0.76353 0.06240 0.27835 -0.37300
O 	O 	0.66068 0.84500 0.03562 -0.41100
O 	O 	0.63588 0.76630 0.03596 -0.41300
O 	O 	0.69472 0.65582 0.12699 -0.40100
O 	O 	0.74592 0.68484 0.16705 -0.39000
O 	O 	0.93405 0.75574 0.36913 -0.40800
O 	O 	0.90617 0.70192 0.33050 -0.37800
O 	O 	0.03946 0.70374 0.46388 -0.40400
O 	O 	0.06528 0.62479 0.46488 -0.40500
O 	O 	0.84595 0.69917 0.26708 -0.40300
N 	N 	0.75978 0.86754 0.18195 -0.24000
H 	H 	0.76620 0.84080 0.19300 0.14300
N 	N 	0.75240 0.94509 0.16841 -0.09000
N 	N 	0.73630 0.91798 0.14134 -0.09100
N 	N 	0.99590 0.52529 0.33285 -0.08800
C 	C 	0.82800 0.89791 0.27623 -0.09400
C 	C 	0.82442 0.94459 0.29058 0.03600
H 	H 	0.83850 0.95080 0.31180 0.05100
C 	C 	0.79951 0.98252 0.27314 -0.08800
C 	C 	0.78463 0.92647 0.22646 -0.04800
C 	C 	0.80768 0.88957 0.24435 0.01700
H 	H 	0.80970 0.85810 0.23480 0.04500
C 	C 	0.77987 0.97365 0.24136 0.01400
H 	H 	0.76350 0.99880 0.22970 0.05800
C 	C 	0.76600 0.91363 0.19265 0.15300
C 	C 	0.74170 0.87093 0.15075 0.15400
C 	C 	0.68819 0.79361 0.07987 -0.09700
C 	C 	0.69341 0.74641 0.09344 0.04300
H 	H 	0.68140 0.71910 0.08150 0.04800
C 	C 	0.71670 0.73982 0.12500 -0.09500
C 	C 	0.73325 0.78122 0.14286 0.01800
H 	H 	0.74870 0.77690 0.16390 0.04400
C 	C 	0.72718 0.82843 0.13008 -0.05100
C 	C 	0.70524 0.83487 0.09807 0.01600
H 	H 	0.70200 0.86650 0.08890 0.05400
C 	C 	0.85286 0.85690 0.29538 0.36600
C 	C 	0.79291 0.03169 0.29096 0.36200
C 	C 	0.65942 0.80206 0.04762 0.37600
C 	C 	0.71969 0.68961 0.14096 0.36100
C 	C 	0.95870 0.67327 0.37456 -0.08700
C 	C 	0.98334 0.68444 0.40464 0.03400
H 	H 	0.98140 0.71630 0.41360 0.05100
C 	C 	0.01109 0.64833 0.42174 -0.09300
C 	C 	0.01290 0.60080 0.40812 0.01600
H 	H 	0.03020 0.57600 0.41960 0.04600
C 	C 	0.98948 0.59000 0.37789 -0.04600
C 	C 	0.96193 0.62553 0.36088 0.01100
H 	H 	0.94580 0.61770 0.34060 0.06200
C 	C 	0.99419 0.53870 0.36492 0.15100
C 	C 	0.93054 0.71317 0.35636 0.36300
C 	C 	0.04032 0.66055 0.45278 0.36400
Cu	Cu	0.75251 0.12650 0.30212 0.93600
Cu	Cu	0.81593 0.09332 0.34926 0.90900
O 	O 	0.81448 0.15024 0.28192 -0.39500
O 	O 	0.86725 0.12634 0.32270 -0.40700
O 	O 	0.03740 0.18193 0.31755 -0.40800
O 	O 	0.06240 0.23647 0.27835 -0.37300
O 	O 	0.84500 0.33932 0.03562 -0.41100
O 	O 	0.76630 0.36412 0.03596 -0.41200
O 	O 	0.65582 0.30528 0.12699 -0.40100
O 	O 	0.68484 0.25408 0.16705 -0.39000
O 	O 	0.75574 0.06595 0.36913 -0.40800
O 	O 	0.70192 0.09383 0.33050 -0.37800
O 	O 	0.70374 0.96054 0.46388 -0.40600
O 	O 	0.62479 0.93472 0.46488 -0.40500
O 	O 	0.69917 0.15405 0.26708 -0.40300
N 	N 	0.86754 0.24022 0.18195 -0.24000
H 	H 	0.84080 0.23380 0.19300 0.14300
N 	N 	0.94509 0.24760 0.16841 -0.08900
N 	N 	0.91798 0.26370 0.14134 -0.09100
N 	N 	0.52529 0.00410 0.33285 -0.08600
C 	C 	0.89791 0.17200 0.27623 -0.09300
C 	C 	0.94459 0.17558 0.29058 0.03600
H 	H 	0.95080 0.16150 0.31180 0.05200
C 	C 	0.98252 0.20049 0.27314 -0.08800
C 	C 	0.92647 0.21537 0.22646 -0.04800
C 	C 	0.88957 0.19232 0.24435 0.01700
H 	H 	0.85810 0.19030 0.23480 0.04500
C 	C 	0.97365 0.22013 0.24136 0.01400
H 	H 	0.99880 0.23650 0.22970 0.05900
C 	C 	0.91363 0.23400 0.19265 0.15300
C 	C 	0.87093 0.25830 0.15075 0.15400
C 	C 	0.79361 0.31181 0.07987 -0.09700
C 	C 	0.74641 0.30659 0.09344 0.04300
H 	H 	0.71910 0.31860 0.08150 0.04800
C 	C 	0.73982 0.28330 0.12500 -0.09400
C 	C 	0.78122 0.26675 0.14286 0.01800
H 	H 	0.77690 0.25130 0.16390 0.04400
C 	C 	0.82843 0.27282 0.13008 -0.05000
C 	C 	0.83487 0.29476 0.09807 0.01600
H 	H 	0.86650 0.29800 0.08890 0.05400
C 	C 	0.85690 0.14714 0.29538 0.36600
C 	C 	0.03169 0.20709 0.29096 0.36200
C 	C 	0.80206 0.34058 0.04762 0.37600
C 	C 	0.68961 0.28031 0.14096 0.36100
C 	C 	0.67327 0.04130 0.37456 -0.08800
C 	C 	0.68444 0.01666 0.40464 0.04000
H 	H 	0.71630 0.01860 0.41360 0.05100
C 	C 	0.64833 0.98891 0.42174 -0.09700
C 	C 	0.60080 0.98710 0.40812 0.01100
H 	H 	0.57600 0.96980 0.41960 0.04600
C 	C 	0.59000 0.01052 0.37789 -0.04100
C 	C 	0.62553 0.03807 0.36088 0.01000
H 	H 	0.61770 0.05420 0.34060 0.06300
C 	C 	0.53870 0.00581 0.36492 0.15300
C 	C 	0.71317 0.06946 0.35636 0.36300
C 	C 	0.66055 0.95968 0.45278 0.36500
Cu	Cu	0.24749 0.87350 0.30212 0.93600
Cu	Cu	0.18407 0.90668 0.34926 0.90900
O 	O 	0.18552 0.84976 0.28192 -0.39500
O 	O 	0.13275 0.87366 0.32270 -0.40700
O 	O 	0.96260 0.81807 0.31755 -0.40800
O 	O 	0.93760 0.76353 0.27835 -0.37200
O 	O 	0.15500 0.66068 0.03562 -0.41100
O 	O 	0.23370 0.63588 0.03596 -0.41200
O 	O 	0.34418 0.69472 0.12699 -0.40100
O 	O 	0.31516 0.74592 0.16705 -0.39000
O 	O 	0.24426 0.93405 0.36913 -0.40800
O 	O 	0.29808 0.90617 0.33050 -0.37800
O 	O 	0.29626 0.03946 0.46388 -0.40400
O 	O 	0.37521 0.06528 0.46488 -0.40500
O 	O 	0.30083 0.84595 0.26708 -0.40300
N 	N 	0.13246 0.75978 0.18195 -0.24000
H 	H 	0.15920 0.76620 0.19300 0.14300
N 	N 	0.05491 0.75240 0.16841 -0.08900
N 	N 	0.08202 0.73630 0.14134 -0.09100
N 	N 	0.47471 0.99590 0.33285 -0.08800
C 	C 	0.10209 0.82800 0.27623 -0.09100
C 	C 	0.05541 0.82442 0.29058 0.03300
H 	H 	0.04920 0.83850 0.31180 0.05400
C 	C 	0.01748 0.79951 0.27314 -0.08100
C 	C 	0.07353 0.78463 0.22646 -0.04600
C 	C 	0.11043 0.80768 0.24435 0.01500
H 	H 	0.14190 0.80970 0.23480 0.04600
C 	C 	0.02635 0.77987 0.24136 0.01100
H 	H 	0.00120 0.76350 0.22970 0.06100
C 	C 	0.08637 0.76600 0.19265 0.15300
C 	C 	0.12907 0.74170 0.15075 0.15400
C 	C 	0.20639 0.68819 0.07987 -0.09700
C 	C 	0.25359 0.69341 0.09344 0.04200
H 	H 	0.28090 0.68140 0.08150 0.04800
C 	C 	0.26018 0.71670 0.12500 -0.09400
C 	C 	0.21878 0.73325 0.14286 0.01800
H 	H 	0.22310 0.74870 0.16390 0.04400
C 	C 	0.17157 0.72718 0.13008 -0.05000
C 	C 	0.16513 0.70524 0.09807 0.01600
H 	H 	0.13350 0.70200 0.08890 0.05400
C 	C 	0.14310 0.85286 0.29538 0.36500
C 	C 	0.96831 0.79291 0.29096 0.35700
C 	C 	0.19794 0.65942 0.04762 0.37600
C 	C 	0.31039 0.71969 0.14096 0.36100
C 	C 	0.32673 0.95870 0.37456 -0.08700
C 	C 	0.31556 0.98334 0.40464 0.03400
H 	H 	0.28370 0.98140 0.41360 0.05100
C 	C 	0.35167 0.01109 0.42174 -0.09300
C 	C 	0.39920 0.01290 0.40812 0.01600
H 	H 	0.42400 0.03020 0.41960 0.04600
C 	C 	0.41000 0.98948 0.37789 -0.04600
C 	C 	0.37447 0.96193 0.36088 0.01000
H 	H 	0.38230 0.94580 0.34060 0.06200
C 	C 	0.46130 0.99419 0.36492 0.15100
C 	C 	0.28683 0.93054 0.35636 0.36200
C 	C 	0.33945 0.04032 0.45278 0.36400
Cu	Cu	0.37350 0.74749 0.19788 0.93600
Cu	Cu	0.40668 0.68407 0.15074 0.90900
O 	O 	0.34976 0.68552 0.21808 -0.39400
O 	O 	0.37366 0.63275 0.17730 -0.40700
O 	O 	0.31807 0.46260 0.18245 -0.40800
O 	O 	0.26353 0.43760 0.22165 -0.37200
O 	O 	0.16068 0.65500 0.46438 -0.40800
O 	O 	0.13588 0.73370 0.46404 -0.40900
O 	O 	0.19472 0.84418 0.37301 -0.40000
O 	O 	0.24592 0.81516 0.33295 -0.39000
O 	O 	0.43405 0.74426 0.13087 -0.40900
O 	O 	0.40617 0.79808 0.16950 -0.37900
O 	O 	0.53946 0.79626 0.03612 -0.40800
O 	O 	0.56528 0.87521 0.03512 -0.40900
O 	O 	0.34595 0.80083 0.23292 -0.40300
N 	N 	0.25978 0.63246 0.31805 -0.24000
H 	H 	0.26620 0.65920 0.30700 0.14300
N 	N 	0.25240 0.55491 0.33159 -0.08900
N 	N 	0.23630 0.58202 0.35866 -0.09000
N 	N 	0.49590 0.97471 0.16715 -0.08800
C 	C 	0.32800 0.60209 0.22377 -0.09200
C 	C 	0.32442 0.55541 0.20942 0.03500
H 	H 	0.33850 0.54920 0.18820 0.05200
C 	C 	0.29951 0.51748 0.22686 -0.08400
C 	C 	0.28463 0.57353 0.27354 -0.04700
C 	C 	0.30768 0.61043 0.25565 0.01600
H 	H 	0.30970 0.64190 0.26520 0.04600
C 	C 	0.27987 0.52635 0.25864 0.01200
H 	H 	0.26350 0.50120 0.27030 0.06000
C 	C 	0.26600 0.58637 0.30735 0.15300
C 	C 	0.24170 0.62907 0.34925 0.15400
C 	C 	0.18819 0.70639 0.42013 -0.09500
C 	C 	0.19341 0.75359 0.40656 0.04200
H 	H 	0.18140 0.78090 0.41850 0.05000
C 	C 	0.21670 0.76018 0.37500 -0.09300
C 	C 	0.23325 0.71878 0.35714 0.01700
H 	H 	0.24870 0.72310 0.33610 0.04400
C 	C 	0.22718 0.67157 0.36992 -0.04900
C 	C 	0.20524 0.66513 0.40193 0.01600
H 	H 	0.20200 0.63350 0.41110 0.05600
C 	C 	0.35286 0.64310 0.20462 0.36500
C 	C 	0.29291 0.46831 0.20904 0.35900
C 	C 	0.15942 0.69794 0.45238 0.37500
C 	C 	0.21969 0.81039 0.35904 0.36100
C 	C 	0.45870 0.82673 0.12544 -0.08900
C 	C 	0.48334 0.81556 0.09536 0.03800
H 	H 	0.48140 0.78370 0.08640 0.05000
C 	C 	0.51109 0.85167 0.07826 -0.09700
C 	C 	0.51290 0.89920 0.09188 0.01400
H 	H 	0.53020 0.92400 0.08040 0.04400
C 	C 	0.48948 0.91000 0.12211 -0.04400
C 	C 	0.46193 0.87447 0.13912 0.01000
H 	H 	0.44580 0.88230 0.15940 0.06200
C 	C 	0.49419 0.96130 0.13508 0.15100
C 	C 	0.43054 0.78683 0.14364 0.36300
C 	C 	0.54032 0.83945 0.04722 0.36500
Cu	Cu	0.62650 0.25251 0.19788 0.93600
Cu	Cu	0.59332 0.31593 0.15074 0.90900
O 	O 	0.65024 0.31448 0.21808 -0.39400
O 	O 	0.62634 0.36725 0.17730 -0.40700
O 	O 	0.68193 0.53740 0.18245 -0.40800
O 	O 	0.73647 0.56240 0.22165 -0.37200
O 	O 	0.83932 0.34500 0.46438 -0.40800
O 	O 	0.86412 0.26630 0.46404 -0.40900
O 	O 	0.80528 0.15582 0.37301 -0.40000
O 	O 	0.75408 0.18484 0.33295 -0.39000
O 	O 	0.56595 0.25574 0.13087 -0.40900
O 	O 	0.59383 0.20192 0.16950 -0.37800
O 	O 	0.46054 0.20374 0.03612 -0.40800
O 	O 	0.43472 0.12479 0.03512 -0.40800
O 	O 	0.65405 0.19917 0.23292 -0.40300
N 	N 	0.74022 0.36754 0.31805 -0.24000
H 	H 	0.73380 0.34080 0.30700 0.14300
N 	N 	0.74760 0.44509 0.33159 -0.08900
N 	N 	0.76370 0.41798 0.35866 -0.09000
N 	N 	0.50410 0.02529 0.16715 -0.08600
C 	C 	0.67200 0.39791 0.22377 -0.09200
C 	C 	0.67558 0.44459 0.20942 0.03500
H 	H 	0.66150 0.45080 0.18820 0.05200
C 	C 	0.70049 0.48252 0.22686 -0.08500
C 	C 	0.71537 0.42647 0.27354 -0.04700
C 	C 	0.69232 0.38957 0.25565 0.01600
H 	H 	0.69030 0.35810 0.26520 0.04600
C 	C 	0.72013 0.47365 0.25864 0.01200
H 	H 	0.73650 0.49880 0.27030 0.06000
C 	C 	0.73400 0.41363 0.30735 0.15300
C 	C 	0.75830 0.37093 0.34925 0.15400
C 	C 	0.81181 0.29361 0.42013 -0.09500
C 	C 	0.80659 0.24641 0.40656 0.04200
H 	H 	0.81860 0.21910 0.41850 0.05000
C 	C 	0.78330 0.23982 0.37500 -0.09300
C 	C 	0.76675 0.28122 0.35714 0.01700
H 	H 	0.75130 0.27690 0.33610 0.04400
C 	C 	0.77282 0.32843 0.36992 -0.04900
C 	C 	0.79476 0.33487 0.40193 0.01600
H 	H 	0.79800 0.36650 0.41110 0.05600
C 	C 	0.64714 0.35690 0.20462 0.36500
C 	C 	0.70709 0.53169 0.20904 0.35900
C 	C 	0.84058 0.30206 0.45238 0.37500
C 	C 	0.78031 0.18961 0.35904 0.36100
C 	C 	0.54130 0.17327 0.12544 -0.08800
C 	C 	0.51666 0.18444 0.09536 0.03800
H 	H 	0.51860 0.21630 0.08640 0.05000
C 	C 	0.48891 0.14833 0.07826 -0.09600
C 	C 	0.48710 0.10080 0.09188 0.01400
H 	H 	0.46980 0.07600 0.08040 0.04500
C 	C 	0.51052 0.09000 0.12211 -0.04400
C 	C 	0.53807 0.12553 0.13912 0.01100
H 	H 	0.55420 0.11770 0.15940 0.06300
C 	C 	0.50581 0.03870 0.13508 0.15300
C 	C 	0.56946 0.21317 0.14364 0.36300
C 	C 	0.45968 0.16055 0.04722 0.36500
Cu	Cu	0.74749 0.62650 0.19788 0.93600
Cu	Cu	0.68407 0.59332 0.15074 0.90900
O 	O 	0.68552 0.65024 0.21808 -0.39400
O 	O 	0.63275 0.62634 0.17730 -0.40700
O 	O 	0.46260 0.68193 0.18245 -0.40800
O 	O 	0.43760 0.73647 0.22165 -0.37200
O 	O 	0.65500 0.83932 0.46438 -0.40800
O 	O 	0.73370 0.86412 0.46404 -0.40900
O 	O 	0.84418 0.80528 0.37301 -0.40000
O 	O 	0.81516 0.75408 0.33295 -0.39000
O 	O 	0.74426 0.56595 0.13087 -0.40900
O 	O 	0.79808 0.59383 0.16950 -0.37900
O 	O 	0.79626 0.46054 0.03612 -0.40800
O 	O 	0.87521 0.43472 0.03512 -0.40900
O 	O 	0.80083 0.65405 0.23292 -0.40300
N 	N 	0.63246 0.74022 0.31805 -0.24000
H 	H 	0.65920 0.73380 0.30700 0.14300
N 	N 	0.55491 0.74760 0.33159 -0.08900
N 	N 	0.58202 0.76370 0.35866 -0.09000
N 	N 	0.97471 0.50410 0.16715 -0.08800
C 	C 	0.60209 0.67200 0.22377 -0.09200
C 	C 	0.55541 0.67558 0.20942 0.03500
H 	H 	0.54920 0.66150 0.18820 0.05200
C 	C 	0.51748 0.70049 0.22686 -0.08500
C 	C 	0.57353 0.71537 0.27354 -0.04700
C 	C 	0.61043 0.69232 0.25565 0.01600
H 	H 	0.64190 0.69030 0.26520 0.04600
C 	C 	0.52635 0.72013 0.25864 0.01200
H 	H 	0.50120 0.73650 0.27030 0.06000
C 	C 	0.58637 0.73400 0.30735 0.15300
C 	C 	0.62907 0.75830 0.34925 0.15400
C 	C 	0.70639 0.81181 0.42013 -0.09500
C 	C 	0.75359 0.80659 0.40656 0.04200
H 	H 	0.78090 0.81860 0.41850 0.04900
C 	C 	0.76018 0.78330 0.37500 -0.09300
C 	C 	0.71878 0.76675 0.35714 0.01700
H 	H 	0.72310 0.75130 0.33610 0.04400
C 	C 	0.67157 0.77282 0.36992 -0.04900
C 	C 	0.66513 0.79476 0.40193 0.01600
H 	H 	0.63350 0.79800 0.41110 0.05500
C 	C 	0.64310 0.64714 0.20462 0.36500
C 	C 	0.46831 0.70709 0.20904 0.35900
C 	C 	0.69794 0.84058 0.45238 0.37500
C 	C 	0.81039 0.78031 0.35904 0.36100
C 	C 	0.82673 0.54130 0.12544 -0.08900
C 	C 	0.81556 0.51666 0.09536 0.03800
H 	H 	0.78370 0.51860 0.08640 0.05000
C 	C 	0.85167 0.48891 0.07826 -0.09700
C 	C 	0.89920 0.48710 0.09188 0.01400
H 	H 	0.92400 0.46980 0.08040 0.04400
C 	C 	0.91000 0.51052 0.12211 -0.04400
C 	C 	0.87447 0.53807 0.13912 0.01000
H 	H 	0.88230 0.55420 0.15940 0.06200
C 	C 	0.96130 0.50581 0.13508 0.15100
C 	C 	0.78683 0.56946 0.14364 0.36300
C 	C 	0.83945 0.45968 0.04722 0.36500
Cu	Cu	0.25251 0.37350 0.19788 0.93600
Cu	Cu	0.31593 0.40668 0.15074 0.90900
O 	O 	0.31448 0.34976 0.21808 -0.39400
O 	O 	0.36725 0.37366 0.17730 -0.40700
O 	O 	0.53740 0.31807 0.18245 -0.40800
O 	O 	0.56240 0.26353 0.22165 -0.37200
O 	O 	0.34500 0.16068 0.46438 -0.40800
O 	O 	0.26630 0.13588 0.46404 -0.40900
O 	O 	0.15582 0.19472 0.37301 -0.39900
O 	O 	0.18484 0.24592 0.33295 -0.39000
O 	O 	0.25574 0.43405 0.13087 -0.40900
O 	O 	0.20192 0.40617 0.16950 -0.37800
O 	O 	0.20374 0.53946 0.03612 -0.40800
O 	O 	0.12479 0.56528 0.03512 -0.40800
O 	O 	0.19917 0.34595 0.23292 -0.40300
N 	N 	0.36754 0.25978 0.31805 -0.24000
H 	H 	0.34080 0.26620 0.30700 0.14300
N 	N 	0.44509 0.25240 0.33159 -0.08900
N 	N 	0.41798 0.23630 0.35866 -0.09000
N 	N 	0.02529 0.49590 0.16715 -0.08600
C 	C 	0.39791 0.32800 0.22377 -0.09200
C 	C 	0.44459 0.32442 0.20942 0.03500
H 	H 	0.45080 0.33850 0.18820 0.05200
C 	C 	0.48252 0.29951 0.22686 -0.08400
C 	C 	0.42647 0.28463 0.27354 -0.04700
C 	C 	0.38957 0.30768 0.25565 0.01600
H 	H 	0.35810 0.30970 0.26520 0.04600
C 	C 	0.47365 0.27987 0.25864 0.01200
H 	H 	0.49880 0.26350 0.27030 0.06000
C 	C 	0.41363 0.26600 0.30735 0.15300
C 	C 	0.37093 0.24170 0.34925 0.15400
C 	C 	0.29361 0.18819 0.42013 -0.09500
C 	C 	0.24641 0.19341 0.40656 0.04200
H 	H 	0.21910 0.18140 0.41850 0.05000
C 	C 	0.23982 0.21670 0.37500 -0.09300
C 	C 	0.28122 0.23325 0.35714 0.01700
H 	H 	0.27690 0.24870 0.33610 0.04400
C 	C 	0.32843 0.22718 0.36992 -0.04900
C 	C 	0.33487 0.20524 0.40193 0.01500
H 	H 	0.36650 0.20200 0.41110 0.05600
C 	C 	0.35690 0.35286 0.20462 0.36500
C 	C 	0.53169 0.29291 0.20904 0.35900
C 	C 	0.30206 0.15942 0.45238 0.37500
C 	C 	0.18961 0.21969 0.35904 0.36100
C 	C 	0.17327 0.45870 0.12544 -0.08800
C 	C 	0.18444 0.48334 0.09536 0.03800
H 	H 	0.21630 0.48140 0.08640 0.05000
C 	C 	0.14833 0.51109 0.07826 -0.09600
C 	C 	0.10080 0.51290 0.09188 0.01400
H 	H 	0.07600 0.53020 0.08040 0.04500
C 	C 	0.09000 0.48948 0.12211 -0.04400
C 	C 	0.12553 0.46193 0.13912 0.01100
H 	H 	0.11770 0.44580 0.15940 0.06300
C 	C 	0.03870 0.49419 0.13508 0.15300
C 	C 	0.21317 0.43054 0.14364 0.36300
C 	C 	0.16055 0.54032 0.04722 0.36500
Cu	Cu	0.87350 0.75251 0.69788 0.93600
Cu	Cu	0.90668 0.81593 0.65074 0.90900
O 	O 	0.84976 0.81448 0.71808 -0.39500
O 	O 	0.87366 0.86725 0.67730 -0.40700
O 	O 	0.81807 0.03740 0.68245 -0.40800
O 	O 	0.76353 0.06240 0.72165 -0.37200
O 	O 	0.66068 0.84500 0.96438 -0.40200
O 	O 	0.63588 0.76630 0.96404 -0.40300
O 	O 	0.69472 0.65582 0.87301 -0.39900
O 	O 	0.74592 0.68484 0.83295 -0.39000
O 	O 	0.93405 0.75574 0.63087 -0.40800
O 	O 	0.90617 0.70192 0.66950 -0.37900
O 	O 	0.03946 0.70374 0.53612 -0.40400
O 	O 	0.06528 0.62479 0.53512 -0.40500
O 	O 	0.84595 0.69917 0.73292 -0.40300
N 	N 	0.75978 0.86754 0.81805 -0.24000
H 	H 	0.76620 0.84080 0.80700 0.14300
N 	N 	0.75240 0.94509 0.83159 -0.08900
N 	N 	0.73630 0.91798 0.85866 -0.09000
N 	N 	0.99590 0.52529 0.66715 -0.08800
C 	C 	0.82800 0.89791 0.72377 -0.09400
C 	C 	0.82442 0.94459 0.70942 0.03600
H 	H 	0.83850 0.95080 0.68820 0.05100
C 	C 	0.79951 0.98252 0.72686 -0.08800
C 	C 	0.78463 0.92647 0.77354 -0.04800
C 	C 	0.80768 0.88957 0.75565 0.01700
H 	H 	0.80970 0.85810 0.76520 0.04500
C 	C 	0.77987 0.97365 0.75864 0.01400
H 	H 	0.76350 0.99880 0.77030 0.05900
C 	C 	0.76600 0.91363 0.80735 0.15400
C 	C 	0.74170 0.87093 0.84925 0.15400
C 	C 	0.68819 0.79361 0.92013 -0.09300
C 	C 	0.69341 0.74641 0.90656 0.04000
H 	H 	0.68140 0.71910 0.91850 0.05100
C 	C 	0.71670 0.73982 0.87500 -0.09200
C 	C 	0.73325 0.78122 0.85714 0.01600
H 	H 	0.74870 0.77690 0.83610 0.04500
C 	C 	0.72718 0.82843 0.86992 -0.04800
C 	C 	0.70524 0.83487 0.90193 0.01400
H 	H 	0.70200 0.86650 0.91110 0.05700
C 	C 	0.85286 0.85690 0.70462 0.36600
C 	C 	0.79291 0.03169 0.70904 0.36200
C 	C 	0.65942 0.80206 0.95238 0.37400
C 	C 	0.71969 0.68961 0.85904 0.36100
C 	C 	0.95870 0.67327 0.62544 -0.08700
C 	C 	0.98334 0.68444 0.59536 0.03400
H 	H 	0.98140 0.71630 0.58640 0.05100
C 	C 	0.01109 0.64833 0.57826 -0.09300
C 	C 	0.01290 0.60080 0.59188 0.01600
H 	H 	0.03020 0.57600 0.58040 0.04600
C 	C 	0.98948 0.59000 0.62211 -0.04600
C 	C 	0.96193 0.62553 0.63912 0.01000
H 	H 	0.94580 0.61770 0.65940 0.06200
C 	C 	0.99419 0.53870 0.63508 0.15100
C 	C 	0.93054 0.71317 0.64364 0.36200
C 	C 	0.04032 0.66055 0.54722 0.36400
Cu	Cu	0.12650 0.24749 0.69788 0.93600
Cu	Cu	0.09332 0.18407 0.65074 0.90900
O 	O 	0.15024 0.18552 0.71808 -0.39400
O 	O 	0.12634 0.13275 0.67730 -0.40600
O 	O 	0.18193 0.96260 0.68245 -0.40800
O 	O 	0.23647 0.93760 0.72165 -0.37200
O 	O 	0.33932 0.15500 0.96438 -0.40100
O 	O 	0.36412 0.23370 0.96404 -0.40300
O 	O 	0.30528 0.34418 0.87301 -0.39900
O 	O 	0.25408 0.31516 0.83295 -0.38900
O 	O 	0.06595 0.24426 0.63087 -0.40800
O 	O 	0.09383 0.29808 0.66950 -0.37800
O 	O 	0.96054 0.29626 0.53612 -0.40600
O 	O 	0.93472 0.37521 0.53512 -0.40500
O 	O 	0.15405 0.30083 0.73292 -0.40300
N 	N 	0.24022 0.13246 0.81805 -0.24000
H 	H 	0.23380 0.15920 0.80700 0.14400
N 	N 	0.24760 0.05491 0.83159 -0.08800
N 	N 	0.26370 0.08202 0.85866 -0.08900
N 	N 	0.00410 0.47471 0.66715 -0.08600
C 	C 	0.17200 0.10209 0.72377 -0.09100
C 	C 	0.17558 0.05541 0.70942 0.03300
H 	H 	0.16150 0.04920 0.68820 0.05400
C 	C 	0.20049 0.01748 0.72686 -0.08100
C 	C 	0.21537 0.07353 0.77354 -0.04500
C 	C 	0.19232 0.11043 0.75565 0.01500
H 	H 	0.19030 0.14190 0.76520 0.04600
C 	C 	0.22013 0.02635 0.75864 0.01100
H 	H 	0.23650 0.00120 0.77030 0.06100
C 	C 	0.23400 0.08637 0.80735 0.15300
C 	C 	0.25830 0.12907 0.84925 0.15400
C 	C 	0.31181 0.20639 0.92013 -0.09200
C 	C 	0.30659 0.25359 0.90656 0.04000
H 	H 	0.31860 0.28090 0.91850 0.05100
C 	C 	0.28330 0.26018 0.87500 -0.09100
C 	C 	0.26675 0.21878 0.85714 0.01600
H 	H 	0.25130 0.22310 0.83610 0.04500
C 	C 	0.27282 0.17157 0.86992 -0.04800
C 	C 	0.29476 0.16513 0.90193 0.01400
H 	H 	0.29800 0.13350 0.91110 0.05700
C 	C 	0.14714 0.14310 0.70462 0.36500
C 	C 	0.20709 0.96831 0.70904 0.35600
C 	C 	0.34058 0.19794 0.95238 0.37300
C 	C 	0.28031 0.31039 0.85904 0.36100
C 	C 	0.04130 0.32673 0.62544 -0.08800
C 	C 	0.01666 0.31556 0.59536 0.04000
H 	H 	0.01860 0.28370 0.58640 0.05100
C 	C 	0.98891 0.35167 0.57826 -0.09700
C 	C 	0.98710 0.39920 0.59188 0.01100
H 	H 	0.96980 0.42400 0.58040 0.04600
C 	C 	0.01052 0.41000 0.62211 -0.04100
C 	C 	0.03807 0.37447 0.63912 0.01000
H 	H 	0.05420 0.38230 0.65940 0.06300
C 	C 	0.00581 0.46130 0.63508 0.15300
C 	C 	0.06946 0.28683 0.64364 0.36300
C 	C 	0.95968 0.33945 0.54722 0.36500
Cu	Cu	0.24749 0.87350 0.69788 0.93600
Cu	Cu	0.18407 0.90668 0.65074 0.90900
O 	O 	0.18552 0.84976 0.71808 -0.39400
O 	O 	0.13275 0.87366 0.67730 -0.40700
O 	O 	0.96260 0.81807 0.68245 -0.40800
O 	O 	0.93760 0.76353 0.72165 -0.37200
O 	O 	0.15500 0.66068 0.96438 -0.40100
O 	O 	0.23370 0.63588 0.96404 -0.40300
O 	O 	0.34418 0.69472 0.87301 -0.39900
O 	O 	0.31516 0.74592 0.83295 -0.39000
O 	O 	0.24426 0.93405 0.63087 -0.40800
O 	O 	0.29808 0.90617 0.66950 -0.37900
O 	O 	0.29626 0.03946 0.53612 -0.40400
O 	O 	0.37521 0.06528 0.53512 -0.40500
O 	O 	0.30083 0.84595 0.73292 -0.40300
N 	N 	0.13246 0.75978 0.81805 -0.24000
H 	H 	0.15920 0.76620 0.80700 0.14300
N 	N 	0.05491 0.75240 0.83159 -0.08800
N 	N 	0.08202 0.73630 0.85866 -0.08900
N 	N 	0.47471 0.99590 0.66715 -0.08800
C 	C 	0.10209 0.82800 0.72377 -0.09100
C 	C 	0.05541 0.82442 0.70942 0.03300
H 	H 	0.04920 0.83850 0.68820 0.05400
C 	C 	0.01748 0.79951 0.72686 -0.08100
C 	C 	0.07353 0.78463 0.77354 -0.04500
C 	C 	0.11043 0.80768 0.75565 0.01500
H 	H 	0.14190 0.80970 0.76520 0.04600
C 	C 	0.02635 0.77987 0.75864 0.01100
H 	H 	0.00120 0.76350 0.77030 0.06100
C 	C 	0.08637 0.76600 0.80735 0.15300
C 	C 	0.12907 0.74170 0.84925 0.15400
C 	C 	0.20639 0.68819 0.92013 -0.09200
C 	C 	0.25359 0.69341 0.90656 0.04000
H 	H 	0.28090 0.68140 0.91850 0.05100
C 	C 	0.26018 0.71670 0.87500 -0.09200
C 	C 	0.21878 0.73325 0.85714 0.01600
H 	H 	0.22310 0.74870 0.83610 0.04500
C 	C 	0.17157 0.72718 0.86992 -0.04800
C 	C 	0.16513 0.70524 0.90193 0.01400
H 	H 	0.13350 0.70200 0.91110 0.05700
C 	C 	0.14310 0.85286 0.70462 0.36500
C 	C 	0.96831 0.79291 0.70904 0.35600
C 	C 	0.19794 0.65942 0.95238 0.37300
C 	C 	0.31039 0.71969 0.85904 0.36100
C 	C 	0.32673 0.95870 0.62544 -0.08700
C 	C 	0.31556 0.98334 0.59536 0.03400
H 	H 	0.28370 0.98140 0.58640 0.05100
C 	C 	0.35167 0.01109 0.57826 -0.09300
C 	C 	0.39920 0.01290 0.59188 0.01600
H 	H 	0.42400 0.03020 0.58040 0.04600
C 	C 	0.41000 0.98948 0.62211 -0.04600
C 	C 	0.37447 0.96193 0.63912 0.01000
H 	H 	0.38230 0.94580 0.65940 0.06200
C 	C 	0.46130 0.99419 0.63508 0.15100
C 	C 	0.28683 0.93054 0.64364 0.36200
C 	C 	0.33945 0.04032 0.54722 0.36400
Cu	Cu	0.75251 0.12650 0.69788 0.93600
Cu	Cu	0.81593 0.09332 0.65074 0.90900
O 	O 	0.81448 0.15024 0.71808 -0.39400
O 	O 	0.86725 0.12634 0.67730 -0.40700
O 	O 	0.03740 0.18193 0.68245 -0.40800
O 	O 	0.06240 0.23647 0.72165 -0.37200
O 	O 	0.84500 0.33932 0.96438 -0.40200
O 	O 	0.76630 0.36412 0.96404 -0.40300
O 	O 	0.65582 0.30528 0.87301 -0.39900
O 	O 	0.68484 0.25408 0.83295 -0.39000
O 	O 	0.75574 0.06595 0.63087 -0.40800
O 	O 	0.70192 0.09383 0.66950 -0.37800
O 	O 	0.70374 0.96054 0.53612 -0.40600
O 	O 	0.62479 0.93472 0.53512 -0.40500
O 	O 	0.69917 0.15405 0.73292 -0.40300
N 	N 	0.86754 0.24022 0.81805 -0.24000
H 	H 	0.84080 0.23380 0.80700 0.14400
N 	N 	0.94509 0.24760 0.83159 -0.08900
N 	N 	0.91798 0.26370 0.85866 -0.09000
N 	N 	0.52529 0.00410 0.66715 -0.08600
C 	C 	0.89791 0.17200 0.72377 -0.09300
C 	C 	0.94459 0.17558 0.70942 0.03600
H 	H 	0.95080 0.16150 0.68820 0.05200
C 	C 	0.98252 0.20049 0.72686 -0.08800
C 	C 	0.92647 0.21537 0.77354 -0.04700
C 	C 	0.88957 0.19232 0.75565 0.01700
H 	H 	0.85810 0.19030 0.76520 0.04600
C 	C 	0.97365 0.22013 0.75864 0.01400
H 	H 	0.99880 0.23650 0.77030 0.05900
C 	C 	0.91363 0.23400 0.80735 0.15400
C 	C 	0.87093 0.25830 0.84925 0.15400
C 	C 	0.79361 0.31181 0.92013 -0.09200
C 	C 	0.74641 0.30659 0.90656 0.04000
H 	H 	0.71910 0.31860 0.91850 0.05100
C 	C 	0.73982 0.28330 0.87500 -0.09200
C 	C 	0.78122 0.26675 0.85714 0.01600
H 	H 	0.77690 0.25130 0.83610 0.04500
C 	C 	0.82843 0.27282 0.86992 -0.04800
C 	C 	0.83487 0.29476 0.90193 0.01400
H 	H 	0.86650 0.29800 0.91110 0.05700
C 	C 	0.85690 0.14714 0.70462 0.36600
C 	C 	0.03169 0.20709 0.70904 0.36200
C 	C 	0.80206 0.34058 0.95238 0.37400
C 	C 	0.68961 0.28031 0.85904 0.36100
C 	C 	0.67327 0.04130 0.62544 -0.08800
C 	C 	0.68444 0.01666 0.59536 0.04000
H 	H 	0.71630 0.01860 0.58640 0.05100
C 	C 	0.64833 0.98891 0.57826 -0.09700
C 	C 	0.60080 0.98710 0.59188 0.01100
H 	H 	0.57600 0.96980 0.58040 0.04600
C 	C 	0.59000 0.01052 0.62211 -0.04100
C 	C 	0.62553 0.03807 0.63912 0.01000
H 	H 	0.61770 0.05420 0.65940 0.06300
C 	C 	0.53870 0.00581 0.63508 0.15300
C 	C 	0.71317 0.06946 0.64364 0.36300
C 	C 	0.66055 0.95968 0.54722 0.36500
Cu	Cu	0.62650 0.25251 0.80212 0.93600
Cu	Cu	0.59332 0.31593 0.84926 0.90900
O 	O 	0.65024 0.31448 0.78192 -0.39400
O 	O 	0.62634 0.36725 0.82270 -0.40600
O 	O 	0.68193 0.53740 0.81755 -0.40800
O 	O 	0.73647 0.56240 0.77835 -0.37200
O 	O 	0.83932 0.34500 0.53562 -0.40800
O 	O 	0.86412 0.26630 0.53596 -0.40900
O 	O 	0.80528 0.15582 0.62699 -0.40000
O 	O 	0.75408 0.18484 0.66705 -0.39000
O 	O 	0.56595 0.25574 0.86913 -0.40700
O 	O 	0.59383 0.20192 0.83050 -0.37800
O 	O 	0.46054 0.20374 0.96388 -0.39900
O 	O 	0.43472 0.12479 0.96488 -0.39800
O 	O 	0.65405 0.19917 0.76708 -0.40300
N 	N 	0.74022 0.36754 0.68195 -0.24000
H 	H 	0.73380 0.34080 0.69300 0.14300
N 	N 	0.74760 0.44509 0.66841 -0.08900
N 	N 	0.76370 0.41798 0.64134 -0.09000
N 	N 	0.50410 0.02529 0.83285 -0.08600
C 	C 	0.67200 0.39791 0.77623 -0.09200
C 	C 	0.67558 0.44459 0.79058 0.03400
H 	H 	0.66150 0.45080 0.81180 0.05300
C 	C 	0.70049 0.48252 0.77314 -0.08400
C 	C 	0.71537 0.42647 0.72646 -0.04600
C 	C 	0.69232 0.38957 0.74435 0.01600
H 	H 	0.69030 0.35810 0.73480 0.04600
C 	C 	0.72013 0.47365 0.74136 0.01200
H 	H 	0.73650 0.49880 0.72970 0.06000
C 	C 	0.73400 0.41363 0.69265 0.15300
C 	C 	0.75830 0.37093 0.65075 0.15400
C 	C 	0.81181 0.29361 0.57987 -0.09500
C 	C 	0.80659 0.24641 0.59344 0.04200
H 	H 	0.81860 0.21910 0.58150 0.05000
C 	C 	0.78330 0.23982 0.62500 -0.09300
C 	C 	0.76675 0.28122 0.64286 0.01700
H 	H 	0.75130 0.27690 0.66390 0.04400
C 	C 	0.77282 0.32843 0.63008 -0.04900
C 	C 	0.79476 0.33487 0.59807 0.01600
H 	H 	0.79800 0.36650 0.58890 0.05500
C 	C 	0.64714 0.35690 0.79538 0.36500
C 	C 	0.70709 0.53169 0.79096 0.35900
C 	C 	0.84058 0.30206 0.54762 0.37500
C 	C 	0.78031 0.18961 0.64096 0.36100
C 	C 	0.54130 0.17327 0.87456 -0.08600
C 	C 	0.51666 0.18444 0.90464 0.03600
H 	H 	0.51860 0.21630 0.91360 0.05300
C 	C 	0.48891 0.14833 0.92174 -0.09200
C 	C 	0.48710 0.10080 0.90812 0.01200
H 	H 	0.46980 0.07600 0.91960 0.04800
C 	C 	0.51052 0.09000 0.87789 -0.04200
C 	C 	0.53807 0.12553 0.86088 0.01000
H 	H 	0.55420 0.11770 0.84060 0.06300
C 	C 	0.50581 0.03870 0.86492 0.15300
C 	C 	0.56946 0.21317 0.85636 0.36200
C 	C 	0.45968 0.16055 0.95278 0.36300
Cu	Cu	0.37350 0.74749 0.80212 0.93600
Cu	Cu	0.40668 0.68407 0.84926 0.90900
O 	O 	0.34976 0.68552 0.78192 -0.39400
O 	O 	0.37366 0.63275 0.82270 -0.40600
O 	O 	0.31807 0.46260 0.81755 -0.40800
O 	O 	0.26353 0.43760 0.77835 -0.37200
O 	O 	0.16068 0.65500 0.53562 -0.40800
O 	O 	0.13588 0.73370 0.53596 -0.40900
O 	O 	0.19472 0.84418 0.62699 -0.40000
O 	O 	0.24592 0.81516 0.66705 -0.39000
O 	O 	0.43405 0.74426 0.86913 -0.40700
O 	O 	0.40617 0.79808 0.83050 -0.37800
O 	O 	0.53946 0.79626 0.96388 -0.39900
O 	O 	0.56528 0.87521 0.96488 -0.39900
O 	O 	0.34595 0.80083 0.76708 -0.40300
N 	N 	0.25978 0.63246 0.68195 -0.24000
H 	H 	0.26620 0.65920 0.69300 0.14300
N 	N 	0.25240 0.55491 0.66841 -0.08900
N 	N 	0.23630 0.58202 0.64134 -0.09000
N 	N 	0.49590 0.97471 0.83285 -0.08800
C 	C 	0.32800 0.60209 0.77623 -0.09200
C 	C 	0.32442 0.55541 0.79058 0.03400
H 	H 	0.33850 0.54920 0.81180 0.05300
C 	C 	0.29951 0.51748 0.77314 -0.08400
C 	C 	0.28463 0.57353 0.72646 -0.04600
C 	C 	0.30768 0.61043 0.74435 0.01600
H 	H 	0.30970 0.64190 0.73480 0.04600
C 	C 	0.27987 0.52635 0.74136 0.01200
H 	H 	0.26350 0.50120 0.72970 0.06000
C 	C 	0.26600 0.58637 0.69265 0.15300
C 	C 	0.24170 0.62907 0.65075 0.15400
C 	C 	0.18819 0.70639 0.57987 -0.09500
C 	C 	0.19341 0.75359 0.59344 0.04200
H 	H 	0.18140 0.78090 0.58150 0.05000
C 	C 	0.21670 0.76018 0.62500 -0.09300
C 	C 	0.23325 0.71878 0.64286 0.01700
H 	H 	0.24870 0.72310 0.66390 0.04400
C 	C 	0.22718 0.67157 0.63008 -0.04900
C 	C 	0.20524 0.66513 0.59807 0.01600
H 	H 	0.20200 0.63350 0.58890 0.05600
C 	C 	0.35286 0.64310 0.79538 0.36500
C 	C 	0.29291 0.46831 0.79096 0.35900
C 	C 	0.15942 0.69794 0.54762 0.37500
C 	C 	0.21969 0.81039 0.64096 0.36100
C 	C 	0.45870 0.82673 0.87456 -0.08600
C 	C 	0.48334 0.81556 0.90464 0.03600
H 	H 	0.48140 0.78370 0.91360 0.05300
C 	C 	0.51109 0.85167 0.92174 -0.09200
C 	C 	0.51290 0.89920 0.90812 0.01200
H 	H 	0.53020 0.92400 0.91960 0.04700
C 	C 	0.48948 0.91000 0.87789 -0.04200
C 	C 	0.46193 0.87447 0.86088 0.00900
H 	H 	0.44580 0.88230 0.84060 0.06300
C 	C 	0.49419 0.96130 0.86492 0.15100
C 	C 	0.43054 0.78683 0.85636 0.36200
C 	C 	0.54032 0.83945 0.95278 0.36300
Cu	Cu	0.25251 0.37350 0.80212 0.93600
Cu	Cu	0.31593 0.40668 0.84926 0.90900
O 	O 	0.31448 0.34976 0.78192 -0.39400
O 	O 	0.36725 0.37366 0.82270 -0.40600
O 	O 	0.53740 0.31807 0.81755 -0.40800
O 	O 	0.56240 0.26353 0.77835 -0.37200
O 	O 	0.34500 0.16068 0.53562 -0.40800
O 	O 	0.26630 0.13588 0.53596 -0.40900
O 	O 	0.15582 0.19472 0.62699 -0.40000
O 	O 	0.18484 0.24592 0.66705 -0.39000
O 	O 	0.25574 0.43405 0.86913 -0.40700
O 	O 	0.20192 0.40617 0.83050 -0.37800
O 	O 	0.20374 0.53946 0.96388 -0.39900
O 	O 	0.12479 0.56528 0.96488 -0.39800
O 	O 	0.19917 0.34595 0.76708 -0.40300
N 	N 	0.36754 0.25978 0.68195 -0.24000
H 	H 	0.34080 0.26620 0.69300 0.14300
N 	N 	0.44509 0.25240 0.66841 -0.08900
N 	N 	0.41798 0.23630 0.64134 -0.09000
N 	N 	0.02529 0.49590 0.83285 -0.08600
C 	C 	0.39791 0.32800 0.77623 -0.09200
C 	C 	0.44459 0.32442 0.79058 0.03400
H 	H 	0.45080 0.33850 0.81180 0.05300
C 	C 	0.48252 0.29951 0.77314 -0.08400
C 	C 	0.42647 0.28463 0.72646 -0.04600
C 	C 	0.38957 0.30768 0.74435 0.01600
H 	H 	0.35810 0.30970 0.73480 0.04600
C 	C 	0.47365 0.27987 0.74136 0.01200
H 	H 	0.49880 0.26350 0.72970 0.06000
C 	C 	0.41363 0.26600 0.69265 0.15300
C 	C 	0.37093 0.24170 0.65075 0.15400
C 	C 	0.29361 0.18819 0.57987 -0.09500
C 	C 	0.24641 0.19341 0.59344 0.04200
H 	H 	0.21910 0.18140 0.58150 0.05000
C 	C 	0.23982 0.21670 0.62500 -0.09300
C 	C 	0.28122 0.23325 0.64286 0.01700
H 	H 	0.27690 0.24870 0.66390 0.04400
C 	C 	0.32843 0.22718 0.63008 -0.04900
C 	C 	0.33487 0.20524 0.59807 0.01500
H 	H 	0.36650 0.20200 0.58890 0.05600
C 	C 	0.35690 0.35286 0.79538 0.36500
C 	C 	0.53169 0.29291 0.79096 0.35900
C 	C 	0.30206 0.15942 0.54762 0.37500
C 	C 	0.18961 0.21969 0.64096 0.36100
C 	C 	0.17327 0.45870 0.87456 -0.08600
C 	C 	0.18444 0.48334 0.90464 0.03600
H 	H 	0.21630 0.48140 0.91360 0.05300
C 	C 	0.14833 0.51109 0.92174 -0.09200
C 	C 	0.10080 0.51290 0.90812 0.01200
H 	H 	0.07600 0.53020 0.91960 0.04800
C 	C 	0.09000 0.48948 0.87789 -0.04200
C 	C 	0.12553 0.46193 0.86088 0.01000
H 	H 	0.11770 0.44580 0.84060 0.06300
C 	C 	0.03870 0.49419 0.86492 0.15300
C 	C 	0.21317 0.43054 0.85636 0.36200
C 	C 	0.16055 0.54032 0.95278 0.36300
Cu	Cu	0.74749 0.62650 0.80212 0.93600
Cu	Cu	0.68407 0.59332 0.84926 0.90900
O 	O 	0.68552 0.65024 0.78192 -0.39400
O 	O 	0.63275 0.62634 0.82270 -0.40600
O 	O 	0.46260 0.68193 0.81755 -0.40800
O 	O 	0.43760 0.73647 0.77835 -0.37200
O 	O 	0.65500 0.83932 0.53562 -0.40800
O 	O 	0.73370 0.86412 0.53596 -0.40900
O 	O 	0.84418 0.80528 0.62699 -0.40000
O 	O 	0.81516 0.75408 0.66705 -0.39000
O 	O 	0.74426 0.56595 0.86913 -0.40700
O 	O 	0.79808 0.59383 0.83050 -0.37800
O 	O 	0.79626 0.46054 0.96388 -0.39900
O 	O 	0.87521 0.43472 0.96488 -0.39900
O 	O 	0.80083 0.65405 0.76708 -0.40300
N 	N 	0.63246 0.74022 0.68195 -0.24000
H 	H 	0.65920 0.73380 0.69300 0.14300
N 	N 	0.55491 0.74760 0.66841 -0.08900
N 	N 	0.58202 0.76370 0.64134 -0.09000
N 	N 	0.97471 0.50410 0.83285 -0.08800
C 	C 	0.60209 0.67200 0.77623 -0.09200
C 	C 	0.55541 0.67558 0.79058 0.03400
H 	H 	0.54920 0.66150 0.81180 0.05300
C 	C 	0.51748 0.70049 0.77314 -0.08400
C 	C 	0.57353 0.71537 0.72646 -0.04600
C 	C 	0.61043 0.69232 0.74435 0.01600
H 	H 	0.64190 0.69030 0.73480 0.04600
C 	C 	0.52635 0.72013 0.74136 0.01200
H 	H 	0.50120 0.73650 0.72970 0.06000
C 	C 	0.58637 0.73400 0.69265 0.15300
C 	C 	0.62907 0.75830 0.65075 0.15400
C 	C 	0.70639 0.81181 0.57987 -0.09500
C 	C 	0.75359 0.80659 0.59344 0.04200
H 	H 	0.78090 0.81860 0.58150 0.04900
C 	C 	0.76018 0.78330 0.62500 -0.09300
C 	C 	0.71878 0.76675 0.64286 0.01700
H 	H 	0.72310 0.75130 0.66390 0.04400
C 	C 	0.67157 0.77282 0.63008 -0.04900
C 	C 	0.66513 0.79476 0.59807 0.01600
H 	H 	0.63350 0.79800 0.58890 0.05500
C 	C 	0.64310 0.64714 0.79538 0.36500
C 	C 	0.46831 0.70709 0.79096 0.35900
C 	C 	0.69794 0.84058 0.54762 0.37500
C 	C 	0.81039 0.78031 0.64096 0.36100
C 	C 	0.82673 0.54130 0.87456 -0.08600
C 	C 	0.81556 0.51666 0.90464 0.03600
H 	H 	0.78370 0.51860 0.91360 0.05300
C 	C 	0.85167 0.48891 0.92174 -0.09200
C 	C 	0.89920 0.48710 0.90812 0.01200
H 	H 	0.92400 0.46980 0.91960 0.04700
C 	C 	0.91000 0.51052 0.87789 -0.04200
C 	C 	0.87447 0.53807 0.86088 0.00900
H 	H 	0.88230 0.55420 0.84060 0.06300
C 	C 	0.96130 0.50581 0.86492 0.15100
C 	C 	0.78683 0.56946 0.85636 0.36200
C 	C 	0.83945 0.45968 0.95278 0.36300
Cu	Cu	0.91484 0.27342 0.50000 0.90300
Cu	Cu	0.88440 0.36735 0.50000 0.91000
Cu	Cu	0.08516 0.72658 0.50000 0.90300
Cu	Cu	0.11560 0.63265 0.50000 0.91000
Cu	Cu	0.72658 0.91484 0.50000 0.90300
Cu	Cu	0.63265 0.88440 0.50000 0.91000
Cu	Cu	0.27342 0.08516 0.50000 0.90300
Cu	Cu	0.36735 0.11560 0.50000 0.91000
Cu	Cu	0.58516 0.77342 -0.00000 0.89700
Cu	Cu	0.61560 0.86735 -0.00000 0.90400
Cu	Cu	0.41484 0.22658 -0.00000 0.89700
Cu	Cu	0.38440 0.13265 -0.00000 0.90500
Cu	Cu	0.77342 0.41484 -0.00000 0.89700
Cu	Cu	0.86735 0.38440 -0.00000 0.90400
Cu	Cu	0.22658 0.58516 -0.00000 0.89700
Cu	Cu	0.13265 0.61560 -0.00000 0.90500
N 	N 	-0.00000 0.50000 0.38541 -0.23800
H 	H 	0.00000 0.50000 0.40730 0.14200
N 	N 	0.50000 0.00000 0.38541 -0.23800
H 	H 	0.50000 0.00000 0.40730 0.14200
N 	N 	0.50000 0.00000 0.11459 -0.23700
H 	H 	0.50000 -0.00000 0.09270 0.14100
N 	N 	0.00000 0.50000 0.11459 -0.23700
H 	H 	0.00000 0.50000 0.09270 0.14100
N 	N 	-0.00000 0.50000 0.61459 -0.23800
H 	H 	-0.00000 0.50000 0.59270 0.14200
N 	N 	0.50000 0.00000 0.61459 -0.23800
H 	H 	0.50000 -0.00000 0.59270 0.14200
N 	N 	0.50000 0.00000 0.88541 -0.23800
H 	H 	0.50000 -0.00000 0.90730 0.14300
N 	N 	-0.00000 0.50000 0.88541 -0.23800
H 	H 	-0.00000 0.50000 0.90730 0.14300
C 	C 	0.18927 0.31073 0.25000 0.58100
H 	H 	0.21360 0.28640 0.25000 -0.14200
C 	C 	0.81073 0.68927 0.25000 0.58100
H 	H 	0.78640 0.71360 0.25000 -0.14200
C 	C 	0.68927 0.18927 0.25000 0.58100
H 	H 	0.71360 0.21360 0.25000 -0.14200
C 	C 	0.31073 0.81073 0.25000 0.58100
H 	H 	0.28640 0.78640 0.25000 -0.14200
C 	C 	0.81073 0.68927 0.75000 0.58100
H 	H 	0.78640 0.71360 0.75000 -0.14200
C 	C 	0.18927 0.31073 0.75000 0.58100
H 	H 	0.21360 0.28640 0.75000 -0.14200
C 	C 	0.31073 0.81073 0.75000 0.58100
H 	H 	0.28640 0.78640 0.75000 -0.14200
C 	C 	0.68927 0.18927 0.75000 0.58100
H 	H 	0.71360 0.21360 0.75000 -0.14200
