data_crystal

_cell_length_a 18.95860
_cell_length_b 18.95860
_cell_length_c 38.05890
_cell_angle_alpha 90.00000
_cell_angle_beta  90.00000
_cell_angle_gamma 120.00000

_symmetry_space_group_name_	'P 1'
_symmetry_space_group_name_H-M	'P 1'

loop_
_symmetry_equiv_pos_as_xyz
  x,y,z

loop_
_atom_site_label
_atom_site_type_symbol
_atom_site_fract_x
_atom_site_fract_y
_atom_site_fract_z
_atom_site_charge
Zn	Zn	0.80806 0.61646 0.99994 1.18900
Zn	Zn	0.85808 0.71668 0.93460 1.19600
O 	O 	0.96210 0.77860 0.96200 -0.50300
O 	O 	0.92520 0.70260 0.01010 -0.46200
C 	C 	0.97190 0.76280 0.99120 0.36800
C 	C 	0.05270 0.82200 0.01146 -0.02800
C 	C 	0.10750 0.89340 0.99431 -0.05300
H 	H 	0.09650 0.90340 0.97100 0.05700
C 	C 	0.17840 0.95030 0.01120 -0.05900
C 	C 	0.19450 0.93570 0.04524 -0.04100
H 	H 	0.24290 0.97460 0.05680 0.06900
C 	C 	0.13970 0.86430 0.06240 0.02400
C 	C 	0.06880 0.80740 0.04550 -0.05800
H 	H 	0.03130 0.75860 0.05720 0.05400
C 	C 	0.24060 0.02610 0.99350 0.41100
O 	O 	0.22610 0.03460 0.96200 -0.48000
O 	O 	0.29910 0.07400 0.00830 -0.49400
C 	C 	0.16430 0.84300 0.09870 -0.00100
C 	C 	0.18710 0.90250 0.12440 0.08900
C 	C 	0.19780 0.88560 0.15890 -0.09900
H 	H 	0.21340 0.92620 0.17650 0.05600
C 	C 	0.18570 0.80910 0.16770 -0.04800
C 	C 	0.16290 0.74960 0.14200 0.17400
C 	C 	0.15220 0.76650 0.10750 -0.15600
H 	H 	0.13670 0.72580 0.08990 0.07900
O 	O 	0.16270 0.68190 0.15180 -0.29200
C 	C 	0.13650 0.61600 0.17300 0.25100
H 	H 	0.11140 0.61530 0.19620 -0.04300
C 	C 	0.09110 0.53550 0.14720 -0.10100
H 	H 	0.11150 0.49730 0.15150 0.05100
H 	H 	0.03130 0.50640 0.15040 0.04200
C 	C 	0.11610 0.57510 0.10940 -0.30000
H 	H 	0.09310 0.61070 0.10550 0.11900
H 	H 	0.09500 0.53200 0.09160 0.10900
H 	H 	0.17560 0.60710 0.10770 0.11600
C 	C 	0.21930 0.61440 0.17210 -0.53000
H 	H 	0.24620 0.63520 0.14940 0.18100
H 	H 	0.20790 0.55840 0.17520 0.18000
H 	H 	0.25500 0.64870 0.19100 0.17500
O 	O 	0.21920 0.98600 0.11100 -0.23800
C 	C 	0.25960 0.06060 0.13520 0.19600
H 	H 	0.31060 0.07060 0.14730 -0.03500
C 	C 	0.26790 0.12790 0.10970 -0.07700
H 	H 	0.29690 0.18250 0.12070 0.03600
H 	H 	0.29600 0.12830 0.08770 0.04400
C 	C 	0.17970 0.10010 0.10350 -0.33100
H 	H 	0.16940 0.09820 0.07820 0.13100
H 	H 	0.16600 0.13830 0.11470 0.11000
H 	H 	0.14600 0.04570 0.11360 0.13200
C 	C 	0.18310 0.02780 0.15810 -0.49300
H 	H 	0.13900 0.97850 0.14730 0.16300
H 	H 	0.16670 0.06910 0.16000 0.15800
H 	H 	0.19480 0.01480 0.18150 0.16600
C 	C 	0.09770 0.63840 0.27560 0.30700
O 	O 	0.03390 0.59120 0.25510 -0.44700
O 	O 	0.11770 0.62910 0.30650 -0.45900
O 	O 	0.36950 0.88660 0.30520 -0.44800
O 	O 	0.40840 0.96620 0.25736 -0.48100
C 	C 	0.35640 0.90110 0.27220 0.38100
C 	C 	0.19820 0.80370 0.20638 0.01600
C 	C 	0.26940 0.85940 0.22340 -0.01900
H 	H 	0.30940 0.90610 0.21120 0.04100
C 	C 	0.28210 0.84680 0.25820 -0.13200
C 	C 	0.22360 0.77840 0.27608 0.03500
H 	H 	0.23220 0.76980 0.29990 0.03900
C 	C 	0.15240 0.72270 0.25900 -0.06700
C 	C 	0.13970 0.73530 0.22420 -0.03600
H 	H 	0.09100 0.69720 0.21250 0.05700
Zn	Zn	0.47473 0.94979 0.33327 1.19500
Zn	Zn	0.52475 0.05001 0.26793 1.20100
O 	O 	0.62877 0.11193 0.29533 -0.51600
O 	O 	0.59187 0.03593 0.34343 -0.49500
C 	C 	0.63857 0.09613 0.32453 0.43300
C 	C 	0.71937 0.15533 0.34479 -0.11600
C 	C 	0.77417 0.22673 0.32764 0.06900
H 	H 	0.76317 0.23673 0.30433 0.02600
C 	C 	0.84507 0.28363 0.34453 -0.15700
C 	C 	0.86117 0.26903 0.37857 0.02000
H 	H 	0.90957 0.30793 0.39013 0.05100
C 	C 	0.80637 0.19763 0.39573 -0.01800
C 	C 	0.73547 0.14073 0.37883 -0.00100
H 	H 	0.69797 0.09193 0.39053 0.03800
C 	C 	0.90727 0.35943 0.32683 0.49200
O 	O 	0.89277 0.36793 0.29533 -0.49400
O 	O 	0.96577 0.40733 0.34163 -0.53800
C 	C 	0.83097 0.17633 0.43203 0.01600
C 	C 	0.85377 0.23583 0.45773 0.08400
C 	C 	0.86447 0.21893 0.49223 -0.09300
H 	H 	0.88007 0.25953 0.50983 0.05700
C 	C 	0.85237 0.14243 0.50103 -0.05200
C 	C 	0.82957 0.08293 0.47533 0.18000
C 	C 	0.81887 0.09983 0.44083 -0.16300
H 	H 	0.80337 0.05913 0.42323 0.08400
O 	O 	0.82937 0.01523 0.48513 -0.28300
C 	C 	0.80317 0.94933 0.50633 0.24200
H 	H 	0.77807 0.94863 0.52953 -0.04200
C 	C 	0.75777 0.86883 0.48053 -0.10200
H 	H 	0.77817 0.83063 0.48483 0.05200
H 	H 	0.69797 0.83973 0.48373 0.04200
C 	C 	0.78277 0.90843 0.44273 -0.29500
H 	H 	0.75977 0.94403 0.43883 0.11400
H 	H 	0.76167 0.86533 0.42493 0.10600
H 	H 	0.84227 0.94043 0.44103 0.11300
C 	C 	0.88597 0.94773 0.50543 -0.52600
H 	H 	0.91287 0.96853 0.48273 0.18000
H 	H 	0.87457 0.89173 0.50853 0.18000
H 	H 	0.92167 0.98203 0.52433 0.17400
O 	O 	0.88587 0.31933 0.44433 -0.23200
C 	C 	0.92627 0.39393 0.46853 0.20300
H 	H 	0.97727 0.40393 0.48063 -0.03800
C 	C 	0.93457 0.46123 0.44303 -0.08700
H 	H 	0.96357 0.51583 0.45403 0.04000
H 	H 	0.96267 0.46163 0.42103 0.04600
C 	C 	0.84637 0.43343 0.43683 -0.31900
H 	H 	0.83607 0.43153 0.41153 0.12500
H 	H 	0.83267 0.47163 0.44803 0.10700
H 	H 	0.81267 0.37903 0.44693 0.12500
C 	C 	0.84977 0.36113 0.49143 -0.52700
H 	H 	0.80567 0.31183 0.48063 0.18000
H 	H 	0.83337 0.40243 0.49333 0.16800
H 	H 	0.86147 0.34813 0.51483 0.17400
C 	C 	0.76437 0.97173 0.60893 0.29700
O 	O 	0.70057 0.92453 0.58843 -0.44400
O 	O 	0.78437 0.96243 0.63983 -0.45600
O 	O 	0.03617 0.21993 0.63853 -0.44400
O 	O 	0.07507 0.29953 0.59069 -0.47600
C 	C 	0.02307 0.23443 0.60553 0.36400
C 	C 	0.86487 0.13703 0.53971 0.02800
C 	C 	0.93607 0.19273 0.55673 -0.03100
H 	H 	0.97607 0.23943 0.54453 0.04900
C 	C 	0.94877 0.18013 0.59153 -0.10800
C 	C 	0.89027 0.11173 0.60941 0.02000
H 	H 	0.89887 0.10313 0.63323 0.04900
C 	C 	0.81907 0.05603 0.59233 -0.04800
C 	C 	0.80637 0.06863 0.55753 -0.04700
H 	H 	0.75767 0.03053 0.54583 0.06500
Zn	Zn	0.14139 0.28313 0.66661 1.19800
Zn	Zn	0.19141 0.38335 0.60127 1.19800
O 	O 	0.29543 0.44527 0.62867 -0.51900
O 	O 	0.25853 0.36927 0.67677 -0.49900
C 	C 	0.30523 0.42947 0.65787 0.43400
C 	C 	0.38603 0.48867 0.67813 -0.11800
C 	C 	0.44083 0.56007 0.66098 0.07000
H 	H 	0.42983 0.57007 0.63767 0.02500
C 	C 	0.51173 0.61697 0.67787 -0.16000
C 	C 	0.52783 0.60237 0.71191 0.02100
H 	H 	0.57623 0.64127 0.72347 0.05000
C 	C 	0.47303 0.53097 0.72907 -0.01900
C 	C 	0.40213 0.47407 0.71217 -0.00000
H 	H 	0.36463 0.42527 0.72387 0.03700
C 	C 	0.57393 0.69277 0.66017 0.49400
O 	O 	0.55943 0.70127 0.62867 -0.49700
O 	O 	0.63243 0.74067 0.67497 -0.54200
C 	C 	0.49763 0.50967 0.76537 0.01500
C 	C 	0.52043 0.56917 0.79107 0.08300
C 	C 	0.53113 0.55227 0.82557 -0.09500
H 	H 	0.54673 0.59287 0.84317 0.05600
C 	C 	0.51903 0.47577 0.83437 -0.05100
C 	C 	0.49623 0.41627 0.80867 0.17900
C 	C 	0.48553 0.43317 0.77417 -0.16500
H 	H 	0.47003 0.39247 0.75657 0.08200
O 	O 	0.49603 0.34857 0.81847 -0.29300
C 	C 	0.46983 0.28267 0.83967 0.25300
H 	H 	0.44473 0.28197 0.86287 -0.04300
C 	C 	0.42443 0.20217 0.81387 -0.10300
H 	H 	0.44483 0.16397 0.81817 0.05300
H 	H 	0.36463 0.17307 0.81707 0.04400
C 	C 	0.44943 0.24177 0.77607 -0.29800
H 	H 	0.42643 0.27737 0.77217 0.11800
H 	H 	0.42833 0.19867 0.75827 0.10900
H 	H 	0.50893 0.27377 0.77437 0.11500
C 	C 	0.55263 0.28107 0.83877 -0.53100
H 	H 	0.57953 0.30187 0.81607 0.18100
H 	H 	0.54123 0.22507 0.84187 0.18000
H 	H 	0.58833 0.31537 0.85767 0.17600
O 	O 	0.55253 0.65267 0.77767 -0.23200
C 	C 	0.59293 0.72727 0.80187 0.20000
H 	H 	0.64393 0.73727 0.81397 -0.04000
C 	C 	0.60123 0.79457 0.77637 -0.08300
H 	H 	0.63023 0.84917 0.78737 0.03600
H 	H 	0.62933 0.79497 0.75437 0.04400
C 	C 	0.51303 0.76677 0.77017 -0.32100
H 	H 	0.50273 0.76487 0.74487 0.12500
H 	H 	0.49933 0.80497 0.78137 0.10700
H 	H 	0.47933 0.71237 0.78027 0.12600
C 	C 	0.51643 0.69447 0.82477 -0.52100
H 	H 	0.47233 0.64517 0.81397 0.17800
H 	H 	0.50003 0.73577 0.82667 0.16400
H 	H 	0.52813 0.68147 0.84817 0.17000
C 	C 	0.43103 0.30507 0.94227 0.30800
O 	O 	0.36723 0.25787 0.92177 -0.44600
O 	O 	0.45103 0.29577 0.97317 -0.46300
O 	O 	0.70283 0.55327 0.97187 -0.45300
O 	O 	0.74173 0.63287 0.92403 -0.48000
C 	C 	0.68973 0.56777 0.93887 0.38100
C 	C 	0.53153 0.47037 0.87305 0.01700
C 	C 	0.60273 0.52607 0.89007 -0.01900
H 	H 	0.64273 0.57277 0.87787 0.04100
C 	C 	0.61543 0.51347 0.92487 -0.13300
C 	C 	0.55693 0.44507 0.94275 0.03600
H 	H 	0.56553 0.43647 0.96657 0.03600
C 	C 	0.48573 0.38937 0.92567 -0.06900
C 	C 	0.47303 0.40197 0.89087 -0.03600
H 	H 	0.42433 0.36387 0.87917 0.05800
Zn	Zn	0.38354 0.19160 0.99994 1.18900
Zn	Zn	0.28332 0.14140 0.93460 1.19600
O 	O 	0.22140 0.18350 0.96200 -0.50200
O 	O 	0.29740 0.22260 0.01010 -0.46200
C 	C 	0.23720 0.20910 0.99120 0.35800
C 	C 	0.17800 0.23070 0.01146 -0.01400
C 	C 	0.10660 0.21410 0.99431 -0.06200
H 	H 	0.09660 0.19310 0.97100 0.06200
C 	C 	0.04970 0.22810 0.01120 -0.05200
C 	C 	0.06430 0.25880 0.04524 -0.04600
H 	H 	0.02540 0.26830 0.05680 0.07100
C 	C 	0.13570 0.27540 0.06240 0.03000
C 	C 	0.19260 0.26140 0.04550 -0.06500
H 	H 	0.24140 0.27270 0.05720 0.05900
C 	C 	0.97390 0.21450 0.99350 0.40800
O 	O 	0.96540 0.19150 0.96200 -0.47700
O 	O 	0.92600 0.22510 0.00830 -0.49300
C 	C 	0.15700 0.32130 0.09870 -0.00200
C 	C 	0.09750 0.28460 0.12440 0.09000
C 	C 	0.11440 0.31220 0.15890 -0.09900
H 	H 	0.07380 0.28720 0.17650 0.05600
C 	C 	0.19090 0.37660 0.16770 -0.04700
C 	C 	0.25040 0.41330 0.14200 0.17500
C 	C 	0.23350 0.38570 0.10750 -0.15500
H 	H 	0.27420 0.41090 0.08990 0.07900
O 	O 	0.31810 0.48080 0.15180 -0.29200
C 	C 	0.38400 0.52050 0.17300 0.25200
H 	H 	0.38470 0.49610 0.19620 -0.04200
C 	C 	0.46450 0.55560 0.14720 -0.10100
H 	H 	0.50270 0.61420 0.15150 0.05200
H 	H 	0.49360 0.52490 0.15040 0.04400
C 	C 	0.42490 0.54100 0.10940 -0.30100
H 	H 	0.38930 0.48240 0.10550 0.12000
H 	H 	0.46800 0.56300 0.09160 0.11100
H 	H 	0.39290 0.56850 0.10770 0.11700
C 	C 	0.38560 0.60490 0.17210 -0.53000
H 	H 	0.36480 0.61100 0.14940 0.18100
H 	H 	0.44160 0.64950 0.17520 0.18000
H 	H 	0.35130 0.60630 0.19100 0.17600
O 	O 	0.01400 0.23320 0.11100 -0.23800
C 	C 	0.93940 0.19900 0.13520 0.19800
H 	H 	0.92940 0.24000 0.14730 -0.03500
C 	C 	0.87210 0.14000 0.10970 -0.07400
H 	H 	0.81750 0.11440 0.12070 0.03700
H 	H 	0.87170 0.16770 0.08770 0.04400
C 	C 	0.89990 0.07960 0.10350 -0.33800
H 	H 	0.90180 0.07120 0.07820 0.13500
H 	H 	0.86170 0.02770 0.11470 0.11500
H 	H 	0.95430 0.10030 0.11360 0.13500
C 	C 	0.97220 0.15530 0.15810 -0.49900
H 	H 	0.02150 0.16050 0.14730 0.16700
H 	H 	0.93090 0.09760 0.16000 0.16200
H 	H 	0.98520 0.18000 0.18150 0.16900
C 	C 	0.36160 0.45930 0.27560 0.30700
O 	O 	0.40880 0.44270 0.25510 -0.44400
O 	O 	0.37090 0.48860 0.30650 -0.45700
O 	O 	0.11340 0.48290 0.30520 -0.44800
O 	O 	0.03380 0.44220 0.25736 -0.48100
C 	C 	0.09890 0.45530 0.27220 0.38100
C 	C 	0.19630 0.39450 0.20638 0.01700
C 	C 	0.14060 0.41000 0.22340 -0.01900
H 	H 	0.09390 0.40330 0.21120 0.04100
C 	C 	0.15320 0.43530 0.25820 -0.13100
C 	C 	0.22160 0.44520 0.27608 0.03500
H 	H 	0.23020 0.46240 0.29990 0.04000
C 	C 	0.27730 0.42970 0.25900 -0.06600
C 	C 	0.26470 0.40440 0.22420 -0.03600
H 	H 	0.30280 0.39380 0.21250 0.05900
Zn	Zn	0.05021 0.52493 0.33327 1.19500
Zn	Zn	0.94999 0.47473 0.26793 1.20100
O 	O 	0.88807 0.51683 0.29533 -0.51700
O 	O 	0.96407 0.55593 0.34343 -0.49600
C 	C 	0.90387 0.54243 0.32453 0.43300
C 	C 	0.84467 0.56403 0.34479 -0.11700
C 	C 	0.77327 0.54743 0.32764 0.07000
H 	H 	0.76327 0.52643 0.30433 0.02600
C 	C 	0.71637 0.56143 0.34453 -0.15900
C 	C 	0.73097 0.59213 0.37857 0.02000
H 	H 	0.69207 0.60163 0.39013 0.05000
C 	C 	0.80237 0.60873 0.39573 -0.01900
C 	C 	0.85927 0.59473 0.37883 -0.00100
H 	H 	0.90807 0.60603 0.39053 0.03800
C 	C 	0.64057 0.54783 0.32683 0.49300
O 	O 	0.63207 0.52483 0.29533 -0.49700
O 	O 	0.59267 0.55843 0.34163 -0.54200
C 	C 	0.82367 0.65463 0.43203 0.01500
C 	C 	0.76417 0.61793 0.45773 0.08400
C 	C 	0.78107 0.64553 0.49223 -0.09500
H 	H 	0.74047 0.62053 0.50983 0.05700
C 	C 	0.85757 0.70993 0.50103 -0.05000
C 	C 	0.91707 0.74663 0.47533 0.17700
C 	C 	0.90017 0.71903 0.44083 -0.16300
H 	H 	0.94087 0.74423 0.42323 0.08300
O 	O 	0.98477 0.81413 0.48513 -0.28300
C 	C 	0.05067 0.85383 0.50633 0.23800
H 	H 	0.05137 0.82943 0.52953 -0.04200
C 	C 	0.13117 0.88893 0.48053 -0.10100
H 	H 	0.16937 0.94753 0.48483 0.04900
H 	H 	0.16027 0.85823 0.48373 0.04100
C 	C 	0.09157 0.87433 0.44273 -0.29300
H 	H 	0.05597 0.81573 0.43883 0.11300
H 	H 	0.13467 0.89633 0.42493 0.10300
H 	H 	0.05957 0.90183 0.44103 0.11000
C 	C 	0.05227 0.93823 0.50543 -0.51400
H 	H 	0.03147 0.94433 0.48273 0.17200
H 	H 	0.10827 0.98283 0.50853 0.17300
H 	H 	0.01797 0.93963 0.52433 0.16600
O 	O 	0.68067 0.56653 0.44433 -0.23200
C 	C 	0.60607 0.53233 0.46853 0.20200
H 	H 	0.59607 0.57333 0.48063 -0.04000
C 	C 	0.53877 0.47333 0.44303 -0.08500
H 	H 	0.48417 0.44773 0.45403 0.03800
H 	H 	0.53837 0.50103 0.42103 0.04400
C 	C 	0.56657 0.41293 0.43683 -0.32000
H 	H 	0.56847 0.40453 0.41153 0.12500
H 	H 	0.52837 0.36103 0.44803 0.10700
H 	H 	0.62097 0.43363 0.44693 0.12600
C 	C 	0.63887 0.48863 0.49143 -0.52500
H 	H 	0.68817 0.49383 0.48063 0.18000
H 	H 	0.59757 0.43093 0.49333 0.16700
H 	H 	0.65187 0.51333 0.51483 0.17300
C 	C 	0.02827 0.79263 0.60893 0.29800
O 	O 	0.07547 0.77603 0.58843 -0.44500
O 	O 	0.03757 0.82193 0.63983 -0.45800
O 	O 	0.78007 0.81623 0.63853 -0.44500
O 	O 	0.70047 0.77553 0.59069 -0.47700
C 	C 	0.76557 0.78863 0.60553 0.37800
C 	C 	0.86297 0.72783 0.53971 0.02300
C 	C 	0.80727 0.74333 0.55673 -0.02300
H 	H 	0.76057 0.73663 0.54453 0.04300
C 	C 	0.81987 0.76863 0.59153 -0.12600
C 	C 	0.88827 0.77853 0.60941 0.02900
H 	H 	0.89687 0.79573 0.63323 0.04400
C 	C 	0.94397 0.76303 0.59233 -0.05300
C 	C 	0.93137 0.73773 0.55753 -0.04200
H 	H 	0.96947 0.72713 0.54583 0.06300
Zn	Zn	0.71687 0.85827 0.66661 1.19800
Zn	Zn	0.61665 0.80807 0.60127 1.19800
O 	O 	0.55473 0.85017 0.62867 -0.52000
O 	O 	0.63073 0.88927 0.67677 -0.50000
C 	C 	0.57053 0.87577 0.65787 0.43400
C 	C 	0.51133 0.89737 0.67813 -0.11800
C 	C 	0.43993 0.88077 0.66098 0.06900
H 	H 	0.42993 0.85977 0.63767 0.02500
C 	C 	0.38303 0.89477 0.67787 -0.15900
C 	C 	0.39763 0.92547 0.71191 0.01800
H 	H 	0.35873 0.93497 0.72347 0.05000
C 	C 	0.46903 0.94207 0.72907 -0.01500
C 	C 	0.52593 0.92807 0.71217 -0.00400
H 	H 	0.57473 0.93937 0.72387 0.03600
C 	C 	0.30723 0.88117 0.66017 0.49300
O 	O 	0.29873 0.85817 0.62867 -0.49800
O 	O 	0.25933 0.89177 0.67497 -0.54300
C 	C 	0.49033 0.98797 0.76537 -0.00200
C 	C 	0.43083 0.95127 0.79107 0.09300
C 	C 	0.44773 0.97887 0.82557 -0.11500
H 	H 	0.40713 0.95387 0.84317 0.06000
C 	C 	0.52423 0.04327 0.83437 -0.03300
C 	C 	0.58373 0.07997 0.80867 0.16800
C 	C 	0.56683 0.05237 0.77417 -0.14400
H 	H 	0.60753 0.07757 0.75657 0.07700
O 	O 	0.65143 0.14747 0.81847 -0.29000
C 	C 	0.71733 0.18717 0.83967 0.25100
H 	H 	0.71803 0.16277 0.86287 -0.04200
C 	C 	0.79783 0.22227 0.81387 -0.10200
H 	H 	0.83603 0.28087 0.81817 0.05300
H 	H 	0.82693 0.19157 0.81707 0.04500
C 	C 	0.75823 0.20767 0.77607 -0.30000
H 	H 	0.72263 0.14907 0.77217 0.12000
H 	H 	0.80133 0.22967 0.75827 0.11000
H 	H 	0.72623 0.23517 0.77437 0.11600
C 	C 	0.71893 0.27157 0.83877 -0.53000
H 	H 	0.69813 0.27767 0.81607 0.18100
H 	H 	0.77493 0.31617 0.84187 0.18000
H 	H 	0.68463 0.27297 0.85767 0.17500
O 	O 	0.34733 0.89987 0.77767 -0.23400
C 	C 	0.27273 0.86567 0.80187 0.20000
H 	H 	0.26273 0.90667 0.81397 -0.04200
C 	C 	0.20543 0.80667 0.77637 -0.08300
H 	H 	0.15083 0.78107 0.78737 0.03500
H 	H 	0.20503 0.83437 0.75437 0.04200
C 	C 	0.23323 0.74627 0.77017 -0.32200
H 	H 	0.23513 0.73787 0.74487 0.12600
H 	H 	0.19503 0.69437 0.78137 0.10700
H 	H 	0.28763 0.76697 0.78027 0.12600
C 	C 	0.30553 0.82197 0.82477 -0.52000
H 	H 	0.35483 0.82717 0.81397 0.17700
H 	H 	0.26423 0.76427 0.82667 0.16400
H 	H 	0.31853 0.84667 0.84817 0.16800
C 	C 	0.69493 0.12597 0.94227 0.30800
O 	O 	0.74213 0.10937 0.92177 -0.44500
O 	O 	0.70423 0.15527 0.97317 -0.46200
O 	O 	0.44673 0.14957 0.97187 -0.45200
O 	O 	0.36713 0.10887 0.92403 -0.48000
C 	C 	0.43223 0.12197 0.93887 0.38200
C 	C 	0.52963 0.06117 0.87305 0.01300
C 	C 	0.47393 0.07667 0.89007 -0.01500
H 	H 	0.42723 0.06997 0.87787 0.04100
C 	C 	0.48653 0.10197 0.92487 -0.13400
C 	C 	0.55493 0.11187 0.94275 0.03700
H 	H 	0.56353 0.12907 0.96657 0.03700
C 	C 	0.61063 0.09637 0.92567 -0.06900
C 	C 	0.59803 0.07107 0.89087 -0.03300
H 	H 	0.63613 0.06047 0.87917 0.05800
Zn	Zn	0.80840 0.19194 0.99994 1.18900
Zn	Zn	0.85860 0.14192 0.93460 1.19600
O 	O 	0.81650 0.03790 0.96200 -0.50100
O 	O 	0.77740 0.07480 0.01010 -0.46100
C 	C 	0.79090 0.02810 0.99120 0.36600
C 	C 	0.76930 0.94730 0.01146 -0.02100
C 	C 	0.78590 0.89250 0.99431 -0.06300
H 	H 	0.80690 0.90350 0.97100 0.06300
C 	C 	0.77190 0.82160 0.01120 -0.04300
C 	C 	0.74120 0.80550 0.04524 -0.04900
H 	H 	0.73170 0.75710 0.05680 0.07400
C 	C 	0.72460 0.86030 0.06240 0.03000
C 	C 	0.73860 0.93120 0.04550 -0.06300
H 	H 	0.72730 0.96870 0.05720 0.05600
C 	C 	0.78550 0.75940 0.99350 0.39900
O 	O 	0.80850 0.77390 0.96200 -0.47900
O 	O 	0.77490 0.70090 0.00830 -0.49200
C 	C 	0.67870 0.83570 0.09870 -0.00200
C 	C 	0.71540 0.81290 0.12440 0.09000
C 	C 	0.68780 0.80220 0.15890 -0.10000
H 	H 	0.71280 0.78660 0.17650 0.05800
C 	C 	0.62340 0.81430 0.16770 -0.04700
C 	C 	0.58670 0.83710 0.14200 0.17400
C 	C 	0.61430 0.84780 0.10750 -0.15500
H 	H 	0.58910 0.86330 0.08990 0.07900
O 	O 	0.51920 0.83730 0.15180 -0.29200
C 	C 	0.47950 0.86350 0.17300 0.25100
H 	H 	0.50390 0.88860 0.19620 -0.04300
C 	C 	0.44440 0.90890 0.14720 -0.10100
H 	H 	0.38580 0.88850 0.15150 0.05100
H 	H 	0.47510 0.96870 0.15040 0.04200
C 	C 	0.45900 0.88390 0.10940 -0.30000
H 	H 	0.51760 0.90690 0.10550 0.11900
H 	H 	0.43700 0.90500 0.09160 0.10900
H 	H 	0.43150 0.82440 0.10770 0.11600
C 	C 	0.39510 0.78070 0.17210 -0.53000
H 	H 	0.38900 0.75380 0.14940 0.18100
H 	H 	0.35050 0.79210 0.17520 0.18000
H 	H 	0.39370 0.74500 0.19100 0.17500
O 	O 	0.76680 0.78080 0.11100 -0.23400
C 	C 	0.80100 0.74040 0.13520 0.20200
H 	H 	0.76000 0.68940 0.14730 -0.03900
C 	C 	0.86000 0.73210 0.10970 -0.08300
H 	H 	0.88560 0.70310 0.12070 0.03900
H 	H 	0.83230 0.70400 0.08770 0.04500
C 	C 	0.92040 0.82030 0.10350 -0.32600
H 	H 	0.92880 0.83060 0.07820 0.12900
H 	H 	0.97230 0.83400 0.11470 0.11100
H 	H 	0.89970 0.85400 0.11360 0.12800
C 	C 	0.84470 0.81690 0.15810 -0.52400
H 	H 	0.83950 0.86100 0.14730 0.17800
H 	H 	0.90240 0.83330 0.16000 0.16700
H 	H 	0.82000 0.80520 0.18150 0.17200
C 	C 	0.54070 0.90230 0.27560 0.30700
O 	O 	0.55730 0.96610 0.25510 -0.44700
O 	O 	0.51140 0.88230 0.30650 -0.45800
O 	O 	0.51710 0.63050 0.30520 -0.44600
O 	O 	0.55780 0.59160 0.25736 -0.47700
C 	C 	0.54470 0.64360 0.27220 0.38000
C 	C 	0.60550 0.80180 0.20638 0.01700
C 	C 	0.59000 0.73060 0.22340 -0.01900
H 	H 	0.59670 0.69060 0.21120 0.04200
C 	C 	0.56470 0.71790 0.25820 -0.13000
C 	C 	0.55480 0.77640 0.27608 0.03500
H 	H 	0.53760 0.76780 0.29990 0.04000
C 	C 	0.57030 0.84760 0.25900 -0.06600
C 	C 	0.59560 0.86030 0.22420 -0.03600
H 	H 	0.60620 0.90900 0.21250 0.05700
Zn	Zn	0.47507 0.52527 0.33327 1.19800
Zn	Zn	0.52527 0.47525 0.26793 1.19800
O 	O 	0.48317 0.37123 0.29533 -0.51900
O 	O 	0.44407 0.40813 0.34343 -0.49900
C 	C 	0.45757 0.36143 0.32453 0.43400
C 	C 	0.43597 0.28063 0.34479 -0.11800
C 	C 	0.45257 0.22583 0.32764 0.07000
H 	H 	0.47357 0.23683 0.30433 0.02600
C 	C 	0.43857 0.15493 0.34453 -0.15800
C 	C 	0.40787 0.13883 0.37857 0.02100
H 	H 	0.39837 0.09043 0.39013 0.05100
C 	C 	0.39127 0.19363 0.39573 -0.01900
C 	C 	0.40527 0.26453 0.37883 -0.00100
H 	H 	0.39397 0.30203 0.39053 0.03700
C 	C 	0.45217 0.09273 0.32683 0.49200
O 	O 	0.47517 0.10723 0.29533 -0.49500
O 	O 	0.44157 0.03423 0.34163 -0.53800
C 	C 	0.34537 0.16903 0.43203 0.01600
C 	C 	0.38207 0.14623 0.45773 0.08300
C 	C 	0.35447 0.13553 0.49223 -0.09300
H 	H 	0.37947 0.11993 0.50983 0.05700
C 	C 	0.29007 0.14763 0.50103 -0.05200
C 	C 	0.25337 0.17043 0.47533 0.18000
C 	C 	0.28097 0.18113 0.44083 -0.16500
H 	H 	0.25577 0.19663 0.42323 0.08200
O 	O 	0.18587 0.17063 0.48513 -0.29300
C 	C 	0.14617 0.19683 0.50633 0.25200
H 	H 	0.17057 0.22193 0.52953 -0.04300
C 	C 	0.11107 0.24223 0.48053 -0.10200
H 	H 	0.05247 0.22183 0.48483 0.05000
H 	H 	0.14177 0.30203 0.48373 0.04200
C 	C 	0.12567 0.21723 0.44273 -0.29700
H 	H 	0.18427 0.24023 0.43883 0.11800
H 	H 	0.10367 0.23833 0.42493 0.10600
H 	H 	0.09817 0.15773 0.44103 0.11400
C 	C 	0.06177 0.11403 0.50543 -0.53000
H 	H 	0.05567 0.08713 0.48273 0.18200
H 	H 	0.01717 0.12543 0.50853 0.17800
H 	H 	0.06037 0.07833 0.52433 0.17700
O 	O 	0.43347 0.11413 0.44433 -0.23200
C 	C 	0.46767 0.07373 0.46853 0.20300
H 	H 	0.42667 0.02273 0.48063 -0.03800
C 	C 	0.52667 0.06543 0.44303 -0.08700
H 	H 	0.55227 0.03643 0.45403 0.04000
H 	H 	0.49897 0.03733 0.42103 0.04600
C 	C 	0.58707 0.15363 0.43683 -0.31900
H 	H 	0.59547 0.16393 0.41153 0.12500
H 	H 	0.63897 0.16733 0.44803 0.10700
H 	H 	0.56637 0.18733 0.44693 0.12500
C 	C 	0.51137 0.15023 0.49143 -0.52700
H 	H 	0.50617 0.19433 0.48063 0.18000
H 	H 	0.56907 0.16663 0.49333 0.16800
H 	H 	0.48667 0.13853 0.51483 0.17400
C 	C 	0.20737 0.23563 0.60893 0.30600
O 	O 	0.22397 0.29943 0.58843 -0.44400
O 	O 	0.17807 0.21563 0.63983 -0.45600
O 	O 	0.18377 0.96383 0.63853 -0.44600
O 	O 	0.22447 0.92493 0.59069 -0.47700
C 	C 	0.21137 0.97693 0.60553 0.36600
C 	C 	0.27217 0.13513 0.53971 0.02500
C 	C 	0.25667 0.06393 0.55673 -0.02800
H 	H 	0.26337 0.02393 0.54453 0.04800
C 	C 	0.23137 0.05123 0.59153 -0.11300
C 	C 	0.22147 0.10973 0.60941 0.02600
H 	H 	0.20427 0.10113 0.63323 0.04500
C 	C 	0.23697 0.18093 0.59233 -0.06000
C 	C 	0.26227 0.19363 0.55753 -0.04100
H 	H 	0.27287 0.24233 0.54583 0.06000
Zn	Zn	0.14173 0.85861 0.66661 1.19700
Zn	Zn	0.19193 0.80859 0.60127 1.19700
O 	O 	0.14983 0.70457 0.62867 -0.52000
O 	O 	0.11073 0.74147 0.67677 -0.50000
C 	C 	0.12423 0.69477 0.65787 0.43400
C 	C 	0.10263 0.61397 0.67813 -0.11800
C 	C 	0.11923 0.55917 0.66098 0.06900
H 	H 	0.14023 0.57017 0.63767 0.02500
C 	C 	0.10523 0.48827 0.67787 -0.15900
C 	C 	0.07453 0.47217 0.71191 0.01800
H 	H 	0.06503 0.42377 0.72347 0.05000
C 	C 	0.05793 0.52697 0.72907 -0.01500
C 	C 	0.07193 0.59787 0.71217 -0.00300
H 	H 	0.06063 0.63537 0.72387 0.03600
C 	C 	0.11883 0.42607 0.66017 0.49300
O 	O 	0.14183 0.44057 0.62867 -0.49800
O 	O 	0.10823 0.36757 0.67497 -0.54300
C 	C 	0.01203 0.50237 0.76537 -0.00200
C 	C 	0.04873 0.47957 0.79107 0.09300
C 	C 	0.02113 0.46887 0.82557 -0.11500
H 	H 	0.04613 0.45327 0.84317 0.06000
C 	C 	0.95673 0.48097 0.83437 -0.03300
C 	C 	0.92003 0.50377 0.80867 0.16800
C 	C 	0.94763 0.51447 0.77417 -0.14400
H 	H 	0.92243 0.52997 0.75657 0.07700
O 	O 	0.85253 0.50397 0.81847 -0.29000
C 	C 	0.81283 0.53017 0.83967 0.25100
H 	H 	0.83723 0.55527 0.86287 -0.04200
C 	C 	0.77773 0.57557 0.81387 -0.10100
H 	H 	0.71913 0.55517 0.81817 0.05200
H 	H 	0.80843 0.63537 0.81707 0.04300
C 	C 	0.79233 0.55057 0.77607 -0.29900
H 	H 	0.85093 0.57357 0.77217 0.12000
H 	H 	0.77033 0.57167 0.75827 0.10900
H 	H 	0.76483 0.49107 0.77437 0.11600
C 	C 	0.72843 0.44737 0.83877 -0.52900
H 	H 	0.72233 0.42047 0.81607 0.18100
H 	H 	0.68383 0.45877 0.84187 0.18000
H 	H 	0.72703 0.41167 0.85767 0.17500
O 	O 	0.10013 0.44747 0.77767 -0.23400
C 	C 	0.13433 0.40707 0.80187 0.20100
H 	H 	0.09333 0.35607 0.81397 -0.04100
C 	C 	0.19333 0.39877 0.77637 -0.08400
H 	H 	0.21893 0.36977 0.78737 0.03700
H 	H 	0.16563 0.37067 0.75437 0.04400
C 	C 	0.25373 0.48697 0.77017 -0.32100
H 	H 	0.26213 0.49727 0.74487 0.12500
H 	H 	0.30563 0.50067 0.78137 0.10700
H 	H 	0.23303 0.52067 0.78027 0.12600
C 	C 	0.17803 0.48357 0.82477 -0.52100
H 	H 	0.17283 0.52767 0.81397 0.17800
H 	H 	0.23573 0.49997 0.82667 0.16400
H 	H 	0.15333 0.47187 0.84817 0.16900
C 	C 	0.87403 0.56897 0.94227 0.30800
O 	O 	0.89063 0.63277 0.92177 -0.44500
O 	O 	0.84473 0.54897 0.97317 -0.46200
O 	O 	0.85043 0.29717 0.97187 -0.45200
O 	O 	0.89113 0.25827 0.92403 -0.47900
C 	C 	0.87803 0.31027 0.93887 0.38200
C 	C 	0.93883 0.46847 0.87305 0.01300
C 	C 	0.92333 0.39727 0.89007 -0.01600
H 	H 	0.93003 0.35727 0.87787 0.04200
C 	C 	0.89803 0.38457 0.92487 -0.13400
C 	C 	0.88813 0.44307 0.94275 0.03700
H 	H 	0.87093 0.43447 0.96657 0.03700
C 	C 	0.90363 0.51427 0.92567 -0.06900
C 	C 	0.92893 0.52697 0.89087 -0.03300
H 	H 	0.93953 0.57567 0.87917 0.05700
