data_crystal

_cell_length_a 23.30190
_cell_length_b 23.30190
_cell_length_c 23.30190
_cell_angle_alpha 90.00000
_cell_angle_beta  90.00000
_cell_angle_gamma 90.00000

_symmetry_space_group_name_	'P 1'
_symmetry_space_group_name_H-M	'P 1'

loop_
_symmetry_equiv_pos_as_xyz
  x,y,z

loop_
_atom_site_label
_atom_site_type_symbol
_atom_site_fract_x
_atom_site_fract_y
_atom_site_fract_z
_atom_site_charge
Cu	Cu	0.26791 0.14492 0.93550 0.88900
O 	O 	0.20650 0.10420 0.97120 -0.46000
N 	N 	0.34070 0.17360 0.90360 -0.21100
N 	N 	0.28400 0.08360 0.88070 -0.19700
C 	C 	0.25710 0.03470 0.87710 0.04000
H 	H 	0.26730 0.00960 0.84660 0.02700
C 	C 	0.21300 0.01590 0.91640 -0.13200
C 	C 	0.19010 0.05050 0.96180 0.23400
C 	C 	0.14680 0.02790 0.99700 -0.21200
H 	H 	0.13050 0.05070 0.02650 0.09600
C 	C 	0.12750 0.97110 0.98830 0.07600
H 	H 	0.09930 0.95560 0.01330 0.00500
C 	C 	0.14870 0.93780 0.94460 -0.13400
H 	H 	0.13500 0.89980 0.93900 0.07400
C 	C 	0.19090 0.96070 0.90860 0.04400
H 	H 	0.20490 0.93800 0.87770 0.01300
Cu	Cu	0.21730 0.15836 0.05151 0.88600
Cl	Cl	0.31220 0.13390 0.05890 0.22100
O 	O 	0.31130 0.14120 0.04730 -0.52600
O 	O 	0.29140 0.01310 0.73980 -0.47500
N 	N 	0.38830 0.88670 0.68330 -0.21400
N 	N 	0.29770 0.93370 0.64710 -0.19900
C 	C 	0.25420 0.96360 0.62830 0.05100
H 	H 	0.40870 0.73970 0.54560 0.00300
C 	C 	0.22660 0.00920 0.65920 -0.14200
C 	C 	0.24560 0.03240 0.71260 0.23800
C 	C 	0.26330 0.71410 0.42170 -0.23700
H 	H 	0.22870 0.72710 0.40460 0.08900
C 	C 	0.28890 0.66500 0.40140 0.09200
H 	H 	0.27040 0.64320 0.37240 -0.01000
C 	C 	0.34300 0.64660 0.42350 -0.14700
H 	H 	0.36230 0.61430 0.40760 0.08600
C 	C 	0.36630 0.67660 0.46820 0.05500
H 	H 	0.40110 0.66320 0.48460 0.01100
Cu	Cu	0.23209 0.85508 0.43550 0.89000
O 	O 	0.29350 0.89580 0.47120 -0.46100
N 	N 	0.15930 0.82640 0.40360 -0.21000
N 	N 	0.21600 0.91640 0.38070 -0.19600
C 	C 	0.24290 0.96530 0.37710 0.04100
H 	H 	0.23270 0.99040 0.34660 0.02700
C 	C 	0.28700 0.98410 0.41640 -0.13200
C 	C 	0.30990 0.94950 0.46180 0.23700
C 	C 	0.35320 0.97210 0.49700 -0.21800
H 	H 	0.36950 0.94930 0.52650 0.09900
C 	C 	0.37250 0.02890 0.48830 0.08000
H 	H 	0.40070 0.04440 0.51330 0.00300
C 	C 	0.35130 0.06220 0.44460 -0.13700
H 	H 	0.36500 0.10020 0.43900 0.07500
C 	C 	0.30910 0.03930 0.40860 0.04500
H 	H 	0.29510 0.06200 0.37770 0.01200
Cu	Cu	0.28270 0.84164 0.55151 0.88600
Cl	Cl	0.18780 0.86610 0.55890 0.22200
O 	O 	0.18870 0.85880 0.54730 -0.52600
O 	O 	0.20860 0.98690 0.23980 -0.47400
N 	N 	0.11170 0.11330 0.18330 -0.21400
N 	N 	0.20230 0.06630 0.14710 -0.19900
C 	C 	0.24580 0.03640 0.12830 0.04800
H 	H 	0.09130 0.26030 0.04560 0.00300
C 	C 	0.27340 0.99080 0.15920 -0.13900
C 	C 	0.25440 0.96760 0.21260 0.23600
C 	C 	0.23670 0.28590 0.92170 -0.23600
H 	H 	0.27130 0.27290 0.90460 0.08900
C 	C 	0.21110 0.33500 0.90140 0.09100
H 	H 	0.22960 0.35680 0.87240 -0.01000
C 	C 	0.15700 0.35340 0.92350 -0.14600
H 	H 	0.13770 0.38570 0.90760 0.08600
C 	C 	0.13370 0.32340 0.96820 0.05400
H 	H 	0.09890 0.33680 0.98460 0.01200
Cu	Cu	0.73209 0.64492 0.56450 0.89000
O 	O 	0.79350 0.60420 0.52880 -0.46100
N 	N 	0.65930 0.67360 0.59640 -0.21000
N 	N 	0.71600 0.58360 0.61930 -0.19600
C 	C 	0.74290 0.53470 0.62290 0.04100
H 	H 	0.73270 0.50960 0.65340 0.02600
C 	C 	0.78700 0.51590 0.58360 -0.13400
C 	C 	0.80990 0.55050 0.53820 0.23800
C 	C 	0.85320 0.52790 0.50300 -0.21900
H 	H 	0.86950 0.55070 0.47350 0.10000
C 	C 	0.87250 0.47110 0.51170 0.08200
H 	H 	0.90070 0.45560 0.48670 0.00300
C 	C 	0.85130 0.43780 0.55540 -0.13800
H 	H 	0.86500 0.39980 0.56100 0.07500
C 	C 	0.80910 0.46070 0.59140 0.04800
H 	H 	0.79510 0.43800 0.62230 0.01200
Cu	Cu	0.78270 0.65836 0.44849 0.88600
Cl	Cl	0.68780 0.63390 0.44110 0.22200
O 	O 	0.68870 0.64120 0.45270 -0.52600
O 	O 	0.70860 0.51310 0.76020 -0.47500
N 	N 	0.61170 0.38670 0.81670 -0.21400
N 	N 	0.70230 0.43370 0.85290 -0.19900
C 	C 	0.74580 0.46360 0.87170 0.05100
H 	H 	0.59130 0.23970 0.95440 0.00300
C 	C 	0.77340 0.50920 0.84080 -0.14100
C 	C 	0.75440 0.53240 0.78740 0.23700
C 	C 	0.73670 0.21410 0.07830 -0.23700
H 	H 	0.77130 0.22710 0.09540 0.08900
C 	C 	0.71110 0.16500 0.09860 0.09200
H 	H 	0.72960 0.14320 0.12760 -0.01000
C 	C 	0.65700 0.14660 0.07650 -0.14800
H 	H 	0.63770 0.11430 0.09240 0.08600
C 	C 	0.63370 0.17660 0.03180 0.05600
H 	H 	0.59890 0.16320 0.01540 0.01100
Cu	Cu	0.76791 0.35508 0.06450 0.89000
O 	O 	0.70650 0.39580 0.02880 -0.46100
N 	N 	0.84070 0.32640 0.09640 -0.21000
N 	N 	0.78400 0.41640 0.11930 -0.19600
C 	C 	0.75710 0.46530 0.12290 0.04100
H 	H 	0.76730 0.49040 0.15340 0.02600
C 	C 	0.71300 0.48410 0.08360 -0.13400
C 	C 	0.69010 0.44950 0.03820 0.23800
C 	C 	0.64680 0.47210 0.00300 -0.22000
H 	H 	0.63050 0.44930 0.97350 0.10000
C 	C 	0.62750 0.52890 0.01170 0.08300
H 	H 	0.59930 0.54440 0.98670 0.00200
C 	C 	0.64870 0.56220 0.05540 -0.13900
H 	H 	0.63500 0.60020 0.06100 0.07600
C 	C 	0.69090 0.53930 0.09140 0.04800
H 	H 	0.70490 0.56200 0.12230 0.01200
Cu	Cu	0.71730 0.34164 0.94849 0.88600
Cl	Cl	0.81220 0.36610 0.94110 0.22100
O 	O 	0.81130 0.35880 0.95270 -0.52600
O 	O 	0.79140 0.48690 0.26020 -0.47500
N 	N 	0.88830 0.61330 0.31670 -0.21400
N 	N 	0.79770 0.56630 0.35290 -0.19900
C 	C 	0.75420 0.53640 0.37170 0.05100
H 	H 	0.90870 0.76030 0.45440 0.00300
C 	C 	0.72660 0.49080 0.34080 -0.14100
C 	C 	0.74560 0.46760 0.28740 0.23700
C 	C 	0.76330 0.78590 0.57830 -0.23700
H 	H 	0.72870 0.77290 0.59540 0.08900
C 	C 	0.78890 0.83500 0.59860 0.09200
H 	H 	0.77040 0.85680 0.62760 -0.01000
C 	C 	0.84300 0.85340 0.57650 -0.14700
H 	H 	0.86230 0.88570 0.59240 0.08600
C 	C 	0.86630 0.82340 0.53180 0.05500
H 	H 	0.90110 0.83680 0.51540 0.01100
Cu	Cu	0.93550 0.26791 0.14492 0.89000
O 	O 	0.97120 0.20650 0.10420 -0.45900
N 	N 	0.90360 0.34070 0.17360 -0.21000
N 	N 	0.88070 0.28400 0.08360 -0.19600
C 	C 	0.87710 0.25710 0.03470 0.04000
H 	H 	0.84660 0.26730 0.00960 0.02700
C 	C 	0.91640 0.21300 0.01590 -0.13200
C 	C 	0.96180 0.19010 0.05050 0.23400
C 	C 	0.99700 0.14680 0.02790 -0.21200
H 	H 	0.02650 0.13050 0.05070 0.09600
C 	C 	0.98830 0.12750 0.97110 0.07600
H 	H 	0.01330 0.09930 0.95560 0.00500
C 	C 	0.94460 0.14870 0.93780 -0.13400
H 	H 	0.93900 0.13500 0.89980 0.07400
C 	C 	0.90860 0.19090 0.96070 0.04400
H 	H 	0.87770 0.20490 0.93800 0.01300
Cu	Cu	0.05151 0.21730 0.15836 0.88600
Cl	Cl	0.05890 0.31220 0.13390 0.22100
O 	O 	0.04730 0.31130 0.14120 -0.52600
O 	O 	0.73980 0.29140 0.01310 -0.47500
N 	N 	0.68330 0.38830 0.88670 -0.21400
N 	N 	0.64710 0.29770 0.93370 -0.19900
C 	C 	0.62830 0.25420 0.96360 0.05100
H 	H 	0.54560 0.40870 0.73970 0.00300
C 	C 	0.65920 0.22660 0.00920 -0.14200
C 	C 	0.71260 0.24560 0.03240 0.23800
C 	C 	0.42170 0.26330 0.71410 -0.23700
H 	H 	0.40460 0.22870 0.72710 0.08900
C 	C 	0.40140 0.28890 0.66500 0.09200
H 	H 	0.37240 0.27040 0.64320 -0.01000
C 	C 	0.42350 0.34300 0.64660 -0.14700
H 	H 	0.40760 0.36230 0.61430 0.08600
C 	C 	0.46820 0.36630 0.67660 0.05500
H 	H 	0.48460 0.40110 0.66320 0.01100
Cu	Cu	0.43550 0.23209 0.85508 0.89000
O 	O 	0.47120 0.29350 0.89580 -0.46100
N 	N 	0.40360 0.15930 0.82640 -0.21000
N 	N 	0.38070 0.21600 0.91640 -0.19600
C 	C 	0.37710 0.24290 0.96530 0.04100
H 	H 	0.34660 0.23270 0.99040 0.02700
C 	C 	0.41640 0.28700 0.98410 -0.13200
C 	C 	0.46180 0.30990 0.94950 0.23700
C 	C 	0.49700 0.35320 0.97210 -0.21800
H 	H 	0.52650 0.36950 0.94930 0.09900
C 	C 	0.48830 0.37250 0.02890 0.08000
H 	H 	0.51330 0.40070 0.04440 0.00300
C 	C 	0.44460 0.35130 0.06220 -0.13700
H 	H 	0.43900 0.36500 0.10020 0.07500
C 	C 	0.40860 0.30910 0.03930 0.04500
H 	H 	0.37770 0.29510 0.06200 0.01200
Cu	Cu	0.55151 0.28270 0.84164 0.88600
Cl	Cl	0.55890 0.18780 0.86610 0.22200
O 	O 	0.54730 0.18870 0.85880 -0.52600
O 	O 	0.23980 0.20860 0.98690 -0.47400
N 	N 	0.18330 0.11170 0.11330 -0.21400
N 	N 	0.14710 0.20230 0.06630 -0.19900
C 	C 	0.12830 0.24580 0.03640 0.04800
H 	H 	0.04560 0.09130 0.26030 0.00300
C 	C 	0.15920 0.27340 0.99080 -0.13900
C 	C 	0.21260 0.25440 0.96760 0.23600
C 	C 	0.92170 0.23670 0.28590 -0.23600
H 	H 	0.90460 0.27130 0.27290 0.08900
C 	C 	0.90140 0.21110 0.33500 0.09100
H 	H 	0.87240 0.22960 0.35680 -0.01000
C 	C 	0.92350 0.15700 0.35340 -0.14600
H 	H 	0.90760 0.13770 0.38570 0.08600
C 	C 	0.96820 0.13370 0.32340 0.05400
H 	H 	0.98460 0.09890 0.33680 0.01200
Cu	Cu	0.56450 0.73209 0.64492 0.89000
O 	O 	0.52880 0.79350 0.60420 -0.46100
N 	N 	0.59640 0.65930 0.67360 -0.21000
N 	N 	0.61930 0.71600 0.58360 -0.19600
C 	C 	0.62290 0.74290 0.53470 0.04100
H 	H 	0.65340 0.73270 0.50960 0.02600
C 	C 	0.58360 0.78700 0.51590 -0.13400
C 	C 	0.53820 0.80990 0.55050 0.23800
C 	C 	0.50300 0.85320 0.52790 -0.21900
H 	H 	0.47350 0.86950 0.55070 0.10000
C 	C 	0.51170 0.87250 0.47110 0.08200
H 	H 	0.48670 0.90070 0.45560 0.00300
C 	C 	0.55540 0.85130 0.43780 -0.13800
H 	H 	0.56100 0.86500 0.39980 0.07500
C 	C 	0.59140 0.80910 0.46070 0.04800
H 	H 	0.62230 0.79510 0.43800 0.01200
Cu	Cu	0.44849 0.78270 0.65836 0.88600
Cl	Cl	0.44110 0.68780 0.63390 0.22200
O 	O 	0.45270 0.68870 0.64120 -0.52600
O 	O 	0.76020 0.70860 0.51310 -0.47500
N 	N 	0.81670 0.61170 0.38670 -0.21400
N 	N 	0.85290 0.70230 0.43370 -0.19900
C 	C 	0.87170 0.74580 0.46360 0.05100
H 	H 	0.95440 0.59130 0.23970 0.00300
C 	C 	0.84080 0.77340 0.50920 -0.14100
C 	C 	0.78740 0.75440 0.53240 0.23700
C 	C 	0.07830 0.73670 0.21410 -0.23700
H 	H 	0.09540 0.77130 0.22710 0.08900
C 	C 	0.09860 0.71110 0.16500 0.09200
H 	H 	0.12760 0.72960 0.14320 -0.01000
C 	C 	0.07650 0.65700 0.14660 -0.14800
H 	H 	0.09240 0.63770 0.11430 0.08600
C 	C 	0.03180 0.63370 0.17660 0.05600
H 	H 	0.01540 0.59890 0.16320 0.01100
Cu	Cu	0.06450 0.76791 0.35508 0.89000
O 	O 	0.02880 0.70650 0.39580 -0.46100
N 	N 	0.09640 0.84070 0.32640 -0.21000
N 	N 	0.11930 0.78400 0.41640 -0.19600
C 	C 	0.12290 0.75710 0.46530 0.04100
H 	H 	0.15340 0.76730 0.49040 0.02600
C 	C 	0.08360 0.71300 0.48410 -0.13400
C 	C 	0.03820 0.69010 0.44950 0.23800
C 	C 	0.00300 0.64680 0.47210 -0.22000
H 	H 	0.97350 0.63050 0.44930 0.10000
C 	C 	0.01170 0.62750 0.52890 0.08300
H 	H 	0.98670 0.59930 0.54440 0.00200
C 	C 	0.05540 0.64870 0.56220 -0.13900
H 	H 	0.06100 0.63500 0.60020 0.07600
C 	C 	0.09140 0.69090 0.53930 0.04800
H 	H 	0.12230 0.70490 0.56200 0.01200
Cu	Cu	0.94849 0.71730 0.34164 0.88600
Cl	Cl	0.94110 0.81220 0.36610 0.22100
O 	O 	0.95270 0.81130 0.35880 -0.52600
O 	O 	0.26020 0.79140 0.48690 -0.47500
N 	N 	0.31670 0.88830 0.61330 -0.21400
N 	N 	0.35290 0.79770 0.56630 -0.19900
C 	C 	0.37170 0.75420 0.53640 0.05100
H 	H 	0.45440 0.90870 0.76030 0.00300
C 	C 	0.34080 0.72660 0.49080 -0.14100
C 	C 	0.28740 0.74560 0.46760 0.23700
C 	C 	0.57830 0.76330 0.78590 -0.23700
H 	H 	0.59540 0.72870 0.77290 0.08900
C 	C 	0.59860 0.78890 0.83500 0.09200
H 	H 	0.62760 0.77040 0.85680 -0.01000
C 	C 	0.57650 0.84300 0.85340 -0.14700
H 	H 	0.59240 0.86230 0.88570 0.08600
C 	C 	0.53180 0.86630 0.82340 0.05500
H 	H 	0.51540 0.90110 0.83680 0.01100
Cu	Cu	0.14492 0.93550 0.26791 0.89000
O 	O 	0.10420 0.97120 0.20650 -0.45900
N 	N 	0.17360 0.90360 0.34070 -0.21000
N 	N 	0.08360 0.88070 0.28400 -0.19600
C 	C 	0.03470 0.87710 0.25710 0.04000
H 	H 	0.00960 0.84660 0.26730 0.02700
C 	C 	0.01590 0.91640 0.21300 -0.13200
C 	C 	0.05050 0.96180 0.19010 0.23400
C 	C 	0.02790 0.99700 0.14680 -0.21200
H 	H 	0.05070 0.02650 0.13050 0.09600
C 	C 	0.97110 0.98830 0.12750 0.07600
H 	H 	0.95560 0.01330 0.09930 0.00500
C 	C 	0.93780 0.94460 0.14870 -0.13400
H 	H 	0.89980 0.93900 0.13500 0.07400
C 	C 	0.96070 0.90860 0.19090 0.04400
H 	H 	0.93800 0.87770 0.20490 0.01300
Cu	Cu	0.15836 0.05151 0.21730 0.88600
Cl	Cl	0.13390 0.05890 0.31220 0.22100
O 	O 	0.14120 0.04730 0.31130 -0.52600
O 	O 	0.01310 0.73980 0.29140 -0.47500
N 	N 	0.88670 0.68330 0.38830 -0.21400
N 	N 	0.93370 0.64710 0.29770 -0.19900
C 	C 	0.96360 0.62830 0.25420 0.05100
H 	H 	0.73970 0.54560 0.40870 0.00300
C 	C 	0.00920 0.65920 0.22660 -0.14200
C 	C 	0.03240 0.71260 0.24560 0.23800
C 	C 	0.71410 0.42170 0.26330 -0.23700
H 	H 	0.72710 0.40460 0.22870 0.08900
C 	C 	0.66500 0.40140 0.28890 0.09200
H 	H 	0.64320 0.37240 0.27040 -0.01000
C 	C 	0.64660 0.42350 0.34300 -0.14700
H 	H 	0.61430 0.40760 0.36230 0.08600
C 	C 	0.67660 0.46820 0.36630 0.05500
H 	H 	0.66320 0.48460 0.40110 0.01100
Cu	Cu	0.85508 0.43550 0.23209 0.89000
O 	O 	0.89580 0.47120 0.29350 -0.46100
N 	N 	0.82640 0.40360 0.15930 -0.21000
N 	N 	0.91640 0.38070 0.21600 -0.19600
C 	C 	0.96530 0.37710 0.24290 0.04100
H 	H 	0.99040 0.34660 0.23270 0.02700
C 	C 	0.98410 0.41640 0.28700 -0.13200
C 	C 	0.94950 0.46180 0.30990 0.23700
C 	C 	0.97210 0.49700 0.35320 -0.21800
H 	H 	0.94930 0.52650 0.36950 0.09900
C 	C 	0.02890 0.48830 0.37250 0.08000
H 	H 	0.04440 0.51330 0.40070 0.00300
C 	C 	0.06220 0.44460 0.35130 -0.13700
H 	H 	0.10020 0.43900 0.36500 0.07500
C 	C 	0.03930 0.40860 0.30910 0.04500
H 	H 	0.06200 0.37770 0.29510 0.01200
Cu	Cu	0.84164 0.55151 0.28270 0.88600
Cl	Cl	0.86610 0.55890 0.18780 0.22200
O 	O 	0.85880 0.54730 0.18870 -0.52600
O 	O 	0.98690 0.23980 0.20860 -0.47400
N 	N 	0.11330 0.18330 0.11170 -0.21400
N 	N 	0.06630 0.14710 0.20230 -0.19900
C 	C 	0.03640 0.12830 0.24580 0.04800
H 	H 	0.26030 0.04560 0.09130 0.00300
C 	C 	0.99080 0.15920 0.27340 -0.13900
C 	C 	0.96760 0.21260 0.25440 0.23600
C 	C 	0.28590 0.92170 0.23670 -0.23600
H 	H 	0.27290 0.90460 0.27130 0.08900
C 	C 	0.33500 0.90140 0.21110 0.09100
H 	H 	0.35680 0.87240 0.22960 -0.01000
C 	C 	0.35340 0.92350 0.15700 -0.14600
H 	H 	0.38570 0.90760 0.13770 0.08600
C 	C 	0.32340 0.96820 0.13370 0.05400
H 	H 	0.33680 0.98460 0.09890 0.01200
Cu	Cu	0.64492 0.56450 0.73209 0.89000
O 	O 	0.60420 0.52880 0.79350 -0.46100
N 	N 	0.67360 0.59640 0.65930 -0.21000
N 	N 	0.58360 0.61930 0.71600 -0.19600
C 	C 	0.53470 0.62290 0.74290 0.04100
H 	H 	0.50960 0.65340 0.73270 0.02600
C 	C 	0.51590 0.58360 0.78700 -0.13400
C 	C 	0.55050 0.53820 0.80990 0.23800
C 	C 	0.52790 0.50300 0.85320 -0.21900
H 	H 	0.55070 0.47350 0.86950 0.10000
C 	C 	0.47110 0.51170 0.87250 0.08200
H 	H 	0.45560 0.48670 0.90070 0.00300
C 	C 	0.43780 0.55540 0.85130 -0.13800
H 	H 	0.39980 0.56100 0.86500 0.07500
C 	C 	0.46070 0.59140 0.80910 0.04800
H 	H 	0.43800 0.62230 0.79510 0.01200
Cu	Cu	0.65836 0.44849 0.78270 0.88600
Cl	Cl	0.63390 0.44110 0.68780 0.22200
O 	O 	0.64120 0.45270 0.68870 -0.52600
O 	O 	0.51310 0.76020 0.70860 -0.47500
N 	N 	0.38670 0.81670 0.61170 -0.21400
N 	N 	0.43370 0.85290 0.70230 -0.19900
C 	C 	0.46360 0.87170 0.74580 0.05100
H 	H 	0.23970 0.95440 0.59130 0.00300
C 	C 	0.50920 0.84080 0.77340 -0.14100
C 	C 	0.53240 0.78740 0.75440 0.23700
C 	C 	0.21410 0.07830 0.73670 -0.23700
H 	H 	0.22710 0.09540 0.77130 0.08900
C 	C 	0.16500 0.09860 0.71110 0.09200
H 	H 	0.14320 0.12760 0.72960 -0.01000
C 	C 	0.14660 0.07650 0.65700 -0.14800
H 	H 	0.11430 0.09240 0.63770 0.08600
C 	C 	0.17660 0.03180 0.63370 0.05600
H 	H 	0.16320 0.01540 0.59890 0.01100
Cu	Cu	0.35508 0.06450 0.76791 0.89000
O 	O 	0.39580 0.02880 0.70650 -0.46100
N 	N 	0.32640 0.09640 0.84070 -0.21000
N 	N 	0.41640 0.11930 0.78400 -0.19600
C 	C 	0.46530 0.12290 0.75710 0.04100
H 	H 	0.49040 0.15340 0.76730 0.02600
C 	C 	0.48410 0.08360 0.71300 -0.13400
C 	C 	0.44950 0.03820 0.69010 0.23800
C 	C 	0.47210 0.00300 0.64680 -0.22000
H 	H 	0.44930 0.97350 0.63050 0.10000
C 	C 	0.52890 0.01170 0.62750 0.08300
H 	H 	0.54440 0.98670 0.59930 0.00200
C 	C 	0.56220 0.05540 0.64870 -0.13900
H 	H 	0.60020 0.06100 0.63500 0.07600
C 	C 	0.53930 0.09140 0.69090 0.04800
H 	H 	0.56200 0.12230 0.70490 0.01200
Cu	Cu	0.34164 0.94849 0.71730 0.88600
Cl	Cl	0.36610 0.94110 0.81220 0.22100
O 	O 	0.35880 0.95270 0.81130 -0.52600
O 	O 	0.48690 0.26020 0.79140 -0.47500
N 	N 	0.61330 0.31670 0.88830 -0.21400
N 	N 	0.56630 0.35290 0.79770 -0.19900
C 	C 	0.53640 0.37170 0.75420 0.05100
H 	H 	0.76030 0.45440 0.90870 0.00300
C 	C 	0.49080 0.34080 0.72660 -0.14100
C 	C 	0.46760 0.28740 0.74560 0.23700
C 	C 	0.78590 0.57830 0.76330 -0.23700
H 	H 	0.77290 0.59540 0.72870 0.08900
C 	C 	0.83500 0.59860 0.78890 0.09200
H 	H 	0.85680 0.62760 0.77040 -0.01000
C 	C 	0.85340 0.57650 0.84300 -0.14700
H 	H 	0.88570 0.59240 0.86230 0.08600
C 	C 	0.82340 0.53180 0.86630 0.05500
H 	H 	0.83680 0.51540 0.90110 0.01100
C 	C 	0.35650 0.14350 0.85650 0.08900
C 	C 	0.14350 0.85650 0.35650 0.08900
C 	C 	0.64350 0.64350 0.64350 0.08900
C 	C 	0.85650 0.35650 0.14350 0.08900
C 	C 	0.36340 0.86340 0.63660 0.09600
C 	C 	0.13660 0.13660 0.13660 0.09600
C 	C 	0.63660 0.36340 0.86340 0.09600
C 	C 	0.86340 0.63660 0.36340 0.09600
Cu	Cu	0.73209 0.85508 0.06450 0.89000
O 	O 	0.79350 0.89580 0.02880 -0.45900
N 	N 	0.65930 0.82640 0.09640 -0.21000
N 	N 	0.71600 0.91640 0.11930 -0.19600
C 	C 	0.74290 0.96530 0.12290 0.04000
H 	H 	0.73270 0.99040 0.15340 0.02700
C 	C 	0.78700 0.98410 0.08360 -0.13200
C 	C 	0.80990 0.94950 0.03820 0.23400
C 	C 	0.85320 0.97210 0.00300 -0.21200
H 	H 	0.86950 0.94930 0.97350 0.09600
C 	C 	0.87250 0.02890 0.01170 0.07600
H 	H 	0.90070 0.04440 0.98670 0.00500
C 	C 	0.85130 0.06220 0.05540 -0.13400
H 	H 	0.86500 0.10020 0.06100 0.07400
C 	C 	0.80910 0.03930 0.09140 0.04400
H 	H 	0.79510 0.06200 0.12230 0.01300
Cu	Cu	0.78270 0.84164 0.94849 0.88600
Cl	Cl	0.68780 0.86610 0.94110 0.22100
O 	O 	0.68870 0.85880 0.95270 -0.52600
O 	O 	0.70860 0.98690 0.26020 -0.47500
N 	N 	0.61170 0.11330 0.31670 -0.21400
N 	N 	0.70230 0.06630 0.35290 -0.19900
C 	C 	0.74580 0.03640 0.37170 0.05100
H 	H 	0.59130 0.26030 0.45440 0.00300
C 	C 	0.77340 0.99080 0.34080 -0.14200
C 	C 	0.75440 0.96760 0.28740 0.23800
C 	C 	0.73670 0.28590 0.57830 -0.23700
H 	H 	0.77130 0.27290 0.59540 0.08900
C 	C 	0.71110 0.33500 0.59860 0.09200
H 	H 	0.72960 0.35680 0.62760 -0.01000
C 	C 	0.65700 0.35340 0.57650 -0.14700
H 	H 	0.63770 0.38570 0.59240 0.08600
C 	C 	0.63370 0.32340 0.53180 0.05500
H 	H 	0.59890 0.33680 0.51540 0.01100
Cu	Cu	0.76791 0.14492 0.56450 0.89000
O 	O 	0.70650 0.10420 0.52880 -0.46100
N 	N 	0.84070 0.17360 0.59640 -0.21000
N 	N 	0.78400 0.08360 0.61930 -0.19600
C 	C 	0.75710 0.03470 0.62290 0.04100
H 	H 	0.76730 0.00960 0.65340 0.02700
C 	C 	0.71300 0.01590 0.58360 -0.13200
C 	C 	0.69010 0.05050 0.53820 0.23700
C 	C 	0.64680 0.02790 0.50300 -0.21800
H 	H 	0.63050 0.05070 0.47350 0.09900
C 	C 	0.62750 0.97110 0.51170 0.08000
H 	H 	0.59930 0.95560 0.48670 0.00300
C 	C 	0.64870 0.93780 0.55540 -0.13700
H 	H 	0.63500 0.89980 0.56100 0.07500
C 	C 	0.69090 0.96070 0.59140 0.04500
H 	H 	0.70490 0.93800 0.62230 0.01200
Cu	Cu	0.71730 0.15836 0.44849 0.88600
Cl	Cl	0.81220 0.13390 0.44110 0.22200
O 	O 	0.81130 0.14120 0.45270 -0.52600
O 	O 	0.79140 0.01310 0.76020 -0.47400
N 	N 	0.88830 0.88670 0.81670 -0.21400
N 	N 	0.79770 0.93370 0.85290 -0.19900
C 	C 	0.75420 0.96360 0.87170 0.04800
H 	H 	0.90870 0.73970 0.95440 0.00300
C 	C 	0.72660 0.00920 0.84080 -0.13900
C 	C 	0.74560 0.03240 0.78740 0.23600
C 	C 	0.76330 0.71410 0.07830 -0.23600
H 	H 	0.72870 0.72710 0.09540 0.08900
C 	C 	0.78890 0.66500 0.09860 0.09100
H 	H 	0.77040 0.64320 0.12760 -0.01000
C 	C 	0.84300 0.64660 0.07650 -0.14600
H 	H 	0.86230 0.61430 0.09240 0.08600
C 	C 	0.86630 0.67660 0.03180 0.05400
H 	H 	0.90110 0.66320 0.01540 0.01200
Cu	Cu	0.26791 0.35508 0.43550 0.89000
O 	O 	0.20650 0.39580 0.47120 -0.46100
N 	N 	0.34070 0.32640 0.40360 -0.21000
N 	N 	0.28400 0.41640 0.38070 -0.19600
C 	C 	0.25710 0.46530 0.37710 0.04100
H 	H 	0.26730 0.49040 0.34660 0.02600
C 	C 	0.21300 0.48410 0.41640 -0.13400
C 	C 	0.19010 0.44950 0.46180 0.23800
C 	C 	0.14680 0.47210 0.49700 -0.21900
H 	H 	0.13050 0.44930 0.52650 0.10000
C 	C 	0.12750 0.52890 0.48830 0.08200
H 	H 	0.09930 0.54440 0.51330 0.00300
C 	C 	0.14870 0.56220 0.44460 -0.13800
H 	H 	0.13500 0.60020 0.43900 0.07500
C 	C 	0.19090 0.53930 0.40860 0.04800
H 	H 	0.20490 0.56200 0.37770 0.01200
Cu	Cu	0.21730 0.34164 0.55151 0.88600
Cl	Cl	0.31220 0.36610 0.55890 0.22200
O 	O 	0.31130 0.35880 0.54730 -0.52600
O 	O 	0.29140 0.48690 0.23980 -0.47500
N 	N 	0.38830 0.61330 0.18330 -0.21400
N 	N 	0.29770 0.56630 0.14710 -0.19900
C 	C 	0.25420 0.53640 0.12830 0.05100
H 	H 	0.40870 0.76030 0.04560 0.00300
C 	C 	0.22660 0.49080 0.15920 -0.14100
C 	C 	0.24560 0.46760 0.21260 0.23700
C 	C 	0.26330 0.78590 0.92170 -0.23700
H 	H 	0.22870 0.77290 0.90460 0.08900
C 	C 	0.28890 0.83500 0.90140 0.09200
H 	H 	0.27040 0.85680 0.87240 -0.01000
C 	C 	0.34300 0.85340 0.92350 -0.14800
H 	H 	0.36230 0.88570 0.90760 0.08600
C 	C 	0.36630 0.82340 0.96820 0.05600
H 	H 	0.40110 0.83680 0.98460 0.01100
Cu	Cu	0.23209 0.64492 0.93550 0.89000
O 	O 	0.29350 0.60420 0.97120 -0.46100
N 	N 	0.15930 0.67360 0.90360 -0.21000
N 	N 	0.21600 0.58360 0.88070 -0.19600
C 	C 	0.24290 0.53470 0.87710 0.04100
H 	H 	0.23270 0.50960 0.84660 0.02600
C 	C 	0.28700 0.51590 0.91640 -0.13400
C 	C 	0.30990 0.55050 0.96180 0.23800
C 	C 	0.35320 0.52790 0.99700 -0.22000
H 	H 	0.36950 0.55070 0.02650 0.10000
C 	C 	0.37250 0.47110 0.98830 0.08300
H 	H 	0.40070 0.45560 0.01330 0.00200
C 	C 	0.35130 0.43780 0.94460 -0.13900
H 	H 	0.36500 0.39980 0.93900 0.07600
C 	C 	0.30910 0.46070 0.90860 0.04800
H 	H 	0.29510 0.43800 0.87770 0.01200
Cu	Cu	0.28270 0.65836 0.05151 0.88600
Cl	Cl	0.18780 0.63390 0.05890 0.22100
O 	O 	0.18870 0.64120 0.04730 -0.52600
O 	O 	0.20860 0.51310 0.73980 -0.47500
N 	N 	0.11170 0.38670 0.68330 -0.21400
N 	N 	0.20230 0.43370 0.64710 -0.19900
C 	C 	0.24580 0.46360 0.62830 0.05100
H 	H 	0.09130 0.23970 0.54560 0.00300
C 	C 	0.27340 0.50920 0.65920 -0.14100
C 	C 	0.25440 0.53240 0.71260 0.23700
C 	C 	0.23670 0.21410 0.42170 -0.23700
H 	H 	0.27130 0.22710 0.40460 0.08900
C 	C 	0.21110 0.16500 0.40140 0.09200
H 	H 	0.22960 0.14320 0.37240 -0.01000
C 	C 	0.15700 0.14660 0.42350 -0.14700
H 	H 	0.13770 0.11430 0.40760 0.08600
C 	C 	0.13370 0.17660 0.46820 0.05500
H 	H 	0.09890 0.16320 0.48460 0.01100
Cu	Cu	0.06450 0.73209 0.85508 0.89000
O 	O 	0.02880 0.79350 0.89580 -0.45900
N 	N 	0.09640 0.65930 0.82640 -0.21000
N 	N 	0.11930 0.71600 0.91640 -0.19600
C 	C 	0.12290 0.74290 0.96530 0.04000
H 	H 	0.15340 0.73270 0.99040 0.02700
C 	C 	0.08360 0.78700 0.98410 -0.13200
C 	C 	0.03820 0.80990 0.94950 0.23400
C 	C 	0.00300 0.85320 0.97210 -0.21200
H 	H 	0.97350 0.86950 0.94930 0.09600
C 	C 	0.01170 0.87250 0.02890 0.07600
H 	H 	0.98670 0.90070 0.04440 0.00500
C 	C 	0.05540 0.85130 0.06220 -0.13400
H 	H 	0.06100 0.86500 0.10020 0.07400
C 	C 	0.09140 0.80910 0.03930 0.04400
H 	H 	0.12230 0.79510 0.06200 0.01300
Cu	Cu	0.94849 0.78270 0.84164 0.88600
Cl	Cl	0.94110 0.68780 0.86610 0.22100
O 	O 	0.95270 0.68870 0.85880 -0.52600
O 	O 	0.26020 0.70860 0.98690 -0.47500
N 	N 	0.31670 0.61170 0.11330 -0.21400
N 	N 	0.35290 0.70230 0.06630 -0.19900
C 	C 	0.37170 0.74580 0.03640 0.05100
H 	H 	0.45440 0.59130 0.26030 0.00300
C 	C 	0.34080 0.77340 0.99080 -0.14200
C 	C 	0.28740 0.75440 0.96760 0.23800
C 	C 	0.57830 0.73670 0.28590 -0.23700
H 	H 	0.59540 0.77130 0.27290 0.08900
C 	C 	0.59860 0.71110 0.33500 0.09200
H 	H 	0.62760 0.72960 0.35680 -0.01000
C 	C 	0.57650 0.65700 0.35340 -0.14700
H 	H 	0.59240 0.63770 0.38570 0.08600
C 	C 	0.53180 0.63370 0.32340 0.05500
H 	H 	0.51540 0.59890 0.33680 0.01100
Cu	Cu	0.56450 0.76791 0.14492 0.89000
O 	O 	0.52880 0.70650 0.10420 -0.46100
N 	N 	0.59640 0.84070 0.17360 -0.21000
N 	N 	0.61930 0.78400 0.08360 -0.19600
C 	C 	0.62290 0.75710 0.03470 0.04100
H 	H 	0.65340 0.76730 0.00960 0.02700
C 	C 	0.58360 0.71300 0.01590 -0.13200
C 	C 	0.53820 0.69010 0.05050 0.23700
C 	C 	0.50300 0.64680 0.02790 -0.21800
H 	H 	0.47350 0.63050 0.05070 0.09900
C 	C 	0.51170 0.62750 0.97110 0.08000
H 	H 	0.48670 0.59930 0.95560 0.00300
C 	C 	0.55540 0.64870 0.93780 -0.13700
H 	H 	0.56100 0.63500 0.89980 0.07500
C 	C 	0.59140 0.69090 0.96070 0.04500
H 	H 	0.62230 0.70490 0.93800 0.01200
Cu	Cu	0.44849 0.71730 0.15836 0.88600
Cl	Cl	0.44110 0.81220 0.13390 0.22200
O 	O 	0.45270 0.81130 0.14120 -0.52600
O 	O 	0.76020 0.79140 0.01310 -0.47400
N 	N 	0.81670 0.88830 0.88670 -0.21400
N 	N 	0.85290 0.79770 0.93370 -0.19900
C 	C 	0.87170 0.75420 0.96360 0.04800
H 	H 	0.95440 0.90870 0.73970 0.00300
C 	C 	0.84080 0.72660 0.00920 -0.13900
C 	C 	0.78740 0.74560 0.03240 0.23600
C 	C 	0.07830 0.76330 0.71410 -0.23600
H 	H 	0.09540 0.72870 0.72710 0.08900
C 	C 	0.09860 0.78890 0.66500 0.09100
H 	H 	0.12760 0.77040 0.64320 -0.01000
C 	C 	0.07650 0.84300 0.64660 -0.14600
H 	H 	0.09240 0.86230 0.61430 0.08600
C 	C 	0.03180 0.86630 0.67660 0.05400
H 	H 	0.01540 0.90110 0.66320 0.01200
Cu	Cu	0.43550 0.26791 0.35508 0.89000
O 	O 	0.47120 0.20650 0.39580 -0.46100
N 	N 	0.40360 0.34070 0.32640 -0.21000
N 	N 	0.38070 0.28400 0.41640 -0.19600
C 	C 	0.37710 0.25710 0.46530 0.04100
H 	H 	0.34660 0.26730 0.49040 0.02600
C 	C 	0.41640 0.21300 0.48410 -0.13400
C 	C 	0.46180 0.19010 0.44950 0.23800
C 	C 	0.49700 0.14680 0.47210 -0.21900
H 	H 	0.52650 0.13050 0.44930 0.10000
C 	C 	0.48830 0.12750 0.52890 0.08200
H 	H 	0.51330 0.09930 0.54440 0.00300
C 	C 	0.44460 0.14870 0.56220 -0.13800
H 	H 	0.43900 0.13500 0.60020 0.07500
C 	C 	0.40860 0.19090 0.53930 0.04800
H 	H 	0.37770 0.20490 0.56200 0.01200
Cu	Cu	0.55151 0.21730 0.34164 0.88600
Cl	Cl	0.55890 0.31220 0.36610 0.22200
O 	O 	0.54730 0.31130 0.35880 -0.52600
O 	O 	0.23980 0.29140 0.48690 -0.47500
N 	N 	0.18330 0.38830 0.61330 -0.21400
N 	N 	0.14710 0.29770 0.56630 -0.19900
C 	C 	0.12830 0.25420 0.53640 0.05100
H 	H 	0.04560 0.40870 0.76030 0.00300
C 	C 	0.15920 0.22660 0.49080 -0.14100
C 	C 	0.21260 0.24560 0.46760 0.23700
C 	C 	0.92170 0.26330 0.78590 -0.23700
H 	H 	0.90460 0.22870 0.77290 0.08900
C 	C 	0.90140 0.28890 0.83500 0.09200
H 	H 	0.87240 0.27040 0.85680 -0.01000
C 	C 	0.92350 0.34300 0.85340 -0.14800
H 	H 	0.90760 0.36230 0.88570 0.08600
C 	C 	0.96820 0.36630 0.82340 0.05600
H 	H 	0.98460 0.40110 0.83680 0.01100
Cu	Cu	0.93550 0.23209 0.64492 0.89000
O 	O 	0.97120 0.29350 0.60420 -0.46100
N 	N 	0.90360 0.15930 0.67360 -0.21000
N 	N 	0.88070 0.21600 0.58360 -0.19600
C 	C 	0.87710 0.24290 0.53470 0.04100
H 	H 	0.84660 0.23270 0.50960 0.02600
C 	C 	0.91640 0.28700 0.51590 -0.13400
C 	C 	0.96180 0.30990 0.55050 0.23800
C 	C 	0.99700 0.35320 0.52790 -0.22000
H 	H 	0.02650 0.36950 0.55070 0.10000
C 	C 	0.98830 0.37250 0.47110 0.08300
H 	H 	0.01330 0.40070 0.45560 0.00200
C 	C 	0.94460 0.35130 0.43780 -0.13900
H 	H 	0.93900 0.36500 0.39980 0.07600
C 	C 	0.90860 0.30910 0.46070 0.04800
H 	H 	0.87770 0.29510 0.43800 0.01200
Cu	Cu	0.05151 0.28270 0.65836 0.88600
Cl	Cl	0.05890 0.18780 0.63390 0.22100
O 	O 	0.04730 0.18870 0.64120 -0.52600
O 	O 	0.73980 0.20860 0.51310 -0.47500
N 	N 	0.68330 0.11170 0.38670 -0.21400
N 	N 	0.64710 0.20230 0.43370 -0.19900
C 	C 	0.62830 0.24580 0.46360 0.05100
H 	H 	0.54560 0.09130 0.23970 0.00300
C 	C 	0.65920 0.27340 0.50920 -0.14100
C 	C 	0.71260 0.25440 0.53240 0.23700
C 	C 	0.42170 0.23670 0.21410 -0.23700
H 	H 	0.40460 0.27130 0.22710 0.08900
C 	C 	0.40140 0.21110 0.16500 0.09200
H 	H 	0.37240 0.22960 0.14320 -0.01000
C 	C 	0.42350 0.15700 0.14660 -0.14700
H 	H 	0.40760 0.13770 0.11430 0.08600
C 	C 	0.46820 0.13370 0.17660 0.05500
H 	H 	0.48460 0.09890 0.16320 0.01100
Cu	Cu	0.85508 0.06450 0.73209 0.89000
O 	O 	0.89580 0.02880 0.79350 -0.45900
N 	N 	0.82640 0.09640 0.65930 -0.21000
N 	N 	0.91640 0.11930 0.71600 -0.19600
C 	C 	0.96530 0.12290 0.74290 0.04000
H 	H 	0.99040 0.15340 0.73270 0.02700
C 	C 	0.98410 0.08360 0.78700 -0.13200
C 	C 	0.94950 0.03820 0.80990 0.23400
C 	C 	0.97210 0.00300 0.85320 -0.21200
H 	H 	0.94930 0.97350 0.86950 0.09600
C 	C 	0.02890 0.01170 0.87250 0.07600
H 	H 	0.04440 0.98670 0.90070 0.00500
C 	C 	0.06220 0.05540 0.85130 -0.13400
H 	H 	0.10020 0.06100 0.86500 0.07400
C 	C 	0.03930 0.09140 0.80910 0.04400
H 	H 	0.06200 0.12230 0.79510 0.01300
Cu	Cu	0.84164 0.94849 0.78270 0.88600
Cl	Cl	0.86610 0.94110 0.68780 0.22100
O 	O 	0.85880 0.95270 0.68870 -0.52600
O 	O 	0.98690 0.26020 0.70860 -0.47500
N 	N 	0.11330 0.31670 0.61170 -0.21400
N 	N 	0.06630 0.35290 0.70230 -0.19900
C 	C 	0.03640 0.37170 0.74580 0.05100
H 	H 	0.26030 0.45440 0.59130 0.00300
C 	C 	0.99080 0.34080 0.77340 -0.14200
C 	C 	0.96760 0.28740 0.75440 0.23800
C 	C 	0.28590 0.57830 0.73670 -0.23700
H 	H 	0.27290 0.59540 0.77130 0.08900
C 	C 	0.33500 0.59860 0.71110 0.09200
H 	H 	0.35680 0.62760 0.72960 -0.01000
C 	C 	0.35340 0.57650 0.65700 -0.14700
H 	H 	0.38570 0.59240 0.63770 0.08600
C 	C 	0.32340 0.53180 0.63370 0.05500
H 	H 	0.33680 0.51540 0.59890 0.01100
Cu	Cu	0.14492 0.56450 0.76791 0.89000
O 	O 	0.10420 0.52880 0.70650 -0.46100
N 	N 	0.17360 0.59640 0.84070 -0.21000
N 	N 	0.08360 0.61930 0.78400 -0.19600
C 	C 	0.03470 0.62290 0.75710 0.04100
H 	H 	0.00960 0.65340 0.76730 0.02700
C 	C 	0.01590 0.58360 0.71300 -0.13200
C 	C 	0.05050 0.53820 0.69010 0.23700
C 	C 	0.02790 0.50300 0.64680 -0.21800
H 	H 	0.05070 0.47350 0.63050 0.09900
C 	C 	0.97110 0.51170 0.62750 0.08000
H 	H 	0.95560 0.48670 0.59930 0.00300
C 	C 	0.93780 0.55540 0.64870 -0.13700
H 	H 	0.89980 0.56100 0.63500 0.07500
C 	C 	0.96070 0.59140 0.69090 0.04500
H 	H 	0.93800 0.62230 0.70490 0.01200
Cu	Cu	0.15836 0.44849 0.71730 0.88600
Cl	Cl	0.13390 0.44110 0.81220 0.22200
O 	O 	0.14120 0.45270 0.81130 -0.52600
O 	O 	0.01310 0.76020 0.79140 -0.47400
N 	N 	0.88670 0.81670 0.88830 -0.21400
N 	N 	0.93370 0.85290 0.79770 -0.19900
C 	C 	0.96360 0.87170 0.75420 0.04800
H 	H 	0.73970 0.95440 0.90870 0.00300
C 	C 	0.00920 0.84080 0.72660 -0.13900
C 	C 	0.03240 0.78740 0.74560 0.23600
C 	C 	0.71410 0.07830 0.76330 -0.23600
H 	H 	0.72710 0.09540 0.72870 0.08900
C 	C 	0.66500 0.09860 0.78890 0.09100
H 	H 	0.64320 0.12760 0.77040 -0.01000
C 	C 	0.64660 0.07650 0.84300 -0.14600
H 	H 	0.61430 0.09240 0.86230 0.08600
C 	C 	0.67660 0.03180 0.86630 0.05400
H 	H 	0.66320 0.01540 0.90110 0.01200
Cu	Cu	0.35508 0.43550 0.26791 0.89000
O 	O 	0.39580 0.47120 0.20650 -0.46100
N 	N 	0.32640 0.40360 0.34070 -0.21000
N 	N 	0.41640 0.38070 0.28400 -0.19600
C 	C 	0.46530 0.37710 0.25710 0.04100
H 	H 	0.49040 0.34660 0.26730 0.02600
C 	C 	0.48410 0.41640 0.21300 -0.13400
C 	C 	0.44950 0.46180 0.19010 0.23800
C 	C 	0.47210 0.49700 0.14680 -0.21900
H 	H 	0.44930 0.52650 0.13050 0.10000
C 	C 	0.52890 0.48830 0.12750 0.08200
H 	H 	0.54440 0.51330 0.09930 0.00300
C 	C 	0.56220 0.44460 0.14870 -0.13800
H 	H 	0.60020 0.43900 0.13500 0.07500
C 	C 	0.53930 0.40860 0.19090 0.04800
H 	H 	0.56200 0.37770 0.20490 0.01200
Cu	Cu	0.34164 0.55151 0.21730 0.88600
Cl	Cl	0.36610 0.55890 0.31220 0.22200
O 	O 	0.35880 0.54730 0.31130 -0.52600
O 	O 	0.48690 0.23980 0.29140 -0.47500
N 	N 	0.61330 0.18330 0.38830 -0.21400
N 	N 	0.56630 0.14710 0.29770 -0.19900
C 	C 	0.53640 0.12830 0.25420 0.05100
H 	H 	0.76030 0.04560 0.40870 0.00300
C 	C 	0.49080 0.15920 0.22660 -0.14100
C 	C 	0.46760 0.21260 0.24560 0.23700
C 	C 	0.78590 0.92170 0.26330 -0.23700
H 	H 	0.77290 0.90460 0.22870 0.08900
C 	C 	0.83500 0.90140 0.28890 0.09200
H 	H 	0.85680 0.87240 0.27040 -0.01000
C 	C 	0.85340 0.92350 0.34300 -0.14800
H 	H 	0.88570 0.90760 0.36230 0.08600
C 	C 	0.82340 0.96820 0.36630 0.05600
H 	H 	0.83680 0.98460 0.40110 0.01100
Cu	Cu	0.64492 0.93550 0.23209 0.89000
O 	O 	0.60420 0.97120 0.29350 -0.46100
N 	N 	0.67360 0.90360 0.15930 -0.21000
N 	N 	0.58360 0.88070 0.21600 -0.19600
C 	C 	0.53470 0.87710 0.24290 0.04100
H 	H 	0.50960 0.84660 0.23270 0.02600
C 	C 	0.51590 0.91640 0.28700 -0.13400
C 	C 	0.55050 0.96180 0.30990 0.23800
C 	C 	0.52790 0.99700 0.35320 -0.22000
H 	H 	0.55070 0.02650 0.36950 0.10000
C 	C 	0.47110 0.98830 0.37250 0.08300
H 	H 	0.45560 0.01330 0.40070 0.00200
C 	C 	0.43780 0.94460 0.35130 -0.13900
H 	H 	0.39980 0.93900 0.36500 0.07600
C 	C 	0.46070 0.90860 0.30910 0.04800
H 	H 	0.43800 0.87770 0.29510 0.01200
Cu	Cu	0.65836 0.05151 0.28270 0.88600
Cl	Cl	0.63390 0.05890 0.18780 0.22100
O 	O 	0.64120 0.04730 0.18870 -0.52600
O 	O 	0.51310 0.73980 0.20860 -0.47500
N 	N 	0.38670 0.68330 0.11170 -0.21400
N 	N 	0.43370 0.64710 0.20230 -0.19900
C 	C 	0.46360 0.62830 0.24580 0.05100
H 	H 	0.23970 0.54560 0.09130 0.00300
C 	C 	0.50920 0.65920 0.27340 -0.14100
C 	C 	0.53240 0.71260 0.25440 0.23700
C 	C 	0.21410 0.42170 0.23670 -0.23700
H 	H 	0.22710 0.40460 0.27130 0.08900
C 	C 	0.16500 0.40140 0.21110 0.09200
H 	H 	0.14320 0.37240 0.22960 -0.01000
C 	C 	0.14660 0.42350 0.15700 -0.14700
H 	H 	0.11430 0.40760 0.13770 0.08600
C 	C 	0.17660 0.46820 0.13370 0.05500
H 	H 	0.16320 0.48460 0.09890 0.01100
C 	C 	0.64350 0.85650 0.14350 0.08900
C 	C 	0.85650 0.14350 0.64350 0.08900
C 	C 	0.35650 0.35650 0.35650 0.08900
C 	C 	0.14350 0.64350 0.85650 0.08900
C 	C 	0.63660 0.13660 0.36340 0.09600
C 	C 	0.86340 0.86340 0.86340 0.09600
C 	C 	0.36340 0.63660 0.13660 0.09600
C 	C 	0.13660 0.36340 0.63660 0.09600
