data_crystal

_cell_length_a 7.39910
_cell_length_b 11.47300
_cell_length_c 16.23350
_cell_angle_alpha 79.03800
_cell_angle_beta  82.58800
_cell_angle_gamma 79.97200

_symmetry_space_group_name_	'P 1'
_symmetry_space_group_name_H-M	'P 1'

loop_
_symmetry_equiv_pos_as_xyz
  x,y,z

loop_
_atom_site_label
_atom_site_type_symbol
_atom_site_fract_x
_atom_site_fract_y
_atom_site_fract_z
_atom_site_charge
Gd	Gd	0.05583 0.93622 0.22734 1.44900
Gd	Gd	0.55330 0.73727 0.23645 1.64700
Gd	Gd	0.94417 0.06378 0.77266 1.44900
Gd	Gd	0.44670 0.26273 0.76355 1.64700
H 	H 	0.00230 0.79140 0.03390 0.26600
H 	H 	0.43410 0.27120 0.01990 0.28400
H 	H 	0.15810 0.74240 0.44020 0.28200
H 	H 	0.15320 0.12770 0.40600 0.27500
H 	H 	0.12290 0.61210 0.89500 0.10000
H 	H 	0.35080 0.46150 0.15370 0.08500
H 	H 	0.77620 0.49790 0.41260 0.07800
H 	H 	0.60660 0.82110 0.45180 0.08500
H 	H 	0.79610 0.04360 0.97110 0.07600
H 	H 	0.99770 0.20860 0.96610 0.26700
H 	H 	0.56590 0.72880 0.98010 0.28500
H 	H 	0.84190 0.25760 0.55980 0.28200
H 	H 	0.84680 0.87230 0.59400 0.27500
H 	H 	0.87710 0.38790 0.10500 0.10000
H 	H 	0.64920 0.53850 0.84630 0.08500
H 	H 	0.22380 0.50210 0.58740 0.07800
H 	H 	0.39340 0.17890 0.54820 0.08500
H 	H 	0.20390 0.95640 0.02890 0.07600
C 	C 	0.20400 0.60770 0.08770 -0.16600
C 	C 	0.12880 0.64980 0.01090 0.23900
C 	C 	0.16460 0.58090 0.94750 -0.10200
C 	C 	0.26190 0.46630 0.96220 -0.10800
C 	C 	0.32650 0.41970 0.04110 0.21500
C 	C 	0.30200 0.49100 0.10240 -0.07600
C 	C 	0.18900 0.68670 0.15190 0.42300
C 	C 	0.29910 0.39360 0.89310 0.32200
C 	C 	0.09950 0.59460 0.48530 0.24100
C 	C 	0.96580 0.59400 0.43350 -0.17000
C 	C 	0.86570 0.49900 0.44770 -0.07700
C 	C 	0.92590 0.69470 0.35960 0.46900
C 	C 	0.35020 0.07820 0.46660 0.23400
C 	C 	0.56410 0.89320 0.47100 -0.09400
C 	C 	0.41480 0.97010 0.43610 -0.16900
C 	C 	0.33070 0.93480 0.36700 0.43300
C 	C 	0.67600 0.02670 0.98220 -0.10300
C 	C 	0.43240 0.95470 0.08540 0.22000
C 	C 	0.61190 0.98410 0.06490 -0.14300
C 	C 	0.74540 0.96710 0.12750 0.37400
C 	C 	0.79600 0.39230 0.91230 -0.16600
C 	C 	0.87120 0.35020 0.98910 0.23900
C 	C 	0.83540 0.41910 0.05250 -0.10200
C 	C 	0.73810 0.53370 0.03780 -0.10800
C 	C 	0.67350 0.58030 0.95890 0.21500
C 	C 	0.69800 0.50900 0.89760 -0.07600
C 	C 	0.81100 0.31330 0.84810 0.42300
C 	C 	0.70090 0.60640 0.10690 0.32200
C 	C 	0.90050 0.40540 0.51470 0.24100
C 	C 	0.03420 0.40600 0.56650 -0.17000
C 	C 	0.13430 0.50100 0.55230 -0.07700
C 	C 	0.07410 0.30530 0.64040 0.46900
C 	C 	0.64980 0.92180 0.53340 0.23400
C 	C 	0.43590 0.10680 0.52900 -0.09400
C 	C 	0.58520 0.02990 0.56390 -0.16900
C 	C 	0.66930 0.06520 0.63300 0.43300
C 	C 	0.32400 0.97330 0.01780 -0.10300
C 	C 	0.56760 0.04530 0.91460 0.22000
C 	C 	0.38810 0.01590 0.93510 -0.14300
C 	C 	0.25460 0.03290 0.87250 0.37400
O 	O 	0.07130 0.78130 0.14560 -0.43700
O 	O 	0.29540 0.65850 0.21010 -0.45900
O 	O 	0.26260 0.43850 0.81880 -0.36800
O 	O 	0.37920 0.28460 0.90950 -0.40100
O 	O 	0.01550 0.75640 0.99350 -0.41000
O 	O 	0.42400 0.30550 0.06060 -0.41800
O 	O 	0.01870 0.77980 0.34550 -0.46300
O 	O 	0.80280 0.68660 0.31640 -0.47400
O 	O 	0.20540 0.68450 0.47250 -0.43000
O 	O 	0.39830 0.83860 0.34210 -0.48500
O 	O 	0.19200 0.00270 0.33760 -0.44300
O 	O 	0.20590 0.15870 0.43560 -0.42700
O 	O 	0.72840 0.89580 0.19900 -0.48500
O 	O 	0.88400 0.02110 0.11130 -0.39800
O 	O 	0.36580 0.91050 0.16480 -0.49200
O 	O 	0.92870 0.21870 0.85440 -0.43700
O 	O 	0.70460 0.34150 0.78990 -0.45900
O 	O 	0.73740 0.56150 0.18120 -0.36800
O 	O 	0.62080 0.71540 0.09050 -0.40100
O 	O 	0.98450 0.24360 0.00650 -0.41000
O 	O 	0.57600 0.69450 0.93940 -0.41800
O 	O 	0.98130 0.22020 0.65450 -0.46300
O 	O 	0.19720 0.31340 0.68360 -0.47400
O 	O 	0.79460 0.31550 0.52750 -0.43000
O 	O 	0.60170 0.16140 0.65790 -0.48500
O 	O 	0.80800 0.99730 0.66240 -0.44300
O 	O 	0.79410 0.84130 0.56440 -0.42700
O 	O 	0.27160 0.10420 0.80100 -0.48500
O 	O 	0.11600 0.97890 0.88870 -0.39800
O 	O 	0.63420 0.08950 0.83520 -0.49200
