data_crystal

_cell_length_a 12.16470
_cell_length_b 12.16470
_cell_length_c 27.19710
_cell_angle_alpha 90.00000
_cell_angle_beta  90.00000
_cell_angle_gamma 120.00000

_symmetry_space_group_name_	'P 1'
_symmetry_space_group_name_H-M	'P 1'

loop_
_symmetry_equiv_pos_as_xyz
  x,y,z

loop_
_atom_site_label
_atom_site_type_symbol
_atom_site_fract_x
_atom_site_fract_y
_atom_site_fract_z
_atom_site_charge
O 	O 	0.88180 0.43230 0.19820 -0.57400
O 	O 	0.84710 0.58770 0.19890 -0.51800
C 	C 	0.87460 0.51630 0.17880 0.53200
C 	C 	0.90940 0.53790 0.12650 -0.16400
C 	C 	0.82350 0.45340 0.08820 0.04300
C 	C 	0.85440 0.49460 0.03740 -0.01500
C 	C 	0.97980 0.58400 0.02590 0.01400
C 	C 	0.04980 0.67160 0.05880 -0.02000
C 	C 	0.99810 0.66100 0.10730 0.06300
O 	O 	0.56770 0.44950 0.19820 -0.57400
O 	O 	0.41230 0.25940 0.19890 -0.51800
C 	C 	0.48370 0.35830 0.17880 0.53200
C 	C 	0.46210 0.37150 0.12650 -0.16400
C 	C 	0.54660 0.37010 0.08820 0.04300
C 	C 	0.50540 0.35980 0.03740 -0.01500
C 	C 	0.41600 0.39580 0.02590 0.01400
C 	C 	0.32840 0.37820 0.05880 -0.02200
C 	C 	0.33900 0.33710 0.10730 0.06200
O 	O 	0.55050 0.11820 0.19820 -0.57500
O 	O 	0.74060 0.15290 0.19890 -0.51900
C 	C 	0.64170 0.12540 0.17880 0.53100
C 	C 	0.62850 0.09060 0.12650 -0.16500
C 	C 	0.62990 0.17650 0.08820 0.04200
C 	C 	0.64020 0.14560 0.03740 -0.01600
C 	C 	0.60420 0.02020 0.02590 0.01300
C 	C 	0.62180 0.95020 0.05880 -0.02100
C 	C 	0.66290 0.00190 0.10730 0.06200
O 	O 	0.88180 0.43230 0.30180 -0.57500
O 	O 	0.84710 0.58770 0.30110 -0.51900
C 	C 	0.87460 0.51630 0.32120 0.53100
C 	C 	0.90940 0.53790 0.37350 -0.16500
C 	C 	0.82350 0.45340 0.41180 0.04200
C 	C 	0.85440 0.49460 0.46260 -0.01600
C 	C 	0.97980 0.58400 0.47410 0.01300
C 	C 	0.04980 0.67160 0.44120 -0.02100
C 	C 	0.99810 0.66100 0.39270 0.06200
O 	O 	0.56770 0.44950 0.30180 -0.57500
O 	O 	0.41230 0.25940 0.30110 -0.51900
C 	C 	0.48370 0.35830 0.32120 0.53100
C 	C 	0.46210 0.37150 0.37350 -0.16500
C 	C 	0.54660 0.37010 0.41180 0.04200
C 	C 	0.50540 0.35980 0.46260 -0.01600
C 	C 	0.41600 0.39580 0.47410 0.01300
C 	C 	0.32840 0.37820 0.44120 -0.02200
C 	C 	0.33900 0.33710 0.39270 0.06200
O 	O 	0.55050 0.11820 0.30180 -0.57500
O 	O 	0.74060 0.15290 0.30110 -0.51900
C 	C 	0.64170 0.12540 0.32120 0.53100
C 	C 	0.62850 0.09060 0.37350 -0.16500
C 	C 	0.62990 0.17650 0.41180 0.04200
C 	C 	0.64020 0.14560 0.46260 -0.01600
C 	C 	0.60420 0.02020 0.47410 0.01300
C 	C 	0.62180 0.95020 0.44120 -0.02200
C 	C 	0.66290 0.00190 0.39270 0.06200
O 	O 	0.43230 0.88180 0.80180 -0.57500
O 	O 	0.58770 0.84710 0.80110 -0.51900
C 	C 	0.51630 0.87460 0.82120 0.53100
C 	C 	0.53790 0.90940 0.87350 -0.16500
C 	C 	0.45340 0.82350 0.91180 0.04200
C 	C 	0.49460 0.85440 0.96260 -0.01600
C 	C 	0.58400 0.97980 0.97410 0.01300
C 	C 	0.67160 0.04980 0.94120 -0.02100
C 	C 	0.66100 0.99810 0.89270 0.06200
O 	O 	0.44950 0.56770 0.80180 -0.57500
O 	O 	0.25940 0.41230 0.80110 -0.51900
C 	C 	0.35830 0.48370 0.82120 0.53100
C 	C 	0.37150 0.46210 0.87350 -0.16500
C 	C 	0.37010 0.54660 0.91180 0.04200
C 	C 	0.35980 0.50540 0.96260 -0.01600
C 	C 	0.39580 0.41600 0.97410 0.01300
C 	C 	0.37820 0.32840 0.94120 -0.02200
C 	C 	0.33710 0.33900 0.89270 0.06200
O 	O 	0.11820 0.55050 0.80180 -0.57500
O 	O 	0.15290 0.74060 0.80110 -0.51900
C 	C 	0.12540 0.64170 0.82120 0.53100
C 	C 	0.09060 0.62850 0.87350 -0.16500
C 	C 	0.17650 0.62990 0.91180 0.04200
C 	C 	0.14560 0.64020 0.96260 -0.01600
C 	C 	0.02020 0.60420 0.97410 0.01300
C 	C 	0.95020 0.62180 0.94120 -0.02100
C 	C 	0.00190 0.66290 0.89270 0.06200
O 	O 	0.43230 0.88180 0.69820 -0.57500
O 	O 	0.58770 0.84710 0.69890 -0.51900
C 	C 	0.51630 0.87460 0.67880 0.53100
C 	C 	0.53790 0.90940 0.62650 -0.16500
C 	C 	0.45340 0.82350 0.58820 0.04200
C 	C 	0.49460 0.85440 0.53740 -0.01600
C 	C 	0.58400 0.97980 0.52590 0.01300
C 	C 	0.67160 0.04980 0.55880 -0.02100
C 	C 	0.66100 0.99810 0.60730 0.06200
O 	O 	0.44950 0.56770 0.69820 -0.57500
O 	O 	0.25940 0.41230 0.69890 -0.51900
C 	C 	0.35830 0.48370 0.67880 0.53100
C 	C 	0.37150 0.46210 0.62650 -0.16500
C 	C 	0.37010 0.54660 0.58820 0.04200
C 	C 	0.35980 0.50540 0.53740 -0.01600
C 	C 	0.39580 0.41600 0.52590 0.01300
C 	C 	0.37820 0.32840 0.55880 -0.02200
C 	C 	0.33710 0.33900 0.60730 0.06200
O 	O 	0.11820 0.55050 0.69820 -0.57500
O 	O 	0.15290 0.74060 0.69890 -0.51900
C 	C 	0.12540 0.64170 0.67880 0.53100
C 	C 	0.09060 0.62850 0.62650 -0.16500
C 	C 	0.17650 0.62990 0.58820 0.04200
C 	C 	0.14560 0.64020 0.53740 -0.01600
C 	C 	0.02020 0.60420 0.52590 0.01300
C 	C 	0.95020 0.62180 0.55880 -0.02200
C 	C 	0.00190 0.66290 0.60730 0.06200
Cr	Cr	0.81310 0.30040 0.25000 1.53700
Cr	Cr	0.69960 0.51270 0.25000 1.53700
Cr	Cr	0.48730 0.18690 0.25000 1.53700
Cr	Cr	0.30040 0.81310 0.75000 1.53700
Cr	Cr	0.51270 0.69960 0.75000 1.53700
Cr	Cr	0.18690 0.48730 0.75000 1.53700
O 	O 	0.66667 0.33333 0.25000 -0.72800
O 	O 	0.33333 0.66667 0.75000 -0.72800
