data_crystal

_cell_length_a 10.17510
_cell_length_b 10.17510
_cell_length_c 23.77220
_cell_angle_alpha 90.00000
_cell_angle_beta  90.00000
_cell_angle_gamma 120.00000

_symmetry_space_group_name_	'P 1'
_symmetry_space_group_name_H-M	'P 1'

loop_
_symmetry_equiv_pos_as_xyz
  x,y,z

loop_
_atom_site_label
_atom_site_type_symbol
_atom_site_fract_x
_atom_site_fract_y
_atom_site_fract_z
_atom_site_charge
O 	O 	0.87550 0.27270 0.18940 -0.40100
O 	O 	0.93170 0.50460 0.19160 -0.40400
C 	C 	0.91870 0.38170 0.10370 -0.07200
C 	C 	0.06520 0.43440 0.10230 0.05600
C 	C 	0.13560 0.52290 0.05820 -0.01300
C 	C 	0.07620 0.46000 0.00170 -0.00200
C 	C 	0.84690 0.36600 0.04900 0.01600
C 	C 	0.86030 0.37620 0.16620 0.29700
O 	O 	0.72730 0.60280 0.18940 -0.40100
O 	O 	0.49540 0.42710 0.19160 -0.40400
C 	C 	0.61830 0.53700 0.10370 -0.07200
C 	C 	0.56560 0.63080 0.10230 0.05800
C 	C 	0.47710 0.61270 0.05820 -0.01200
C 	C 	0.54000 0.61620 0.00170 -0.00000
C 	C 	0.63400 0.48090 0.04900 0.01700
C 	C 	0.62380 0.48410 0.16620 0.29800
O 	O 	0.39720 0.12450 0.18940 -0.40000
O 	O 	0.57290 0.06830 0.19160 -0.40300
C 	C 	0.46300 0.08130 0.10370 -0.07100
C 	C 	0.36920 0.93480 0.10230 0.05700
C 	C 	0.38730 0.86440 0.05820 -0.01200
C 	C 	0.38380 0.92380 0.00170 -0.00100
C 	C 	0.51910 0.15310 0.04900 0.01700
C 	C 	0.51590 0.13970 0.16620 0.29800
O 	O 	0.87550 0.27270 0.31060 -0.40000
O 	O 	0.93170 0.50460 0.30840 -0.40300
C 	C 	0.91870 0.38170 0.39630 -0.07100
C 	C 	0.06520 0.43440 0.39770 0.05700
C 	C 	0.13560 0.52290 0.44180 -0.01200
C 	C 	0.07620 0.46000 0.49830 -0.00000
C 	C 	0.84690 0.36600 0.45100 0.01700
C 	C 	0.86030 0.37620 0.33380 0.29800
O 	O 	0.72730 0.60280 0.31060 -0.40000
O 	O 	0.49540 0.42710 0.30840 -0.40300
C 	C 	0.61830 0.53700 0.39630 -0.07200
C 	C 	0.56560 0.63080 0.39770 0.05800
C 	C 	0.47710 0.61270 0.44180 -0.01200
C 	C 	0.54000 0.61620 0.49830 -0.00000
C 	C 	0.63400 0.48090 0.45100 0.01700
C 	C 	0.62380 0.48410 0.33380 0.29800
O 	O 	0.39720 0.12450 0.31060 -0.40000
O 	O 	0.57290 0.06830 0.30840 -0.40300
C 	C 	0.46300 0.08130 0.39630 -0.07100
C 	C 	0.36920 0.93480 0.39770 0.05700
C 	C 	0.38730 0.86440 0.44180 -0.01200
C 	C 	0.38380 0.92380 0.49830 -0.00000
C 	C 	0.51910 0.15310 0.45100 0.01700
C 	C 	0.51590 0.13970 0.33380 0.29800
O 	O 	0.27270 0.87550 0.81060 -0.40000
O 	O 	0.50460 0.93170 0.80840 -0.40300
C 	C 	0.38170 0.91870 0.89630 -0.07100
C 	C 	0.43440 0.06520 0.89770 0.05700
C 	C 	0.52290 0.13560 0.94180 -0.01200
C 	C 	0.46000 0.07620 0.99830 -0.00100
C 	C 	0.36600 0.84690 0.95100 0.01700
C 	C 	0.37620 0.86030 0.83380 0.29800
O 	O 	0.60280 0.72730 0.81060 -0.40000
O 	O 	0.42710 0.49540 0.80840 -0.40300
C 	C 	0.53700 0.61830 0.89630 -0.07200
C 	C 	0.63080 0.56560 0.89770 0.05800
C 	C 	0.61270 0.47710 0.94180 -0.01200
C 	C 	0.61620 0.54000 0.99830 -0.00000
C 	C 	0.48090 0.63400 0.95100 0.01700
C 	C 	0.48410 0.62380 0.83380 0.29800
O 	O 	0.12450 0.39720 0.81060 -0.40000
O 	O 	0.06830 0.57290 0.80840 -0.40300
C 	C 	0.08130 0.46300 0.89630 -0.07100
C 	C 	0.93480 0.36920 0.89770 0.05700
C 	C 	0.86440 0.38730 0.94180 -0.01200
C 	C 	0.92380 0.38380 0.99830 -0.00100
C 	C 	0.15310 0.51910 0.95100 0.01700
C 	C 	0.13970 0.51590 0.83380 0.29800
O 	O 	0.27270 0.87550 0.68940 -0.40000
O 	O 	0.50460 0.93170 0.69160 -0.40300
C 	C 	0.38170 0.91870 0.60370 -0.07100
C 	C 	0.43440 0.06520 0.60230 0.05700
C 	C 	0.52290 0.13560 0.55820 -0.01200
C 	C 	0.46000 0.07620 0.50170 -0.00000
C 	C 	0.36600 0.84690 0.54900 0.01700
C 	C 	0.37620 0.86030 0.66620 0.29800
O 	O 	0.60280 0.72730 0.68940 -0.40000
O 	O 	0.42710 0.49540 0.69160 -0.40300
C 	C 	0.53700 0.61830 0.60370 -0.07200
C 	C 	0.63080 0.56560 0.60230 0.05800
C 	C 	0.61270 0.47710 0.55820 -0.01200
C 	C 	0.61620 0.54000 0.50170 -0.00000
C 	C 	0.48090 0.63400 0.54900 0.01700
C 	C 	0.48410 0.62380 0.66620 0.29800
O 	O 	0.12450 0.39720 0.68940 -0.40000
O 	O 	0.06830 0.57290 0.69160 -0.40300
C 	C 	0.08130 0.46300 0.60370 -0.07100
C 	C 	0.93480 0.36920 0.60230 0.05700
C 	C 	0.86440 0.38730 0.55820 -0.01200
C 	C 	0.92380 0.38380 0.50170 -0.00000
C 	C 	0.15310 0.51910 0.54900 0.01700
C 	C 	0.13970 0.51590 0.66620 0.29800
Fe	Fe	0.72710 0.16390 0.25000 1.21300
Fe	Fe	0.83610 0.56320 0.25000 1.21300
Fe	Fe	0.43680 0.27290 0.25000 1.21300
Fe	Fe	0.16390 0.72710 0.75000 1.21300
Fe	Fe	0.56320 0.83610 0.75000 1.21300
Fe	Fe	0.27290 0.43680 0.75000 1.21300
O 	O 	0.66667 0.33333 0.25000 -0.54800
O 	O 	0.33333 0.66667 0.75000 -0.54800
