data_crystal

_cell_length_a 9.77700
_cell_length_b 9.77700
_cell_length_c 33.61100
_cell_angle_alpha 90.00000
_cell_angle_beta  90.00000
_cell_angle_gamma 90.34100

_symmetry_space_group_name_	'P 1'
_symmetry_space_group_name_H-M	'P 1'

loop_
_symmetry_equiv_pos_as_xyz
  x,y,z

loop_
_atom_site_label
_atom_site_type_symbol
_atom_site_fract_x
_atom_site_fract_y
_atom_site_fract_z
_atom_site_charge
Mn	Mn	0.95265 0.02741 0.39258 1.27500
Mn	Mn	0.02741 0.95265 0.60742 1.27500
Mn	Mn	0.02741 0.95265 0.89258 1.27500
Mn	Mn	0.95265 0.02741 0.10742 1.27500
Mn	Mn	0.97269 0.97269 0.50000 1.26100
Mn	Mn	0.97269 0.97269 -0.00000 1.25600
H 	H 	0.27340 0.95980 0.38290 -0.13200
H 	H 	0.68010 0.92530 0.38970 -0.16400
H 	H 	0.46040 0.97600 0.48890 -0.04000
H 	H 	0.23180 0.30120 0.30920 -0.07400
H 	H 	0.48750 0.32970 0.28900 0.38900
H 	H 	0.52830 0.48350 0.28260 0.38000
H 	H 	0.40060 0.44560 0.30870 0.40600
H 	H 	0.79940 0.28000 0.34010 -0.00400
H 	H 	0.67630 0.47370 0.36720 0.00300
H 	H 	0.79360 0.23680 0.45550 0.01100
H 	H 	0.65600 0.43980 0.47780 0.08200
H 	H 	0.67810 0.56650 0.44970 0.07500
H 	H 	0.45330 0.27830 0.44920 0.07600
H 	H 	0.23150 0.27590 0.42950 0.08100
H 	H 	0.24920 0.67640 0.41640 0.06600
H 	H 	0.47760 0.67360 0.43190 0.05700
H 	H 	0.01070 0.46650 0.43480 0.12400
H 	H 	0.04600 0.39300 0.39470 0.09900
H 	H 	0.96680 0.72620 0.43200 0.02300
H 	H 	0.98650 0.78770 0.31740 0.02000
H 	H 	0.04860 0.55100 0.32920 0.00300
H 	H 	0.28170 0.91970 0.32160 0.54900
H 	H 	0.36330 0.83650 0.28970 0.52400
H 	H 	0.33340 0.77200 0.33150 0.56600
H 	H 	0.58530 0.10170 0.32590 0.51100
H 	H 	0.50840 0.05420 0.28730 0.48300
H 	H 	0.42580 0.11420 0.32320 0.51700
H 	H 	0.60340 0.74320 0.33290 0.56000
H 	H 	0.59930 0.81630 0.29140 0.52100
H 	H 	0.68990 0.87650 0.32580 0.55400
H 	H 	0.95980 0.27340 0.61710 -0.13200
H 	H 	0.92530 0.68010 0.61030 -0.16400
H 	H 	0.97600 0.46040 0.51110 -0.04000
H 	H 	0.30120 0.23180 0.69080 -0.07400
H 	H 	0.32970 0.48750 0.71100 0.38900
H 	H 	0.48350 0.52830 0.71740 0.38000
H 	H 	0.44560 0.40060 0.69130 0.40500
H 	H 	0.28000 0.79940 0.65990 -0.00300
H 	H 	0.47370 0.67630 0.63280 0.00300
H 	H 	0.23680 0.79360 0.54450 0.01100
H 	H 	0.43980 0.65600 0.52220 0.08200
H 	H 	0.56650 0.67810 0.55030 0.07500
H 	H 	0.27830 0.45330 0.55080 0.07600
H 	H 	0.27590 0.23150 0.57050 0.08100
H 	H 	0.67640 0.24920 0.58360 0.06600
H 	H 	0.67360 0.47760 0.56810 0.05700
H 	H 	0.46650 0.01070 0.56520 0.12400
H 	H 	0.39300 0.04600 0.60530 0.09800
H 	H 	0.72620 0.96680 0.56800 0.02200
H 	H 	0.78770 0.98650 0.68260 0.02000
H 	H 	0.55100 0.04860 0.67080 0.00300
H 	H 	0.91970 0.28170 0.67840 0.54900
H 	H 	0.83650 0.36330 0.71030 0.52400
H 	H 	0.77200 0.33340 0.66850 0.56500
H 	H 	0.10170 0.58530 0.67410 0.51100
H 	H 	0.05420 0.50840 0.71270 0.48300
H 	H 	0.11420 0.42580 0.67680 0.51600
H 	H 	0.74320 0.60340 0.66710 0.55900
H 	H 	0.81630 0.59930 0.70860 0.52100
H 	H 	0.87650 0.68990 0.67420 0.55300
H 	H 	0.95980 0.27340 0.88290 -0.13200
H 	H 	0.92530 0.68010 0.88970 -0.16500
H 	H 	0.97600 0.46040 0.98890 -0.03700
H 	H 	0.30120 0.23180 0.80920 -0.07400
H 	H 	0.32970 0.48750 0.78900 0.38900
H 	H 	0.48350 0.52830 0.78260 0.38000
H 	H 	0.44560 0.40060 0.80870 0.40500
H 	H 	0.28000 0.79940 0.84010 -0.00300
H 	H 	0.47370 0.67630 0.86720 0.00300
H 	H 	0.23680 0.79360 0.95550 0.01500
H 	H 	0.43980 0.65600 0.97780 0.08800
H 	H 	0.56650 0.67810 0.94970 0.07800
H 	H 	0.27830 0.45330 0.94920 0.07800
H 	H 	0.27590 0.23150 0.92950 0.08100
H 	H 	0.67640 0.24920 0.91640 0.06500
H 	H 	0.67360 0.47760 0.93190 0.05900
H 	H 	0.46650 0.01070 0.93480 0.12600
H 	H 	0.39300 0.04600 0.89470 0.09900
H 	H 	0.72620 0.96680 0.93200 0.02300
H 	H 	0.78770 0.98650 0.81740 0.02000
H 	H 	0.55100 0.04860 0.82920 0.00300
H 	H 	0.91970 0.28170 0.82160 0.54900
H 	H 	0.83650 0.36330 0.78970 0.52400
H 	H 	0.77200 0.33340 0.83150 0.56600
H 	H 	0.10170 0.58530 0.82590 0.51100
H 	H 	0.05420 0.50840 0.78730 0.48300
H 	H 	0.11420 0.42580 0.82320 0.51700
H 	H 	0.74320 0.60340 0.83290 0.56000
H 	H 	0.81630 0.59930 0.79140 0.52100
H 	H 	0.87650 0.68990 0.82580 0.55400
H 	H 	0.27340 0.95980 0.11710 -0.13100
H 	H 	0.68010 0.92530 0.11030 -0.16200
H 	H 	0.46040 0.97600 0.01110 -0.04400
H 	H 	0.23180 0.30120 0.19080 -0.07400
H 	H 	0.48750 0.32970 0.21100 0.38900
H 	H 	0.52830 0.48350 0.21740 0.38000
H 	H 	0.40060 0.44560 0.19130 0.40600
H 	H 	0.79940 0.28000 0.15990 -0.00300
H 	H 	0.67630 0.47370 0.13280 0.00300
H 	H 	0.79360 0.23680 0.04450 0.00800
H 	H 	0.65600 0.43980 0.02220 0.07600
H 	H 	0.67810 0.56650 0.05030 0.07200
H 	H 	0.45330 0.27830 0.05080 0.07300
H 	H 	0.23150 0.27590 0.07050 0.08100
H 	H 	0.24920 0.67640 0.08360 0.06600
H 	H 	0.47760 0.67360 0.06810 0.05500
H 	H 	0.01070 0.46650 0.06520 0.12200
H 	H 	0.04600 0.39300 0.10530 0.09800
H 	H 	0.96680 0.72620 0.06800 0.02200
H 	H 	0.98650 0.78770 0.18260 0.02000
H 	H 	0.04860 0.55100 0.17080 0.00300
H 	H 	0.28170 0.91970 0.17840 0.54900
H 	H 	0.36330 0.83650 0.21030 0.52400
H 	H 	0.33340 0.77200 0.16850 0.56500
H 	H 	0.58530 0.10170 0.17410 0.51100
H 	H 	0.50840 0.05420 0.21270 0.48300
H 	H 	0.42580 0.11420 0.17680 0.51600
H 	H 	0.60340 0.74320 0.16710 0.55900
H 	H 	0.59930 0.81630 0.20860 0.52100
H 	H 	0.68990 0.87650 0.17420 0.55300
H 	H 	0.96170 0.06810 0.25000 -0.11200
H 	H 	0.06810 0.96170 0.75000 -0.11100
C 	C 	0.20990 0.98090 0.45831 0.36600
C 	C 	0.34590 0.96970 0.43866 -0.31500
C 	C 	0.35340 0.95540 0.39776 0.34900
C 	C 	0.47780 0.93460 0.37814 -0.61900
C 	C 	0.59540 0.93640 0.40186 0.36600
C 	C 	0.59050 0.95410 0.44265 -0.34300
C 	C 	0.46500 0.96800 0.46137 0.23300
C 	C 	0.72060 0.95840 0.46629 0.43900
C 	C 	0.48760 0.91500 0.33336 1.28700
C 	C 	0.03510 0.12190 0.32440 0.45600
C 	C 	0.08930 0.17550 0.28584 -0.31300
C 	C 	0.19640 0.27000 0.28522 0.25700
C 	C 	0.45310 0.42070 0.28570 -1.31500
C 	C 	0.78270 0.29550 0.36697 -0.01900
C 	C 	0.71510 0.40270 0.38166 -0.01200
C 	C 	0.78010 0.27150 0.43003 0.07900
C 	C 	0.64180 0.47400 0.45101 -0.13700
C 	C 	0.49060 0.47540 0.44174 0.06700
C 	C 	0.41310 0.36010 0.44150 -0.06500
C 	C 	0.27940 0.35820 0.43070 -0.08800
C 	C 	0.21570 0.47750 0.42145 0.09000
C 	C 	0.29080 0.59360 0.42240 -0.08700
C 	C 	0.42800 0.59220 0.43210 -0.08300
C 	C 	0.06430 0.47390 0.41056 -0.16100
C 	C 	0.98050 0.71290 0.40487 -0.00900
C 	C 	0.99090 0.74590 0.34216 -0.13800
C 	C 	0.02560 0.61480 0.34851 0.08900
C 	C 	0.35420 0.85520 0.31760 -1.81400
C 	C 	0.50330 0.05990 0.31580 -1.63100
C 	C 	0.60570 0.83010 0.31960 -1.85300
C 	C 	0.98090 0.20990 0.54169 0.36500
C 	C 	0.96970 0.34590 0.56134 -0.31400
C 	C 	0.95540 0.35340 0.60224 0.34800
C 	C 	0.93460 0.47780 0.62186 -0.61800
C 	C 	0.93640 0.59540 0.59814 0.36500
C 	C 	0.95410 0.59050 0.55735 -0.34300
C 	C 	0.96800 0.46500 0.53863 0.23300
C 	C 	0.95840 0.72060 0.53371 0.43800
C 	C 	0.91500 0.48760 0.66664 1.28500
C 	C 	0.12190 0.03510 0.67560 0.45500
C 	C 	0.17550 0.08930 0.71416 -0.31100
C 	C 	0.27000 0.19640 0.71478 0.25600
C 	C 	0.42070 0.45310 0.71430 -1.31400
C 	C 	0.29550 0.78270 0.63303 -0.01900
C 	C 	0.40270 0.71510 0.61834 -0.01100
C 	C 	0.27150 0.78010 0.56997 0.07900
C 	C 	0.47400 0.64180 0.54899 -0.13700
C 	C 	0.47540 0.49060 0.55826 0.06700
C 	C 	0.36010 0.41310 0.55850 -0.06500
C 	C 	0.35820 0.27940 0.56930 -0.08800
C 	C 	0.47750 0.21570 0.57855 0.09000
C 	C 	0.59360 0.29080 0.57760 -0.08600
C 	C 	0.59220 0.42800 0.56790 -0.08400
C 	C 	0.47390 0.06430 0.58944 -0.16100
C 	C 	0.71290 0.98050 0.59513 -0.00800
C 	C 	0.74590 0.99090 0.65784 -0.13700
C 	C 	0.61480 0.02560 0.65149 0.08800
C 	C 	0.85520 0.35420 0.68240 -1.81200
C 	C 	0.05990 0.50330 0.68420 -1.62900
C 	C 	0.83010 0.60570 0.68040 -1.85100
C 	C 	0.98090 0.20990 0.95831 0.36500
C 	C 	0.96970 0.34590 0.93866 -0.31400
C 	C 	0.95540 0.35340 0.89776 0.34900
C 	C 	0.93460 0.47780 0.87814 -0.62000
C 	C 	0.93640 0.59540 0.90186 0.36900
C 	C 	0.95410 0.59050 0.94265 -0.34700
C 	C 	0.96800 0.46500 0.96137 0.23600
C 	C 	0.95840 0.72060 0.96629 0.45700
C 	C 	0.91500 0.48760 0.83336 1.28700
C 	C 	0.12190 0.03510 0.82440 0.45500
C 	C 	0.17550 0.08930 0.78584 -0.31100
C 	C 	0.27000 0.19640 0.78522 0.25600
C 	C 	0.42070 0.45310 0.78570 -1.31400
C 	C 	0.29550 0.78270 0.86697 -0.01900
C 	C 	0.40270 0.71510 0.88166 -0.01200
C 	C 	0.27150 0.78010 0.93003 0.07800
C 	C 	0.47400 0.64180 0.95101 -0.14200
C 	C 	0.47540 0.49060 0.94174 0.07200
C 	C 	0.36010 0.41310 0.94150 -0.06700
C 	C 	0.35820 0.27940 0.93070 -0.08500
C 	C 	0.47750 0.21570 0.92145 0.09000
C 	C 	0.59360 0.29080 0.92240 -0.08400
C 	C 	0.59220 0.42800 0.93210 -0.08500
C 	C 	0.47390 0.06430 0.91056 -0.16100
C 	C 	0.71290 0.98050 0.90487 -0.00800
C 	C 	0.74590 0.99090 0.84216 -0.13600
C 	C 	0.61480 0.02560 0.84851 0.08800
C 	C 	0.85520 0.35420 0.81760 -1.81400
C 	C 	0.05990 0.50330 0.81580 -1.63100
C 	C 	0.83010 0.60570 0.81960 -1.85300
C 	C 	0.20990 0.98090 0.04169 0.36600
C 	C 	0.34590 0.96970 0.06134 -0.31500
C 	C 	0.35340 0.95540 0.10224 0.34800
C 	C 	0.47780 0.93460 0.12186 -0.61700
C 	C 	0.59540 0.93640 0.09814 0.36300
C 	C 	0.59050 0.95410 0.05735 -0.33800
C 	C 	0.46500 0.96800 0.03863 0.23000
C 	C 	0.72060 0.95840 0.03371 0.42000
C 	C 	0.48760 0.91500 0.16664 1.28600
C 	C 	0.03510 0.12190 0.17560 0.45600
C 	C 	0.08930 0.17550 0.21416 -0.31300
C 	C 	0.19640 0.27000 0.21478 0.25700
C 	C 	0.45310 0.42070 0.21430 -1.31500
C 	C 	0.78270 0.29550 0.13303 -0.01900
C 	C 	0.71510 0.40270 0.11834 -0.01100
C 	C 	0.78010 0.27150 0.06997 0.08000
C 	C 	0.64180 0.47400 0.04899 -0.13300
C 	C 	0.49060 0.47540 0.05826 0.06200
C 	C 	0.41310 0.36010 0.05850 -0.06300
C 	C 	0.27940 0.35820 0.06930 -0.09100
C 	C 	0.21570 0.47750 0.07855 0.09000
C 	C 	0.29080 0.59360 0.07760 -0.09000
C 	C 	0.42800 0.59220 0.06790 -0.08200
C 	C 	0.06430 0.47390 0.08944 -0.16100
C 	C 	0.98050 0.71290 0.09513 -0.00900
C 	C 	0.99090 0.74590 0.15784 -0.13800
C 	C 	0.02560 0.61480 0.15149 0.09000
C 	C 	0.35420 0.85520 0.18240 -1.81300
C 	C 	0.50330 0.05990 0.18420 -1.63000
C 	C 	0.60570 0.83010 0.18040 -1.85100
C 	C 	0.03470 0.12950 0.25000 0.33100
C 	C 	0.25180 0.31920 0.25000 -0.41700
C 	C 	0.36520 0.42620 0.25000 0.79200
C 	C 	0.29960 0.56460 0.25000 -0.28300
C 	C 	0.12950 0.03470 0.75000 0.32800
C 	C 	0.31920 0.25180 0.75000 -0.41700
C 	C 	0.42620 0.36520 0.75000 0.79200
C 	C 	0.56460 0.29960 0.75000 -0.28300
N 	N 	0.82400 0.21180 0.39750 -0.23900
N 	N 	0.71440 0.38700 0.42245 -0.10600
N 	N 	0.96270 0.80890 0.37777 -0.23300
N 	N 	0.02100 0.59300 0.38876 -0.07400
N 	N 	0.21180 0.82400 0.60250 -0.23900
N 	N 	0.38700 0.71440 0.57755 -0.10600
N 	N 	0.80890 0.96270 0.62223 -0.23300
N 	N 	0.59300 0.02100 0.61124 -0.07400
N 	N 	0.21180 0.82400 0.89750 -0.23800
N 	N 	0.38700 0.71440 0.92245 -0.10400
N 	N 	0.80890 0.96270 0.87777 -0.23300
N 	N 	0.59300 0.02100 0.88876 -0.07400
N 	N 	0.82400 0.21180 0.10250 -0.23900
N 	N 	0.71440 0.38700 0.07755 -0.10700
N 	N 	0.96270 0.80890 0.12223 -0.23300
N 	N 	0.02100 0.59300 0.11124 -0.07400
O 	O 	0.10657 0.00903 0.43769 -0.42700
O 	O 	0.19850 0.96210 0.49499 -0.42200
O 	O 	0.71710 0.96490 0.50290 -0.40700
O 	O 	0.83481 0.95899 0.44798 -0.59200
O 	O 	0.09900 0.14900 0.35613 -0.42100
O 	O 	0.92898 0.04962 0.32464 -0.48200
O 	O 	0.00903 0.10657 0.56231 -0.42700
O 	O 	0.96210 0.19850 0.50501 -0.42200
O 	O 	0.96490 0.71710 0.49710 -0.40700
O 	O 	0.95899 0.83481 0.55202 -0.59200
O 	O 	0.14900 0.09900 0.64387 -0.42100
O 	O 	0.04962 0.92898 0.67536 -0.48200
O 	O 	0.00903 0.10657 0.93769 -0.42500
O 	O 	0.96210 0.19850 0.99499 -0.41300
O 	O 	0.96490 0.71710 0.00290 -0.42300
O 	O 	0.95899 0.83481 0.94798 -0.59300
O 	O 	0.14900 0.09900 0.85613 -0.42100
O 	O 	0.04962 0.92898 0.82464 -0.48200
O 	O 	0.10657 0.00903 0.06231 -0.42900
O 	O 	0.19850 0.96210 0.00501 -0.42900
O 	O 	0.71710 0.96490 0.99710 -0.39000
O 	O 	0.83481 0.95899 0.05202 -0.58900
O 	O 	0.09900 0.14900 0.14387 -0.42100
O 	O 	0.92898 0.04962 0.17536 -0.48200
