data_crystal

_cell_length_a 13.94290
_cell_length_b 13.94290
_cell_length_c 13.94290
_cell_angle_alpha 90.00000
_cell_angle_beta  90.00000
_cell_angle_gamma 90.00000

_symmetry_space_group_name_	'P 1'
_symmetry_space_group_name_H-M	'P 1'

loop_
_symmetry_equiv_pos_as_xyz
  x,y,z

loop_
_atom_site_label
_atom_site_type_symbol
_atom_site_fract_x
_atom_site_fract_y
_atom_site_fract_z
_atom_site_charge
Zn	Zn	0.12500 0.12500 0.62500 1.19300
Zn	Zn	0.62500 0.12500 0.12500 1.19300
Zn	Zn	0.12500 0.62500 0.12500 1.19300
Zn	Zn	0.62500 0.62500 0.62500 1.19300
Zn	Zn	0.87500 0.37500 0.87500 1.19300
Zn	Zn	0.87500 0.87500 0.37500 1.19300
Zn	Zn	0.37500 0.37500 0.37500 1.19300
Zn	Zn	0.37500 0.87500 0.87500 1.19300
N 	N 	0.18800 0.01000 0.68800 0.04600
C 	C 	0.25600 0.02100 0.75600 0.08300
N 	N 	0.18800 0.51000 0.18800 0.04600
C 	C 	0.25600 0.52100 0.25600 0.08300
N 	N 	0.68800 0.51000 0.68800 0.04600
C 	C 	0.75600 0.52100 0.75600 0.08300
N 	N 	0.56200 0.24000 0.18800 0.04600
C 	C 	0.49400 0.22900 0.25600 0.08300
N 	N 	0.06200 0.24000 0.68800 0.04600
C 	C 	0.99400 0.22900 0.75600 0.08300
N 	N 	0.06200 0.51000 0.06200 0.04500
C 	C 	0.99400 0.52100 0.99400 0.07900
N 	N 	0.06200 0.01000 0.56200 0.04600
C 	C 	0.99400 0.02100 0.49400 0.08400
N 	N 	0.56200 0.51000 0.56200 0.04600
C 	C 	0.49400 0.52100 0.49400 0.08300
N 	N 	0.56200 0.01000 0.06200 0.04700
C 	C 	0.49400 0.02100 0.99400 0.08500
N 	N 	0.68800 0.74000 0.56200 0.04700
C 	C 	0.75600 0.72900 0.49400 0.08400
N 	N 	0.68800 0.24000 0.06200 0.04700
C 	C 	0.75600 0.22900 0.99400 0.08400
N 	N 	0.68800 0.18800 0.01000 0.04700
C 	C 	0.75600 0.25600 0.02100 0.08400
N 	N 	0.68800 0.68800 0.51000 0.04700
C 	C 	0.75600 0.75600 0.52100 0.08400
N 	N 	0.18800 0.56200 0.24000 0.04700
C 	C 	0.25600 0.49400 0.22900 0.08400
N 	N 	0.18800 0.06200 0.74000 0.04700
C 	C 	0.25600 0.99400 0.72900 0.08400
N 	N 	0.06200 0.06200 0.51000 0.04600
C 	C 	0.99400 0.99400 0.52100 0.08000
N 	N 	0.06200 0.56200 0.01000 0.04700
C 	C 	0.99400 0.49400 0.02100 0.08500
N 	N 	0.56200 0.06200 0.01000 0.04700
C 	C 	0.49400 0.99400 0.02100 0.08500
N 	N 	0.56200 0.56200 0.51000 0.04700
C 	C 	0.49400 0.49400 0.52100 0.08400
N 	N 	0.56200 0.68800 0.74000 0.04700
C 	C 	0.49400 0.75600 0.72900 0.08400
N 	N 	0.06200 0.68800 0.24000 0.04700
C 	C 	0.99400 0.75600 0.22900 0.08400
N 	N 	0.01000 0.68800 0.18800 0.04700
C 	C 	0.02100 0.75600 0.25600 0.08400
N 	N 	0.51000 0.68800 0.68800 0.04700
C 	C 	0.52100 0.75600 0.75600 0.08400
N 	N 	0.24000 0.18800 0.56200 0.04700
C 	C 	0.22900 0.25600 0.49400 0.08400
N 	N 	0.24000 0.68800 0.06200 0.04700
C 	C 	0.22900 0.75600 0.99400 0.08400
N 	N 	0.51000 0.06200 0.06200 0.04600
C 	C 	0.52100 0.99400 0.99400 0.08000
N 	N 	0.51000 0.56200 0.56200 0.04700
C 	C 	0.52100 0.49400 0.49400 0.08400
N 	N 	0.01000 0.06200 0.56200 0.04700
C 	C 	0.02100 0.99400 0.49400 0.08500
N 	N 	0.01000 0.56200 0.06200 0.04700
C 	C 	0.02100 0.49400 0.99400 0.08500
N 	N 	0.74000 0.56200 0.68800 0.04700
C 	C 	0.72900 0.49400 0.75600 0.08400
N 	N 	0.74000 0.06200 0.18800 0.04700
C 	C 	0.72900 0.99400 0.25600 0.08400
N 	N 	0.76000 0.43800 0.81200 0.04700
C 	C 	0.77100 0.50600 0.74400 0.08400
N 	N 	0.76000 0.93800 0.31200 0.04700
C 	C 	0.77100 0.00600 0.24400 0.08400
N 	N 	0.99000 0.81200 0.31200 0.04700
C 	C 	0.97900 0.74400 0.24400 0.08400
N 	N 	0.49000 0.81200 0.81200 0.04700
C 	C 	0.47900 0.74400 0.74400 0.08400
N 	N 	0.26000 0.31200 0.43800 0.04700
C 	C 	0.27100 0.24400 0.50600 0.08400
N 	N 	0.26000 0.81200 0.93800 0.04700
C 	C 	0.27100 0.74400 0.00600 0.08400
N 	N 	0.49000 0.93800 0.93800 0.04600
C 	C 	0.47900 0.00600 0.00600 0.08000
N 	N 	0.49000 0.43800 0.43800 0.04700
C 	C 	0.47900 0.50600 0.50600 0.08400
N 	N 	0.99000 0.93800 0.43800 0.04700
C 	C 	0.97900 0.00600 0.50600 0.08500
N 	N 	0.99000 0.43800 0.93800 0.04700
C 	C 	0.97900 0.50600 0.00600 0.08500
N 	N 	0.93800 0.93800 0.49000 0.04600
C 	C 	0.00600 0.00600 0.47900 0.08000
N 	N 	0.93800 0.43800 0.99000 0.04700
C 	C 	0.00600 0.50600 0.97900 0.08500
N 	N 	0.43800 0.93800 0.99000 0.04700
C 	C 	0.50600 0.00600 0.97900 0.08500
N 	N 	0.43800 0.43800 0.49000 0.04700
C 	C 	0.50600 0.50600 0.47900 0.08400
N 	N 	0.31200 0.43800 0.26000 0.04700
C 	C 	0.24400 0.50600 0.27100 0.08400
N 	N 	0.31200 0.93800 0.76000 0.04700
C 	C 	0.24400 0.00600 0.77100 0.08400
N 	N 	0.81200 0.31200 0.99000 0.04700
C 	C 	0.74400 0.24400 0.97900 0.08400
N 	N 	0.81200 0.81200 0.49000 0.04700
C 	C 	0.74400 0.74400 0.47900 0.08400
N 	N 	0.43800 0.81200 0.76000 0.04700
C 	C 	0.50600 0.74400 0.77100 0.08400
N 	N 	0.93800 0.81200 0.26000 0.04700
C 	C 	0.00600 0.74400 0.27100 0.08400
N 	N 	0.43800 0.26000 0.31200 0.04700
C 	C 	0.50600 0.27100 0.24400 0.08400
N 	N 	0.93800 0.26000 0.81200 0.04700
C 	C 	0.00600 0.27100 0.74400 0.08400
N 	N 	0.93800 0.49000 0.93800 0.04600
C 	C 	0.00600 0.47900 0.00600 0.08000
N 	N 	0.93800 0.99000 0.43800 0.04700
C 	C 	0.00600 0.97900 0.50600 0.08500
N 	N 	0.43800 0.49000 0.43800 0.04700
C 	C 	0.50600 0.47900 0.50600 0.08400
N 	N 	0.43800 0.99000 0.93800 0.04700
C 	C 	0.50600 0.97900 0.00600 0.08500
N 	N 	0.81200 0.76000 0.43800 0.04700
C 	C 	0.74400 0.77100 0.50600 0.08400
N 	N 	0.81200 0.26000 0.93800 0.04700
C 	C 	0.74400 0.27100 0.00600 0.08400
N 	N 	0.31200 0.99000 0.81200 0.04700
C 	C 	0.24400 0.97900 0.74400 0.08400
N 	N 	0.31200 0.49000 0.31200 0.04700
C 	C 	0.24400 0.47900 0.24400 0.08400
N 	N 	0.81200 0.49000 0.81200 0.04700
C 	C 	0.74400 0.47900 0.74400 0.08400
N 	N 	0.81200 0.99000 0.31200 0.04700
C 	C 	0.74400 0.97900 0.24400 0.08400
N 	N 	0.43800 0.76000 0.81200 0.04700
C 	C 	0.50600 0.77100 0.74400 0.08400
N 	N 	0.93800 0.76000 0.31200 0.04700
C 	C 	0.00600 0.77100 0.24400 0.08400
N 	N 	0.31200 0.26000 0.43800 0.04700
C 	C 	0.24400 0.27100 0.50600 0.08400
N 	N 	0.31200 0.76000 0.93800 0.04700
C 	C 	0.24400 0.77100 0.00600 0.08400
N 	N 	0.31200 0.81200 0.99000 0.04700
C 	C 	0.24400 0.74400 0.97900 0.08400
N 	N 	0.31200 0.31200 0.49000 0.04700
C 	C 	0.24400 0.24400 0.47900 0.08400
N 	N 	0.81200 0.43800 0.76000 0.04700
C 	C 	0.74400 0.50600 0.77100 0.08400
N 	N 	0.81200 0.93800 0.26000 0.04700
C 	C 	0.74400 0.00600 0.27100 0.08400
N 	N 	0.43800 0.31200 0.26000 0.04700
C 	C 	0.50600 0.24400 0.27100 0.08400
N 	N 	0.93800 0.31200 0.76000 0.04700
C 	C 	0.00600 0.24400 0.77100 0.08400
N 	N 	0.99000 0.31200 0.81200 0.04700
C 	C 	0.97900 0.24400 0.74400 0.08400
N 	N 	0.49000 0.31200 0.31200 0.04700
C 	C 	0.47900 0.24400 0.24400 0.08400
N 	N 	0.76000 0.81200 0.43800 0.04700
C 	C 	0.77100 0.74400 0.50600 0.08400
N 	N 	0.76000 0.31200 0.93800 0.04700
C 	C 	0.77100 0.24400 0.00600 0.08400
N 	N 	0.26000 0.43800 0.31200 0.04700
C 	C 	0.27100 0.50600 0.24400 0.08400
N 	N 	0.26000 0.93800 0.81200 0.04700
C 	C 	0.27100 0.00600 0.74400 0.08400
N 	N 	0.24000 0.56200 0.18800 0.04700
C 	C 	0.22900 0.49400 0.25600 0.08400
N 	N 	0.24000 0.06200 0.68800 0.04700
C 	C 	0.22900 0.99400 0.75600 0.08400
N 	N 	0.01000 0.18800 0.68800 0.04700
C 	C 	0.02100 0.25600 0.75600 0.08400
N 	N 	0.51000 0.18800 0.18800 0.04700
C 	C 	0.52100 0.25600 0.25600 0.08400
N 	N 	0.74000 0.68800 0.56200 0.04700
C 	C 	0.72900 0.75600 0.49400 0.08400
N 	N 	0.74000 0.18800 0.06200 0.04700
C 	C 	0.72900 0.25600 0.99400 0.08400
N 	N 	0.68800 0.56200 0.74000 0.04700
C 	C 	0.75600 0.49400 0.72900 0.08400
N 	N 	0.68800 0.06200 0.24000 0.04700
C 	C 	0.75600 0.99400 0.22900 0.08400
N 	N 	0.18800 0.68800 0.01000 0.04700
C 	C 	0.25600 0.75600 0.02100 0.08400
N 	N 	0.18800 0.18800 0.51000 0.04700
C 	C 	0.25600 0.25600 0.52100 0.08400
N 	N 	0.56200 0.18800 0.24000 0.04700
C 	C 	0.49400 0.25600 0.22900 0.08400
N 	N 	0.06200 0.18800 0.74000 0.04700
C 	C 	0.99400 0.25600 0.72900 0.08400
N 	N 	0.56200 0.74000 0.68800 0.04700
C 	C 	0.49400 0.72900 0.75600 0.08400
N 	N 	0.06200 0.74000 0.18800 0.04700
C 	C 	0.99400 0.72900 0.25600 0.08400
N 	N 	0.18800 0.24000 0.56200 0.04700
C 	C 	0.25600 0.22900 0.49400 0.08400
N 	N 	0.18800 0.74000 0.06200 0.04700
C 	C 	0.25600 0.72900 0.99400 0.08400
N 	N 	0.68800 0.01000 0.18800 0.04700
C 	C 	0.75600 0.02100 0.25600 0.08400
N 	N 	0.03400 0.21600 0.68300 -0.18300
N 	N 	0.98100 0.26900 0.61900 0.06000
N 	N 	0.95900 0.29100 0.64200 -0.39200
H 	H 	0.98260 0.26740 0.58680 0.08000
N 	N 	0.03400 0.71600 0.18300 -0.18300
N 	N 	0.98100 0.76900 0.11900 0.06000
N 	N 	0.95900 0.79100 0.14200 -0.39200
H 	H 	0.98260 0.76740 0.08680 0.08000
N 	N 	0.53400 0.21600 0.18300 -0.18400
N 	N 	0.48100 0.26900 0.11900 0.06000
N 	N 	0.45900 0.29100 0.14200 -0.39300
H 	H 	0.48260 0.26740 0.08680 0.08000
N 	N 	0.71600 0.03400 0.18300 -0.18300
N 	N 	0.76900 0.98100 0.11900 0.06000
N 	N 	0.79100 0.95900 0.14200 -0.39200
H 	H 	0.76740 0.98260 0.08680 0.08000
N 	N 	0.71600 0.53400 0.68300 -0.18400
N 	N 	0.76900 0.48100 0.61900 0.06000
N 	N 	0.79100 0.45900 0.64200 -0.39300
H 	H 	0.76740 0.48260 0.58680 0.08000
N 	N 	0.21600 0.71600 0.06700 -0.18300
N 	N 	0.26900 0.76900 0.13100 0.06000
N 	N 	0.29100 0.79100 0.10800 -0.39300
H 	H 	0.26740 0.76740 0.16320 0.08000
N 	N 	0.21600 0.21600 0.56700 -0.18400
N 	N 	0.26900 0.26900 0.63100 0.06000
N 	N 	0.29100 0.29100 0.60800 -0.39300
H 	H 	0.26740 0.26740 0.66320 0.08000
N 	N 	0.71600 0.71600 0.56700 -0.18400
N 	N 	0.76900 0.76900 0.63100 0.06000
N 	N 	0.79100 0.79100 0.60800 -0.39300
H 	H 	0.76740 0.76740 0.66320 0.08000
N 	N 	0.53400 0.53400 0.56700 -0.18400
N 	N 	0.48100 0.48100 0.63100 0.06000
N 	N 	0.45900 0.45900 0.60800 -0.39300
H 	H 	0.48260 0.48260 0.66320 0.08000
N 	N 	0.53400 0.03400 0.06700 -0.18300
N 	N 	0.48100 0.98100 0.13100 0.06000
N 	N 	0.45900 0.95900 0.10800 -0.39300
H 	H 	0.48260 0.98260 0.16320 0.08000
N 	N 	0.03400 0.53400 0.06700 -0.18300
N 	N 	0.98100 0.48100 0.13100 0.06000
N 	N 	0.95900 0.45900 0.10800 -0.39300
H 	H 	0.98260 0.48260 0.16320 0.08000
N 	N 	0.03400 0.03400 0.56700 -0.18400
N 	N 	0.98100 0.98100 0.63100 0.06100
N 	N 	0.95900 0.95900 0.60800 -0.39200
H 	H 	0.98260 0.98260 0.66320 0.08000
N 	N 	0.68300 0.03400 0.21600 -0.18300
N 	N 	0.61900 0.98100 0.26900 0.06000
N 	N 	0.64200 0.95900 0.29100 -0.39200
H 	H 	0.58680 0.98260 0.26740 0.08000
N 	N 	0.68300 0.53400 0.71600 -0.18400
N 	N 	0.61900 0.48100 0.76900 0.06000
N 	N 	0.64200 0.45900 0.79100 -0.39300
H 	H 	0.58680 0.48260 0.76740 0.08000
N 	N 	0.18300 0.03400 0.71600 -0.18300
N 	N 	0.11900 0.98100 0.76900 0.06000
N 	N 	0.14200 0.95900 0.79100 -0.39200
H 	H 	0.08680 0.98260 0.76740 0.08000
N 	N 	0.18300 0.71600 0.03400 -0.18300
N 	N 	0.11900 0.76900 0.98100 0.06000
N 	N 	0.14200 0.79100 0.95900 -0.39200
H 	H 	0.08680 0.76740 0.98260 0.08000
N 	N 	0.18300 0.21600 0.53400 -0.18400
N 	N 	0.11900 0.26900 0.48100 0.06000
N 	N 	0.14200 0.29100 0.45900 -0.39300
H 	H 	0.08680 0.26740 0.48260 0.08000
N 	N 	0.06700 0.21600 0.71600 -0.18300
N 	N 	0.13100 0.26900 0.76900 0.06000
N 	N 	0.10800 0.29100 0.79100 -0.39300
H 	H 	0.16320 0.26740 0.76740 0.08000
N 	N 	0.56700 0.21600 0.21600 -0.18400
N 	N 	0.63100 0.26900 0.26900 0.06000
N 	N 	0.60800 0.29100 0.29100 -0.39300
H 	H 	0.66320 0.26740 0.26740 0.08000
N 	N 	0.56700 0.71600 0.71600 -0.18400
N 	N 	0.63100 0.76900 0.76900 0.06000
N 	N 	0.60800 0.79100 0.79100 -0.39300
H 	H 	0.66320 0.76740 0.76740 0.08000
N 	N 	0.56700 0.53400 0.53400 -0.18400
N 	N 	0.63100 0.48100 0.48100 0.06000
N 	N 	0.60800 0.45900 0.45900 -0.39300
H 	H 	0.66320 0.48260 0.48260 0.08000
N 	N 	0.56700 0.03400 0.03400 -0.18400
N 	N 	0.63100 0.98100 0.98100 0.06100
N 	N 	0.60800 0.95900 0.95900 -0.39200
H 	H 	0.66320 0.98260 0.98260 0.08000
N 	N 	0.06700 0.53400 0.03400 -0.18300
N 	N 	0.13100 0.48100 0.98100 0.06000
N 	N 	0.10800 0.45900 0.95900 -0.39300
H 	H 	0.16320 0.48260 0.98260 0.08000
N 	N 	0.06700 0.03400 0.53400 -0.18300
N 	N 	0.13100 0.98100 0.48100 0.06000
N 	N 	0.10800 0.95900 0.45900 -0.39300
H 	H 	0.16320 0.98260 0.48260 0.08000
N 	N 	0.21600 0.68300 0.03400 -0.18300
N 	N 	0.26900 0.61900 0.98100 0.06000
N 	N 	0.29100 0.64200 0.95900 -0.39200
H 	H 	0.26740 0.58680 0.98260 0.08000
N 	N 	0.21600 0.18300 0.53400 -0.18400
N 	N 	0.26900 0.11900 0.48100 0.06000
N 	N 	0.29100 0.14200 0.45900 -0.39300
H 	H 	0.26740 0.08680 0.48260 0.08000
N 	N 	0.71600 0.18300 0.03400 -0.18300
N 	N 	0.76900 0.11900 0.98100 0.06000
N 	N 	0.79100 0.14200 0.95900 -0.39200
H 	H 	0.76740 0.08680 0.98260 0.08000
N 	N 	0.03400 0.18300 0.71600 -0.18300
N 	N 	0.98100 0.11900 0.76900 0.06000
N 	N 	0.95900 0.14200 0.79100 -0.39200
H 	H 	0.98260 0.08680 0.76740 0.08000
N 	N 	0.53400 0.18300 0.21600 -0.18400
N 	N 	0.48100 0.11900 0.26900 0.06000
N 	N 	0.45900 0.14200 0.29100 -0.39300
H 	H 	0.48260 0.08680 0.26740 0.08000
N 	N 	0.71600 0.06700 0.21600 -0.18300
N 	N 	0.76900 0.13100 0.26900 0.06000
N 	N 	0.79100 0.10800 0.29100 -0.39300
H 	H 	0.76740 0.16320 0.26740 0.08000
N 	N 	0.71600 0.56700 0.71600 -0.18400
N 	N 	0.76900 0.63100 0.76900 0.06000
N 	N 	0.79100 0.60800 0.79100 -0.39300
H 	H 	0.76740 0.66320 0.76740 0.08000
N 	N 	0.53400 0.56700 0.53400 -0.18400
N 	N 	0.48100 0.63100 0.48100 0.06000
N 	N 	0.45900 0.60800 0.45900 -0.39300
H 	H 	0.48260 0.66320 0.48260 0.08000
N 	N 	0.53400 0.06700 0.03400 -0.18300
N 	N 	0.48100 0.13100 0.98100 0.06000
N 	N 	0.45900 0.10800 0.95900 -0.39300
H 	H 	0.48260 0.16320 0.98260 0.08000
N 	N 	0.03400 0.56700 0.03400 -0.18400
N 	N 	0.98100 0.63100 0.98100 0.06100
N 	N 	0.95900 0.60800 0.95900 -0.39200
H 	H 	0.98260 0.66320 0.98260 0.08000
N 	N 	0.03400 0.06700 0.53400 -0.18300
N 	N 	0.98100 0.13100 0.48100 0.06000
N 	N 	0.95900 0.10800 0.45900 -0.39300
H 	H 	0.98260 0.16320 0.48260 0.08000
N 	N 	0.96600 0.28400 0.81700 -0.18300
N 	N 	0.01900 0.23100 0.88100 0.06000
N 	N 	0.04100 0.20900 0.85800 -0.39200
H 	H 	0.01740 0.23260 0.91320 0.08000
N 	N 	0.46600 0.28400 0.31700 -0.18400
N 	N 	0.51900 0.23100 0.38100 0.06000
N 	N 	0.54100 0.20900 0.35800 -0.39300
H 	H 	0.51740 0.23260 0.41320 0.08000
N 	N 	0.78400 0.96600 0.31700 -0.18300
N 	N 	0.73100 0.01900 0.38100 0.06000
N 	N 	0.70900 0.04100 0.35800 -0.39200
H 	H 	0.73260 0.01740 0.41320 0.08000
N 	N 	0.78400 0.46600 0.81700 -0.18400
N 	N 	0.73100 0.51900 0.88100 0.06000
N 	N 	0.70900 0.54100 0.85800 -0.39300
H 	H 	0.73260 0.51740 0.91320 0.08000
N 	N 	0.46600 0.46600 0.43300 -0.18400
N 	N 	0.51900 0.51900 0.36900 0.06000
N 	N 	0.54100 0.54100 0.39200 -0.39300
H 	H 	0.51740 0.51740 0.33680 0.08000
N 	N 	0.46600 0.96600 0.93300 -0.18300
N 	N 	0.51900 0.01900 0.86900 0.06000
N 	N 	0.54100 0.04100 0.89200 -0.39300
H 	H 	0.51740 0.01740 0.83680 0.08000
N 	N 	0.96600 0.46600 0.93300 -0.18300
N 	N 	0.01900 0.51900 0.86900 0.06000
N 	N 	0.04100 0.54100 0.89200 -0.39300
H 	H 	0.01740 0.51740 0.83680 0.08000
N 	N 	0.96600 0.96600 0.43300 -0.18400
N 	N 	0.01900 0.01900 0.36900 0.06100
N 	N 	0.04100 0.04100 0.39200 -0.39200
H 	H 	0.01740 0.01740 0.33680 0.08000
N 	N 	0.28400 0.78400 0.93300 -0.18300
N 	N 	0.23100 0.73100 0.86900 0.06000
N 	N 	0.20900 0.70900 0.89200 -0.39300
H 	H 	0.23260 0.73260 0.83680 0.08000
N 	N 	0.28400 0.28400 0.43300 -0.18400
N 	N 	0.23100 0.23100 0.36900 0.06000
N 	N 	0.20900 0.20900 0.39200 -0.39300
H 	H 	0.23260 0.23260 0.33680 0.08000
N 	N 	0.78400 0.78400 0.43300 -0.18400
N 	N 	0.73100 0.73100 0.36900 0.06000
N 	N 	0.70900 0.70900 0.39200 -0.39300
H 	H 	0.73260 0.73260 0.33680 0.08000
N 	N 	0.78400 0.93300 0.28400 -0.18300
N 	N 	0.73100 0.86900 0.23100 0.06000
N 	N 	0.70900 0.89200 0.20900 -0.39300
H 	H 	0.73260 0.83680 0.23260 0.08000
N 	N 	0.78400 0.43300 0.78400 -0.18400
N 	N 	0.73100 0.36900 0.73100 0.06000
N 	N 	0.70900 0.39200 0.70900 -0.39300
H 	H 	0.73260 0.33680 0.73260 0.08000
N 	N 	0.46600 0.43300 0.46600 -0.18400
N 	N 	0.51900 0.36900 0.51900 0.06000
N 	N 	0.54100 0.39200 0.54100 -0.39300
H 	H 	0.51740 0.33680 0.51740 0.08000
N 	N 	0.46600 0.93300 0.96600 -0.18300
N 	N 	0.51900 0.86900 0.01900 0.06000
N 	N 	0.54100 0.89200 0.04100 -0.39300
H 	H 	0.51740 0.83680 0.01740 0.08000
N 	N 	0.96600 0.43300 0.96600 -0.18400
N 	N 	0.01900 0.36900 0.01900 0.06100
N 	N 	0.04100 0.39200 0.04100 -0.39200
H 	H 	0.01740 0.33680 0.01740 0.08000
N 	N 	0.96600 0.93300 0.46600 -0.18300
N 	N 	0.01900 0.86900 0.51900 0.06000
N 	N 	0.04100 0.89200 0.54100 -0.39300
H 	H 	0.01740 0.83680 0.51740 0.08000
N 	N 	0.96600 0.31700 0.78400 -0.18300
N 	N 	0.01900 0.38100 0.73100 0.06000
N 	N 	0.04100 0.35800 0.70900 -0.39200
H 	H 	0.01740 0.41320 0.73260 0.08000
N 	N 	0.46600 0.31700 0.28400 -0.18400
N 	N 	0.51900 0.38100 0.23100 0.06000
N 	N 	0.54100 0.35800 0.20900 -0.39300
H 	H 	0.51740 0.41320 0.23260 0.08000
N 	N 	0.28400 0.81700 0.96600 -0.18300
N 	N 	0.23100 0.88100 0.01900 0.06000
N 	N 	0.20900 0.85800 0.04100 -0.39200
H 	H 	0.23260 0.91320 0.01740 0.08000
N 	N 	0.28400 0.31700 0.46600 -0.18400
N 	N 	0.23100 0.38100 0.51900 0.06000
N 	N 	0.20900 0.35800 0.54100 -0.39300
H 	H 	0.23260 0.41320 0.51740 0.08000
N 	N 	0.43300 0.46600 0.46600 -0.18400
N 	N 	0.36900 0.51900 0.51900 0.06000
N 	N 	0.39200 0.54100 0.54100 -0.39300
H 	H 	0.33680 0.51740 0.51740 0.08000
N 	N 	0.43300 0.96600 0.96600 -0.18400
N 	N 	0.36900 0.01900 0.01900 0.06100
N 	N 	0.39200 0.04100 0.04100 -0.39200
H 	H 	0.33680 0.01740 0.01740 0.08000
N 	N 	0.93300 0.46600 0.96600 -0.18300
N 	N 	0.86900 0.51900 0.01900 0.06000
N 	N 	0.89200 0.54100 0.04100 -0.39300
H 	H 	0.83680 0.51740 0.01740 0.08000
N 	N 	0.93300 0.96600 0.46600 -0.18300
N 	N 	0.86900 0.01900 0.51900 0.06000
N 	N 	0.89200 0.04100 0.54100 -0.39300
H 	H 	0.83680 0.01740 0.51740 0.08000
N 	N 	0.93300 0.28400 0.78400 -0.18300
N 	N 	0.86900 0.23100 0.73100 0.06000
N 	N 	0.89200 0.20900 0.70900 -0.39300
H 	H 	0.83680 0.23260 0.73260 0.08000
N 	N 	0.43300 0.28400 0.28400 -0.18400
N 	N 	0.36900 0.23100 0.23100 0.06000
N 	N 	0.39200 0.20900 0.20900 -0.39300
H 	H 	0.33680 0.23260 0.23260 0.08000
N 	N 	0.43300 0.78400 0.78400 -0.18400
N 	N 	0.36900 0.73100 0.73100 0.06000
N 	N 	0.39200 0.70900 0.70900 -0.39300
H 	H 	0.33680 0.73260 0.73260 0.08000
N 	N 	0.81700 0.96600 0.28400 -0.18300
N 	N 	0.88100 0.01900 0.23100 0.06000
N 	N 	0.85800 0.04100 0.20900 -0.39200
H 	H 	0.91320 0.01740 0.23260 0.08000
N 	N 	0.81700 0.46600 0.78400 -0.18400
N 	N 	0.88100 0.51900 0.73100 0.06000
N 	N 	0.85800 0.54100 0.70900 -0.39300
H 	H 	0.91320 0.51740 0.73260 0.08000
N 	N 	0.31700 0.78400 0.96600 -0.18300
N 	N 	0.38100 0.73100 0.01900 0.06000
N 	N 	0.35800 0.70900 0.04100 -0.39200
H 	H 	0.41320 0.73260 0.01740 0.08000
N 	N 	0.31700 0.28400 0.46600 -0.18400
N 	N 	0.38100 0.23100 0.51900 0.06000
N 	N 	0.35800 0.20900 0.54100 -0.39300
H 	H 	0.41320 0.23260 0.51740 0.08000
N 	N 	0.96600 0.78400 0.31700 -0.18300
N 	N 	0.01900 0.73100 0.38100 0.06000
N 	N 	0.04100 0.70900 0.35800 -0.39200
H 	H 	0.01740 0.73260 0.41320 0.08000
N 	N 	0.46600 0.78400 0.81700 -0.18400
N 	N 	0.51900 0.73100 0.88100 0.06000
N 	N 	0.54100 0.70900 0.85800 -0.39300
H 	H 	0.51740 0.73260 0.91320 0.08000
N 	N 	0.28400 0.96600 0.81700 -0.18300
N 	N 	0.23100 0.01900 0.88100 0.06000
N 	N 	0.20900 0.04100 0.85800 -0.39200
H 	H 	0.23260 0.01740 0.91320 0.08000
N 	N 	0.28400 0.46600 0.31700 -0.18400
N 	N 	0.23100 0.51900 0.38100 0.06000
N 	N 	0.20900 0.54100 0.35800 -0.39300
H 	H 	0.23260 0.51740 0.41320 0.08000
N 	N 	0.78400 0.28400 0.93300 -0.18300
N 	N 	0.73100 0.23100 0.86900 0.06000
N 	N 	0.70900 0.20900 0.89200 -0.39300
H 	H 	0.73260 0.23260 0.83680 0.08000
N 	N 	0.31700 0.96600 0.78400 -0.18300
N 	N 	0.38100 0.01900 0.73100 0.06000
N 	N 	0.35800 0.04100 0.70900 -0.39200
H 	H 	0.41320 0.01740 0.73260 0.08000
N 	N 	0.31700 0.46600 0.28400 -0.18400
N 	N 	0.38100 0.51900 0.23100 0.06000
N 	N 	0.35800 0.54100 0.20900 -0.39300
H 	H 	0.41320 0.51740 0.23260 0.08000
N 	N 	0.81700 0.28400 0.96600 -0.18300
N 	N 	0.88100 0.23100 0.01900 0.06000
N 	N 	0.85800 0.20900 0.04100 -0.39200
H 	H 	0.91320 0.23260 0.01740 0.08000
N 	N 	0.81700 0.78400 0.46600 -0.18400
N 	N 	0.88100 0.73100 0.51900 0.06000
N 	N 	0.85800 0.70900 0.54100 -0.39300
H 	H 	0.91320 0.73260 0.51740 0.08000
N 	N 	0.93300 0.78400 0.28400 -0.18300
N 	N 	0.86900 0.73100 0.23100 0.06000
N 	N 	0.89200 0.70900 0.20900 -0.39300
H 	H 	0.83680 0.73260 0.23260 0.08000
N 	N 	0.78400 0.31700 0.96600 -0.18300
N 	N 	0.73100 0.38100 0.01900 0.06000
N 	N 	0.70900 0.35800 0.04100 -0.39200
H 	H 	0.73260 0.41320 0.01740 0.08000
N 	N 	0.78400 0.81700 0.46600 -0.18400
N 	N 	0.73100 0.88100 0.51900 0.06000
N 	N 	0.70900 0.85800 0.54100 -0.39300
H 	H 	0.73260 0.91320 0.51740 0.08000
N 	N 	0.96600 0.81700 0.28400 -0.18300
N 	N 	0.01900 0.88100 0.23100 0.06000
N 	N 	0.04100 0.85800 0.20900 -0.39200
H 	H 	0.01740 0.91320 0.23260 0.08000
N 	N 	0.46600 0.81700 0.78400 -0.18400
N 	N 	0.51900 0.88100 0.73100 0.06000
N 	N 	0.54100 0.85800 0.70900 -0.39300
H 	H 	0.51740 0.91320 0.73260 0.08000
N 	N 	0.28400 0.93300 0.78400 -0.18300
N 	N 	0.23100 0.86900 0.73100 0.06000
N 	N 	0.20900 0.89200 0.70900 -0.39300
H 	H 	0.23260 0.83680 0.73260 0.08000
N 	N 	0.28400 0.43300 0.28400 -0.18400
N 	N 	0.23100 0.36900 0.23100 0.06000
N 	N 	0.20900 0.39200 0.20900 -0.39300
H 	H 	0.23260 0.33680 0.23260 0.08000
N 	N 	0.53400 0.71600 0.68300 -0.18400
N 	N 	0.48100 0.76900 0.61900 0.06000
N 	N 	0.45900 0.79100 0.64200 -0.39300
H 	H 	0.48260 0.76740 0.58680 0.08000
N 	N 	0.21600 0.03400 0.68300 -0.18300
N 	N 	0.26900 0.98100 0.61900 0.06000
N 	N 	0.29100 0.95900 0.64200 -0.39200
H 	H 	0.26740 0.98260 0.58680 0.08000
N 	N 	0.21600 0.53400 0.18300 -0.18400
N 	N 	0.26900 0.48100 0.11900 0.06000
N 	N 	0.29100 0.45900 0.14200 -0.39300
H 	H 	0.26740 0.48260 0.08680 0.08000
N 	N 	0.71600 0.21600 0.06700 -0.18300
N 	N 	0.76900 0.26900 0.13100 0.06000
N 	N 	0.79100 0.29100 0.10800 -0.39300
H 	H 	0.76740 0.26740 0.16320 0.08000
N 	N 	0.21600 0.06700 0.71600 -0.18300
N 	N 	0.26900 0.13100 0.76900 0.06000
N 	N 	0.29100 0.10800 0.79100 -0.39300
H 	H 	0.26740 0.16320 0.76740 0.08000
N 	N 	0.21600 0.56700 0.21600 -0.18400
N 	N 	0.26900 0.63100 0.26900 0.06000
N 	N 	0.29100 0.60800 0.29100 -0.39300
H 	H 	0.26740 0.66320 0.26740 0.08000
N 	N 	0.03400 0.68300 0.21600 -0.18300
N 	N 	0.98100 0.61900 0.26900 0.06000
N 	N 	0.95900 0.64200 0.29100 -0.39200
H 	H 	0.98260 0.58680 0.26740 0.08000
N 	N 	0.53400 0.68300 0.71600 -0.18400
N 	N 	0.48100 0.61900 0.76900 0.06000
N 	N 	0.45900 0.64200 0.79100 -0.39300
H 	H 	0.48260 0.58680 0.76740 0.08000
N 	N 	0.71600 0.68300 0.53400 -0.18400
N 	N 	0.76900 0.61900 0.48100 0.06000
N 	N 	0.79100 0.64200 0.45900 -0.39300
H 	H 	0.76740 0.58680 0.48260 0.08000
N 	N 	0.06700 0.71600 0.21600 -0.18300
N 	N 	0.13100 0.76900 0.26900 0.06000
N 	N 	0.10800 0.79100 0.29100 -0.39300
H 	H 	0.16320 0.76740 0.26740 0.08000
N 	N 	0.18300 0.53400 0.21600 -0.18400
N 	N 	0.11900 0.48100 0.26900 0.06000
N 	N 	0.14200 0.45900 0.29100 -0.39300
H 	H 	0.08680 0.48260 0.26740 0.08000
N 	N 	0.68300 0.21600 0.03400 -0.18300
N 	N 	0.61900 0.26900 0.98100 0.06000
N 	N 	0.64200 0.29100 0.95900 -0.39200
H 	H 	0.58680 0.26740 0.98260 0.08000
N 	N 	0.68300 0.71600 0.53400 -0.18400
N 	N 	0.61900 0.76900 0.48100 0.06000
N 	N 	0.64200 0.79100 0.45900 -0.39300
H 	H 	0.58680 0.76740 0.48260 0.08000
C 	C 	0.07600 0.33200 0.67400 0.13200
H 	H 	0.08620 0.35810 0.66380 0.20600
C 	C 	0.57600 0.33200 0.17400 0.13200
H 	H 	0.58620 0.35810 0.16380 0.20600
C 	C 	0.57600 0.83200 0.67400 0.13200
H 	H 	0.58620 0.85810 0.66380 0.20600
C 	C 	0.67400 0.91800 0.17400 0.13200
H 	H 	0.66380 0.89190 0.16380 0.20600
C 	C 	0.67400 0.41800 0.67400 0.13200
H 	H 	0.66380 0.39190 0.66380 0.20600
C 	C 	0.17400 0.41800 0.17400 0.13200
H 	H 	0.16380 0.39190 0.16380 0.20600
C 	C 	0.17400 0.83200 0.07600 0.13200
H 	H 	0.16380 0.85810 0.08620 0.20600
C 	C 	0.17400 0.33200 0.57600 0.13200
H 	H 	0.16380 0.35810 0.58620 0.20600
C 	C 	0.67400 0.83200 0.57600 0.13200
H 	H 	0.66380 0.85810 0.58620 0.20600
C 	C 	0.57600 0.41800 0.57600 0.13200
H 	H 	0.58620 0.39190 0.58620 0.20600
C 	C 	0.57600 0.91800 0.07600 0.13200
H 	H 	0.58620 0.89190 0.08620 0.20600
C 	C 	0.07600 0.41800 0.07600 0.13200
H 	H 	0.08620 0.39190 0.08620 0.20700
C 	C 	0.07600 0.91800 0.57600 0.13200
H 	H 	0.08620 0.89190 0.58620 0.20600
C 	C 	0.67400 0.07600 0.33200 0.13200
H 	H 	0.66380 0.08620 0.35810 0.20600
C 	C 	0.67400 0.57600 0.83200 0.13200
H 	H 	0.66380 0.58620 0.85810 0.20600
C 	C 	0.17400 0.67400 0.91800 0.13200
H 	H 	0.16380 0.66380 0.89190 0.20600
C 	C 	0.17400 0.17400 0.41800 0.13200
H 	H 	0.16380 0.16380 0.39190 0.20600
C 	C 	0.07600 0.17400 0.83200 0.13200
H 	H 	0.08620 0.16380 0.85810 0.20600
C 	C 	0.57600 0.17400 0.33200 0.13200
H 	H 	0.58620 0.16380 0.35810 0.20600
C 	C 	0.57600 0.67400 0.83200 0.13200
H 	H 	0.58620 0.66380 0.85810 0.20600
C 	C 	0.57600 0.57600 0.41800 0.13200
H 	H 	0.58620 0.58620 0.39190 0.20600
C 	C 	0.57600 0.07600 0.91800 0.13200
H 	H 	0.58620 0.08620 0.89190 0.20600
C 	C 	0.07600 0.57600 0.91800 0.13200
H 	H 	0.08620 0.58620 0.89190 0.20600
C 	C 	0.07600 0.07600 0.41800 0.13200
H 	H 	0.08620 0.08620 0.39190 0.20700
C 	C 	0.33200 0.67400 0.07600 0.13200
H 	H 	0.35810 0.66380 0.08620 0.20600
C 	C 	0.33200 0.17400 0.57600 0.13200
H 	H 	0.35810 0.16380 0.58620 0.20600
C 	C 	0.83200 0.67400 0.57600 0.13200
H 	H 	0.85810 0.66380 0.58620 0.20600
C 	C 	0.91800 0.17400 0.67400 0.13200
H 	H 	0.89190 0.16380 0.66380 0.20600
C 	C 	0.41800 0.17400 0.17400 0.13200
H 	H 	0.39190 0.16380 0.16380 0.20600
C 	C 	0.83200 0.07600 0.17400 0.13200
H 	H 	0.85810 0.08620 0.16380 0.20600
C 	C 	0.83200 0.57600 0.67400 0.13200
H 	H 	0.85810 0.58620 0.66380 0.20600
C 	C 	0.41800 0.57600 0.57600 0.13200
H 	H 	0.39190 0.58620 0.58620 0.20600
C 	C 	0.41800 0.07600 0.07600 0.13200
H 	H 	0.39190 0.08620 0.08620 0.20700
C 	C 	0.91800 0.57600 0.07600 0.13200
H 	H 	0.89190 0.58620 0.08620 0.20600
C 	C 	0.91800 0.07600 0.57600 0.13200
H 	H 	0.89190 0.08620 0.58620 0.20600
C 	C 	0.08200 0.32600 0.82600 0.13200
H 	H 	0.10810 0.33620 0.83620 0.20600
C 	C 	0.58200 0.32600 0.32600 0.13200
H 	H 	0.60810 0.33620 0.33620 0.20600
C 	C 	0.66800 0.92400 0.32600 0.13200
H 	H 	0.64190 0.91380 0.33620 0.20600
C 	C 	0.66800 0.42400 0.82600 0.13200
H 	H 	0.64190 0.41380 0.83620 0.20600
C 	C 	0.58200 0.42400 0.42400 0.13200
H 	H 	0.60810 0.41380 0.41380 0.20600
C 	C 	0.58200 0.92400 0.92400 0.13200
H 	H 	0.60810 0.91380 0.91380 0.20700
C 	C 	0.08200 0.42400 0.92400 0.13200
H 	H 	0.10810 0.41380 0.91380 0.20600
C 	C 	0.08200 0.92400 0.42400 0.13200
H 	H 	0.10810 0.91380 0.41380 0.20600
C 	C 	0.16800 0.82600 0.92400 0.13200
H 	H 	0.14190 0.83620 0.91380 0.20600
C 	C 	0.16800 0.32600 0.42400 0.13200
H 	H 	0.14190 0.33620 0.41380 0.20600
C 	C 	0.82600 0.92400 0.16800 0.13200
H 	H 	0.83620 0.91380 0.14190 0.20600
C 	C 	0.82600 0.42400 0.66800 0.13200
H 	H 	0.83620 0.41380 0.64190 0.20600
C 	C 	0.42400 0.42400 0.58200 0.13200
H 	H 	0.41380 0.41380 0.60810 0.20600
C 	C 	0.42400 0.92400 0.08200 0.13200
H 	H 	0.41380 0.91380 0.10810 0.20600
C 	C 	0.92400 0.42400 0.08200 0.13200
H 	H 	0.91380 0.41380 0.10810 0.20600
C 	C 	0.92400 0.92400 0.58200 0.13200
H 	H 	0.91380 0.91380 0.60810 0.20700
C 	C 	0.92400 0.32600 0.66800 0.13200
H 	H 	0.91380 0.33620 0.64190 0.20600
C 	C 	0.42400 0.32600 0.16800 0.13200
H 	H 	0.41380 0.33620 0.14190 0.20600
C 	C 	0.32600 0.82600 0.08200 0.13200
H 	H 	0.33620 0.83620 0.10810 0.20600
C 	C 	0.32600 0.32600 0.58200 0.13200
H 	H 	0.33620 0.33620 0.60810 0.20600
C 	C 	0.42400 0.58200 0.42400 0.13200
H 	H 	0.41380 0.60810 0.41380 0.20600
C 	C 	0.42400 0.08200 0.92400 0.13200
H 	H 	0.41380 0.10810 0.91380 0.20600
C 	C 	0.92400 0.58200 0.92400 0.13200
H 	H 	0.91380 0.60810 0.91380 0.20700
C 	C 	0.92400 0.08200 0.42400 0.13200
H 	H 	0.91380 0.10810 0.41380 0.20600
C 	C 	0.92400 0.16800 0.82600 0.13200
H 	H 	0.91380 0.14190 0.83620 0.20600
C 	C 	0.42400 0.16800 0.32600 0.13200
H 	H 	0.41380 0.14190 0.33620 0.20600
C 	C 	0.82600 0.08200 0.32600 0.13200
H 	H 	0.83620 0.10810 0.33620 0.20600
C 	C 	0.82600 0.58200 0.82600 0.13200
H 	H 	0.83620 0.60810 0.83620 0.20600
C 	C 	0.32600 0.58200 0.32600 0.13200
H 	H 	0.33620 0.60810 0.33620 0.20600
C 	C 	0.32600 0.66800 0.92400 0.13200
H 	H 	0.33620 0.64190 0.91380 0.20600
C 	C 	0.32600 0.16800 0.42400 0.13200
H 	H 	0.33620 0.14190 0.41380 0.20600
C 	C 	0.92400 0.66800 0.32600 0.13200
H 	H 	0.91380 0.64190 0.33620 0.20600
C 	C 	0.42400 0.66800 0.82600 0.13200
H 	H 	0.41380 0.64190 0.83620 0.20600
C 	C 	0.32600 0.08200 0.82600 0.13200
H 	H 	0.33620 0.10810 0.83620 0.20600
C 	C 	0.82600 0.16800 0.92400 0.13200
H 	H 	0.83620 0.14190 0.91380 0.20600
C 	C 	0.82600 0.66800 0.42400 0.13200
H 	H 	0.83620 0.64190 0.41380 0.20600
C 	C 	0.32600 0.92400 0.66800 0.13200
H 	H 	0.33620 0.91380 0.64190 0.20600
C 	C 	0.32600 0.42400 0.16800 0.13200
H 	H 	0.33620 0.41380 0.14190 0.20600
C 	C 	0.82600 0.32600 0.08200 0.13200
H 	H 	0.83620 0.33620 0.10810 0.20600
C 	C 	0.82600 0.82600 0.58200 0.13200
H 	H 	0.83620 0.83620 0.60810 0.20600
C 	C 	0.92400 0.82600 0.16800 0.13200
H 	H 	0.91380 0.83620 0.14190 0.20600
C 	C 	0.42400 0.82600 0.66800 0.13200
H 	H 	0.41380 0.83620 0.64190 0.20600
C 	C 	0.66800 0.32600 0.92400 0.13200
H 	H 	0.64190 0.33620 0.91380 0.20600
C 	C 	0.66800 0.82600 0.42400 0.13200
H 	H 	0.64190 0.83620 0.41380 0.20600
C 	C 	0.08200 0.82600 0.32600 0.13200
H 	H 	0.10810 0.83620 0.33620 0.20600
C 	C 	0.58200 0.82600 0.82600 0.13200
H 	H 	0.60810 0.83620 0.83620 0.20600
C 	C 	0.16800 0.92400 0.82600 0.13200
H 	H 	0.14190 0.91380 0.83620 0.20600
C 	C 	0.16800 0.42400 0.32600 0.13200
H 	H 	0.14190 0.41380 0.33620 0.20600
C 	C 	0.91800 0.67400 0.17400 0.13200
H 	H 	0.89190 0.66380 0.16380 0.20600
C 	C 	0.41800 0.67400 0.67400 0.13200
H 	H 	0.39190 0.66380 0.66380 0.20600
C 	C 	0.33200 0.07600 0.67400 0.13200
H 	H 	0.35810 0.08620 0.66380 0.20600
C 	C 	0.33200 0.57600 0.17400 0.13200
H 	H 	0.35810 0.58620 0.16380 0.20600
C 	C 	0.83200 0.17400 0.07600 0.13200
H 	H 	0.85810 0.16380 0.08620 0.20600
C 	C 	0.17400 0.07600 0.83200 0.13200
H 	H 	0.16380 0.08620 0.85810 0.20600
C 	C 	0.17400 0.57600 0.33200 0.13200
H 	H 	0.16380 0.58620 0.35810 0.20600
C 	C 	0.07600 0.67400 0.33200 0.13200
H 	H 	0.08620 0.66380 0.35810 0.20600
C 	C 	0.67400 0.17400 0.91800 0.13200
H 	H 	0.66380 0.16380 0.89190 0.20600
C 	C 	0.67400 0.67400 0.41800 0.13200
H 	H 	0.66380 0.66380 0.39190 0.20600
C 	C 	0.07600 0.83200 0.17400 0.13200
H 	H 	0.08620 0.85810 0.16380 0.20600
C 	C 	0.17400 0.91800 0.67400 0.13200
H 	H 	0.16380 0.89190 0.66380 0.20600
C 	C 	0.67400 0.33200 0.07600 0.13200
H 	H 	0.66380 0.35810 0.08620 0.20600
H 	H 	0.12500 0.36000 0.62500 -0.26400
H 	H 	0.62500 0.86000 0.62500 -0.26400
H 	H 	0.62500 0.89000 0.12500 -0.26400
H 	H 	0.12500 0.39000 0.12500 -0.26400
H 	H 	0.12500 0.86000 0.12500 -0.26400
H 	H 	0.62500 0.39000 0.62500 -0.26400
H 	H 	0.62500 0.12500 0.36000 -0.26400
H 	H 	0.62500 0.62500 0.86000 -0.26400
H 	H 	0.12500 0.62500 0.89000 -0.26400
H 	H 	0.12500 0.12500 0.39000 -0.26400
H 	H 	0.12500 0.12500 0.86000 -0.26400
H 	H 	0.62500 0.62500 0.39000 -0.26400
H 	H 	0.36000 0.62500 0.12500 -0.26400
H 	H 	0.86000 0.62500 0.62500 -0.26400
H 	H 	0.89000 0.12500 0.62500 -0.26400
H 	H 	0.86000 0.12500 0.12500 -0.26400
H 	H 	0.39000 0.62500 0.62500 -0.26400
H 	H 	0.39000 0.12500 0.12500 -0.26400
H 	H 	0.11000 0.37500 0.87500 -0.26400
H 	H 	0.64000 0.87500 0.37500 -0.26400
H 	H 	0.61000 0.37500 0.37500 -0.26400
H 	H 	0.61000 0.87500 0.87500 -0.26400
H 	H 	0.14000 0.87500 0.87500 -0.26400
H 	H 	0.14000 0.37500 0.37500 -0.26400
H 	H 	0.87500 0.87500 0.14000 -0.26400
H 	H 	0.37500 0.37500 0.61000 -0.26400
H 	H 	0.87500 0.37500 0.64000 -0.26400
H 	H 	0.37500 0.87500 0.11000 -0.26400
H 	H 	0.37500 0.61000 0.37500 -0.26400
H 	H 	0.87500 0.14000 0.87500 -0.26400
H 	H 	0.87500 0.11000 0.37500 -0.26400
H 	H 	0.87500 0.61000 0.87500 -0.26400
H 	H 	0.37500 0.64000 0.87500 -0.26400
H 	H 	0.37500 0.14000 0.37500 -0.26400
H 	H 	0.87500 0.64000 0.37500 -0.26400
H 	H 	0.37500 0.11000 0.87500 -0.26400
H 	H 	0.37500 0.87500 0.64000 -0.26400
H 	H 	0.37500 0.37500 0.14000 -0.26400
H 	H 	0.87500 0.37500 0.11000 -0.26400
H 	H 	0.87500 0.87500 0.61000 -0.26400
H 	H 	0.64000 0.37500 0.87500 -0.26400
H 	H 	0.11000 0.87500 0.37500 -0.26400
H 	H 	0.89000 0.62500 0.12500 -0.26400
H 	H 	0.36000 0.12500 0.62500 -0.26400
H 	H 	0.12500 0.62500 0.36000 -0.26400
H 	H 	0.62500 0.12500 0.89000 -0.26400
H 	H 	0.12500 0.89000 0.62500 -0.26400
H 	H 	0.62500 0.36000 0.12500 -0.26400
