data_crystal

_cell_length_a 26.83260
_cell_length_b 26.83260
_cell_length_c 26.83260
_cell_angle_alpha 109.47100
_cell_angle_beta  109.47100
_cell_angle_gamma 109.47100

_symmetry_space_group_name_	'P 1'
_symmetry_space_group_name_H-M	'P 1'

loop_
_symmetry_equiv_pos_as_xyz
  x,y,z

loop_
_atom_site_label
_atom_site_type_symbol
_atom_site_fract_x
_atom_site_fract_y
_atom_site_fract_z
_atom_site_charge
Zn	Zn	0.76041 0.21370 0.55773 1.21500
Zn	Zn	0.23052 0.77955 0.55863 1.21600
Zn	Zn	0.03454 0.94636 0.67066 1.21100
Zn	Zn	0.96369 0.05113 0.36324 1.21300
Zn	Zn	0.65597 0.20268 0.44227 1.21500
Zn	Zn	0.22092 0.67189 0.44137 1.21600
Zn	Zn	0.27570 0.36388 0.32934 1.21100
Zn	Zn	0.68789 0.60045 0.63676 1.21300
Zn	Zn	0.34403 0.78630 0.54671 1.21500
Zn	Zn	0.77908 0.22045 0.45097 1.21600
Zn	Zn	0.72430 0.05364 0.08818 1.21100
Zn	Zn	0.31211 0.94887 0.91256 1.21300
Zn	Zn	0.23959 0.79732 0.45329 1.21500
Zn	Zn	0.76948 0.32811 0.54903 1.21600
Zn	Zn	0.96546 0.63612 0.91182 1.21100
Zn	Zn	0.03631 0.39955 0.08744 1.21300
Zn	Zn	0.54671 0.34403 0.78630 1.21500
Zn	Zn	0.45097 0.77908 0.22045 1.21600
Zn	Zn	0.08818 0.72430 0.05364 1.21100
Zn	Zn	0.91256 0.31211 0.94887 1.21300
Zn	Zn	0.45329 0.23959 0.79732 1.21500
Zn	Zn	0.54903 0.76948 0.32811 1.21600
Zn	Zn	0.91182 0.96546 0.63612 1.21100
Zn	Zn	0.08744 0.03631 0.39955 1.21300
Zn	Zn	0.55773 0.76041 0.21370 1.21500
Zn	Zn	0.55863 0.23052 0.77955 1.21700
Zn	Zn	0.67066 0.03454 0.94636 1.21200
Zn	Zn	0.36324 0.96369 0.05113 1.21400
Zn	Zn	0.44227 0.65597 0.20268 1.21600
Zn	Zn	0.44137 0.22092 0.67189 1.21700
Zn	Zn	0.32934 0.27570 0.36388 1.21200
Zn	Zn	0.63676 0.68789 0.60045 1.21400
Zn	Zn	0.20268 0.44227 0.65597 1.21600
Zn	Zn	0.67189 0.44137 0.22092 1.21700
Zn	Zn	0.36388 0.32934 0.27570 1.21200
Zn	Zn	0.60045 0.63676 0.68789 1.21400
Zn	Zn	0.21370 0.55773 0.76041 1.21600
Zn	Zn	0.77955 0.55863 0.23052 1.21700
Zn	Zn	0.94636 0.67066 0.03454 1.21200
Zn	Zn	0.05113 0.36324 0.96369 1.21400
Zn	Zn	0.79732 0.45329 0.23959 1.21600
Zn	Zn	0.32811 0.54903 0.76948 1.21700
Zn	Zn	0.63612 0.91182 0.96546 1.21200
Zn	Zn	0.39955 0.08744 0.03631 1.21400
Zn	Zn	0.78630 0.54671 0.34403 1.21600
Zn	Zn	0.22045 0.45097 0.77908 1.21700
Zn	Zn	0.05364 0.08818 0.72430 1.21200
Zn	Zn	0.94887 0.91256 0.31211 1.21400
Zn	Zn	-0.00000 -0.00000 0.51924 1.25500
Zn	Zn	0.48076 0.48076 0.48076 1.25500
Zn	Zn	0.51924 0.00000 -0.00000 1.25500
Zn	Zn	-0.00000 0.51924 -0.00000 1.25500
H 	H 	0.92680 0.74630 0.60730 0.05100
H 	H 	0.88440 0.12850 0.60230 0.06900
H 	H 	0.93540 0.07150 0.56870 0.04400
H 	H 	0.55850 0.92990 0.49840 0.06100
H 	H 	0.61240 0.04400 0.55660 0.06700
H 	H 	0.12990 0.89290 0.44040 0.07000
H 	H 	0.06450 0.93110 0.46740 0.04300
H 	H 	0.84230 0.66170 0.59700 0.05800
H 	H 	0.13900 0.31950 0.39270 0.05100
H 	H 	0.52620 0.28210 0.39770 0.06900
H 	H 	0.50280 0.36670 0.43130 0.04400
H 	H 	0.43150 0.06010 0.50160 0.06100
H 	H 	0.48740 0.05580 0.44340 0.06800
H 	H 	0.45250 0.68950 0.55960 0.07000
H 	H 	0.46370 0.59710 0.53260 0.04300
H 	H 	0.06470 0.24530 0.40300 0.05800
H 	H 	0.86100 0.25370 0.18050 0.05100
H 	H 	0.47380 0.87150 0.75590 0.06900
H 	H 	0.49720 0.92850 0.86390 0.04300
H 	H 	0.56850 0.07010 0.62860 0.06100
H 	H 	0.51260 0.95600 0.56840 0.06800
H 	H 	0.54750 0.10710 0.23700 0.07000
H 	H 	0.53630 0.06890 0.13340 0.04300
H 	H 	0.93530 0.33830 0.18060 0.05800
H 	H 	0.07320 0.68050 0.81950 0.05100
H 	H 	0.11560 0.71790 0.24410 0.06900
H 	H 	0.06460 0.63330 0.13610 0.04400
H 	H 	0.44150 0.93990 0.37140 0.06100
H 	H 	0.38760 0.94420 0.43160 0.06800
H 	H 	0.87010 0.31050 0.76300 0.07000
H 	H 	0.93550 0.40290 0.86660 0.04300
H 	H 	0.15770 0.75470 0.81940 0.05800
H 	H 	0.18050 0.86100 0.25370 0.05100
H 	H 	0.75590 0.47380 0.87150 0.06900
H 	H 	0.86390 0.49720 0.92850 0.04300
H 	H 	0.62860 0.56850 0.07010 0.06100
H 	H 	0.56840 0.51260 0.95600 0.06800
H 	H 	0.23700 0.54750 0.10710 0.07000
H 	H 	0.13340 0.53630 0.06890 0.04300
H 	H 	0.18060 0.93530 0.33830 0.05800
H 	H 	0.81950 0.07320 0.68050 0.05100
H 	H 	0.24410 0.11560 0.71790 0.06900
H 	H 	0.13610 0.06460 0.63330 0.04400
H 	H 	0.37140 0.44150 0.93990 0.06100
H 	H 	0.43160 0.38760 0.94420 0.06800
H 	H 	0.76300 0.87010 0.31050 0.07000
H 	H 	0.86660 0.93550 0.40290 0.04300
H 	H 	0.81940 0.15770 0.75470 0.05800
H 	H 	0.60730 0.92680 0.74630 0.05100
H 	H 	0.60230 0.88440 0.12850 0.06900
H 	H 	0.56870 0.93540 0.07150 0.04400
H 	H 	0.49840 0.55850 0.92990 0.06100
H 	H 	0.55660 0.61240 0.04400 0.06700
H 	H 	0.44040 0.12990 0.89290 0.07000
H 	H 	0.46740 0.06450 0.93110 0.04300
H 	H 	0.59700 0.84230 0.66170 0.05800
H 	H 	0.39270 0.13900 0.31950 0.05100
H 	H 	0.39770 0.52620 0.28210 0.06900
H 	H 	0.43130 0.50280 0.36670 0.04400
H 	H 	0.50160 0.43150 0.06010 0.06100
H 	H 	0.44340 0.48740 0.05580 0.06800
H 	H 	0.55960 0.45250 0.68950 0.07000
H 	H 	0.53260 0.46370 0.59710 0.04300
H 	H 	0.40300 0.06470 0.24530 0.05800
H 	H 	0.31950 0.39270 0.13900 0.05100
H 	H 	0.28210 0.39770 0.52620 0.06900
H 	H 	0.36670 0.43130 0.50280 0.04400
H 	H 	0.06010 0.50160 0.43150 0.06100
H 	H 	0.05580 0.44340 0.48740 0.06800
H 	H 	0.68950 0.55960 0.45250 0.07000
H 	H 	0.59710 0.53260 0.46370 0.04300
H 	H 	0.24530 0.40300 0.06470 0.05800
H 	H 	0.74630 0.60730 0.92680 0.05100
H 	H 	0.12850 0.60230 0.88440 0.06900
H 	H 	0.07150 0.56870 0.93540 0.04400
H 	H 	0.92990 0.49840 0.55850 0.06100
H 	H 	0.04400 0.55660 0.61240 0.06700
H 	H 	0.89290 0.44040 0.12990 0.07000
H 	H 	0.93110 0.46740 0.06450 0.04300
H 	H 	0.66170 0.59700 0.84230 0.05800
H 	H 	0.68050 0.81950 0.07320 0.05100
H 	H 	0.71790 0.24410 0.11560 0.06900
H 	H 	0.63330 0.13610 0.06460 0.04400
H 	H 	0.93990 0.37140 0.44150 0.06100
H 	H 	0.94420 0.43160 0.38760 0.06800
H 	H 	0.31050 0.76300 0.87010 0.07000
H 	H 	0.40290 0.86660 0.93550 0.04300
H 	H 	0.75470 0.81940 0.15770 0.05800
H 	H 	0.25370 0.18050 0.86100 0.05100
H 	H 	0.87150 0.75590 0.47380 0.06900
H 	H 	0.92850 0.86390 0.49720 0.04300
H 	H 	0.07010 0.62860 0.56850 0.06100
H 	H 	0.95600 0.56840 0.51260 0.06800
H 	H 	0.10710 0.23700 0.54750 0.07000
H 	H 	0.06890 0.13340 0.53630 0.04300
H 	H 	0.33830 0.18060 0.93530 0.05800
H 	H 	-0.00000 0.00000 0.62300 0.18100
H 	H 	-0.00000 -0.00000 0.41360 0.19100
H 	H 	0.37700 0.37700 0.37700 0.18100
H 	H 	0.58640 0.58640 0.58640 0.19100
H 	H 	0.62300 0.00000 -0.00000 0.18100
H 	H 	0.41360 0.00000 -0.00000 0.19100
H 	H 	0.00000 0.62300 -0.00000 0.18100
H 	H 	-0.00000 0.41360 -0.00000 0.19100
C 	C 	0.89200 0.74560 0.60740 -0.02600
C 	C 	0.88890 0.12080 0.56810 -0.03100
C 	C 	0.91760 0.08910 0.54950 -0.01600
C 	C 	0.93770 0.06670 0.45860 0.39300
C 	C 	0.86850 0.13860 0.52590 0.02100
C 	C 	0.09260 0.91780 0.54020 -0.00500
C 	C 	0.91380 0.08910 0.49730 -0.01000
C 	C 	0.83730 0.17370 0.52040 0.37900
C 	C 	0.06400 0.93510 0.57770 0.39600
C 	C 	0.63630 0.03940 0.49390 0.05700
C 	C 	0.58030 0.95570 0.48800 -0.03000
C 	C 	0.58730 0.93690 0.43780 0.04100
C 	C 	0.67690 0.09910 0.49940 0.29800
C 	C 	0.18600 0.85060 0.51900 0.39600
C 	C 	0.61090 0.02010 0.52120 -0.06000
C 	C 	0.57602 0.88260 0.38782 0.30200
C 	C 	0.12360 0.89610 0.47310 -0.02800
C 	C 	0.08760 0.91830 0.48870 -0.02000
C 	C 	0.14780 0.87970 0.51430 0.01500
C 	C 	0.91230 0.85400 0.62130 0.46300
C 	C 	0.87830 0.79140 0.61330 -0.01000
C 	C 	0.84480 0.69840 0.60140 -0.03900
C 	C 	0.80280 0.71540 0.60340 0.00500
C 	C 	0.74140 0.68390 0.59910 0.42100
C 	C 	0.13820 0.28460 0.39260 -0.02600
C 	C 	0.55270 0.32080 0.43190 -0.03100
C 	C 	0.53960 0.36810 0.45050 -0.01600
C 	C 	0.60810 0.47910 0.54140 0.39300
C 	C 	0.61270 0.34260 0.47410 0.02100
C 	C 	0.37760 0.55240 0.45980 -0.00500
C 	C 	0.59180 0.41650 0.50270 -0.01000
C 	C 	0.65330 0.31690 0.47960 0.37900
C 	C 	0.35740 0.48630 0.42230 0.39600
C 	C 	0.54550 0.14240 0.50610 0.05700
C 	C 	0.46770 0.09230 0.51200 -0.03000
C 	C 	0.49910 0.14950 0.56220 0.04000
C 	C 	0.59970 0.17750 0.50060 0.29800
C 	C 	0.33160 0.66700 0.48100 0.39600
C 	C 	0.49890 0.08970 0.47880 -0.06100
C 	C 	0.49478 0.18820 0.61218 0.30200
C 	C 	0.42300 0.65050 0.52690 -0.02800
C 	C 	0.42960 0.59890 0.51130 -0.02000
C 	C 	0.36540 0.63350 0.48570 0.01500
C 	C 	0.23270 0.29100 0.37870 0.46300
C 	C 	0.17810 0.26500 0.38670 -0.01000
C 	C 	0.09700 0.24340 0.39860 -0.03900
C 	C 	0.11200 0.19940 0.39660 0.00500
C 	C 	0.08480 0.14230 0.40090 0.42100
C 	C 	0.86180 0.25440 0.14640 -0.02600
C 	C 	0.44730 0.87920 0.76810 -0.03100
C 	C 	0.46040 0.91090 0.82850 -0.01600
C 	C 	0.39190 0.93330 0.87100 0.39300
C 	C 	0.38730 0.86140 0.72990 0.02100
C 	C 	0.62240 0.08220 0.17480 -0.00500
C 	C 	0.40820 0.91090 0.82470 -0.01000
C 	C 	0.34670 0.82630 0.66360 0.37900
C 	C 	0.64260 0.06490 0.12890 0.39600
C 	C 	0.45450 0.96060 0.59690 0.05700
C 	C 	0.53230 0.04430 0.62460 -0.02900
C 	C 	0.50090 0.06310 0.65040 0.04000
C 	C 	0.40030 0.90090 0.57780 0.29800
C 	C 	0.66840 0.14940 0.33540 0.39600
C 	C 	0.50110 0.97990 0.59080 -0.06200
C 	C 	0.50522 0.11740 0.69342 0.30300
C 	C 	0.57700 0.10390 0.22750 -0.02800
C 	C 	0.57040 0.08170 0.16930 -0.02000
C 	C 	0.63460 0.12030 0.26810 0.01500
C 	C 	0.76730 0.14600 0.05830 0.46300
C 	C 	0.82190 0.20860 0.08690 -0.01000
C 	C 	0.90300 0.30160 0.14640 -0.03900
C 	C 	0.88800 0.28460 0.08740 0.00500
C 	C 	0.91520 0.31610 0.05750 0.42100
C 	C 	0.10800 0.71540 0.85360 -0.02600
C 	C 	0.11110 0.67920 0.23190 -0.03100
C 	C 	0.08240 0.63190 0.17150 -0.01600
C 	C 	0.06230 0.52090 0.12900 0.39300
C 	C 	0.13150 0.65740 0.27010 0.02100
C 	C 	0.90740 0.44760 0.82520 -0.00600
C 	C 	0.08620 0.58350 0.17530 -0.01000
C 	C 	0.16270 0.68310 0.33640 0.37900
C 	C 	0.93600 0.51370 0.87110 0.39600
C 	C 	0.36370 0.85760 0.40310 0.05700
C 	C 	0.41970 0.90770 0.37540 -0.03000
C 	C 	0.41270 0.85050 0.34960 0.04000
C 	C 	0.32310 0.82250 0.42220 0.29800
C 	C 	0.81400 0.33300 0.66460 0.39600
C 	C 	0.38910 0.91030 0.40920 -0.06100
C 	C 	0.42398 0.81180 0.30658 0.30200
C 	C 	0.87640 0.34950 0.77250 -0.02800
C 	C 	0.91240 0.40110 0.83070 -0.02000
C 	C 	0.85220 0.36650 0.73190 0.01500
C 	C 	0.08770 0.70900 0.94170 0.46300
C 	C 	0.12170 0.73500 0.91310 -0.01000
C 	C 	0.15520 0.75660 0.85360 -0.03900
C 	C 	0.19720 0.80060 0.91260 0.00500
C 	C 	0.25860 0.85770 0.94250 0.42100
C 	C 	0.14640 0.86180 0.25440 -0.02600
C 	C 	0.76810 0.44730 0.87920 -0.03100
C 	C 	0.82850 0.46040 0.91090 -0.01600
C 	C 	0.87100 0.39190 0.93330 0.39300
C 	C 	0.72990 0.38730 0.86140 0.02100
C 	C 	0.17480 0.62240 0.08220 -0.00500
C 	C 	0.82470 0.40820 0.91090 -0.01000
C 	C 	0.66360 0.34670 0.82630 0.37900
C 	C 	0.12890 0.64260 0.06490 0.39600
C 	C 	0.59690 0.45450 0.96060 0.05700
C 	C 	0.62460 0.53230 0.04430 -0.02900
C 	C 	0.65040 0.50090 0.06310 0.04000
C 	C 	0.57780 0.40030 0.90090 0.29800
C 	C 	0.33540 0.66840 0.14940 0.39600
C 	C 	0.59080 0.50110 0.97990 -0.06200
C 	C 	0.69342 0.50522 0.11740 0.30300
C 	C 	0.22750 0.57700 0.10390 -0.02800
C 	C 	0.16930 0.57040 0.08170 -0.02000
C 	C 	0.26810 0.63460 0.12030 0.01500
C 	C 	0.05830 0.76730 0.14600 0.46300
C 	C 	0.08690 0.82190 0.20860 -0.01000
C 	C 	0.14640 0.90300 0.30160 -0.03900
C 	C 	0.08740 0.88800 0.28460 0.00500
C 	C 	0.05750 0.91520 0.31610 0.42100
C 	C 	0.85360 0.10800 0.71540 -0.02600
C 	C 	0.23190 0.11110 0.67920 -0.03100
C 	C 	0.17150 0.08240 0.63190 -0.01600
C 	C 	0.12900 0.06230 0.52090 0.39300
C 	C 	0.27010 0.13150 0.65740 0.02100
C 	C 	0.82520 0.90740 0.44760 -0.00600
C 	C 	0.17530 0.08620 0.58350 -0.01000
C 	C 	0.33640 0.16270 0.68310 0.37900
C 	C 	0.87110 0.93600 0.51370 0.39600
C 	C 	0.40310 0.36370 0.85760 0.05700
C 	C 	0.37540 0.41970 0.90770 -0.03000
C 	C 	0.34960 0.41270 0.85050 0.04000
C 	C 	0.42220 0.32310 0.82250 0.29800
C 	C 	0.66460 0.81400 0.33300 0.39600
C 	C 	0.40920 0.38910 0.91030 -0.06100
C 	C 	0.30658 0.42398 0.81180 0.30200
C 	C 	0.77250 0.87640 0.34950 -0.02800
C 	C 	0.83070 0.91240 0.40110 -0.02000
C 	C 	0.73190 0.85220 0.36650 0.01500
C 	C 	0.94170 0.08770 0.70900 0.46300
C 	C 	0.91310 0.12170 0.73500 -0.01000
C 	C 	0.85360 0.15520 0.75660 -0.03900
C 	C 	0.91260 0.19720 0.80060 0.00500
C 	C 	0.94250 0.25860 0.85770 0.42100
C 	C 	0.60740 0.89200 0.74560 -0.02600
C 	C 	0.56810 0.88890 0.12080 -0.03100
C 	C 	0.54950 0.91760 0.08910 -0.01600
C 	C 	0.45860 0.93770 0.06670 0.39300
C 	C 	0.52590 0.86850 0.13860 0.02100
C 	C 	0.54020 0.09260 0.91780 -0.00500
C 	C 	0.49730 0.91380 0.08910 -0.01000
C 	C 	0.52040 0.83730 0.17370 0.37900
C 	C 	0.57770 0.06400 0.93510 0.39600
C 	C 	0.49390 0.63630 0.03940 0.05700
C 	C 	0.48800 0.58030 0.95570 -0.03000
C 	C 	0.43780 0.58730 0.93690 0.04100
C 	C 	0.49940 0.67690 0.09910 0.29800
C 	C 	0.51900 0.18600 0.85060 0.39600
C 	C 	0.52120 0.61090 0.02010 -0.06000
C 	C 	0.38782 0.57602 0.88260 0.30200
C 	C 	0.47310 0.12360 0.89610 -0.02800
C 	C 	0.48870 0.08760 0.91830 -0.02000
C 	C 	0.51430 0.14780 0.87970 0.01500
C 	C 	0.62130 0.91230 0.85400 0.46300
C 	C 	0.61330 0.87830 0.79140 -0.01000
C 	C 	0.60140 0.84480 0.69840 -0.03900
C 	C 	0.60340 0.80280 0.71540 0.00500
C 	C 	0.59910 0.74140 0.68390 0.42100
C 	C 	0.39260 0.13820 0.28460 -0.02600
C 	C 	0.43190 0.55270 0.32080 -0.03100
C 	C 	0.45050 0.53960 0.36810 -0.01600
C 	C 	0.54140 0.60810 0.47910 0.39300
C 	C 	0.47410 0.61270 0.34260 0.02100
C 	C 	0.45980 0.37760 0.55240 -0.00500
C 	C 	0.50270 0.59180 0.41650 -0.01000
C 	C 	0.47960 0.65330 0.31690 0.37900
C 	C 	0.42230 0.35740 0.48630 0.39600
C 	C 	0.50610 0.54550 0.14240 0.05700
C 	C 	0.51200 0.46770 0.09230 -0.03000
C 	C 	0.56220 0.49910 0.14950 0.04000
C 	C 	0.50060 0.59970 0.17750 0.29800
C 	C 	0.48100 0.33160 0.66700 0.39600
C 	C 	0.47880 0.49890 0.08970 -0.06100
C 	C 	0.61218 0.49478 0.18820 0.30200
C 	C 	0.52690 0.42300 0.65050 -0.02800
C 	C 	0.51130 0.42960 0.59890 -0.02000
C 	C 	0.48570 0.36540 0.63350 0.01500
C 	C 	0.37870 0.23270 0.29100 0.46300
C 	C 	0.38670 0.17810 0.26500 -0.01000
C 	C 	0.39860 0.09700 0.24340 -0.03900
C 	C 	0.39660 0.11200 0.19940 0.00500
C 	C 	0.40090 0.08480 0.14230 0.42100
C 	C 	0.28460 0.39260 0.13820 -0.02600
C 	C 	0.32080 0.43190 0.55270 -0.03100
C 	C 	0.36810 0.45050 0.53960 -0.01600
C 	C 	0.47910 0.54140 0.60810 0.39300
C 	C 	0.34260 0.47410 0.61270 0.02100
C 	C 	0.55240 0.45980 0.37760 -0.00500
C 	C 	0.41650 0.50270 0.59180 -0.01000
C 	C 	0.31690 0.47960 0.65330 0.37900
C 	C 	0.48630 0.42230 0.35740 0.39600
C 	C 	0.14240 0.50610 0.54550 0.05700
C 	C 	0.09230 0.51200 0.46770 -0.03000
C 	C 	0.14950 0.56220 0.49910 0.04000
C 	C 	0.17750 0.50060 0.59970 0.29800
C 	C 	0.66700 0.48100 0.33160 0.39600
C 	C 	0.08970 0.47880 0.49890 -0.06100
C 	C 	0.18820 0.61218 0.49478 0.30200
C 	C 	0.65050 0.52690 0.42300 -0.02800
C 	C 	0.59890 0.51130 0.42960 -0.02000
C 	C 	0.63350 0.48570 0.36540 0.01500
C 	C 	0.29100 0.37870 0.23270 0.46300
C 	C 	0.26500 0.38670 0.17810 -0.01000
C 	C 	0.24340 0.39860 0.09700 -0.03900
C 	C 	0.19940 0.39660 0.11200 0.00500
C 	C 	0.14230 0.40090 0.08480 0.42100
C 	C 	0.74560 0.60740 0.89200 -0.02600
C 	C 	0.12080 0.56810 0.88890 -0.03100
C 	C 	0.08910 0.54950 0.91760 -0.01600
C 	C 	0.06670 0.45860 0.93770 0.39300
C 	C 	0.13860 0.52590 0.86850 0.02100
C 	C 	0.91780 0.54020 0.09260 -0.00500
C 	C 	0.08910 0.49730 0.91380 -0.01000
C 	C 	0.17370 0.52040 0.83730 0.37900
C 	C 	0.93510 0.57770 0.06400 0.39600
C 	C 	0.03940 0.49390 0.63630 0.05700
C 	C 	0.95570 0.48800 0.58030 -0.03000
C 	C 	0.93690 0.43780 0.58730 0.04100
C 	C 	0.09910 0.49940 0.67690 0.29800
C 	C 	0.85060 0.51900 0.18600 0.39600
C 	C 	0.02010 0.52120 0.61090 -0.06000
C 	C 	0.88260 0.38782 0.57602 0.30200
C 	C 	0.89610 0.47310 0.12360 -0.02800
C 	C 	0.91830 0.48870 0.08760 -0.02000
C 	C 	0.87970 0.51430 0.14780 0.01500
C 	C 	0.85400 0.62130 0.91230 0.46300
C 	C 	0.79140 0.61330 0.87830 -0.01000
C 	C 	0.69840 0.60140 0.84480 -0.03900
C 	C 	0.71540 0.60340 0.80280 0.00500
C 	C 	0.68390 0.59910 0.74140 0.42100
C 	C 	0.71540 0.85360 0.10800 -0.02600
C 	C 	0.67920 0.23190 0.11110 -0.03100
C 	C 	0.63190 0.17150 0.08240 -0.01600
C 	C 	0.52090 0.12900 0.06230 0.39300
C 	C 	0.65740 0.27010 0.13150 0.02100
C 	C 	0.44760 0.82520 0.90740 -0.00600
C 	C 	0.58350 0.17530 0.08620 -0.01000
C 	C 	0.68310 0.33640 0.16270 0.37900
C 	C 	0.51370 0.87110 0.93600 0.39600
C 	C 	0.85760 0.40310 0.36370 0.05700
C 	C 	0.90770 0.37540 0.41970 -0.03000
C 	C 	0.85050 0.34960 0.41270 0.04000
C 	C 	0.82250 0.42220 0.32310 0.29800
C 	C 	0.33300 0.66460 0.81400 0.39600
C 	C 	0.91030 0.40920 0.38910 -0.06100
C 	C 	0.81180 0.30658 0.42398 0.30200
C 	C 	0.34950 0.77250 0.87640 -0.02800
C 	C 	0.40110 0.83070 0.91240 -0.02000
C 	C 	0.36650 0.73190 0.85220 0.01500
C 	C 	0.70900 0.94170 0.08770 0.46300
C 	C 	0.73500 0.91310 0.12170 -0.01000
C 	C 	0.75660 0.85360 0.15520 -0.03900
C 	C 	0.80060 0.91260 0.19720 0.00500
C 	C 	0.85770 0.94250 0.25860 0.42100
C 	C 	0.25440 0.14640 0.86180 -0.02600
C 	C 	0.87920 0.76810 0.44730 -0.03100
C 	C 	0.91090 0.82850 0.46040 -0.01600
C 	C 	0.93330 0.87100 0.39190 0.39300
C 	C 	0.86140 0.72990 0.38730 0.02100
C 	C 	0.08220 0.17480 0.62240 -0.00500
C 	C 	0.91090 0.82470 0.40820 -0.01000
C 	C 	0.82630 0.66360 0.34670 0.37900
C 	C 	0.06490 0.12890 0.64260 0.39600
C 	C 	0.96060 0.59690 0.45450 0.05700
C 	C 	0.04430 0.62460 0.53230 -0.02900
C 	C 	0.06310 0.65040 0.50090 0.04000
C 	C 	0.90090 0.57780 0.40030 0.29800
C 	C 	0.14940 0.33540 0.66840 0.39600
C 	C 	0.97990 0.59080 0.50110 -0.06200
C 	C 	0.11740 0.69342 0.50522 0.30300
C 	C 	0.10390 0.22750 0.57700 -0.02800
C 	C 	0.08170 0.16930 0.57040 -0.02000
C 	C 	0.12030 0.26810 0.63460 0.01500
C 	C 	0.14600 0.05830 0.76730 0.46300
C 	C 	0.20860 0.08690 0.82190 -0.01000
C 	C 	0.30160 0.14640 0.90300 -0.03900
C 	C 	0.28460 0.08740 0.88800 0.00500
C 	C 	0.31610 0.05750 0.91520 0.42100
O 	O 	0.95810 0.86540 0.62030 -0.53800
O 	O 	0.88750 0.88240 0.63070 -0.51900
O 	O 	0.82497 0.19124 0.56153 -0.45900
O 	O 	0.93206 0.07908 0.41772 -0.43700
O 	O 	0.20248 0.83991 0.56059 -0.45100
O 	O 	0.07148 0.92254 0.62004 -0.42400
O 	O 	0.96325 0.03722 0.46971 -0.46500
O 	O 	0.03593 0.96045 0.56562 -0.48000
O 	O 	0.82106 0.17697 0.47289 -0.44700
O 	O 	0.88575 0.12073 0.48278 -0.12600
O 	O 	0.19821 0.84047 0.47676 -0.47600
O 	O 	0.68943 0.10111 0.46208 -0.34100
O 	O 	0.69824 0.14669 0.55283 -0.42300
O 	O 	0.62389 0.99076 0.44117 -0.14800
O 	O 	0.58893 0.88466 0.35051 -0.32900
O 	O 	0.12815 0.89224 0.55773 -0.12700
O 	O 	0.55073 0.83499 0.39280 -0.40500
O 	O 	0.82370 0.77180 0.61070 -0.14400
O 	O 	0.71570 0.71270 0.60260 -0.51600
O 	O 	0.72850 0.63420 0.59390 -0.50000
O 	O 	0.24510 0.33780 0.37970 -0.53800
O 	O 	0.25170 0.25680 0.36930 -0.51900
O 	O 	0.62971 0.26344 0.43847 -0.45900
O 	O 	0.66136 0.51434 0.58228 -0.43700
O 	O 	0.27932 0.64189 0.43941 -0.45100
O 	O 	0.30250 0.45144 0.37996 -0.42400
O 	O 	0.56751 0.49354 0.53029 -0.46500
O 	O 	0.39483 0.47031 0.43438 -0.48000
O 	O 	0.70408 0.34817 0.52711 -0.44700
O 	O 	0.63795 0.40297 0.51722 -0.12600
O 	O 	0.36371 0.72145 0.52324 -0.47600
O 	O 	0.63903 0.22735 0.53792 -0.34100
O 	O 	0.59386 0.14541 0.44717 -0.42300
O 	O 	0.54959 0.18272 0.55883 -0.14700
O 	O 	0.53415 0.23842 0.64949 -0.32900
O 	O 	0.33451 0.57042 0.44227 -0.12700
O 	O 	0.44219 0.15793 0.60720 -0.40500
O 	O 	0.16110 0.21300 0.38930 -0.14400
O 	O 	0.11010 0.11310 0.39740 -0.51600
O 	O 	0.04030 0.13460 0.40610 -0.50000
O 	O 	0.75490 0.13460 0.09270 -0.53700
O 	O 	0.74830 0.11760 0.00510 -0.51900
O 	O 	0.37029 0.80876 0.63373 -0.45900
O 	O 	0.33864 0.92092 0.85298 -0.43700
O 	O 	0.72068 0.16009 0.36257 -0.45100
O 	O 	0.69750 0.07746 0.14894 -0.42400
O 	O 	0.43249 0.96278 0.92603 -0.46500
O 	O 	0.60517 0.03955 0.07548 -0.48000
O 	O 	0.29592 0.82303 0.64409 -0.44700
O 	O 	0.36205 0.87927 0.76502 -0.12600
O 	O 	0.63629 0.15953 0.35774 -0.47600
O 	O 	0.36097 0.89889 0.58832 -0.34100
O 	O 	0.40614 0.85331 0.55155 -0.42300
O 	O 	0.45041 0.00924 0.63313 -0.14700
O 	O 	0.46585 0.11534 0.70427 -0.32900
O 	O 	0.66549 0.10776 0.23591 -0.12700
O 	O 	0.55781 0.16501 0.71574 -0.40500
O 	O 	0.83890 0.22820 0.05190 -0.14400
O 	O 	0.88990 0.28730 0.00300 -0.51500
O 	O 	0.95970 0.36580 0.09430 -0.50000
O 	O 	0.04190 0.66220 0.90730 -0.53700
O 	O 	0.11250 0.74320 0.99490 -0.51900
O 	O 	0.17503 0.73656 0.36627 -0.45900
O 	O 	0.06794 0.48566 0.14702 -0.43700
O 	O 	0.79752 0.35811 0.63743 -0.45100
O 	O 	0.92852 0.54856 0.85106 -0.42500
O 	O 	0.03675 0.50646 0.07397 -0.46500
O 	O 	0.96407 0.52969 0.92452 -0.48100
O 	O 	0.17894 0.65183 0.35591 -0.44700
O 	O 	0.11425 0.59703 0.23498 -0.12600
O 	O 	0.80179 0.27855 0.64226 -0.47600
O 	O 	0.31057 0.77265 0.41168 -0.34100
O 	O 	0.30176 0.85459 0.44845 -0.42300
O 	O 	0.37611 0.81728 0.36687 -0.14700
O 	O 	0.41107 0.76158 0.29573 -0.32900
O 	O 	0.87185 0.42958 0.76409 -0.12700
O 	O 	0.44927 0.84207 0.28426 -0.40500
O 	O 	0.17630 0.78700 0.94810 -0.14400
O 	O 	0.28430 0.88690 0.99700 -0.51600
O 	O 	0.27150 0.86540 0.90570 -0.50000
O 	O 	0.09270 0.75490 0.13460 -0.53700
O 	O 	0.00510 0.74830 0.11760 -0.51900
O 	O 	0.63373 0.37029 0.80876 -0.45900
O 	O 	0.85298 0.33864 0.92092 -0.43700
O 	O 	0.36257 0.72068 0.16009 -0.45100
O 	O 	0.14894 0.69750 0.07746 -0.42400
O 	O 	0.92603 0.43249 0.96278 -0.46500
O 	O 	0.07548 0.60517 0.03955 -0.48000
O 	O 	0.64409 0.29592 0.82303 -0.44700
O 	O 	0.76502 0.36205 0.87927 -0.12600
O 	O 	0.35774 0.63629 0.15953 -0.47600
O 	O 	0.58832 0.36097 0.89889 -0.34100
O 	O 	0.55155 0.40614 0.85331 -0.42300
O 	O 	0.63313 0.45041 0.00924 -0.14700
O 	O 	0.70427 0.46585 0.11534 -0.32900
O 	O 	0.23591 0.66549 0.10776 -0.12700
O 	O 	0.71574 0.55781 0.16501 -0.40500
O 	O 	0.05190 0.83890 0.22820 -0.14400
O 	O 	0.00300 0.88990 0.28730 -0.51500
O 	O 	0.09430 0.95970 0.36580 -0.50000
O 	O 	0.90730 0.04190 0.66220 -0.53700
O 	O 	0.99490 0.11250 0.74320 -0.51900
O 	O 	0.36627 0.17503 0.73656 -0.45900
O 	O 	0.14702 0.06794 0.48566 -0.43700
O 	O 	0.63743 0.79752 0.35811 -0.45100
O 	O 	0.85106 0.92852 0.54856 -0.42500
O 	O 	0.07397 0.03675 0.50646 -0.46500
O 	O 	0.92452 0.96407 0.52969 -0.48100
O 	O 	0.35591 0.17894 0.65183 -0.44700
O 	O 	0.23498 0.11425 0.59703 -0.12600
O 	O 	0.64226 0.80179 0.27855 -0.47600
O 	O 	0.41168 0.31057 0.77265 -0.34100
O 	O 	0.44845 0.30176 0.85459 -0.42300
O 	O 	0.36687 0.37611 0.81728 -0.14700
O 	O 	0.29573 0.41107 0.76158 -0.32900
O 	O 	0.76409 0.87185 0.42958 -0.12700
O 	O 	0.28426 0.44927 0.84207 -0.40500
O 	O 	0.94810 0.17630 0.78700 -0.14400
O 	O 	0.99700 0.28430 0.88690 -0.51600
O 	O 	0.90570 0.27150 0.86540 -0.50000
O 	O 	0.62030 0.95810 0.86540 -0.53800
O 	O 	0.63070 0.88750 0.88240 -0.51900
O 	O 	0.56153 0.82497 0.19124 -0.45900
O 	O 	0.41772 0.93206 0.07908 -0.43700
O 	O 	0.56059 0.20248 0.83991 -0.45100
O 	O 	0.62004 0.07148 0.92254 -0.42400
O 	O 	0.46971 0.96325 0.03722 -0.46500
O 	O 	0.56562 0.03593 0.96045 -0.48000
O 	O 	0.47289 0.82106 0.17697 -0.44700
O 	O 	0.48278 0.88575 0.12073 -0.12600
O 	O 	0.47676 0.19821 0.84047 -0.47600
O 	O 	0.46208 0.68943 0.10111 -0.34100
O 	O 	0.55283 0.69824 0.14669 -0.42300
O 	O 	0.44117 0.62389 0.99076 -0.14800
O 	O 	0.35051 0.58893 0.88466 -0.32900
O 	O 	0.55773 0.12815 0.89224 -0.12700
O 	O 	0.39280 0.55073 0.83499 -0.40500
O 	O 	0.61070 0.82370 0.77180 -0.14400
O 	O 	0.60260 0.71570 0.71270 -0.51600
O 	O 	0.59390 0.72850 0.63420 -0.50000
O 	O 	0.37970 0.24510 0.33780 -0.53800
O 	O 	0.36930 0.25170 0.25680 -0.51900
O 	O 	0.43847 0.62971 0.26344 -0.45900
O 	O 	0.58228 0.66136 0.51434 -0.43700
O 	O 	0.43941 0.27932 0.64189 -0.45100
O 	O 	0.37996 0.30250 0.45144 -0.42400
O 	O 	0.53029 0.56751 0.49354 -0.46500
O 	O 	0.43438 0.39483 0.47031 -0.48000
O 	O 	0.52711 0.70408 0.34817 -0.44700
O 	O 	0.51722 0.63795 0.40297 -0.12600
O 	O 	0.52324 0.36371 0.72145 -0.47600
O 	O 	0.53792 0.63903 0.22735 -0.34100
O 	O 	0.44717 0.59386 0.14541 -0.42300
O 	O 	0.55883 0.54959 0.18272 -0.14700
O 	O 	0.64949 0.53415 0.23842 -0.32900
O 	O 	0.44227 0.33451 0.57042 -0.12700
O 	O 	0.60720 0.44219 0.15793 -0.40500
O 	O 	0.38930 0.16110 0.21300 -0.14400
O 	O 	0.39740 0.11010 0.11310 -0.51600
O 	O 	0.40610 0.04030 0.13460 -0.50000
O 	O 	0.33780 0.37970 0.24510 -0.53800
O 	O 	0.25680 0.36930 0.25170 -0.51900
O 	O 	0.26344 0.43847 0.62971 -0.45900
O 	O 	0.51434 0.58228 0.66136 -0.43700
O 	O 	0.64189 0.43941 0.27932 -0.45100
O 	O 	0.45144 0.37996 0.30250 -0.42400
O 	O 	0.49354 0.53029 0.56751 -0.46500
O 	O 	0.47031 0.43438 0.39483 -0.48000
O 	O 	0.34817 0.52711 0.70408 -0.44700
O 	O 	0.40297 0.51722 0.63795 -0.12600
O 	O 	0.72145 0.52324 0.36371 -0.47600
O 	O 	0.22735 0.53792 0.63903 -0.34100
O 	O 	0.14541 0.44717 0.59386 -0.42300
O 	O 	0.18272 0.55883 0.54959 -0.14700
O 	O 	0.23842 0.64949 0.53415 -0.32900
O 	O 	0.57042 0.44227 0.33451 -0.12700
O 	O 	0.15793 0.60720 0.44219 -0.40500
O 	O 	0.21300 0.38930 0.16110 -0.14400
O 	O 	0.11310 0.39740 0.11010 -0.51600
O 	O 	0.13460 0.40610 0.04030 -0.50000
O 	O 	0.86540 0.62030 0.95810 -0.53800
O 	O 	0.88240 0.63070 0.88750 -0.51900
O 	O 	0.19124 0.56153 0.82497 -0.45900
O 	O 	0.07908 0.41772 0.93206 -0.43700
O 	O 	0.83991 0.56059 0.20248 -0.45100
O 	O 	0.92254 0.62004 0.07148 -0.42400
O 	O 	0.03722 0.46971 0.96325 -0.46500
O 	O 	0.96045 0.56562 0.03593 -0.48000
O 	O 	0.17697 0.47289 0.82106 -0.44700
O 	O 	0.12073 0.48278 0.88575 -0.12600
O 	O 	0.84047 0.47676 0.19821 -0.47600
O 	O 	0.10111 0.46208 0.68943 -0.34100
O 	O 	0.14669 0.55283 0.69824 -0.42300
O 	O 	0.99076 0.44117 0.62389 -0.14800
O 	O 	0.88466 0.35051 0.58893 -0.32900
O 	O 	0.89224 0.55773 0.12815 -0.12700
O 	O 	0.83499 0.39280 0.55073 -0.40500
O 	O 	0.77180 0.61070 0.82370 -0.14400
O 	O 	0.71270 0.60260 0.71570 -0.51600
O 	O 	0.63420 0.59390 0.72850 -0.50000
O 	O 	0.66220 0.90730 0.04190 -0.53700
O 	O 	0.74320 0.99490 0.11250 -0.51900
O 	O 	0.73656 0.36627 0.17503 -0.45900
O 	O 	0.48566 0.14702 0.06794 -0.43700
O 	O 	0.35811 0.63743 0.79752 -0.45100
O 	O 	0.54856 0.85106 0.92852 -0.42500
O 	O 	0.50646 0.07397 0.03675 -0.46500
O 	O 	0.52969 0.92452 0.96407 -0.48100
O 	O 	0.65183 0.35591 0.17894 -0.44700
O 	O 	0.59703 0.23498 0.11425 -0.12600
O 	O 	0.27855 0.64226 0.80179 -0.47600
O 	O 	0.77265 0.41168 0.31057 -0.34100
O 	O 	0.85459 0.44845 0.30176 -0.42300
O 	O 	0.81728 0.36687 0.37611 -0.14700
O 	O 	0.76158 0.29573 0.41107 -0.32900
O 	O 	0.42958 0.76409 0.87185 -0.12700
O 	O 	0.84207 0.28426 0.44927 -0.40500
O 	O 	0.78700 0.94810 0.17630 -0.14400
O 	O 	0.88690 0.99700 0.28430 -0.51600
O 	O 	0.86540 0.90570 0.27150 -0.50000
O 	O 	0.13460 0.09270 0.75490 -0.53700
O 	O 	0.11760 0.00510 0.74830 -0.51900
O 	O 	0.80876 0.63373 0.37029 -0.45900
O 	O 	0.92092 0.85298 0.33864 -0.43700
O 	O 	0.16009 0.36257 0.72068 -0.45100
O 	O 	0.07746 0.14894 0.69750 -0.42400
O 	O 	0.96278 0.92603 0.43249 -0.46500
O 	O 	0.03955 0.07548 0.60517 -0.48000
O 	O 	0.82303 0.64409 0.29592 -0.44700
O 	O 	0.87927 0.76502 0.36205 -0.12600
O 	O 	0.15953 0.35774 0.63629 -0.47600
O 	O 	0.89889 0.58832 0.36097 -0.34100
O 	O 	0.85331 0.55155 0.40614 -0.42300
O 	O 	0.00924 0.63313 0.45041 -0.14700
O 	O 	0.11534 0.70427 0.46585 -0.32900
O 	O 	0.10776 0.23591 0.66549 -0.12700
O 	O 	0.16501 0.71574 0.55781 -0.40500
O 	O 	0.22820 0.05190 0.83890 -0.14400
O 	O 	0.28730 0.00300 0.88990 -0.51500
O 	O 	0.36580 0.09430 0.95970 -0.50000
O 	O 	0.00000 -0.00000 0.65958 -0.82000
O 	O 	-0.00000 0.00000 0.37710 -0.83200
O 	O 	0.34042 0.34042 0.34042 -0.82000
O 	O 	0.62290 0.62290 0.62290 -0.83300
O 	O 	0.65958 0.00000 -0.00000 -0.82000
O 	O 	0.37710 0.00000 -0.00000 -0.83200
O 	O 	-0.00000 0.65958 -0.00000 -0.82000
O 	O 	0.00000 0.37710 -0.00000 -0.83200
O 	O 	0.74343 0.24343 0.50000 -0.93700
O 	O 	0.25657 0.75657 0.50000 -0.93700
O 	O 	0.50000 0.25657 0.75657 -0.93700
O 	O 	0.50000 0.74343 0.24343 -0.93700
O 	O 	0.24343 0.50000 0.74343 -0.93700
O 	O 	0.75657 0.50000 0.25657 -0.93700
