data_crystal

_cell_length_a 8.30810
_cell_length_b 9.16470
_cell_length_c 9.18390
_cell_angle_alpha 62.78100
_cell_angle_beta  79.02900
_cell_angle_gamma 87.08800

_symmetry_space_group_name_	'P 1'
_symmetry_space_group_name_H-M	'P 1'

loop_
_symmetry_equiv_pos_as_xyz
  x,y,z

loop_
_atom_site_label
_atom_site_type_symbol
_atom_site_fract_x
_atom_site_fract_y
_atom_site_fract_z
_atom_site_charge
Fe	Fe	0.24056 0.57637 0.42962 1.18500
Fe	Fe	0.75944 0.42363 0.57038 1.18500
P 	P 	0.57926 0.53316 0.24194 0.44400
P 	P 	0.05694 0.25198 0.46540 0.44200
P 	P 	0.42074 0.46684 0.75806 0.44500
P 	P 	0.94306 0.74802 0.53460 0.44300
H 	H 	0.69480 0.75970 0.99780 0.11200
H 	H 	0.61340 0.63820 0.95470 0.12400
H 	H 	0.14330 0.01520 0.67100 0.12200
H 	H 	0.21070 0.16950 0.67460 0.09600
H 	H 	0.98130 0.74640 0.01800 0.05200
H 	H 	0.95510 0.56890 0.16830 0.06600
H 	H 	0.82360 0.34730 0.13630 0.07600
H 	H 	0.77020 0.38970 0.96670 0.06100
H 	H 	0.48720 0.11370 0.68290 0.04700
H 	H 	0.43300 0.93360 0.72990 0.06500
H 	H 	0.30640 0.88130 0.53280 0.07200
H 	H 	0.28200 0.02860 0.36290 0.08100
H 	H 	0.30520 0.24030 0.00220 0.11200
H 	H 	0.38660 0.36180 0.04530 0.12400
H 	H 	0.85670 0.98480 0.32900 0.12200
H 	H 	0.78930 0.83050 0.32540 0.09600
H 	H 	0.01870 0.25360 0.98200 0.05200
H 	H 	0.04490 0.43110 0.83170 0.06600
H 	H 	0.17640 0.65270 0.86370 0.07600
H 	H 	0.22980 0.61030 0.03330 0.06100
H 	H 	0.51280 0.88630 0.31710 0.04700
H 	H 	0.56700 0.06640 0.27010 0.06500
H 	H 	0.69360 0.11870 0.46720 0.07200
H 	H 	0.71800 0.97140 0.63710 0.08100
C 	C 	0.68420 0.64490 0.02430 -0.22200
C 	C 	0.19590 0.12340 0.60140 -0.23200
C 	C 	0.98060 0.63040 0.04770 -0.05800
C 	C 	0.85190 0.41340 0.01640 -0.06800
C 	C 	0.47770 0.03770 0.63800 -0.06300
C 	C 	0.35330 0.98630 0.44440 -0.07600
C 	C 	0.31580 0.35510 0.97570 -0.22200
C 	C 	0.80410 0.87660 0.39860 -0.23200
C 	C 	0.01940 0.36960 0.95230 -0.05800
C 	C 	0.14810 0.58660 0.98360 -0.06800
C 	C 	0.52230 0.96230 0.36200 -0.06300
C 	C 	0.64670 0.01370 0.55560 -0.07600
N 	N 	0.85160 0.59140 0.97450 -0.04900
N 	N 	0.36270 0.10370 0.51550 -0.05400
N 	N 	0.14840 0.40860 0.02550 -0.04900
N 	N 	0.63730 0.89630 0.48450 -0.05400
O 	O 	0.44200 0.64770 0.25140 -0.42100
O 	O 	0.70270 0.52310 0.34790 -0.44000
O 	O 	0.12740 0.42830 0.37860 -0.44200
O 	O 	0.89910 0.23270 0.59150 -0.42100
O 	O 	0.51860 0.36800 0.27090 -0.26500
O 	O 	0.04200 0.19410 0.33900 -0.23500
O 	O 	0.55800 0.35230 0.74860 -0.42100
O 	O 	0.29730 0.47690 0.65210 -0.44000
O 	O 	0.87260 0.57170 0.62140 -0.44200
O 	O 	0.10090 0.76730 0.40850 -0.42100
O 	O 	0.48140 0.63200 0.72910 -0.26500
O 	O 	0.95800 0.80590 0.66100 -0.23500
