data_crystal

_cell_length_a 27.94860
_cell_length_b 27.94860
_cell_length_c 6.23020
_cell_angle_alpha 90.00000
_cell_angle_beta  90.00000
_cell_angle_gamma 120.00000

_symmetry_space_group_name_	'P 1'
_symmetry_space_group_name_H-M	'P 1'

loop_
_symmetry_equiv_pos_as_xyz
  x,y,z

loop_
_atom_site_label
_atom_site_type_symbol
_atom_site_fract_x
_atom_site_fract_y
_atom_site_fract_z
_atom_site_charge
Ni	Ni	0.63786 0.02840 0.05170 1.08700
P 	P 	0.61355 0.03959 0.57290 0.33100
O 	O 	0.61410 0.09470 0.51850 -0.23100
O 	O 	0.63060 0.01040 0.36920 -0.49400
O 	O 	0.66110 0.04720 0.72880 -0.47200
N 	N 	0.55670 0.00620 0.97060 -0.20100
C 	C 	0.54370 0.05680 0.98600 0.00300
C 	C 	0.51800 0.96130 0.08400 0.02300
C 	C 	0.54680 0.98850 0.73000 -0.04400
Ni	Ni	0.30453 0.36173 0.38503 1.08700
P 	P 	0.28022 0.37292 0.90623 0.32900
O 	O 	0.28077 0.42803 0.85183 -0.23100
O 	O 	0.29727 0.34373 0.70253 -0.49400
O 	O 	0.32777 0.38053 0.06213 -0.47100
N 	N 	0.22337 0.33953 0.30393 -0.20100
C 	C 	0.21037 0.39013 0.31933 0.00200
C 	C 	0.18467 0.29463 0.41733 0.02300
C 	C 	0.21347 0.32183 0.06333 -0.04300
Ni	Ni	0.97119 0.69507 0.71837 1.08700
P 	P 	0.94688 0.70626 0.23957 0.32900
O 	O 	0.94743 0.76137 0.18517 -0.23100
O 	O 	0.96393 0.67707 0.03587 -0.49500
O 	O 	0.99443 0.71387 0.39547 -0.47200
N 	N 	0.89003 0.67287 0.63727 -0.20100
C 	C 	0.87703 0.72347 0.65267 0.00200
C 	C 	0.85133 0.62797 0.75067 0.02400
C 	C 	0.88013 0.65517 0.39667 -0.04400
Ni	Ni	0.97160 0.60946 0.05170 1.08600
P 	P 	0.96041 0.57396 0.57290 0.33000
O 	O 	0.90530 0.51940 0.51850 -0.23100
O 	O 	0.98960 0.62020 0.36920 -0.49500
O 	O 	0.95280 0.61390 0.72880 -0.47200
N 	N 	0.99380 0.55050 0.97060 -0.20100
C 	C 	0.94320 0.48690 0.98600 0.00300
C 	C 	0.03870 0.55670 0.08400 0.02300
C 	C 	0.01150 0.55830 0.73000 -0.04400
Ni	Ni	0.63827 0.94279 0.38503 1.08700
P 	P 	0.62708 0.90729 0.90623 0.32900
O 	O 	0.57197 0.85273 0.85183 -0.23100
O 	O 	0.65627 0.95353 0.70253 -0.49400
O 	O 	0.61947 0.94723 0.06213 -0.47100
N 	N 	0.66047 0.88383 0.30393 -0.20100
C 	C 	0.60987 0.82023 0.31933 0.00200
C 	C 	0.70537 0.89003 0.41733 0.02300
C 	C 	0.67817 0.89163 0.06333 -0.04300
Ni	Ni	0.30493 0.27613 0.71837 1.08700
P 	P 	0.29374 0.24063 0.23957 0.32900
O 	O 	0.23863 0.18607 0.18517 -0.23100
O 	O 	0.32293 0.28687 0.03587 -0.49500
O 	O 	0.28613 0.28057 0.39547 -0.47200
N 	N 	0.32713 0.21717 0.63727 -0.20100
C 	C 	0.27653 0.15357 0.65267 0.00200
C 	C 	0.37203 0.22337 0.75067 0.02400
C 	C 	0.34483 0.22497 0.39667 -0.04400
Ni	Ni	0.39054 0.36214 0.05170 1.08700
P 	P 	0.42604 0.38645 0.57290 0.33000
O 	O 	0.48060 0.38590 0.51850 -0.23100
O 	O 	0.37980 0.36940 0.36920 -0.49500
O 	O 	0.38610 0.33890 0.72880 -0.47200
N 	N 	0.44950 0.44330 0.97060 -0.20200
C 	C 	0.51310 0.45630 0.98600 0.00300
C 	C 	0.44330 0.48200 0.08400 0.02300
C 	C 	0.44170 0.45320 0.73000 -0.04300
Ni	Ni	0.05721 0.69547 0.38503 1.08700
P 	P 	0.09271 0.71978 0.90623 0.32900
O 	O 	0.14727 0.71923 0.85183 -0.23100
O 	O 	0.04647 0.70273 0.70253 -0.49400
O 	O 	0.05277 0.67223 0.06213 -0.47100
N 	N 	0.11617 0.77663 0.30393 -0.20100
C 	C 	0.17977 0.78963 0.31933 0.00200
C 	C 	0.10997 0.81533 0.41733 0.02300
C 	C 	0.10837 0.78653 0.06333 -0.04300
Ni	Ni	0.72387 0.02881 0.71837 1.08700
P 	P 	0.75937 0.05312 0.23957 0.32900
O 	O 	0.81393 0.05257 0.18517 -0.23100
O 	O 	0.71313 0.03607 0.03587 -0.49500
O 	O 	0.71943 0.00557 0.39547 -0.47200
N 	N 	0.78283 0.10997 0.63727 -0.20100
C 	C 	0.84643 0.12297 0.65267 0.00200
C 	C 	0.77663 0.14867 0.75067 0.02400
C 	C 	0.77503 0.11987 0.39667 -0.04400
Ni	Ni	0.36214 0.97160 0.94830 1.08600
P 	P 	0.38645 0.96041 0.42710 0.33000
O 	O 	0.38590 0.90530 0.48150 -0.23100
O 	O 	0.36940 0.98960 0.63080 -0.49400
O 	O 	0.33890 0.95280 0.27120 -0.47200
N 	N 	0.44330 0.99380 0.02940 -0.20100
C 	C 	0.45630 0.94320 0.01400 0.00300
C 	C 	0.48200 0.03870 0.91600 0.02300
C 	C 	0.45320 0.01150 0.27000 -0.04400
Ni	Ni	0.02881 0.30493 0.28163 1.08700
P 	P 	0.05312 0.29374 0.76043 0.32900
O 	O 	0.05257 0.23863 0.81483 -0.23100
O 	O 	0.03607 0.32293 0.96413 -0.49500
O 	O 	0.00557 0.28613 0.60453 -0.47200
N 	N 	0.10997 0.32713 0.36273 -0.20100
C 	C 	0.12297 0.27653 0.34733 0.00200
C 	C 	0.14867 0.37203 0.24933 0.02400
C 	C 	0.11987 0.34483 0.60333 -0.04400
Ni	Ni	0.69547 0.63827 0.61497 1.08700
P 	P 	0.71978 0.62708 0.09377 0.32900
O 	O 	0.71923 0.57197 0.14817 -0.23100
O 	O 	0.70273 0.65627 0.29747 -0.49400
O 	O 	0.67223 0.61947 0.93787 -0.47100
N 	N 	0.77663 0.66047 0.69607 -0.20100
C 	C 	0.78963 0.60987 0.68067 0.00200
C 	C 	0.81533 0.70537 0.58267 0.02300
C 	C 	0.78653 0.67817 0.93667 -0.04300
Ni	Ni	0.02840 0.39054 0.94830 1.08600
P 	P 	0.03959 0.42604 0.42710 0.33000
O 	O 	0.09470 0.48060 0.48150 -0.23100
O 	O 	0.01040 0.37980 0.63080 -0.49500
O 	O 	0.04720 0.38610 0.27120 -0.47200
N 	N 	0.00620 0.44950 0.02940 -0.20100
C 	C 	0.05680 0.51310 0.01400 0.00300
C 	C 	0.96130 0.44330 0.91600 0.02300
C 	C 	0.98850 0.44170 0.27000 -0.04400
Ni	Ni	0.69507 0.72387 0.28163 1.08700
P 	P 	0.70626 0.75937 0.76043 0.32900
O 	O 	0.76137 0.81393 0.81483 -0.23100
O 	O 	0.67707 0.71313 0.96413 -0.49500
O 	O 	0.71387 0.71943 0.60453 -0.47200
N 	N 	0.67287 0.78283 0.36273 -0.20100
C 	C 	0.72347 0.84643 0.34733 0.00200
C 	C 	0.62797 0.77663 0.24933 0.02400
C 	C 	0.65517 0.77503 0.60333 -0.04400
Ni	Ni	0.36173 0.05721 0.61497 1.08700
P 	P 	0.37292 0.09271 0.09377 0.32900
O 	O 	0.42803 0.14727 0.14817 -0.23100
O 	O 	0.34373 0.04647 0.29747 -0.49400
O 	O 	0.38053 0.05277 0.93787 -0.47100
N 	N 	0.33953 0.11617 0.69607 -0.20100
C 	C 	0.39013 0.17977 0.68067 0.00200
C 	C 	0.29463 0.10997 0.58267 0.02300
C 	C 	0.32183 0.10837 0.93667 -0.04300
Ni	Ni	0.60946 0.63786 0.94830 1.08700
P 	P 	0.57396 0.61355 0.42710 0.33000
O 	O 	0.51940 0.61410 0.48150 -0.23100
O 	O 	0.62020 0.63060 0.63080 -0.49500
O 	O 	0.61390 0.66110 0.27120 -0.47200
N 	N 	0.55050 0.55670 0.02940 -0.20200
C 	C 	0.48690 0.54370 0.01400 0.00300
C 	C 	0.55670 0.51800 0.91600 0.02300
C 	C 	0.55830 0.54680 0.27000 -0.04300
Ni	Ni	0.27613 0.97119 0.28163 1.08700
P 	P 	0.24063 0.94688 0.76043 0.32900
O 	O 	0.18607 0.94743 0.81483 -0.23100
O 	O 	0.28687 0.96393 0.96413 -0.49500
O 	O 	0.28057 0.99443 0.60453 -0.47200
N 	N 	0.21717 0.89003 0.36273 -0.20100
C 	C 	0.15357 0.87703 0.34733 0.00200
C 	C 	0.22337 0.85133 0.24933 0.02400
C 	C 	0.22497 0.88013 0.60333 -0.04400
Ni	Ni	0.94279 0.30453 0.61497 1.08700
P 	P 	0.90729 0.28022 0.09377 0.32900
O 	O 	0.85273 0.28077 0.14817 -0.23100
O 	O 	0.95353 0.29727 0.29747 -0.49400
O 	O 	0.94723 0.32777 0.93787 -0.47100
N 	N 	0.88383 0.22337 0.69607 -0.20100
C 	C 	0.82023 0.21037 0.68067 0.00200
C 	C 	0.89003 0.18467 0.58267 0.02300
C 	C 	0.89163 0.21347 0.93667 -0.04300
