data_crystal

_cell_length_a 36.33200
_cell_length_b 36.33200
_cell_length_c 15.20800
_cell_angle_alpha 90.00000
_cell_angle_beta  90.00000
_cell_angle_gamma 90.00000

_symmetry_space_group_name_	'P 1'
_symmetry_space_group_name_H-M	'P 1'

loop_
_symmetry_equiv_pos_as_xyz
  x,y,z

loop_
_atom_site_label
_atom_site_type_symbol
_atom_site_fract_x
_atom_site_fract_y
_atom_site_fract_z
_atom_site_charge
C 	C 	0.06980 0.35210 0.22260 0.23600
C 	C 	0.07370 0.32680 0.30160 0.07200
C 	C 	0.14570 0.42570 0.30380 0.12600
C 	C 	0.16320 0.43050 0.21350 0.20500
C 	C 	0.20600 0.30490 0.27970 0.26300
C 	C 	0.18760 0.29170 0.19230 0.09000
C 	C 	0.04560 0.29730 0.42180 -0.07600
C 	C 	0.04730 0.25850 0.42010 0.26700
C 	C 	0.11610 0.45460 0.42240 -0.09500
C 	C 	0.18500 0.24900 0.07840 -0.08900
C 	C 	0.15720 0.22660 0.07930 0.25300
C 	C 	0.07810 0.45310 0.41940 0.31600
C 	C 	0.05710 0.44920 0.33530 -0.79300
H 	H 	0.07380 0.45050 0.28650 0.25400
H 	H 	0.03930 0.46870 0.33090 0.23100
H 	H 	0.04460 0.42590 0.33460 0.25500
C 	C 	0.05170 0.23760 0.33530 -0.71400
H 	H 	0.05070 0.25440 0.28670 0.22000
H 	H 	0.03210 0.21990 0.32990 0.20400
H 	H 	0.07490 0.22500 0.33510 0.22500
C 	C 	0.14170 0.20930 0.16340 -0.68100
H 	H 	0.12100 0.19410 0.14890 0.20800
H 	H 	0.13400 0.22840 0.20300 0.22000
H 	H 	0.16030 0.19460 0.19100 0.19500
Mn	Mn	0.14727 0.35212 0.24824 1.32100
N 	N 	0.04470 0.31680 0.34140 -0.21500
N 	N 	0.13700 0.45720 0.33930 -0.22500
N 	N 	0.20110 0.26273 0.16010 -0.21500
O 	O 	0.03610 0.35770 0.19970 -0.35900
O 	O 	0.09710 0.36318 0.18280 -0.37400
O 	O 	0.10720 0.31900 0.32460 -0.31200
O 	O 	0.17110 0.46230 0.18930 -0.33700
O 	O 	0.17300 0.40002 0.17570 -0.31800
O 	O 	0.14020 0.39470 0.33240 -0.36500
O 	O 	0.16130 0.31152 0.16390 -0.35700
O 	O 	0.19320 0.33314 0.31500 -0.40200
O 	O 	0.23110 0.28504 0.30890 -0.44100
C 	C 	0.93020 0.64790 0.22260 0.23700
C 	C 	0.92630 0.67320 0.30160 0.07400
C 	C 	0.85430 0.57430 0.30380 0.12700
C 	C 	0.83680 0.56950 0.21350 0.20600
C 	C 	0.79400 0.69510 0.27970 0.26400
C 	C 	0.81240 0.70830 0.19230 0.09100
C 	C 	0.95440 0.70270 0.42180 -0.07700
C 	C 	0.95270 0.74150 0.42010 0.28300
C 	C 	0.88390 0.54540 0.42240 -0.10000
C 	C 	0.81500 0.75100 0.07840 -0.09000
C 	C 	0.84280 0.77340 0.07930 0.25800
C 	C 	0.92190 0.54690 0.41940 0.33000
C 	C 	0.94290 0.55080 0.33530 -0.81600
H 	H 	0.92620 0.54950 0.28650 0.26300
H 	H 	0.96070 0.53130 0.33090 0.24300
H 	H 	0.95540 0.57410 0.33460 0.26600
C 	C 	0.94830 0.76240 0.33530 -0.73900
H 	H 	0.94930 0.74560 0.28670 0.23100
H 	H 	0.96790 0.78010 0.32990 0.21800
H 	H 	0.92510 0.77500 0.33510 0.23400
C 	C 	0.85830 0.79070 0.16340 -0.68900
H 	H 	0.87900 0.80590 0.14890 0.21300
H 	H 	0.86600 0.77160 0.20300 0.22200
H 	H 	0.83970 0.80540 0.19100 0.19700
Mn	Mn	0.85273 0.64788 0.24824 1.32100
N 	N 	0.95530 0.68320 0.34140 -0.21100
N 	N 	0.86300 0.54280 0.33930 -0.22400
N 	N 	0.79890 0.73727 0.16010 -0.21500
O 	O 	0.96390 0.64230 0.19970 -0.35100
O 	O 	0.90290 0.63682 0.18280 -0.37200
O 	O 	0.89280 0.68100 0.32460 -0.31200
O 	O 	0.82890 0.53770 0.18930 -0.33700
O 	O 	0.82700 0.59998 0.17570 -0.31800
O 	O 	0.85980 0.60530 0.33240 -0.36400
O 	O 	0.83870 0.68848 0.16390 -0.35700
O 	O 	0.80680 0.66686 0.31500 -0.40200
O 	O 	0.76890 0.71496 0.30890 -0.44100
C 	C 	0.64790 0.06980 0.22260 0.23700
C 	C 	0.67320 0.07370 0.30160 0.07300
C 	C 	0.57430 0.14570 0.30380 0.12700
C 	C 	0.56950 0.16320 0.21350 0.20600
C 	C 	0.69510 0.20600 0.27970 0.26400
C 	C 	0.70830 0.18760 0.19230 0.09100
C 	C 	0.70270 0.04560 0.42180 -0.07500
C 	C 	0.74150 0.04730 0.42010 0.26900
C 	C 	0.54540 0.11610 0.42240 -0.09400
C 	C 	0.75100 0.18500 0.07840 -0.08800
C 	C 	0.77340 0.15720 0.07930 0.25500
C 	C 	0.54690 0.07810 0.41940 0.31700
C 	C 	0.55080 0.05710 0.33530 -0.79200
H 	H 	0.54950 0.07380 0.28650 0.25500
H 	H 	0.53130 0.03930 0.33090 0.23100
H 	H 	0.57410 0.04460 0.33460 0.25500
C 	C 	0.76240 0.05170 0.33530 -0.71700
H 	H 	0.74560 0.05070 0.28670 0.22100
H 	H 	0.78010 0.03210 0.32990 0.20500
H 	H 	0.77500 0.07490 0.33510 0.22700
C 	C 	0.79070 0.14170 0.16340 -0.68400
H 	H 	0.80590 0.12100 0.14890 0.21000
H 	H 	0.77160 0.13400 0.20300 0.22000
H 	H 	0.80540 0.16030 0.19100 0.19600
Mn	Mn	0.64788 0.14727 0.24824 1.32100
N 	N 	0.68320 0.04470 0.34140 -0.21500
N 	N 	0.54280 0.13700 0.33930 -0.22500
N 	N 	0.73727 0.20110 0.16010 -0.21500
O 	O 	0.64230 0.03610 0.19970 -0.35900
O 	O 	0.63682 0.09710 0.18280 -0.37400
O 	O 	0.68100 0.10720 0.32460 -0.31200
O 	O 	0.53770 0.17110 0.18930 -0.33800
O 	O 	0.59998 0.17300 0.17570 -0.31800
O 	O 	0.60530 0.14020 0.33240 -0.36500
O 	O 	0.68848 0.16130 0.16390 -0.35800
O 	O 	0.66686 0.19320 0.31500 -0.40200
O 	O 	0.71496 0.23110 0.30890 -0.44100
C 	C 	0.35210 0.93020 0.22260 0.23700
C 	C 	0.32680 0.92630 0.30160 0.07400
C 	C 	0.42570 0.85430 0.30380 0.12700
C 	C 	0.43050 0.83680 0.21350 0.20600
C 	C 	0.30490 0.79400 0.27970 0.26400
C 	C 	0.29170 0.81240 0.19230 0.09100
C 	C 	0.29730 0.95440 0.42180 -0.07600
C 	C 	0.25850 0.95270 0.42010 0.28200
C 	C 	0.45460 0.88390 0.42240 -0.10000
C 	C 	0.24900 0.81500 0.07840 -0.08900
C 	C 	0.22660 0.84280 0.07930 0.25700
C 	C 	0.45310 0.92190 0.41940 0.33000
C 	C 	0.44920 0.94290 0.33530 -0.81600
H 	H 	0.45050 0.92620 0.28650 0.26300
H 	H 	0.46870 0.96070 0.33090 0.24300
H 	H 	0.42590 0.95540 0.33460 0.26600
C 	C 	0.23760 0.94830 0.33530 -0.73600
H 	H 	0.25440 0.94930 0.28670 0.23000
H 	H 	0.21990 0.96790 0.32990 0.21600
H 	H 	0.22500 0.92510 0.33510 0.23300
C 	C 	0.20930 0.85830 0.16340 -0.68600
H 	H 	0.19410 0.87900 0.14890 0.21100
H 	H 	0.22840 0.86600 0.20300 0.22200
H 	H 	0.19460 0.83970 0.19100 0.19700
Mn	Mn	0.35212 0.85273 0.24824 1.32100
N 	N 	0.31680 0.95530 0.34140 -0.21200
N 	N 	0.45720 0.86300 0.33930 -0.22400
N 	N 	0.26273 0.79890 0.16010 -0.21500
O 	O 	0.35770 0.96390 0.19970 -0.35100
O 	O 	0.36318 0.90290 0.18280 -0.37200
O 	O 	0.31900 0.89280 0.32460 -0.31200
O 	O 	0.46230 0.82890 0.18930 -0.33700
O 	O 	0.40002 0.82700 0.17570 -0.31800
O 	O 	0.39470 0.85980 0.33240 -0.36400
O 	O 	0.31152 0.83870 0.16390 -0.35700
O 	O 	0.33314 0.80680 0.31500 -0.40200
O 	O 	0.28504 0.76890 0.30890 -0.44100
C 	C 	0.93020 0.35210 0.77740 0.23700
C 	C 	0.92630 0.32680 0.69840 0.07300
C 	C 	0.85430 0.42570 0.69620 0.12600
C 	C 	0.83680 0.43050 0.78650 0.20600
C 	C 	0.79400 0.30490 0.72030 0.26400
C 	C 	0.81240 0.29170 0.80770 0.09000
C 	C 	0.95440 0.29730 0.57820 -0.07600
C 	C 	0.95270 0.25850 0.57990 0.28000
C 	C 	0.88390 0.45460 0.57760 -0.09900
C 	C 	0.81500 0.24900 0.92160 -0.09700
C 	C 	0.84280 0.22660 0.92070 0.24500
C 	C 	0.92190 0.45310 0.58060 0.32900
C 	C 	0.94290 0.44920 0.66470 -0.81200
H 	H 	0.92620 0.45050 0.71350 0.26100
H 	H 	0.96070 0.46870 0.66910 0.24100
H 	H 	0.95540 0.42590 0.66540 0.26400
C 	C 	0.94830 0.23760 0.66470 -0.73200
H 	H 	0.94930 0.25440 0.71330 0.22700
H 	H 	0.96790 0.21990 0.67010 0.21400
H 	H 	0.92510 0.22500 0.66490 0.23100
C 	C 	0.85830 0.20930 0.83660 -0.67500
H 	H 	0.87900 0.19410 0.85110 0.20400
H 	H 	0.86600 0.22840 0.79700 0.21700
H 	H 	0.83970 0.19460 0.80900 0.19300
Mn	Mn	0.85273 0.35212 0.75176 1.32100
N 	N 	0.95530 0.31680 0.65860 -0.21200
N 	N 	0.86300 0.45720 0.66070 -0.22400
N 	N 	0.79890 0.26273 0.83990 -0.21500
O 	O 	0.96390 0.35770 0.80030 -0.35500
O 	O 	0.90290 0.36318 0.81720 -0.37600
O 	O 	0.89280 0.31900 0.67540 -0.31200
O 	O 	0.82890 0.46230 0.81070 -0.34200
O 	O 	0.82700 0.40002 0.82430 -0.32300
O 	O 	0.85980 0.39470 0.66760 -0.36400
O 	O 	0.83870 0.31152 0.83610 -0.36100
O 	O 	0.80680 0.33314 0.68500 -0.40300
O 	O 	0.76890 0.28504 0.69110 -0.44200
C 	C 	0.06980 0.64790 0.77740 0.23800
C 	C 	0.07370 0.67320 0.69840 0.07200
C 	C 	0.14570 0.57430 0.69620 0.12700
C 	C 	0.16320 0.56950 0.78650 0.20600
C 	C 	0.20600 0.69510 0.72030 0.26400
C 	C 	0.18760 0.70830 0.80770 0.09000
C 	C 	0.04560 0.70270 0.57820 -0.07500
C 	C 	0.04730 0.74150 0.57990 0.26800
C 	C 	0.11610 0.54540 0.57760 -0.09400
C 	C 	0.18500 0.75100 0.92160 -0.09600
C 	C 	0.15720 0.77340 0.92070 0.24400
C 	C 	0.07810 0.54690 0.58060 0.31600
C 	C 	0.05710 0.55080 0.66470 -0.78800
H 	H 	0.07380 0.54950 0.71350 0.25200
H 	H 	0.03930 0.53130 0.66910 0.22900
H 	H 	0.04460 0.57410 0.66540 0.25300
C 	C 	0.05170 0.76240 0.66470 -0.71300
H 	H 	0.05070 0.74560 0.71330 0.21800
H 	H 	0.03210 0.78010 0.67010 0.20300
H 	H 	0.07490 0.77500 0.66490 0.22500
C 	C 	0.14170 0.79070 0.83660 -0.67200
H 	H 	0.12100 0.80590 0.85110 0.20200
H 	H 	0.13400 0.77160 0.79700 0.21600
H 	H 	0.16030 0.80540 0.80900 0.19200
Mn	Mn	0.14727 0.64788 0.75176 1.32100
N 	N 	0.04470 0.68320 0.65860 -0.21500
N 	N 	0.13700 0.54280 0.66070 -0.22500
N 	N 	0.20110 0.73727 0.83990 -0.21600
O 	O 	0.03610 0.64230 0.80030 -0.36300
O 	O 	0.09710 0.63682 0.81720 -0.37800
O 	O 	0.10720 0.68100 0.67540 -0.31200
O 	O 	0.17110 0.53770 0.81070 -0.34200
O 	O 	0.17300 0.59998 0.82430 -0.32300
O 	O 	0.14020 0.60530 0.66760 -0.36500
O 	O 	0.16130 0.68848 0.83610 -0.36100
O 	O 	0.19320 0.66686 0.68500 -0.40300
O 	O 	0.23110 0.71496 0.69110 -0.44200
C 	C 	0.35210 0.06980 0.77740 0.23800
C 	C 	0.32680 0.07370 0.69840 0.07200
C 	C 	0.42570 0.14570 0.69620 0.12700
C 	C 	0.43050 0.16320 0.78650 0.20600
C 	C 	0.30490 0.20600 0.72030 0.26400
C 	C 	0.29170 0.18760 0.80770 0.09000
C 	C 	0.29730 0.04560 0.57820 -0.07400
C 	C 	0.25850 0.04730 0.57990 0.26700
C 	C 	0.45460 0.11610 0.57760 -0.09400
C 	C 	0.24900 0.18500 0.92160 -0.09500
C 	C 	0.22660 0.15720 0.92070 0.24200
C 	C 	0.45310 0.07810 0.58060 0.31600
C 	C 	0.44920 0.05710 0.66470 -0.78800
H 	H 	0.45050 0.07380 0.71350 0.25200
H 	H 	0.46870 0.03930 0.66910 0.22900
H 	H 	0.42590 0.04460 0.66540 0.25300
C 	C 	0.23760 0.05170 0.66470 -0.71000
H 	H 	0.25440 0.05070 0.71330 0.21800
H 	H 	0.21990 0.03210 0.67010 0.20100
H 	H 	0.22500 0.07490 0.66490 0.22300
C 	C 	0.20930 0.14170 0.83660 -0.67000
H 	H 	0.19410 0.12100 0.85110 0.20100
H 	H 	0.22840 0.13400 0.79700 0.21500
H 	H 	0.19460 0.16030 0.80900 0.19100
Mn	Mn	0.35212 0.14727 0.75176 1.32100
N 	N 	0.31680 0.04470 0.65860 -0.21500
N 	N 	0.45720 0.13700 0.66070 -0.22500
N 	N 	0.26273 0.20110 0.83990 -0.21600
O 	O 	0.35770 0.03610 0.80030 -0.36300
O 	O 	0.36318 0.09710 0.81720 -0.37800
O 	O 	0.31900 0.10720 0.67540 -0.31200
O 	O 	0.46230 0.17110 0.81070 -0.34200
O 	O 	0.40002 0.17300 0.82430 -0.32300
O 	O 	0.39470 0.14020 0.66760 -0.36400
O 	O 	0.31152 0.16130 0.83610 -0.36100
O 	O 	0.33314 0.19320 0.68500 -0.40300
O 	O 	0.28504 0.23110 0.69110 -0.44200
C 	C 	0.64790 0.93020 0.77740 0.23700
C 	C 	0.67320 0.92630 0.69840 0.07300
C 	C 	0.57430 0.85430 0.69620 0.12600
C 	C 	0.56950 0.83680 0.78650 0.20600
C 	C 	0.69510 0.79400 0.72030 0.26400
C 	C 	0.70830 0.81240 0.80770 0.08900
C 	C 	0.70270 0.95440 0.57820 -0.07600
C 	C 	0.74150 0.95270 0.57990 0.28200
C 	C 	0.54540 0.88390 0.57760 -0.09900
C 	C 	0.75100 0.81500 0.92160 -0.09700
C 	C 	0.77340 0.84280 0.92070 0.24700
C 	C 	0.54690 0.92190 0.58060 0.32900
C 	C 	0.55080 0.94290 0.66470 -0.81200
H 	H 	0.54950 0.92620 0.71350 0.26100
H 	H 	0.53130 0.96070 0.66910 0.24100
H 	H 	0.57410 0.95540 0.66540 0.26400
C 	C 	0.76240 0.94830 0.66470 -0.73500
H 	H 	0.74560 0.94930 0.71330 0.22800
H 	H 	0.78010 0.96790 0.67010 0.21600
H 	H 	0.77500 0.92510 0.66490 0.23200
C 	C 	0.79070 0.85830 0.83660 -0.67700
H 	H 	0.80590 0.87900 0.85110 0.20500
H 	H 	0.77160 0.86600 0.79700 0.21800
H 	H 	0.80540 0.83970 0.80900 0.19300
Mn	Mn	0.64788 0.85273 0.75176 1.32100
N 	N 	0.68320 0.95530 0.65860 -0.21200
N 	N 	0.54280 0.86300 0.66070 -0.22400
N 	N 	0.73727 0.79890 0.83990 -0.21500
O 	O 	0.64230 0.96390 0.80030 -0.35500
O 	O 	0.63682 0.90290 0.81720 -0.37600
O 	O 	0.68100 0.89280 0.67540 -0.31200
O 	O 	0.53770 0.82890 0.81070 -0.34200
O 	O 	0.59998 0.82700 0.82430 -0.32300
O 	O 	0.60530 0.85980 0.66760 -0.36400
O 	O 	0.68848 0.83870 0.83610 -0.36100
O 	O 	0.66686 0.80680 0.68500 -0.40300
O 	O 	0.71496 0.76890 0.69110 -0.44200
C 	C 	0.93020 0.64790 0.77740 0.23700
C 	C 	0.92630 0.67320 0.69840 0.07300
C 	C 	0.85430 0.57430 0.69620 0.12600
C 	C 	0.83680 0.56950 0.78650 0.20600
C 	C 	0.79400 0.69510 0.72030 0.26400
C 	C 	0.81240 0.70830 0.80770 0.08900
C 	C 	0.95440 0.70270 0.57820 -0.07600
C 	C 	0.95270 0.74150 0.57990 0.28200
C 	C 	0.88390 0.54540 0.57760 -0.09900
C 	C 	0.81500 0.75100 0.92160 -0.09700
C 	C 	0.84280 0.77340 0.92070 0.24700
C 	C 	0.92190 0.54690 0.58060 0.32900
C 	C 	0.94290 0.55080 0.66470 -0.81200
H 	H 	0.92620 0.54950 0.71350 0.26100
H 	H 	0.96070 0.53130 0.66910 0.24100
H 	H 	0.95540 0.57410 0.66540 0.26400
C 	C 	0.94830 0.76240 0.66470 -0.73500
H 	H 	0.94930 0.74560 0.71330 0.22800
H 	H 	0.96790 0.78010 0.67010 0.21600
H 	H 	0.92510 0.77500 0.66490 0.23200
C 	C 	0.85830 0.79070 0.83660 -0.67700
H 	H 	0.87900 0.80590 0.85110 0.20500
H 	H 	0.86600 0.77160 0.79700 0.21800
H 	H 	0.83970 0.80540 0.80900 0.19300
Mn	Mn	0.85273 0.64788 0.75176 1.32100
N 	N 	0.95530 0.68320 0.65860 -0.21200
N 	N 	0.86300 0.54280 0.66070 -0.22400
N 	N 	0.79890 0.73727 0.83990 -0.21500
O 	O 	0.96390 0.64230 0.80030 -0.35500
O 	O 	0.90290 0.63682 0.81720 -0.37600
O 	O 	0.89280 0.68100 0.67540 -0.31200
O 	O 	0.82890 0.53770 0.81070 -0.34200
O 	O 	0.82700 0.59998 0.82430 -0.32300
O 	O 	0.85980 0.60530 0.66760 -0.36400
O 	O 	0.83870 0.68848 0.83610 -0.36100
O 	O 	0.80680 0.66686 0.68500 -0.40300
O 	O 	0.76890 0.71496 0.69110 -0.44200
C 	C 	0.06980 0.35210 0.77740 0.23800
C 	C 	0.07370 0.32680 0.69840 0.07200
C 	C 	0.14570 0.42570 0.69620 0.12700
C 	C 	0.16320 0.43050 0.78650 0.20600
C 	C 	0.20600 0.30490 0.72030 0.26400
C 	C 	0.18760 0.29170 0.80770 0.09000
C 	C 	0.04560 0.29730 0.57820 -0.07400
C 	C 	0.04730 0.25850 0.57990 0.26700
C 	C 	0.11610 0.45460 0.57760 -0.09400
C 	C 	0.18500 0.24900 0.92160 -0.09500
C 	C 	0.15720 0.22660 0.92070 0.24200
C 	C 	0.07810 0.45310 0.58060 0.31600
C 	C 	0.05710 0.44920 0.66470 -0.78800
H 	H 	0.07380 0.45050 0.71350 0.25200
H 	H 	0.03930 0.46870 0.66910 0.22900
H 	H 	0.04460 0.42590 0.66540 0.25300
C 	C 	0.05170 0.23760 0.66470 -0.71000
H 	H 	0.05070 0.25440 0.71330 0.21800
H 	H 	0.03210 0.21990 0.67010 0.20100
H 	H 	0.07490 0.22500 0.66490 0.22300
C 	C 	0.14170 0.20930 0.83660 -0.67000
H 	H 	0.12100 0.19410 0.85110 0.20100
H 	H 	0.13400 0.22840 0.79700 0.21500
H 	H 	0.16030 0.19460 0.80900 0.19100
Mn	Mn	0.14727 0.35212 0.75176 1.32100
N 	N 	0.04470 0.31680 0.65860 -0.21500
N 	N 	0.13700 0.45720 0.66070 -0.22500
N 	N 	0.20110 0.26273 0.83990 -0.21600
O 	O 	0.03610 0.35770 0.80030 -0.36300
O 	O 	0.09710 0.36318 0.81720 -0.37800
O 	O 	0.10720 0.31900 0.67540 -0.31200
O 	O 	0.17110 0.46230 0.81070 -0.34200
O 	O 	0.17300 0.40002 0.82430 -0.32300
O 	O 	0.14020 0.39470 0.66760 -0.36400
O 	O 	0.16130 0.31152 0.83610 -0.36100
O 	O 	0.19320 0.33314 0.68500 -0.40300
O 	O 	0.23110 0.28504 0.69110 -0.44200
C 	C 	0.35210 0.93020 0.77740 0.23700
C 	C 	0.32680 0.92630 0.69840 0.07300
C 	C 	0.42570 0.85430 0.69620 0.12600
C 	C 	0.43050 0.83680 0.78650 0.20600
C 	C 	0.30490 0.79400 0.72030 0.26400
C 	C 	0.29170 0.81240 0.80770 0.09000
C 	C 	0.29730 0.95440 0.57820 -0.07600
C 	C 	0.25850 0.95270 0.57990 0.28000
C 	C 	0.45460 0.88390 0.57760 -0.09900
C 	C 	0.24900 0.81500 0.92160 -0.09700
C 	C 	0.22660 0.84280 0.92070 0.24500
C 	C 	0.45310 0.92190 0.58060 0.32900
C 	C 	0.44920 0.94290 0.66470 -0.81200
H 	H 	0.45050 0.92620 0.71350 0.26100
H 	H 	0.46870 0.96070 0.66910 0.24100
H 	H 	0.42590 0.95540 0.66540 0.26400
C 	C 	0.23760 0.94830 0.66470 -0.73200
H 	H 	0.25440 0.94930 0.71330 0.22700
H 	H 	0.21990 0.96790 0.67010 0.21400
H 	H 	0.22500 0.92510 0.66490 0.23100
C 	C 	0.20930 0.85830 0.83660 -0.67500
H 	H 	0.19410 0.87900 0.85110 0.20400
H 	H 	0.22840 0.86600 0.79700 0.21700
H 	H 	0.19460 0.83970 0.80900 0.19300
Mn	Mn	0.35212 0.85273 0.75176 1.32100
N 	N 	0.31680 0.95530 0.65860 -0.21200
N 	N 	0.45720 0.86300 0.66070 -0.22400
N 	N 	0.26273 0.79890 0.83990 -0.21500
O 	O 	0.35770 0.96390 0.80030 -0.35500
O 	O 	0.36318 0.90290 0.81720 -0.37600
O 	O 	0.31900 0.89280 0.67540 -0.31200
O 	O 	0.46230 0.82890 0.81070 -0.34200
O 	O 	0.40002 0.82700 0.82430 -0.32300
O 	O 	0.39470 0.85980 0.66760 -0.36400
O 	O 	0.31152 0.83870 0.83610 -0.36100
O 	O 	0.33314 0.80680 0.68500 -0.40300
O 	O 	0.28504 0.76890 0.69110 -0.44200
C 	C 	0.64790 0.06980 0.77740 0.23800
C 	C 	0.67320 0.07370 0.69840 0.07200
C 	C 	0.57430 0.14570 0.69620 0.12700
C 	C 	0.56950 0.16320 0.78650 0.20600
C 	C 	0.69510 0.20600 0.72030 0.26400
C 	C 	0.70830 0.18760 0.80770 0.09000
C 	C 	0.70270 0.04560 0.57820 -0.07500
C 	C 	0.74150 0.04730 0.57990 0.26800
C 	C 	0.54540 0.11610 0.57760 -0.09400
C 	C 	0.75100 0.18500 0.92160 -0.09600
C 	C 	0.77340 0.15720 0.92070 0.24400
C 	C 	0.54690 0.07810 0.58060 0.31600
C 	C 	0.55080 0.05710 0.66470 -0.78800
H 	H 	0.54950 0.07380 0.71350 0.25200
H 	H 	0.53130 0.03930 0.66910 0.22900
H 	H 	0.57410 0.04460 0.66540 0.25300
C 	C 	0.76240 0.05170 0.66470 -0.71300
H 	H 	0.74560 0.05070 0.71330 0.21800
H 	H 	0.78010 0.03210 0.67010 0.20300
H 	H 	0.77500 0.07490 0.66490 0.22500
C 	C 	0.79070 0.14170 0.83660 -0.67200
H 	H 	0.80590 0.12100 0.85110 0.20200
H 	H 	0.77160 0.13400 0.79700 0.21600
H 	H 	0.80540 0.16030 0.80900 0.19200
Mn	Mn	0.64788 0.14727 0.75176 1.32100
N 	N 	0.68320 0.04470 0.65860 -0.21500
N 	N 	0.54280 0.13700 0.66070 -0.22500
N 	N 	0.73727 0.20110 0.83990 -0.21600
O 	O 	0.64230 0.03610 0.80030 -0.36300
O 	O 	0.63682 0.09710 0.81720 -0.37800
O 	O 	0.68100 0.10720 0.67540 -0.31200
O 	O 	0.53770 0.17110 0.81070 -0.34200
O 	O 	0.59998 0.17300 0.82430 -0.32300
O 	O 	0.60530 0.14020 0.66760 -0.36500
O 	O 	0.68848 0.16130 0.83610 -0.36100
O 	O 	0.66686 0.19320 0.68500 -0.40300
O 	O 	0.71496 0.23110 0.69110 -0.44200
C 	C 	0.06980 0.64790 0.22260 0.23700
C 	C 	0.07370 0.67320 0.30160 0.07300
C 	C 	0.14570 0.57430 0.30380 0.12700
C 	C 	0.16320 0.56950 0.21350 0.20600
C 	C 	0.20600 0.69510 0.27970 0.26400
C 	C 	0.18760 0.70830 0.19230 0.09100
C 	C 	0.04560 0.70270 0.42180 -0.07500
C 	C 	0.04730 0.74150 0.42010 0.26900
C 	C 	0.11610 0.54540 0.42240 -0.09400
C 	C 	0.18500 0.75100 0.07840 -0.08800
C 	C 	0.15720 0.77340 0.07930 0.25500
C 	C 	0.07810 0.54690 0.41940 0.31700
C 	C 	0.05710 0.55080 0.33530 -0.79200
H 	H 	0.07380 0.54950 0.28650 0.25500
H 	H 	0.03930 0.53130 0.33090 0.23100
H 	H 	0.04460 0.57410 0.33460 0.25500
C 	C 	0.05170 0.76240 0.33530 -0.71700
H 	H 	0.05070 0.74560 0.28670 0.22100
H 	H 	0.03210 0.78010 0.32990 0.20500
H 	H 	0.07490 0.77500 0.33510 0.22700
C 	C 	0.14170 0.79070 0.16340 -0.68400
H 	H 	0.12100 0.80590 0.14890 0.21000
H 	H 	0.13400 0.77160 0.20300 0.22000
H 	H 	0.16030 0.80540 0.19100 0.19600
Mn	Mn	0.14727 0.64788 0.24824 1.32100
N 	N 	0.04470 0.68320 0.34140 -0.21500
N 	N 	0.13700 0.54280 0.33930 -0.22500
N 	N 	0.20110 0.73727 0.16010 -0.21500
O 	O 	0.03610 0.64230 0.19970 -0.35900
O 	O 	0.09710 0.63682 0.18280 -0.37400
O 	O 	0.10720 0.68100 0.32460 -0.31200
O 	O 	0.17110 0.53770 0.18930 -0.33800
O 	O 	0.17300 0.59998 0.17570 -0.31800
O 	O 	0.14020 0.60530 0.33240 -0.36500
O 	O 	0.16130 0.68848 0.16390 -0.35800
O 	O 	0.19320 0.66686 0.31500 -0.40200
O 	O 	0.23110 0.71496 0.30890 -0.44100
C 	C 	0.93020 0.35210 0.22260 0.23700
C 	C 	0.92630 0.32680 0.30160 0.07400
C 	C 	0.85430 0.42570 0.30380 0.12700
C 	C 	0.83680 0.43050 0.21350 0.20600
C 	C 	0.79400 0.30490 0.27970 0.26400
C 	C 	0.81240 0.29170 0.19230 0.09100
C 	C 	0.95440 0.29730 0.42180 -0.07600
C 	C 	0.95270 0.25850 0.42010 0.28200
C 	C 	0.88390 0.45460 0.42240 -0.10000
C 	C 	0.81500 0.24900 0.07840 -0.08900
C 	C 	0.84280 0.22660 0.07930 0.25700
C 	C 	0.92190 0.45310 0.41940 0.33000
C 	C 	0.94290 0.44920 0.33530 -0.81600
H 	H 	0.92620 0.45050 0.28650 0.26300
H 	H 	0.96070 0.46870 0.33090 0.24300
H 	H 	0.95540 0.42590 0.33460 0.26600
C 	C 	0.94830 0.23760 0.33530 -0.73600
H 	H 	0.94930 0.25440 0.28670 0.23000
H 	H 	0.96790 0.21990 0.32990 0.21600
H 	H 	0.92510 0.22500 0.33510 0.23300
C 	C 	0.85830 0.20930 0.16340 -0.68600
H 	H 	0.87900 0.19410 0.14890 0.21100
H 	H 	0.86600 0.22840 0.20300 0.22200
H 	H 	0.83970 0.19460 0.19100 0.19700
Mn	Mn	0.85273 0.35212 0.24824 1.32100
N 	N 	0.95530 0.31680 0.34140 -0.21200
N 	N 	0.86300 0.45720 0.33930 -0.22400
N 	N 	0.79890 0.26273 0.16010 -0.21500
O 	O 	0.96390 0.35770 0.19970 -0.35100
O 	O 	0.90290 0.36318 0.18280 -0.37200
O 	O 	0.89280 0.31900 0.32460 -0.31200
O 	O 	0.82890 0.46230 0.18930 -0.33700
O 	O 	0.82700 0.40002 0.17570 -0.31800
O 	O 	0.85980 0.39470 0.33240 -0.36400
O 	O 	0.83870 0.31152 0.16390 -0.35700
O 	O 	0.80680 0.33314 0.31500 -0.40200
O 	O 	0.76890 0.28504 0.30890 -0.44100
C 	C 	0.64790 0.93020 0.22260 0.23700
C 	C 	0.67320 0.92630 0.30160 0.07400
C 	C 	0.57430 0.85430 0.30380 0.12700
C 	C 	0.56950 0.83680 0.21350 0.20600
C 	C 	0.69510 0.79400 0.27970 0.26400
C 	C 	0.70830 0.81240 0.19230 0.09100
C 	C 	0.70270 0.95440 0.42180 -0.07700
C 	C 	0.74150 0.95270 0.42010 0.28300
C 	C 	0.54540 0.88390 0.42240 -0.10000
C 	C 	0.75100 0.81500 0.07840 -0.09000
C 	C 	0.77340 0.84280 0.07930 0.25800
C 	C 	0.54690 0.92190 0.41940 0.33000
C 	C 	0.55080 0.94290 0.33530 -0.81600
H 	H 	0.54950 0.92620 0.28650 0.26300
H 	H 	0.53130 0.96070 0.33090 0.24300
H 	H 	0.57410 0.95540 0.33460 0.26600
C 	C 	0.76240 0.94830 0.33530 -0.73900
H 	H 	0.74560 0.94930 0.28670 0.23100
H 	H 	0.78010 0.96790 0.32990 0.21800
H 	H 	0.77500 0.92510 0.33510 0.23400
C 	C 	0.79070 0.85830 0.16340 -0.68900
H 	H 	0.80590 0.87900 0.14890 0.21300
H 	H 	0.77160 0.86600 0.20300 0.22200
H 	H 	0.80540 0.83970 0.19100 0.19700
Mn	Mn	0.64788 0.85273 0.24824 1.32100
N 	N 	0.68320 0.95530 0.34140 -0.21100
N 	N 	0.54280 0.86300 0.33930 -0.22400
N 	N 	0.73727 0.79890 0.16010 -0.21500
O 	O 	0.64230 0.96390 0.19970 -0.35100
O 	O 	0.63682 0.90290 0.18280 -0.37200
O 	O 	0.68100 0.89280 0.32460 -0.31200
O 	O 	0.53770 0.82890 0.18930 -0.33700
O 	O 	0.59998 0.82700 0.17570 -0.31800
O 	O 	0.60530 0.85980 0.33240 -0.36400
O 	O 	0.68848 0.83870 0.16390 -0.35700
O 	O 	0.66686 0.80680 0.31500 -0.40200
O 	O 	0.71496 0.76890 0.30890 -0.44100
C 	C 	0.35210 0.06980 0.22260 0.23700
C 	C 	0.32680 0.07370 0.30160 0.07300
C 	C 	0.42570 0.14570 0.30380 0.12700
C 	C 	0.43050 0.16320 0.21350 0.20600
C 	C 	0.30490 0.20600 0.27970 0.26400
C 	C 	0.29170 0.18760 0.19230 0.09100
C 	C 	0.29730 0.04560 0.42180 -0.07500
C 	C 	0.25850 0.04730 0.42010 0.26800
C 	C 	0.45460 0.11610 0.42240 -0.09400
C 	C 	0.24900 0.18500 0.07840 -0.08800
C 	C 	0.22660 0.15720 0.07930 0.25400
C 	C 	0.45310 0.07810 0.41940 0.31700
C 	C 	0.44920 0.05710 0.33530 -0.79200
H 	H 	0.45050 0.07380 0.28650 0.25500
H 	H 	0.46870 0.03930 0.33090 0.23100
H 	H 	0.42590 0.04460 0.33460 0.25500
C 	C 	0.23760 0.05170 0.33530 -0.71400
H 	H 	0.25440 0.05070 0.28670 0.22000
H 	H 	0.21990 0.03210 0.32990 0.20400
H 	H 	0.22500 0.07490 0.33510 0.22500
C 	C 	0.20930 0.14170 0.16340 -0.68100
H 	H 	0.19410 0.12100 0.14890 0.20800
H 	H 	0.22840 0.13400 0.20300 0.22000
H 	H 	0.19460 0.16030 0.19100 0.19500
Mn	Mn	0.35212 0.14727 0.24824 1.32100
N 	N 	0.31680 0.04470 0.34140 -0.21500
N 	N 	0.45720 0.13700 0.33930 -0.22500
N 	N 	0.26273 0.20110 0.16010 -0.21500
O 	O 	0.35770 0.03610 0.19970 -0.35900
O 	O 	0.36318 0.09710 0.18280 -0.37400
O 	O 	0.31900 0.10720 0.32460 -0.31200
O 	O 	0.46230 0.17110 0.18930 -0.33700
O 	O 	0.40002 0.17300 0.17570 -0.31800
O 	O 	0.39470 0.14020 0.33240 -0.36500
O 	O 	0.31152 0.16130 0.16390 -0.35700
O 	O 	0.33314 0.19320 0.31500 -0.40200
O 	O 	0.28504 0.23110 0.30890 -0.44100
C 	C 	0.04660 0.31680 0.50000 0.05400
C 	C 	0.05000 0.23990 0.50000 -0.34900
H 	H 	0.05350 0.21450 0.50000 0.13200
C 	C 	0.13730 0.45560 0.50000 0.07400
C 	C 	0.17830 0.45420 0.50000 -0.03600
C 	C 	0.05990 0.45140 0.50000 -0.39200
H 	H 	0.03440 0.44910 0.50000 0.14600
C 	C 	0.04650 0.35860 0.50000 -0.05000
O 	O 	0.25200 0.21350 0.50000 -0.23900
C 	C 	0.95340 0.68320 0.50000 0.05800
C 	C 	0.95000 0.76010 0.50000 -0.36000
H 	H 	0.94650 0.78550 0.50000 0.14000
C 	C 	0.86270 0.54440 0.50000 0.07800
C 	C 	0.82170 0.54580 0.50000 -0.03700
C 	C 	0.94010 0.54860 0.50000 -0.40500
H 	H 	0.96560 0.55090 0.50000 0.15600
C 	C 	0.95350 0.64140 0.50000 -0.04500
O 	O 	0.74800 0.78650 0.50000 -0.23900
C 	C 	0.68320 0.04660 0.50000 0.05400
C 	C 	0.76010 0.05000 0.50000 -0.35100
H 	H 	0.78550 0.05350 0.50000 0.13400
C 	C 	0.54440 0.13730 0.50000 0.07400
C 	C 	0.54580 0.17830 0.50000 -0.03600
C 	C 	0.54860 0.05990 0.50000 -0.39200
H 	H 	0.55090 0.03440 0.50000 0.14600
C 	C 	0.64140 0.04650 0.50000 -0.05000
O 	O 	0.78650 0.25200 0.50000 -0.23900
C 	C 	0.31680 0.95340 0.50000 0.05800
C 	C 	0.23990 0.95000 0.50000 -0.35800
H 	H 	0.21450 0.94650 0.50000 0.13900
C 	C 	0.45560 0.86270 0.50000 0.07800
C 	C 	0.45420 0.82170 0.50000 -0.03700
C 	C 	0.45140 0.94010 0.50000 -0.40500
H 	H 	0.44910 0.96560 0.50000 0.15600
C 	C 	0.35860 0.95350 0.50000 -0.04500
O 	O 	0.21350 0.74800 0.50000 -0.23900
C 	C 	0.95340 0.31680 0.50000 0.05800
C 	C 	0.95000 0.23990 0.50000 -0.35800
H 	H 	0.94650 0.21450 0.50000 0.13900
C 	C 	0.86270 0.45560 0.50000 0.07800
C 	C 	0.82170 0.45420 0.50000 -0.03700
C 	C 	0.94010 0.45140 0.50000 -0.40500
H 	H 	0.96560 0.44910 0.50000 0.15600
C 	C 	0.95350 0.35860 0.50000 -0.04500
O 	O 	0.74800 0.21350 0.50000 -0.23900
C 	C 	0.04660 0.68320 0.50000 0.05400
C 	C 	0.05000 0.76010 0.50000 -0.35100
H 	H 	0.05350 0.78550 0.50000 0.13400
C 	C 	0.13730 0.54440 0.50000 0.07400
C 	C 	0.17830 0.54580 0.50000 -0.03600
C 	C 	0.05990 0.54860 0.50000 -0.39200
H 	H 	0.03440 0.55090 0.50000 0.14600
C 	C 	0.04650 0.64140 0.50000 -0.05000
O 	O 	0.25200 0.78650 0.50000 -0.23900
C 	C 	0.31680 0.04660 0.50000 0.05400
C 	C 	0.23990 0.05000 0.50000 -0.34900
H 	H 	0.21450 0.05350 0.50000 0.13200
C 	C 	0.45560 0.13730 0.50000 0.07400
C 	C 	0.45420 0.17830 0.50000 -0.03600
C 	C 	0.45140 0.05990 0.50000 -0.39200
H 	H 	0.44910 0.03440 0.50000 0.14600
C 	C 	0.35860 0.04650 0.50000 -0.05000
O 	O 	0.21350 0.25200 0.50000 -0.23900
C 	C 	0.68320 0.95340 0.50000 0.05800
C 	C 	0.76010 0.95000 0.50000 -0.36000
H 	H 	0.78550 0.94650 0.50000 0.14000
C 	C 	0.54440 0.86270 0.50000 0.07800
C 	C 	0.54580 0.82170 0.50000 -0.03700
C 	C 	0.54860 0.94010 0.50000 -0.40500
H 	H 	0.55090 0.96560 0.50000 0.15600
C 	C 	0.64140 0.95350 0.50000 -0.04500
O 	O 	0.78650 0.74800 0.50000 -0.23900
C 	C 	0.19980 0.26320 -0.00000 0.07700
C 	C 	0.22840 0.29210 -0.00000 -0.03100
C 	C 	0.14240 0.21170 -0.00000 -0.29400
H 	H 	0.12430 0.19360 -0.00000 0.11500
C 	C 	0.80020 0.73680 -0.00000 0.07800
C 	C 	0.77160 0.70790 -0.00000 -0.03200
C 	C 	0.85760 0.78830 -0.00000 -0.29700
H 	H 	0.87570 0.80640 -0.00000 0.11900
C 	C 	0.73680 0.19980 -0.00000 0.07700
C 	C 	0.70790 0.22840 -0.00000 -0.03100
C 	C 	0.78830 0.14240 -0.00000 -0.29500
H 	H 	0.80640 0.12430 -0.00000 0.11600
C 	C 	0.26320 0.80020 -0.00000 0.07800
C 	C 	0.29210 0.77160 -0.00000 -0.03100
C 	C 	0.21170 0.85760 -0.00000 -0.29600
H 	H 	0.19360 0.87570 -0.00000 0.11700
C 	C 	0.80020 0.26320 -0.00000 0.07800
C 	C 	0.77160 0.29210 -0.00000 -0.03100
C 	C 	0.85760 0.21170 -0.00000 -0.29600
H 	H 	0.87570 0.19360 -0.00000 0.11700
C 	C 	0.19980 0.73680 -0.00000 0.07700
C 	C 	0.22840 0.70790 -0.00000 -0.03100
C 	C 	0.14240 0.78830 -0.00000 -0.29500
H 	H 	0.12430 0.80640 -0.00000 0.11600
C 	C 	0.26320 0.19980 -0.00000 0.07700
C 	C 	0.29210 0.22840 -0.00000 -0.03100
C 	C 	0.21170 0.14240 -0.00000 -0.29400
H 	H 	0.19360 0.12430 -0.00000 0.11500
C 	C 	0.73680 0.80020 -0.00000 0.07800
C 	C 	0.70790 0.77160 -0.00000 -0.03200
C 	C 	0.78830 0.85760 -0.00000 -0.29700
H 	H 	0.80640 0.87570 -0.00000 0.11900
Cu	Cu	-0.00000 0.33259 0.27366 0.86800
Cu	Cu	0.00000 0.66741 0.27366 0.86800
Cu	Cu	0.66741 0.00000 0.27366 0.86800
Cu	Cu	0.33259 0.00000 0.27366 0.86800
Cu	Cu	-0.00000 0.33259 0.72634 0.86800
Cu	Cu	-0.00000 0.66741 0.72634 0.86800
Cu	Cu	0.33259 -0.00000 0.72634 0.86800
Cu	Cu	0.66741 -0.00000 0.72634 0.86800
Cu	Cu	0.15185 0.50000 0.26938 0.88200
Cu	Cu	0.84815 0.50000 0.26938 0.88200
Cu	Cu	0.50000 0.15185 0.26938 0.88200
Cu	Cu	0.50000 0.84815 0.26938 0.88200
Cu	Cu	0.84815 0.50000 0.73062 0.88200
Cu	Cu	0.15185 0.50000 0.73062 0.88200
Cu	Cu	0.50000 0.15185 0.73062 0.88200
Cu	Cu	0.50000 0.84815 0.73062 0.88200
Cu	Cu	0.24230 0.24230 0.23092 0.87200
Na	Na	0.27250 0.27250 0.43010 0.55600
Cu	Cu	0.75770 0.75770 0.23092 0.87200
Na	Na	0.72750 0.72750 0.43010 0.55600
Cu	Cu	0.75770 0.24230 0.23092 0.87200
Na	Na	0.72750 0.27250 0.43010 0.55600
Cu	Cu	0.24230 0.75770 0.23092 0.87200
Na	Na	0.27250 0.72750 0.43010 0.55600
Cu	Cu	0.75770 0.24230 0.76908 0.87100
Na	Na	0.72750 0.27250 0.56990 0.55600
Cu	Cu	0.24230 0.75770 0.76908 0.87100
Na	Na	0.27250 0.72750 0.56990 0.55600
Cu	Cu	0.24230 0.24230 0.76908 0.87100
Na	Na	0.27250 0.27250 0.56990 0.55600
Cu	Cu	0.75770 0.75770 0.76908 0.87100
Na	Na	0.72750 0.72750 0.56990 0.55600
