data_crystal

_cell_length_a 23.51000
_cell_length_b 23.51000
_cell_length_c 23.51000
_cell_angle_alpha 109.47100
_cell_angle_beta  109.47100
_cell_angle_gamma 109.47100

_symmetry_space_group_name_	'P 1'
_symmetry_space_group_name_H-M	'P 1'

loop_
_symmetry_equiv_pos_as_xyz
  x,y,z

loop_
_atom_site_label
_atom_site_type_symbol
_atom_site_fract_x
_atom_site_fract_y
_atom_site_fract_z
_atom_site_charge
Ag	Ag	0.01608 0.59604 0.05174 0.44300
Ag	Ag	0.63581 0.64420 0.05111 0.43700
Ag	Ag	0.04430 0.96434 0.44826 0.44200
Ag	Ag	0.09309 0.58470 0.44889 0.43700
Ag	Ag	0.45570 0.90396 0.92004 0.44100
Ag	Ag	0.40691 0.85580 0.49161 0.43700
Ag	Ag	0.48392 0.53566 0.57996 0.44100
Ag	Ag	0.86419 0.91530 0.00839 0.43700
Ag	Ag	0.42004 0.45570 0.40396 0.44200
Ag	Ag	0.99161 0.40691 0.35580 0.43800
Ag	Ag	0.07996 0.48392 0.03566 0.44400
Ag	Ag	0.50839 0.86419 0.41530 0.43800
Ag	Ag	0.55174 0.01608 0.09604 0.44200
Ag	Ag	0.55111 0.63581 0.14420 0.43800
Ag	Ag	0.94826 0.04430 0.46434 0.44300
Ag	Ag	0.94889 0.09309 0.08470 0.43800
Ag	Ag	0.96434 0.94826 0.54430 0.44200
Ag	Ag	0.58470 0.94889 0.59309 0.43800
Ag	Ag	0.59604 0.55174 0.51608 0.44200
Ag	Ag	0.64420 0.55111 0.13581 0.43800
Ag	Ag	0.53566 0.07996 0.98392 0.44300
Ag	Ag	0.91530 0.50839 0.36419 0.43800
Ag	Ag	0.90396 0.42004 0.95570 0.44300
Ag	Ag	0.85580 0.99161 0.90691 0.43800
H 	H 	0.88800 0.68100 0.09660 0.16700
H 	H 	0.91520 0.68550 0.04410 0.16800
H 	H 	0.96140 0.68730 0.11210 0.14400
H 	H 	0.70920 0.40650 0.95150 0.14800
H 	H 	0.76250 0.37860 0.96070 0.12800
H 	H 	0.72660 0.38010 0.89150 0.13400
H 	H 	0.69330 0.62240 0.94930 0.15700
H 	H 	0.75350 0.60780 0.94570 0.17600
H 	H 	0.77200 0.67700 0.00840 0.15600
H 	H 	0.70840 0.45120 0.08740 0.16000
H 	H 	0.77590 0.51980 0.15310 0.15800
H 	H 	0.78070 0.47530 0.08920 0.17900
H 	H 	0.08440 0.79140 0.40340 0.16800
H 	H 	0.14140 0.87110 0.45590 0.17000
H 	H 	0.07520 0.84930 0.38790 0.14600
H 	H 	0.95500 0.75770 0.54850 0.14800
H 	H 	0.91790 0.80180 0.53930 0.12800
H 	H 	0.98860 0.83510 0.60850 0.13400
H 	H 	0.17310 0.74400 0.55070 0.15900
H 	H 	0.16210 0.80780 0.55430 0.17800
H 	H 	0.16860 0.76360 0.49160 0.15900
H 	H 	0.86380 0.62100 0.41260 0.15900
H 	H 	0.86670 0.62280 0.34690 0.15800
H 	H 	0.88610 0.69150 0.41080 0.17900
H 	H 	0.41560 0.81900 0.70700 0.16700
H 	H 	0.35860 0.81450 0.72970 0.17000
H 	H 	0.42480 0.81270 0.77410 0.14500
H 	H 	0.54500 0.09350 0.80270 0.14700
H 	H 	0.58210 0.12140 0.88390 0.12800
H 	H 	0.51140 0.11990 0.84650 0.13400
H 	H 	0.32690 0.87760 0.57090 0.15900
H 	H 	0.33790 0.89220 0.64570 0.17800
H 	H 	0.33140 0.82300 0.59500 0.15900
H 	H 	0.63620 0.04880 0.75720 0.15900
H 	H 	0.63330 0.98020 0.75610 0.15800
H 	H 	0.61390 0.02470 0.80540 0.17900
H 	H 	0.61200 0.70860 0.79300 0.16700
H 	H 	0.58480 0.62890 0.77030 0.16900
H 	H 	0.53860 0.65070 0.72590 0.14500
H 	H 	0.79080 0.74230 0.69730 0.14700
H 	H 	0.73750 0.69820 0.61610 0.12700
H 	H 	0.77340 0.66490 0.65350 0.13400
H 	H 	0.80670 0.75600 0.92910 0.16000
H 	H 	0.74650 0.69220 0.85430 0.17800
H 	H 	0.72800 0.73640 0.90500 0.15900
H 	H 	0.79160 0.87900 0.74280 0.16000
H 	H 	0.72410 0.87720 0.74390 0.15900
H 	H 	0.71930 0.80850 0.69460 0.18000
H 	H 	0.20700 0.41560 0.31900 0.16700
H 	H 	0.22970 0.35860 0.31450 0.17000
H 	H 	0.27410 0.42480 0.31270 0.14500
H 	H 	0.30270 0.54500 0.59350 0.14700
H 	H 	0.38390 0.58210 0.62140 0.12700
H 	H 	0.34650 0.51140 0.61990 0.13400
H 	H 	0.07090 0.32690 0.37760 0.15900
H 	H 	0.14570 0.33790 0.39220 0.17800
H 	H 	0.09500 0.33140 0.32300 0.15900
H 	H 	0.25720 0.63620 0.54880 0.16000
H 	H 	0.25610 0.63330 0.48020 0.15900
H 	H 	0.30540 0.61390 0.52470 0.18000
H 	H 	0.29300 0.61200 0.20860 0.16700
H 	H 	0.27030 0.58480 0.12890 0.17000
H 	H 	0.22590 0.53860 0.15070 0.14500
H 	H 	0.19730 0.79080 0.24230 0.14700
H 	H 	0.11610 0.73750 0.19820 0.12800
H 	H 	0.15350 0.77340 0.16490 0.13500
H 	H 	0.42910 0.80670 0.25600 0.15900
H 	H 	0.35430 0.74650 0.19220 0.17800
H 	H 	0.40500 0.72800 0.23640 0.15900
H 	H 	0.24280 0.79160 0.37900 0.16000
H 	H 	0.24390 0.72410 0.37720 0.15900
H 	H 	0.19460 0.71930 0.30850 0.18000
H 	H 	0.59660 0.88800 0.18100 0.16700
H 	H 	0.54410 0.91520 0.18550 0.16900
H 	H 	0.61210 0.96140 0.18730 0.14500
H 	H 	0.45150 0.70920 0.90650 0.14700
H 	H 	0.46070 0.76250 0.87860 0.12700
H 	H 	0.39150 0.72660 0.88010 0.13400
H 	H 	0.44930 0.69330 0.12240 0.15900
H 	H 	0.44570 0.75350 0.10780 0.17800
H 	H 	0.50840 0.77200 0.17700 0.15900
H 	H 	0.58740 0.70840 0.95120 0.16000
H 	H 	0.65310 0.77590 0.01980 0.15900
H 	H 	0.58920 0.78070 0.97530 0.17900
H 	H 	0.90340 0.08440 0.29140 0.16700
H 	H 	0.95590 0.14140 0.37110 0.17000
H 	H 	0.88790 0.07520 0.34930 0.14500
H 	H 	0.04850 0.95500 0.25770 0.14700
H 	H 	0.03930 0.91790 0.30180 0.12800
H 	H 	0.10850 0.98860 0.33510 0.13400
H 	H 	0.05070 0.17310 0.24400 0.15800
H 	H 	0.05430 0.16210 0.30780 0.17700
H 	H 	0.99160 0.16860 0.26360 0.15800
H 	H 	0.91260 0.86380 0.12100 0.15800
H 	H 	0.84690 0.86670 0.12280 0.15800
H 	H 	0.91080 0.88610 0.19150 0.17800
H 	H 	0.79140 0.90340 0.58440 0.16700
H 	H 	0.87110 0.95590 0.64140 0.16900
H 	H 	0.84930 0.88790 0.57520 0.14500
H 	H 	0.75770 0.04850 0.45500 0.14700
H 	H 	0.80180 0.03930 0.41790 0.12800
H 	H 	0.83510 0.10850 0.48860 0.13400
H 	H 	0.74400 0.05070 0.67310 0.15700
H 	H 	0.80780 0.05430 0.66210 0.17700
H 	H 	0.76360 0.99160 0.66860 0.15600
H 	H 	0.62100 0.91260 0.36380 0.16000
H 	H 	0.62280 0.84690 0.36670 0.15900
H 	H 	0.69150 0.91080 0.38610 0.17900
H 	H 	0.68100 0.59660 0.38800 0.16700
H 	H 	0.68550 0.54410 0.41520 0.16900
H 	H 	0.68730 0.61210 0.46140 0.14500
H 	H 	0.40650 0.45150 0.20920 0.14700
H 	H 	0.37860 0.46070 0.26250 0.12700
H 	H 	0.38010 0.39150 0.22660 0.13400
H 	H 	0.62240 0.44930 0.19330 0.15900
H 	H 	0.60780 0.44570 0.25350 0.17800
H 	H 	0.67700 0.50840 0.27200 0.15900
H 	H 	0.45120 0.58740 0.20840 0.16000
H 	H 	0.51980 0.65310 0.27590 0.15900
H 	H 	0.47530 0.58920 0.28070 0.18000
H 	H 	0.70860 0.29300 0.11200 0.16700
H 	H 	0.62890 0.27030 0.08480 0.16900
H 	H 	0.65070 0.22590 0.03860 0.14500
H 	H 	0.74230 0.19730 0.29080 0.14700
H 	H 	0.69820 0.11610 0.23750 0.12700
H 	H 	0.66490 0.15350 0.27340 0.13400
H 	H 	0.75600 0.42910 0.30670 0.15900
H 	H 	0.69220 0.35430 0.24650 0.17800
H 	H 	0.73640 0.40500 0.22800 0.15900
H 	H 	0.87900 0.24280 0.29160 0.16000
H 	H 	0.87720 0.24390 0.22410 0.15900
H 	H 	0.80850 0.19460 0.21930 0.18000
H 	H 	0.81900 0.20700 0.91560 0.16800
H 	H 	0.81450 0.22970 0.85860 0.17000
H 	H 	0.81270 0.27410 0.92480 0.14500
H 	H 	0.09350 0.30270 0.04500 0.14600
H 	H 	0.12140 0.38390 0.08210 0.12600
H 	H 	0.11990 0.34650 0.01140 0.13300
H 	H 	0.87760 0.07090 0.82690 0.16000
H 	H 	0.89220 0.14570 0.83790 0.17800
H 	H 	0.82300 0.09500 0.83140 0.15900
H 	H 	0.04880 0.25720 0.13620 0.15600
H 	H 	0.98020 0.25610 0.13330 0.15400
H 	H 	0.02470 0.30540 0.11390 0.17600
C 	C 	0.91420 0.66780 0.07580 -0.56400
C 	C 	0.88020 0.59020 0.03660 0.16800
C 	C 	0.81150 0.53960 0.01290 -0.11000
C 	C 	0.80640 0.47910 0.97490 0.14200
C 	C 	0.74540 0.40390 0.94150 -0.50700
C 	C 	0.73810 0.62780 0.97650 -0.58400
C 	C 	0.73130 0.59140 0.01730 0.19700
C 	C 	0.75980 0.55250 0.03130 -0.17000
C 	C 	0.73690 0.53230 0.07080 0.21800
C 	C 	0.75170 0.49110 0.10280 -0.61500
C 	C 	0.09200 0.83840 0.42420 -0.56600
C 	C 	0.05360 0.84360 0.46340 0.16900
C 	C 	0.02670 0.79860 0.48710 -0.10900
C 	C 	0.00420 0.83150 0.52510 0.14200
C 	C 	0.96240 0.80390 0.55850 -0.50900
C 	C 	0.15130 0.76160 0.52350 -0.58900
C 	C 	0.07410 0.71400 0.48270 0.19900
C 	C 	0.02120 0.72850 0.46870 -0.16800
C 	C 	0.96150 0.66610 0.42920 0.21700
C 	C 	0.88830 0.64890 0.39720 -0.61300
C 	C 	0.40800 0.83220 0.74640 -0.56500
C 	C 	0.44640 0.90980 0.79000 0.16800
C 	C 	0.47330 0.96040 0.77190 -0.10800
C 	C 	0.49580 0.02090 0.82730 0.14000
C 	C 	0.53760 0.09610 0.84150 -0.50600
C 	C 	0.34870 0.87220 0.61030 -0.59000
C 	C 	0.42590 0.90860 0.63990 0.19900
C 	C 	0.47880 0.94750 0.70730 -0.17000
C 	C 	0.53850 0.96770 0.70460 0.21800
C 	C 	0.61170 0.00890 0.76060 -0.61300
C 	C 	0.58580 0.66160 0.75360 -0.56500
C 	C 	0.61980 0.65640 0.71000 0.16800
C 	C 	0.68850 0.70140 0.72810 -0.10800
C 	C 	0.69360 0.66850 0.67270 0.14000
C 	C 	0.75460 0.69610 0.65850 -0.50500
C 	C 	0.76190 0.73840 0.88970 -0.59100
C 	C 	0.76870 0.78600 0.86010 0.20000
C 	C 	0.74020 0.77150 0.79270 -0.17100
C 	C 	0.76310 0.83390 0.79540 0.21900
C 	C 	0.74830 0.85110 0.73940 -0.61600
C 	C 	0.24640 0.40800 0.33220 -0.56500
C 	C 	0.29000 0.44640 0.40980 0.16800
C 	C 	0.27190 0.47330 0.46040 -0.10800
C 	C 	0.32730 0.49580 0.52090 0.14000
C 	C 	0.34150 0.53760 0.59610 -0.50500
C 	C 	0.11030 0.34870 0.37220 -0.59100
C 	C 	0.13990 0.42590 0.40860 0.20000
C 	C 	0.20730 0.47880 0.44750 -0.17100
C 	C 	0.20460 0.53850 0.46770 0.21900
C 	C 	0.26060 0.61170 0.50890 -0.61600
C 	C 	0.25360 0.58580 0.16160 -0.56600
C 	C 	0.21000 0.61980 0.15640 0.16800
C 	C 	0.22810 0.68850 0.20140 -0.10800
C 	C 	0.17270 0.69360 0.16850 0.14000
C 	C 	0.15850 0.75460 0.19610 -0.50600
C 	C 	0.38970 0.76190 0.23840 -0.59100
C 	C 	0.36010 0.76870 0.28600 0.20000
C 	C 	0.29270 0.74020 0.27150 -0.17100
C 	C 	0.29540 0.76310 0.33390 0.21900
C 	C 	0.23940 0.74830 0.35110 -0.61700
C 	C 	0.57580 0.91420 0.16780 -0.56400
C 	C 	0.53660 0.88020 0.09020 0.16800
C 	C 	0.51290 0.81150 0.03960 -0.10700
C 	C 	0.47490 0.80640 0.97910 0.13900
C 	C 	0.44150 0.74540 0.90390 -0.50500
C 	C 	0.47650 0.73810 0.12780 -0.59100
C 	C 	0.51730 0.73130 0.09140 0.20000
C 	C 	0.53130 0.75980 0.05250 -0.17100
C 	C 	0.57080 0.73690 0.03230 0.21900
C 	C 	0.60280 0.75170 0.99110 -0.61500
C 	C 	0.92420 0.09200 0.33840 -0.56500
C 	C 	0.96340 0.05360 0.34360 0.16800
C 	C 	0.98710 0.02670 0.29860 -0.10700
C 	C 	0.02510 0.00420 0.33150 0.13800
C 	C 	0.05850 0.96240 0.30390 -0.50300
C 	C 	0.02350 0.15130 0.26160 -0.58700
C 	C 	0.98270 0.07410 0.21400 0.19800
C 	C 	0.96870 0.02120 0.22850 -0.16900
C 	C 	0.92920 0.96150 0.16610 0.21600
C 	C 	0.89720 0.88830 0.14890 -0.61300
C 	C 	0.83840 0.92420 0.59200 -0.56500
C 	C 	0.84360 0.96340 0.55360 0.16800
C 	C 	0.79860 0.98710 0.52670 -0.11000
C 	C 	0.83150 0.02510 0.50420 0.14200
C 	C 	0.80390 0.05850 0.46240 -0.50700
C 	C 	0.76160 0.02350 0.65130 -0.58400
C 	C 	0.71400 0.98270 0.57410 0.19700
C 	C 	0.72850 0.96870 0.52120 -0.17000
C 	C 	0.66610 0.92920 0.46150 0.21800
C 	C 	0.64890 0.89720 0.38830 -0.61500
C 	C 	0.66780 0.57580 0.41420 -0.56500
C 	C 	0.59020 0.53660 0.38020 0.16800
C 	C 	0.53960 0.51290 0.31150 -0.10800
C 	C 	0.47910 0.47490 0.30640 0.14000
C 	C 	0.40390 0.44150 0.24540 -0.50500
C 	C 	0.62780 0.47650 0.23810 -0.59000
C 	C 	0.59140 0.51730 0.23130 0.20000
C 	C 	0.55250 0.53130 0.25980 -0.17100
C 	C 	0.53230 0.57080 0.23690 0.21900
C 	C 	0.49110 0.60280 0.25170 -0.61600
C 	C 	0.66160 0.25360 0.08580 -0.56500
C 	C 	0.65640 0.21000 0.11980 0.16800
C 	C 	0.70140 0.22810 0.18850 -0.10800
C 	C 	0.66850 0.17270 0.19360 0.14000
C 	C 	0.69610 0.15850 0.25460 -0.50500
C 	C 	0.73840 0.38970 0.26190 -0.59000
C 	C 	0.78600 0.36010 0.26870 0.20000
C 	C 	0.77150 0.29270 0.24020 -0.17100
C 	C 	0.83390 0.29540 0.26310 0.21900
C 	C 	0.85110 0.23940 0.24830 -0.61600
C 	C 	0.83220 0.24640 0.90800 -0.56500
C 	C 	0.90980 0.29000 0.94640 0.16800
C 	C 	0.96040 0.27190 0.97330 -0.10500
C 	C 	0.02090 0.32730 0.99580 0.13500
C 	C 	0.09610 0.34150 0.03760 -0.50000
C 	C 	0.87220 0.11030 0.84870 -0.59100
C 	C 	0.90860 0.13990 0.92590 0.19900
C 	C 	0.94750 0.20730 0.97880 -0.16700
C 	C 	0.96770 0.20460 0.03850 0.21200
C 	C 	0.00890 0.26060 0.11170 -0.60200
N 	N 	0.91160 0.55750 0.01190 -0.22800
N 	N 	0.86590 0.48650 0.97480 -0.22800
N 	N 	0.69410 0.59640 0.05010 -0.23400
N 	N 	0.69760 0.55790 0.08290 -0.24600
N 	N 	0.04560 0.89970 0.48810 -0.22700
N 	N 	0.01170 0.89110 0.52520 -0.22700
N 	N 	0.04630 0.64400 0.44990 -0.23400
N 	N 	0.97500 0.61470 0.41710 -0.24600
N 	N 	0.45440 0.94250 0.85410 -0.22700
N 	N 	0.48830 0.01350 0.87940 -0.22800
N 	N 	0.45370 0.90360 0.59770 -0.23500
N 	N 	0.52500 0.94210 0.63970 -0.24600
N 	N 	0.58840 0.60030 0.64590 -0.22700
N 	N 	0.63410 0.60890 0.62060 -0.22800
N 	N 	0.80590 0.85600 0.90230 -0.23500
N 	N 	0.80240 0.88530 0.86030 -0.24600
N 	N 	0.35410 0.45440 0.44250 -0.22700
N 	N 	0.37940 0.48830 0.51350 -0.22800
N 	N 	0.09770 0.45370 0.40360 -0.23400
N 	N 	0.13970 0.52500 0.44210 -0.24600
N 	N 	0.14590 0.58840 0.10030 -0.22700
N 	N 	0.12060 0.63410 0.10890 -0.22800
N 	N 	0.40230 0.80590 0.35600 -0.23500
N 	N 	0.36030 0.80240 0.38530 -0.24600
N 	N 	0.51190 0.91160 0.05750 -0.22700
N 	N 	0.47480 0.86590 0.98650 -0.22800
N 	N 	0.55010 0.69410 0.09640 -0.23500
N 	N 	0.58290 0.69760 0.05790 -0.24600
N 	N 	0.98810 0.04560 0.39970 -0.22700
N 	N 	0.02520 0.01170 0.39110 -0.22800
N 	N 	0.94990 0.04630 0.14400 -0.23400
N 	N 	0.91710 0.97500 0.11470 -0.24600
N 	N 	0.89970 0.98810 0.54560 -0.22800
N 	N 	0.89110 0.02520 0.51170 -0.22700
N 	N 	0.64400 0.94990 0.54630 -0.23400
N 	N 	0.61470 0.91710 0.47500 -0.24600
N 	N 	0.55750 0.51190 0.41160 -0.22700
N 	N 	0.48650 0.47480 0.36590 -0.22800
N 	N 	0.59640 0.55010 0.19410 -0.23500
N 	N 	0.55790 0.58290 0.19760 -0.24600
N 	N 	0.60030 0.14590 0.08840 -0.22700
N 	N 	0.60890 0.12060 0.13410 -0.22800
N 	N 	0.85600 0.40230 0.30590 -0.23500
N 	N 	0.88530 0.36030 0.30240 -0.24600
N 	N 	0.94250 0.35410 0.95440 -0.22600
N 	N 	0.01350 0.37940 0.98830 -0.22800
N 	N 	0.90360 0.09770 0.95370 -0.23300
N 	N 	0.94210 0.13970 0.02500 -0.24600
Ag	Ag	0.46434 0.54430 0.94826 0.44200
Ag	Ag	0.08470 0.59309 0.94889 0.43700
Ag	Ag	0.09604 0.51608 0.55174 0.44300
Ag	Ag	0.14420 0.13581 0.55111 0.43800
Ag	Ag	0.03566 0.98392 0.07996 0.44500
Ag	Ag	0.41530 0.36419 0.50839 0.43800
Ag	Ag	0.40396 0.95570 0.42004 0.44200
Ag	Ag	0.35580 0.90691 0.99161 0.43800
Ag	Ag	0.51608 0.05174 0.59604 0.44200
Ag	Ag	0.13581 0.05111 0.64420 0.43800
Ag	Ag	0.54430 0.44826 0.96434 0.44300
Ag	Ag	0.59309 0.44889 0.58470 0.43800
Ag	Ag	0.95570 0.92004 0.90396 0.44200
Ag	Ag	0.90691 0.49161 0.85580 0.43800
Ag	Ag	0.98392 0.57996 0.53566 0.44200
Ag	Ag	0.36419 0.00839 0.91530 0.43800
Ag	Ag	0.92004 0.40396 0.45570 0.44200
Ag	Ag	0.49161 0.35580 0.40691 0.43800
Ag	Ag	0.57996 0.03566 0.48392 0.44200
Ag	Ag	0.00839 0.41530 0.86419 0.43700
Ag	Ag	0.05174 0.09604 0.01608 0.44300
Ag	Ag	0.05111 0.14420 0.63581 0.43800
Ag	Ag	0.44826 0.46434 0.04430 0.44300
Ag	Ag	0.44889 0.08470 0.09309 0.43800
H 	H 	0.29140 0.58440 0.90340 0.16800
H 	H 	0.37110 0.64140 0.95590 0.17000
H 	H 	0.34930 0.57520 0.88790 0.14500
H 	H 	0.25770 0.45500 0.04850 0.14800
H 	H 	0.30180 0.41790 0.03930 0.12800
H 	H 	0.33510 0.48860 0.10850 0.13400
H 	H 	0.24400 0.67310 0.05070 0.15700
H 	H 	0.30780 0.66210 0.05430 0.17500
H 	H 	0.26360 0.66860 0.99160 0.15500
H 	H 	0.12100 0.36380 0.91260 0.15900
H 	H 	0.12280 0.36670 0.84690 0.15800
H 	H 	0.19150 0.38610 0.91080 0.17900
H 	H 	0.18100 0.38800 0.59660 0.16700
H 	H 	0.18550 0.41520 0.54410 0.17000
H 	H 	0.18730 0.46140 0.61210 0.14500
H 	H 	0.90650 0.20920 0.45150 0.14700
H 	H 	0.87860 0.26250 0.46070 0.12800
H 	H 	0.88010 0.22660 0.39150 0.13400
H 	H 	0.12240 0.19330 0.44930 0.15900
H 	H 	0.10780 0.25350 0.44570 0.17800
H 	H 	0.17700 0.27200 0.50840 0.15900
H 	H 	0.95120 0.20840 0.58740 0.15800
H 	H 	0.01980 0.27590 0.65310 0.15700
H 	H 	0.97530 0.28070 0.58920 0.17800
H 	H 	0.20860 0.11200 0.29300 0.16700
H 	H 	0.12890 0.08480 0.27030 0.16900
H 	H 	0.15070 0.03860 0.22590 0.14400
H 	H 	0.24230 0.29080 0.19730 0.14700
H 	H 	0.19820 0.23750 0.11610 0.12800
H 	H 	0.16490 0.27340 0.15350 0.13400
H 	H 	0.25600 0.30670 0.42910 0.15900
H 	H 	0.19220 0.24650 0.35430 0.17800
H 	H 	0.23640 0.22800 0.40500 0.15900
H 	H 	0.37900 0.29160 0.24280 0.16000
H 	H 	0.37720 0.22410 0.24390 0.15900
H 	H 	0.30850 0.21930 0.19460 0.18000
H 	H 	0.31900 0.91560 0.20700 0.16800
H 	H 	0.31450 0.85860 0.22970 0.17000
H 	H 	0.31270 0.92480 0.27410 0.14500
H 	H 	0.59350 0.04500 0.30270 0.14700
H 	H 	0.62140 0.08210 0.38390 0.12800
H 	H 	0.61990 0.01140 0.34650 0.13400
H 	H 	0.37760 0.82690 0.07090 0.16000
H 	H 	0.39220 0.83790 0.14570 0.17800
H 	H 	0.32300 0.83140 0.09500 0.15900
H 	H 	0.54880 0.13620 0.25720 0.16000
H 	H 	0.48020 0.13330 0.25610 0.15900
H 	H 	0.52470 0.11390 0.30540 0.17900
H 	H 	0.38800 0.09660 0.68100 0.16700
H 	H 	0.41520 0.04410 0.68550 0.17000
H 	H 	0.46140 0.11210 0.68730 0.14500
H 	H 	0.20920 0.95150 0.40650 0.14800
H 	H 	0.26250 0.96070 0.37860 0.12800
H 	H 	0.22660 0.89150 0.38010 0.13400
H 	H 	0.19330 0.94930 0.62240 0.15800
H 	H 	0.25350 0.94570 0.60780 0.17600
H 	H 	0.27200 0.00840 0.67700 0.15700
H 	H 	0.20840 0.08740 0.45120 0.15900
H 	H 	0.27590 0.15310 0.51980 0.15900
H 	H 	0.28070 0.08920 0.47530 0.17900
H 	H 	0.58440 0.40340 0.79140 0.16700
H 	H 	0.64140 0.45590 0.87110 0.17000
H 	H 	0.57520 0.38790 0.84930 0.14500
H 	H 	0.45500 0.54850 0.75770 0.14700
H 	H 	0.41790 0.53930 0.80180 0.12700
H 	H 	0.48860 0.60850 0.83510 0.13400
H 	H 	0.67310 0.55070 0.74400 0.15900
H 	H 	0.66210 0.55430 0.80780 0.17800
H 	H 	0.66860 0.49160 0.76360 0.15900
H 	H 	0.36380 0.41260 0.62100 0.16000
H 	H 	0.36670 0.34690 0.62280 0.15900
H 	H 	0.38610 0.41080 0.69150 0.18000
H 	H 	0.91560 0.70700 0.81900 0.16700
H 	H 	0.85860 0.72970 0.81450 0.16900
H 	H 	0.92480 0.77410 0.81270 0.14500
H 	H 	0.04500 0.80270 0.09350 0.14600
H 	H 	0.08210 0.88390 0.12140 0.12600
H 	H 	0.01140 0.84650 0.11990 0.13300
H 	H 	0.82690 0.57090 0.87760 0.15900
H 	H 	0.83790 0.64570 0.89220 0.17800
H 	H 	0.83140 0.59500 0.82300 0.15900
H 	H 	0.13620 0.75720 0.04880 0.15600
H 	H 	0.13330 0.75610 0.98020 0.15300
H 	H 	0.11390 0.80540 0.02470 0.17600
H 	H 	0.11200 0.79300 0.70860 0.16800
H 	H 	0.08480 0.77030 0.62890 0.17000
H 	H 	0.03860 0.72590 0.65070 0.14500
H 	H 	0.29080 0.69730 0.74230 0.14700
H 	H 	0.23750 0.61610 0.69820 0.12700
H 	H 	0.27340 0.65350 0.66490 0.13400
H 	H 	0.30670 0.92910 0.75600 0.15900
H 	H 	0.24650 0.85430 0.69220 0.17800
H 	H 	0.22800 0.90500 0.73640 0.15900
H 	H 	0.29160 0.74280 0.87900 0.16000
H 	H 	0.22410 0.74390 0.87720 0.15900
H 	H 	0.21930 0.69460 0.80850 0.18000
H 	H 	0.70700 0.31900 0.41560 0.16700
H 	H 	0.72970 0.31450 0.35860 0.16900
H 	H 	0.77410 0.31270 0.42480 0.14500
H 	H 	0.80270 0.59350 0.54500 0.14700
H 	H 	0.88390 0.62140 0.58210 0.12700
H 	H 	0.84650 0.61990 0.51140 0.13400
H 	H 	0.57090 0.37760 0.32690 0.15900
H 	H 	0.64570 0.39220 0.33790 0.17800
H 	H 	0.59500 0.32300 0.33140 0.15900
H 	H 	0.75720 0.54880 0.63620 0.16000
H 	H 	0.75610 0.48020 0.63330 0.15900
H 	H 	0.80540 0.52470 0.61390 0.18000
H 	H 	0.79300 0.20860 0.61200 0.16700
H 	H 	0.77030 0.12890 0.58480 0.17000
H 	H 	0.72590 0.15070 0.53860 0.14500
H 	H 	0.69730 0.24230 0.79080 0.14700
H 	H 	0.61610 0.19820 0.73750 0.12700
H 	H 	0.65350 0.16490 0.77340 0.13400
H 	H 	0.92910 0.25600 0.80670 0.16000
H 	H 	0.85430 0.19220 0.74650 0.17900
H 	H 	0.90500 0.23640 0.72800 0.16000
H 	H 	0.74280 0.37900 0.79160 0.16000
H 	H 	0.74390 0.37720 0.72410 0.15900
H 	H 	0.69460 0.30850 0.71930 0.18000
H 	H 	0.09660 0.18100 0.88800 0.16700
H 	H 	0.04410 0.18550 0.91520 0.16900
H 	H 	0.11210 0.18730 0.96140 0.14400
H 	H 	0.95150 0.90650 0.70920 0.14700
H 	H 	0.96070 0.87860 0.76250 0.12800
H 	H 	0.89150 0.88010 0.72660 0.13400
H 	H 	0.94930 0.12240 0.69330 0.15600
H 	H 	0.94570 0.10780 0.75350 0.17500
H 	H 	0.00840 0.17700 0.77200 0.15400
H 	H 	0.08740 0.95120 0.70840 0.15800
H 	H 	0.15310 0.01980 0.77590 0.15600
H 	H 	0.08920 0.97530 0.78070 0.17700
H 	H 	0.40340 0.29140 0.08440 0.16800
H 	H 	0.45590 0.37110 0.14140 0.17000
H 	H 	0.38790 0.34930 0.07520 0.14500
H 	H 	0.54850 0.25770 0.95500 0.14700
H 	H 	0.53930 0.30180 0.91790 0.12800
H 	H 	0.60850 0.33510 0.98860 0.13400
H 	H 	0.55070 0.24400 0.17310 0.15900
H 	H 	0.55430 0.30780 0.16210 0.17800
H 	H 	0.49160 0.26360 0.16860 0.15900
H 	H 	0.41260 0.12100 0.86380 0.16000
H 	H 	0.34690 0.12280 0.86670 0.15900
H 	H 	0.41080 0.19150 0.88610 0.18000
C 	C 	0.33840 0.59200 0.92420 -0.56600
C 	C 	0.34360 0.55360 0.96340 0.16900
C 	C 	0.29860 0.52670 0.98710 -0.11000
C 	C 	0.33150 0.50420 0.02510 0.14200
C 	C 	0.30390 0.46240 0.05850 -0.50800
C 	C 	0.26160 0.65130 0.02350 -0.58000
C 	C 	0.21400 0.57410 0.98270 0.19600
C 	C 	0.22850 0.52120 0.96870 -0.16900
C 	C 	0.16610 0.46150 0.92920 0.21800
C 	C 	0.14890 0.38830 0.89720 -0.61400
C 	C 	0.16780 0.41420 0.57580 -0.56500
C 	C 	0.09020 0.38020 0.53660 0.16800
C 	C 	0.03960 0.31150 0.51290 -0.10800
C 	C 	0.97910 0.30640 0.47490 0.14000
C 	C 	0.90390 0.24540 0.44150 -0.50600
C 	C 	0.12780 0.23810 0.47650 -0.59000
C 	C 	0.09140 0.23130 0.51730 0.19900
C 	C 	0.05250 0.25980 0.53130 -0.17000
C 	C 	0.03230 0.23690 0.57080 0.21700
C 	C 	0.99110 0.25170 0.60280 -0.61000
C 	C 	0.16160 0.08580 0.25360 -0.56400
C 	C 	0.15640 0.11980 0.21000 0.16800
C 	C 	0.20140 0.18850 0.22810 -0.10800
C 	C 	0.16850 0.19360 0.17270 0.14000
C 	C 	0.19610 0.25460 0.15850 -0.50600
C 	C 	0.23840 0.26190 0.38970 -0.59000
C 	C 	0.28600 0.26870 0.36010 0.20000
C 	C 	0.27150 0.24020 0.29270 -0.17100
C 	C 	0.33390 0.26310 0.29540 0.21900
C 	C 	0.35110 0.24830 0.23940 -0.61600
C 	C 	0.33220 0.90800 0.24640 -0.56600
C 	C 	0.40980 0.94640 0.29000 0.16800
C 	C 	0.46040 0.97330 0.27190 -0.10800
C 	C 	0.52090 0.99580 0.32730 0.14000
C 	C 	0.59610 0.03760 0.34150 -0.50600
C 	C 	0.37220 0.84870 0.11030 -0.59100
C 	C 	0.40860 0.92590 0.13990 0.20000
C 	C 	0.44750 0.97880 0.20730 -0.17100
C 	C 	0.46770 0.03850 0.20460 0.21900
C 	C 	0.50890 0.11170 0.26060 -0.61600
C 	C 	0.41420 0.07580 0.66780 -0.56500
C 	C 	0.38020 0.03660 0.59020 0.16800
C 	C 	0.31150 0.01290 0.53960 -0.10900
C 	C 	0.30640 0.97490 0.47910 0.14100
C 	C 	0.24540 0.94150 0.40390 -0.50700
C 	C 	0.23810 0.97650 0.62780 -0.58500
C 	C 	0.23130 0.01730 0.59140 0.19700
C 	C 	0.25980 0.03130 0.55250 -0.17000
C 	C 	0.23690 0.07080 0.53230 0.21800
C 	C 	0.25170 0.10280 0.49110 -0.61500
C 	C 	0.59200 0.42420 0.83840 -0.56500
C 	C 	0.55360 0.46340 0.84360 0.16800
C 	C 	0.52670 0.48710 0.79860 -0.10800
C 	C 	0.50420 0.52510 0.83150 0.14000
C 	C 	0.46240 0.55850 0.80390 -0.50500
C 	C 	0.65130 0.52350 0.76160 -0.59100
C 	C 	0.57410 0.48270 0.71400 0.20000
C 	C 	0.52120 0.46870 0.72850 -0.17100
C 	C 	0.46150 0.42920 0.66610 0.21900
C 	C 	0.38830 0.39720 0.64890 -0.61600
C 	C 	0.90800 0.74640 0.83220 -0.56400
C 	C 	0.94640 0.79000 0.90980 0.16700
C 	C 	0.97330 0.77190 0.96040 -0.10500
C 	C 	0.99580 0.82730 0.02090 0.13400
C 	C 	0.03760 0.84150 0.09610 -0.49800
C 	C 	0.84870 0.61030 0.87220 -0.59000
C 	C 	0.92590 0.63990 0.90860 0.19900
C 	C 	0.97880 0.70730 0.94750 -0.16800
C 	C 	0.03850 0.70460 0.96770 0.21200
C 	C 	0.11170 0.76060 0.00890 -0.60000
C 	C 	0.08580 0.75360 0.66160 -0.56600
C 	C 	0.11980 0.71000 0.65640 0.16800
C 	C 	0.18850 0.72810 0.70140 -0.10800
C 	C 	0.19360 0.67270 0.66850 0.14000
C 	C 	0.25460 0.65850 0.69610 -0.50500
C 	C 	0.26190 0.88970 0.73840 -0.59100
C 	C 	0.26870 0.86010 0.78600 0.20000
C 	C 	0.24020 0.79270 0.77150 -0.17100
C 	C 	0.26310 0.79540 0.83390 0.21900
C 	C 	0.24830 0.73940 0.85110 -0.61600
C 	C 	0.74640 0.33220 0.40800 -0.56500
C 	C 	0.79000 0.40980 0.44640 0.16800
C 	C 	0.77190 0.46040 0.47330 -0.10800
C 	C 	0.82730 0.52090 0.49580 0.14000
C 	C 	0.84150 0.59610 0.53760 -0.50500
C 	C 	0.61030 0.37220 0.34870 -0.59000
C 	C 	0.63990 0.40860 0.42590 0.20000
C 	C 	0.70730 0.44750 0.47880 -0.17100
C 	C 	0.70460 0.46770 0.53850 0.21900
C 	C 	0.76060 0.50890 0.61170 -0.61600
C 	C 	0.75360 0.16160 0.58580 -0.56500
C 	C 	0.71000 0.15640 0.61980 0.16800
C 	C 	0.72810 0.20140 0.68850 -0.10800
C 	C 	0.67270 0.16850 0.69360 0.14000
C 	C 	0.65850 0.19610 0.75460 -0.50500
C 	C 	0.88970 0.23840 0.76190 -0.59200
C 	C 	0.86010 0.28600 0.76870 0.20000
C 	C 	0.79270 0.27150 0.74020 -0.17100
C 	C 	0.79540 0.33390 0.76310 0.21900
C 	C 	0.73940 0.35110 0.74830 -0.61600
C 	C 	0.07580 0.16780 0.91420 -0.56500
C 	C 	0.03660 0.09020 0.88020 0.16800
C 	C 	0.01290 0.03960 0.81150 -0.11000
C 	C 	0.97490 0.97910 0.80640 0.14100
C 	C 	0.94150 0.90390 0.74540 -0.50600
C 	C 	0.97650 0.12780 0.73810 -0.57700
C 	C 	0.01730 0.09140 0.73130 0.19400
C 	C 	0.03130 0.05250 0.75980 -0.16700
C 	C 	0.07080 0.03230 0.73690 0.21500
C 	C 	0.10280 0.99110 0.75170 -0.60700
C 	C 	0.42420 0.33840 0.09200 -0.56500
C 	C 	0.46340 0.34360 0.05360 0.16800
C 	C 	0.48710 0.29860 0.02670 -0.10800
C 	C 	0.52510 0.33150 0.00420 0.14000
C 	C 	0.55850 0.30390 0.96240 -0.50500
C 	C 	0.52350 0.26160 0.15130 -0.59000
C 	C 	0.48270 0.21400 0.07410 0.20000
C 	C 	0.46870 0.22850 0.02120 -0.17100
C 	C 	0.42920 0.16610 0.96150 0.21900
C 	C 	0.39720 0.14890 0.88830 -0.61600
N 	N 	0.39970 0.54560 0.98810 -0.22700
N 	N 	0.39110 0.51170 0.02520 -0.22800
N 	N 	0.14400 0.54630 0.94990 -0.23400
N 	N 	0.11470 0.47500 0.91710 -0.24600
N 	N 	0.05750 0.41160 0.51190 -0.22700
N 	N 	0.98650 0.36590 0.47480 -0.22800
N 	N 	0.09640 0.19410 0.55010 -0.23500
N 	N 	0.05790 0.19760 0.58290 -0.24600
N 	N 	0.10030 0.08840 0.14590 -0.22700
N 	N 	0.10890 0.13410 0.12060 -0.22800
N 	N 	0.35600 0.30590 0.40230 -0.23500
N 	N 	0.38530 0.30240 0.36030 -0.24600
N 	N 	0.44250 0.95440 0.35410 -0.22700
N 	N 	0.51350 0.98830 0.37940 -0.22800
N 	N 	0.40360 0.95370 0.09770 -0.23400
N 	N 	0.44210 0.02500 0.13970 -0.24600
N 	N 	0.41160 0.01190 0.55750 -0.22700
N 	N 	0.36590 0.97480 0.48650 -0.22800
N 	N 	0.19410 0.05010 0.59640 -0.23400
N 	N 	0.19760 0.08290 0.55790 -0.24600
N 	N 	0.54560 0.48810 0.89970 -0.22700
N 	N 	0.51170 0.52520 0.89110 -0.22800
N 	N 	0.54630 0.44990 0.64400 -0.23500
N 	N 	0.47500 0.41710 0.61470 -0.24600
N 	N 	0.95440 0.85410 0.94250 -0.22600
N 	N 	0.98830 0.87940 0.01350 -0.22800
N 	N 	0.95370 0.59770 0.90360 -0.23400
N 	N 	0.02500 0.63970 0.94210 -0.24600
N 	N 	0.08840 0.64590 0.60030 -0.22700
N 	N 	0.13410 0.62060 0.60890 -0.22800
N 	N 	0.30590 0.90230 0.85600 -0.23500
N 	N 	0.30240 0.86030 0.88530 -0.24600
N 	N 	0.85410 0.44250 0.45440 -0.22700
N 	N 	0.87940 0.51350 0.48830 -0.22800
N 	N 	0.59770 0.40360 0.45370 -0.23500
N 	N 	0.63970 0.44210 0.52500 -0.24600
N 	N 	0.64590 0.10030 0.58840 -0.22700
N 	N 	0.62060 0.10890 0.63410 -0.22800
N 	N 	0.90230 0.35600 0.80590 -0.23400
N 	N 	0.86030 0.38530 0.80240 -0.24600
N 	N 	0.01190 0.05750 0.91160 -0.22800
N 	N 	0.97480 0.98650 0.86590 -0.22800
N 	N 	0.05010 0.09640 0.69410 -0.23400
N 	N 	0.08290 0.05790 0.69760 -0.24600
N 	N 	0.48810 0.39970 0.04560 -0.22700
N 	N 	0.52520 0.39110 0.01170 -0.22800
N 	N 	0.44990 0.14400 0.04630 -0.23500
N 	N 	0.41710 0.11470 0.97500 -0.24600
