data_crystal

_cell_length_a 32.69190
_cell_length_b 32.69190
_cell_length_c 32.69190
_cell_angle_alpha 90.00000
_cell_angle_beta  90.00000
_cell_angle_gamma 90.00000

_symmetry_space_group_name_	'P 1'
_symmetry_space_group_name_H-M	'P 1'

loop_
_symmetry_equiv_pos_as_xyz
  x,y,z

loop_
_atom_site_label
_atom_site_type_symbol
_atom_site_fract_x
_atom_site_fract_y
_atom_site_fract_z
_atom_site_charge
H 	H 	0.30350 0.57530 0.79400 0.09200
H 	H 	0.25790 0.58900 0.79680 0.34000
N 	N 	0.28696 0.61301 0.74533 -0.09800
N 	N 	0.31697 0.61037 0.72260 -0.03700
N 	N 	0.34712 0.60726 0.70014 -0.02800
H 	H 	0.30350 0.07530 0.29400 0.11000
H 	H 	0.25790 0.08900 0.29680 0.34400
N 	N 	0.28696 0.11301 0.24533 -0.09700
N 	N 	0.31697 0.11037 0.22260 -0.03800
N 	N 	0.34712 0.10726 0.20014 -0.03300
H 	H 	0.80350 0.57530 0.29400 0.12700
H 	H 	0.75790 0.58900 0.29680 0.34400
N 	N 	0.78696 0.61301 0.24533 -0.09600
N 	N 	0.81697 0.61037 0.22260 -0.03600
N 	N 	0.84712 0.60726 0.20014 -0.02500
H 	H 	0.80350 0.07530 0.79400 0.11300
H 	H 	0.75790 0.08900 0.79680 0.34800
N 	N 	0.78696 0.11301 0.74533 -0.09700
N 	N 	0.81697 0.11037 0.72260 -0.03700
N 	N 	0.84712 0.10726 0.70014 -0.02700
H 	H 	0.69650 0.42470 0.79400 0.08700
H 	H 	0.74210 0.41100 0.79680 0.33900
N 	N 	0.71304 0.38699 0.74533 -0.09900
N 	N 	0.68303 0.38963 0.72260 -0.03800
N 	N 	0.65288 0.39274 0.70014 -0.02900
H 	H 	0.69650 0.92470 0.29400 0.11800
H 	H 	0.74210 0.91100 0.29680 0.36500
N 	N 	0.71304 0.88699 0.24533 -0.10100
N 	N 	0.68303 0.88963 0.22260 -0.03700
N 	N 	0.65288 0.89274 0.20014 -0.02300
H 	H 	0.19650 0.42470 0.29400 0.09900
H 	H 	0.24210 0.41100 0.29680 0.33800
N 	N 	0.21304 0.38699 0.24533 -0.09800
N 	N 	0.18303 0.38963 0.22260 -0.03800
N 	N 	0.15288 0.39274 0.20014 -0.03300
H 	H 	0.19650 0.92470 0.79400 0.10000
H 	H 	0.24210 0.91100 0.79680 0.36400
N 	N 	0.21304 0.88699 0.74533 -0.10100
N 	N 	0.18303 0.88963 0.72260 -0.03600
N 	N 	0.15288 0.89274 0.70014 -0.02300
H 	H 	0.69650 0.57530 0.20600 0.10900
H 	H 	0.74210 0.58900 0.20320 0.33900
N 	N 	0.71304 0.61301 0.25467 -0.09800
N 	N 	0.68303 0.61037 0.27740 -0.03800
N 	N 	0.65288 0.60726 0.29986 -0.02900
H 	H 	0.69650 0.07530 0.70600 0.10900
H 	H 	0.74210 0.08900 0.70320 0.34400
N 	N 	0.71304 0.11301 0.75467 -0.09800
N 	N 	0.68303 0.11037 0.77740 -0.03900
N 	N 	0.65288 0.10726 0.79986 -0.03000
H 	H 	0.19650 0.57530 0.70600 0.10500
H 	H 	0.24210 0.58900 0.70320 0.33900
N 	N 	0.21304 0.61301 0.75467 -0.09800
N 	N 	0.18303 0.61037 0.77740 -0.03800
N 	N 	0.15288 0.60726 0.79986 -0.02900
H 	H 	0.19650 0.07530 0.20600 0.10900
H 	H 	0.24210 0.08900 0.20320 0.34300
N 	N 	0.21304 0.11301 0.25467 -0.09800
N 	N 	0.18303 0.11037 0.27740 -0.03900
N 	N 	0.15288 0.10726 0.29986 -0.03500
H 	H 	0.30350 0.42470 0.20600 0.11400
H 	H 	0.25790 0.41100 0.20320 0.33900
N 	N 	0.28696 0.38699 0.25467 -0.09800
N 	N 	0.31697 0.38963 0.27740 -0.03800
N 	N 	0.34712 0.39274 0.29986 -0.02900
H 	H 	0.30350 0.92470 0.70600 0.12800
H 	H 	0.25790 0.91100 0.70320 0.36600
N 	N 	0.28696 0.88699 0.75467 -0.10100
N 	N 	0.31697 0.88963 0.77740 -0.03600
N 	N 	0.34712 0.89274 0.79986 -0.01900
H 	H 	0.80350 0.42470 0.70600 0.13100
H 	H 	0.75790 0.41100 0.70320 0.34300
N 	N 	0.78696 0.38699 0.75467 -0.09700
N 	N 	0.81697 0.38963 0.77740 -0.03700
N 	N 	0.84712 0.39274 0.79986 -0.02200
H 	H 	0.80350 0.92470 0.20600 0.14900
H 	H 	0.75790 0.91100 0.20320 0.36900
N 	N 	0.78696 0.88699 0.25467 -0.10000
N 	N 	0.81697 0.88963 0.27740 -0.03600
N 	N 	0.84712 0.89274 0.29986 -0.01700
H 	H 	0.79400 0.30350 0.57530 0.09100
H 	H 	0.79680 0.25790 0.58900 0.33900
N 	N 	0.74533 0.28696 0.61301 -0.09900
N 	N 	0.72260 0.31697 0.61037 -0.03800
N 	N 	0.70014 0.34712 0.60726 -0.02900
H 	H 	0.79400 0.80350 0.07530 0.11200
H 	H 	0.79680 0.75790 0.08900 0.34700
N 	N 	0.74533 0.78696 0.11301 -0.09800
N 	N 	0.72260 0.81697 0.11037 -0.03800
N 	N 	0.70014 0.84712 0.10726 -0.02800
H 	H 	0.29400 0.30350 0.07530 0.10900
H 	H 	0.29680 0.25790 0.08900 0.34300
N 	N 	0.24533 0.28696 0.11301 -0.09800
N 	N 	0.22260 0.31697 0.11037 -0.03900
N 	N 	0.20014 0.34712 0.10726 -0.03400
H 	H 	0.29400 0.80350 0.57530 0.12600
H 	H 	0.29680 0.75790 0.58900 0.34300
N 	N 	0.24533 0.78696 0.61301 -0.09700
N 	N 	0.22260 0.81697 0.61037 -0.03700
N 	N 	0.20014 0.84712 0.60726 -0.02600
H 	H 	0.79400 0.69650 0.42470 0.08600
H 	H 	0.79680 0.74210 0.41100 0.33900
N 	N 	0.74533 0.71304 0.38699 -0.09900
N 	N 	0.72260 0.68303 0.38963 -0.03800
N 	N 	0.70014 0.65288 0.39274 -0.02900
H 	H 	0.79400 0.19650 0.92470 0.10000
H 	H 	0.79680 0.24210 0.91100 0.36400
N 	N 	0.74533 0.21304 0.88699 -0.10100
N 	N 	0.72260 0.18303 0.88963 -0.03600
N 	N 	0.70014 0.15288 0.89274 -0.02300
H 	H 	0.29400 0.69650 0.92470 0.11800
H 	H 	0.29680 0.74210 0.91100 0.36500
N 	N 	0.24533 0.71304 0.88699 -0.10100
N 	N 	0.22260 0.68303 0.88963 -0.03700
N 	N 	0.20014 0.65288 0.89274 -0.02300
H 	H 	0.29400 0.19650 0.42470 0.09900
H 	H 	0.29680 0.24210 0.41100 0.33800
N 	N 	0.24533 0.21304 0.38699 -0.09800
N 	N 	0.22260 0.18303 0.38963 -0.03800
N 	N 	0.20014 0.15288 0.39274 -0.03300
H 	H 	0.20600 0.69650 0.57530 0.10900
H 	H 	0.20320 0.74210 0.58900 0.33900
N 	N 	0.25467 0.71304 0.61301 -0.09800
N 	N 	0.27740 0.68303 0.61037 -0.03800
N 	N 	0.29986 0.65288 0.60726 -0.02900
H 	H 	0.20600 0.19650 0.07530 0.10900
H 	H 	0.20320 0.24210 0.08900 0.34300
N 	N 	0.25467 0.21304 0.11301 -0.09800
N 	N 	0.27740 0.18303 0.11037 -0.03900
N 	N 	0.29986 0.15288 0.10726 -0.03500
H 	H 	0.70600 0.69650 0.07530 0.10900
H 	H 	0.70320 0.74210 0.08900 0.34400
N 	N 	0.75467 0.71304 0.11301 -0.09800
N 	N 	0.77740 0.68303 0.11037 -0.03900
N 	N 	0.79986 0.65288 0.10726 -0.03000
H 	H 	0.70600 0.19650 0.57530 0.10500
H 	H 	0.70320 0.24210 0.58900 0.33900
N 	N 	0.75467 0.21304 0.61301 -0.09800
N 	N 	0.77740 0.18303 0.61037 -0.03800
N 	N 	0.79986 0.15288 0.60726 -0.02900
H 	H 	0.20600 0.30350 0.42470 0.11400
H 	H 	0.20320 0.25790 0.41100 0.33900
N 	N 	0.25467 0.28696 0.38699 -0.09800
N 	N 	0.27740 0.31697 0.38963 -0.03800
N 	N 	0.29986 0.34712 0.39274 -0.02900
H 	H 	0.20600 0.80350 0.92470 0.14900
H 	H 	0.20320 0.75790 0.91100 0.36900
N 	N 	0.25467 0.78696 0.88699 -0.10000
N 	N 	0.27740 0.81697 0.88963 -0.03600
N 	N 	0.29986 0.84712 0.89274 -0.01700
H 	H 	0.70600 0.30350 0.92470 0.12800
H 	H 	0.70320 0.25790 0.91100 0.36600
N 	N 	0.75467 0.28696 0.88699 -0.10100
N 	N 	0.77740 0.31697 0.88963 -0.03600
N 	N 	0.79986 0.34712 0.89274 -0.01900
H 	H 	0.70600 0.80350 0.42470 0.13100
H 	H 	0.70320 0.75790 0.41100 0.34300
N 	N 	0.75467 0.78696 0.38699 -0.09700
N 	N 	0.77740 0.81697 0.38963 -0.03700
N 	N 	0.79986 0.84712 0.39274 -0.02200
H 	H 	0.57530 0.79400 0.30350 0.09100
H 	H 	0.58900 0.79680 0.25790 0.33900
N 	N 	0.61301 0.74533 0.28696 -0.09900
N 	N 	0.61037 0.72260 0.31697 -0.03800
N 	N 	0.60726 0.70014 0.34712 -0.02900
H 	H 	0.57530 0.29400 0.80350 0.12600
H 	H 	0.58900 0.29680 0.75790 0.34300
N 	N 	0.61301 0.24533 0.78696 -0.09700
N 	N 	0.61037 0.22260 0.81697 -0.03700
N 	N 	0.60726 0.20014 0.84712 -0.02600
H 	H 	0.07530 0.79400 0.80350 0.11200
H 	H 	0.08900 0.79680 0.75790 0.34700
N 	N 	0.11301 0.74533 0.78696 -0.09800
N 	N 	0.11037 0.72260 0.81697 -0.03800
N 	N 	0.10726 0.70014 0.84712 -0.02800
H 	H 	0.07530 0.29400 0.30350 0.10900
H 	H 	0.08900 0.29680 0.25790 0.34300
N 	N 	0.11301 0.24533 0.28696 -0.09800
N 	N 	0.11037 0.22260 0.31697 -0.03900
N 	N 	0.10726 0.20014 0.34712 -0.03400
H 	H 	0.42470 0.79400 0.69650 0.08600
H 	H 	0.41100 0.79680 0.74210 0.33900
N 	N 	0.38699 0.74533 0.71304 -0.09900
N 	N 	0.38963 0.72260 0.68303 -0.03800
N 	N 	0.39274 0.70014 0.65288 -0.02900
H 	H 	0.42470 0.29400 0.19650 0.09900
H 	H 	0.41100 0.29680 0.24210 0.33800
N 	N 	0.38699 0.24533 0.21304 -0.09800
N 	N 	0.38963 0.22260 0.18303 -0.03800
N 	N 	0.39274 0.20014 0.15288 -0.03300
H 	H 	0.92470 0.79400 0.19650 0.10000
H 	H 	0.91100 0.79680 0.24210 0.36400
N 	N 	0.88699 0.74533 0.21304 -0.10100
N 	N 	0.88963 0.72260 0.18303 -0.03600
N 	N 	0.89274 0.70014 0.15288 -0.02300
H 	H 	0.92470 0.29400 0.69650 0.11800
H 	H 	0.91100 0.29680 0.74210 0.36500
N 	N 	0.88699 0.24533 0.71304 -0.10100
N 	N 	0.88963 0.22260 0.68303 -0.03700
N 	N 	0.89274 0.20014 0.65288 -0.02300
H 	H 	0.57530 0.20600 0.69650 0.10900
H 	H 	0.58900 0.20320 0.74210 0.33900
N 	N 	0.61301 0.25467 0.71304 -0.09800
N 	N 	0.61037 0.27740 0.68303 -0.03800
N 	N 	0.60726 0.29986 0.65288 -0.02900
H 	H 	0.57530 0.70600 0.19650 0.10500
H 	H 	0.58900 0.70320 0.24210 0.33900
N 	N 	0.61301 0.75467 0.21304 -0.09800
N 	N 	0.61037 0.77740 0.18303 -0.03800
N 	N 	0.60726 0.79986 0.15288 -0.02900
H 	H 	0.07530 0.20600 0.19650 0.10900
H 	H 	0.08900 0.20320 0.24210 0.34300
N 	N 	0.11301 0.25467 0.21304 -0.09800
N 	N 	0.11037 0.27740 0.18303 -0.03900
N 	N 	0.10726 0.29986 0.15288 -0.03500
H 	H 	0.07530 0.70600 0.69650 0.10900
H 	H 	0.08900 0.70320 0.74210 0.34400
N 	N 	0.11301 0.75467 0.71304 -0.09800
N 	N 	0.11037 0.77740 0.68303 -0.03900
N 	N 	0.10726 0.79986 0.65288 -0.03000
H 	H 	0.42470 0.20600 0.30350 0.11400
H 	H 	0.41100 0.20320 0.25790 0.33900
N 	N 	0.38699 0.25467 0.28696 -0.09800
N 	N 	0.38963 0.27740 0.31697 -0.03800
N 	N 	0.39274 0.29986 0.34712 -0.02900
H 	H 	0.42470 0.70600 0.80350 0.13100
H 	H 	0.41100 0.70320 0.75790 0.34300
N 	N 	0.38699 0.75467 0.78696 -0.09700
N 	N 	0.38963 0.77740 0.81697 -0.03700
N 	N 	0.39274 0.79986 0.84712 -0.02200
H 	H 	0.92470 0.20600 0.80350 0.14900
H 	H 	0.91100 0.20320 0.75790 0.36900
N 	N 	0.88699 0.25467 0.78696 -0.10000
N 	N 	0.88963 0.27740 0.81697 -0.03600
N 	N 	0.89274 0.29986 0.84712 -0.01700
H 	H 	0.92470 0.70600 0.30350 0.12800
H 	H 	0.91100 0.70320 0.25790 0.36600
N 	N 	0.88699 0.75467 0.28696 -0.10100
N 	N 	0.88963 0.77740 0.31697 -0.03600
N 	N 	0.89274 0.79986 0.34712 -0.01900
H 	H 	0.57530 0.30350 0.20600 0.11400
H 	H 	0.58900 0.25790 0.20320 0.33900
N 	N 	0.61301 0.28696 0.25467 -0.09800
N 	N 	0.61037 0.31697 0.27740 -0.03800
N 	N 	0.60726 0.34712 0.29986 -0.02900
H 	H 	0.57530 0.80350 0.70600 0.13100
H 	H 	0.58900 0.75790 0.70320 0.34300
N 	N 	0.61301 0.78696 0.75467 -0.09700
N 	N 	0.61037 0.81697 0.77740 -0.03700
N 	N 	0.60726 0.84712 0.79986 -0.02200
H 	H 	0.07530 0.30350 0.70600 0.11500
H 	H 	0.08900 0.25790 0.70320 0.34400
N 	N 	0.11301 0.28696 0.75467 -0.09800
N 	N 	0.11037 0.31697 0.77740 -0.03900
N 	N 	0.10726 0.34712 0.79986 -0.03000
H 	H 	0.07530 0.80350 0.20600 0.13500
H 	H 	0.08900 0.75790 0.20320 0.34700
N 	N 	0.11301 0.78696 0.25467 -0.09800
N 	N 	0.11037 0.81697 0.27740 -0.03800
N 	N 	0.10726 0.84712 0.29986 -0.02800
H 	H 	0.42470 0.69650 0.20600 0.10900
H 	H 	0.41100 0.74210 0.20320 0.33900
N 	N 	0.38699 0.71304 0.25467 -0.09800
N 	N 	0.38963 0.68303 0.27740 -0.03800
N 	N 	0.39274 0.65288 0.29986 -0.02900
H 	H 	0.42470 0.19650 0.70600 0.10500
H 	H 	0.41100 0.24210 0.70320 0.33900
N 	N 	0.38699 0.21304 0.75467 -0.09800
N 	N 	0.38963 0.18303 0.77740 -0.03800
N 	N 	0.39274 0.15288 0.79986 -0.02900
H 	H 	0.92470 0.69650 0.70600 0.12300
H 	H 	0.91100 0.74210 0.70320 0.36600
N 	N 	0.88699 0.71304 0.75467 -0.10100
N 	N 	0.88963 0.68303 0.77740 -0.03600
N 	N 	0.89274 0.65288 0.79986 -0.01900
H 	H 	0.92470 0.19650 0.20600 0.12300
H 	H 	0.91100 0.24210 0.20320 0.36500
N 	N 	0.88699 0.21304 0.25467 -0.10100
N 	N 	0.88963 0.18303 0.27740 -0.03700
N 	N 	0.89274 0.15288 0.29986 -0.02300
H 	H 	0.57530 0.69650 0.79400 0.08600
H 	H 	0.58900 0.74210 0.79680 0.33900
N 	N 	0.61301 0.71304 0.74533 -0.09900
N 	N 	0.61037 0.68303 0.72260 -0.03800
N 	N 	0.60726 0.65288 0.70014 -0.02900
H 	H 	0.57530 0.19650 0.29400 0.09900
H 	H 	0.58900 0.24210 0.29680 0.33800
N 	N 	0.61301 0.21304 0.24533 -0.09800
N 	N 	0.61037 0.18303 0.22260 -0.03800
N 	N 	0.60726 0.15288 0.20014 -0.03300
H 	H 	0.07530 0.69650 0.29400 0.10400
H 	H 	0.08900 0.74210 0.29680 0.34300
N 	N 	0.11301 0.71304 0.24533 -0.09900
N 	N 	0.11037 0.68303 0.22260 -0.03900
N 	N 	0.10726 0.65288 0.20014 -0.03400
H 	H 	0.07530 0.19650 0.79400 0.08500
H 	H 	0.08900 0.24210 0.79680 0.34200
N 	N 	0.11301 0.21304 0.74533 -0.09900
N 	N 	0.11037 0.18303 0.72260 -0.03900
N 	N 	0.10726 0.15288 0.70014 -0.03500
H 	H 	0.42470 0.30350 0.79400 0.09100
H 	H 	0.41100 0.25790 0.79680 0.33900
N 	N 	0.38699 0.28696 0.74533 -0.09900
N 	N 	0.38963 0.31697 0.72260 -0.03800
N 	N 	0.39274 0.34712 0.70014 -0.02900
H 	H 	0.42470 0.80350 0.29400 0.12600
H 	H 	0.41100 0.75790 0.29680 0.34300
N 	N 	0.38699 0.78696 0.24533 -0.09700
N 	N 	0.38963 0.81697 0.22260 -0.03700
N 	N 	0.39274 0.84712 0.20014 -0.02600
H 	H 	0.92470 0.30350 0.29400 0.12300
H 	H 	0.91100 0.25790 0.29680 0.36500
N 	N 	0.88699 0.28696 0.24533 -0.10100
N 	N 	0.88963 0.31697 0.22260 -0.03700
N 	N 	0.89274 0.34712 0.20014 -0.02200
H 	H 	0.92470 0.80350 0.79400 0.12500
H 	H 	0.91100 0.75790 0.79680 0.36900
N 	N 	0.88699 0.78696 0.74533 -0.10100
N 	N 	0.88963 0.81697 0.72260 -0.03600
N 	N 	0.89274 0.84712 0.70014 -0.01700
H 	H 	0.30350 0.79400 0.42470 0.09100
H 	H 	0.25790 0.79680 0.41100 0.33900
N 	N 	0.28696 0.74533 0.38699 -0.09900
N 	N 	0.31697 0.72260 0.38963 -0.03800
N 	N 	0.34712 0.70014 0.39274 -0.02900
H 	H 	0.30350 0.29400 0.92470 0.12300
H 	H 	0.25790 0.29680 0.91100 0.36500
N 	N 	0.28696 0.24533 0.88699 -0.10100
N 	N 	0.31697 0.22260 0.88963 -0.03700
N 	N 	0.34712 0.20014 0.89274 -0.02200
H 	H 	0.80350 0.79400 0.92470 0.12500
H 	H 	0.75790 0.79680 0.91100 0.36900
N 	N 	0.78696 0.74533 0.88699 -0.10100
N 	N 	0.81697 0.72260 0.88963 -0.03600
N 	N 	0.84712 0.70014 0.89274 -0.01700
H 	H 	0.80350 0.29400 0.42470 0.12600
H 	H 	0.75790 0.29680 0.41100 0.34300
N 	N 	0.78696 0.24533 0.38699 -0.09700
N 	N 	0.81697 0.22260 0.38963 -0.03700
N 	N 	0.84712 0.20014 0.39274 -0.02600
H 	H 	0.69650 0.79400 0.57530 0.08600
H 	H 	0.74210 0.79680 0.58900 0.33900
N 	N 	0.71304 0.74533 0.61301 -0.09900
N 	N 	0.68303 0.72260 0.61037 -0.03800
N 	N 	0.65288 0.70014 0.60726 -0.02900
H 	H 	0.69650 0.29400 0.07530 0.10400
H 	H 	0.74210 0.29680 0.08900 0.34300
N 	N 	0.71304 0.24533 0.11301 -0.09900
N 	N 	0.68303 0.22260 0.11037 -0.03900
N 	N 	0.65288 0.20014 0.10726 -0.03400
H 	H 	0.19650 0.79400 0.07530 0.08500
H 	H 	0.24210 0.79680 0.08900 0.34200
N 	N 	0.21304 0.74533 0.11301 -0.09900
N 	N 	0.18303 0.72260 0.11037 -0.03900
N 	N 	0.15288 0.70014 0.10726 -0.03500
H 	H 	0.19650 0.29400 0.57530 0.09900
H 	H 	0.24210 0.29680 0.58900 0.33800
N 	N 	0.21304 0.24533 0.61301 -0.09800
N 	N 	0.18303 0.22260 0.61037 -0.03800
N 	N 	0.15288 0.20014 0.60726 -0.03300
H 	H 	0.69650 0.20600 0.42470 0.10900
H 	H 	0.74210 0.20320 0.41100 0.33900
N 	N 	0.71304 0.25467 0.38699 -0.09800
N 	N 	0.68303 0.27740 0.38963 -0.03800
N 	N 	0.65288 0.29986 0.39274 -0.02900
H 	H 	0.69650 0.70600 0.92470 0.12300
H 	H 	0.74210 0.70320 0.91100 0.36600
N 	N 	0.71304 0.75467 0.88699 -0.10100
N 	N 	0.68303 0.77740 0.88963 -0.03600
N 	N 	0.65288 0.79986 0.89274 -0.01900
H 	H 	0.19650 0.20600 0.92470 0.12300
H 	H 	0.24210 0.20320 0.91100 0.36500
N 	N 	0.21304 0.25467 0.88699 -0.10100
N 	N 	0.18303 0.27740 0.88963 -0.03700
N 	N 	0.15288 0.29986 0.89274 -0.02300
H 	H 	0.19650 0.70600 0.42470 0.10500
H 	H 	0.24210 0.70320 0.41100 0.33900
N 	N 	0.21304 0.75467 0.38699 -0.09800
N 	N 	0.18303 0.77740 0.38963 -0.03800
N 	N 	0.15288 0.79986 0.39274 -0.02900
H 	H 	0.30350 0.20600 0.57530 0.11400
H 	H 	0.25790 0.20320 0.58900 0.33900
N 	N 	0.28696 0.25467 0.61301 -0.09800
N 	N 	0.31697 0.27740 0.61037 -0.03800
N 	N 	0.34712 0.29986 0.60726 -0.02900
H 	H 	0.30350 0.70600 0.07530 0.11500
H 	H 	0.25790 0.70320 0.08900 0.34400
N 	N 	0.28696 0.75467 0.11301 -0.09800
N 	N 	0.31697 0.77740 0.11037 -0.03900
N 	N 	0.34712 0.79986 0.10726 -0.03000
H 	H 	0.80350 0.20600 0.07530 0.13500
H 	H 	0.75790 0.20320 0.08900 0.34700
N 	N 	0.78696 0.25467 0.11301 -0.09800
N 	N 	0.81697 0.27740 0.11037 -0.03800
N 	N 	0.84712 0.29986 0.10726 -0.02800
H 	H 	0.80350 0.70600 0.57530 0.13100
H 	H 	0.75790 0.70320 0.58900 0.34300
N 	N 	0.78696 0.75467 0.61301 -0.09700
N 	N 	0.81697 0.77740 0.61037 -0.03700
N 	N 	0.84712 0.79986 0.60726 -0.02200
H 	H 	0.79400 0.57530 0.69650 0.08600
H 	H 	0.79680 0.58900 0.74210 0.33900
N 	N 	0.74533 0.61301 0.71304 -0.09900
N 	N 	0.72260 0.61037 0.68303 -0.03800
N 	N 	0.70014 0.60726 0.65288 -0.02900
H 	H 	0.79400 0.07530 0.19650 0.08500
H 	H 	0.79680 0.08900 0.24210 0.34200
N 	N 	0.74533 0.11301 0.21304 -0.09900
N 	N 	0.72260 0.11037 0.18303 -0.03900
N 	N 	0.70014 0.10726 0.15288 -0.03500
H 	H 	0.29400 0.57530 0.19650 0.09900
H 	H 	0.29680 0.58900 0.24210 0.33800
N 	N 	0.24533 0.61301 0.21304 -0.09800
N 	N 	0.22260 0.61037 0.18303 -0.03800
N 	N 	0.20014 0.60726 0.15288 -0.03300
H 	H 	0.29400 0.07530 0.69650 0.10400
H 	H 	0.29680 0.08900 0.74210 0.34300
N 	N 	0.24533 0.11301 0.71304 -0.09900
N 	N 	0.22260 0.11037 0.68303 -0.03900
N 	N 	0.20014 0.10726 0.65288 -0.03400
H 	H 	0.79400 0.42470 0.30350 0.09100
H 	H 	0.79680 0.41100 0.25790 0.33900
N 	N 	0.74533 0.38699 0.28696 -0.09900
N 	N 	0.72260 0.38963 0.31697 -0.03800
N 	N 	0.70014 0.39274 0.34712 -0.02900
H 	H 	0.79400 0.92470 0.80350 0.12500
H 	H 	0.79680 0.91100 0.75790 0.36900
N 	N 	0.74533 0.88699 0.78696 -0.10100
N 	N 	0.72260 0.88963 0.81697 -0.03600
N 	N 	0.70014 0.89274 0.84712 -0.01700
H 	H 	0.29400 0.42470 0.80350 0.12600
H 	H 	0.29680 0.41100 0.75790 0.34300
N 	N 	0.24533 0.38699 0.78696 -0.09700
N 	N 	0.22260 0.38963 0.81697 -0.03700
N 	N 	0.20014 0.39274 0.84712 -0.02600
H 	H 	0.29400 0.92470 0.30350 0.12300
H 	H 	0.29680 0.91100 0.25790 0.36500
N 	N 	0.24533 0.88699 0.28696 -0.10100
N 	N 	0.22260 0.88963 0.31697 -0.03700
N 	N 	0.20014 0.89274 0.34712 -0.02200
H 	H 	0.20600 0.57530 0.30350 0.11400
H 	H 	0.20320 0.58900 0.25790 0.33900
N 	N 	0.25467 0.61301 0.28696 -0.09800
N 	N 	0.27740 0.61037 0.31697 -0.03800
N 	N 	0.29986 0.60726 0.34712 -0.02900
H 	H 	0.20600 0.07530 0.80350 0.13500
H 	H 	0.20320 0.08900 0.75790 0.34700
N 	N 	0.25467 0.11301 0.78696 -0.09800
N 	N 	0.27740 0.11037 0.81697 -0.03800
N 	N 	0.29986 0.10726 0.84712 -0.02800
H 	H 	0.70600 0.57530 0.80350 0.13100
H 	H 	0.70320 0.58900 0.75790 0.34300
N 	N 	0.75467 0.61301 0.78696 -0.09700
N 	N 	0.77740 0.61037 0.81697 -0.03700
N 	N 	0.79986 0.60726 0.84712 -0.02200
H 	H 	0.70600 0.07530 0.30350 0.11500
H 	H 	0.70320 0.08900 0.25790 0.34400
N 	N 	0.75467 0.11301 0.28696 -0.09800
N 	N 	0.77740 0.11037 0.31697 -0.03900
N 	N 	0.79986 0.10726 0.34712 -0.03000
H 	H 	0.20600 0.42470 0.69650 0.10900
H 	H 	0.20320 0.41100 0.74210 0.33900
N 	N 	0.25467 0.38699 0.71304 -0.09800
N 	N 	0.27740 0.38963 0.68303 -0.03800
N 	N 	0.29986 0.39274 0.65288 -0.02900
H 	H 	0.20600 0.92470 0.19650 0.12300
H 	H 	0.20320 0.91100 0.24210 0.36500
N 	N 	0.25467 0.88699 0.21304 -0.10100
N 	N 	0.27740 0.88963 0.18303 -0.03700
N 	N 	0.29986 0.89274 0.15288 -0.02300
H 	H 	0.70600 0.42470 0.19650 0.10500
H 	H 	0.70320 0.41100 0.24210 0.33900
N 	N 	0.75467 0.38699 0.21304 -0.09800
N 	N 	0.77740 0.38963 0.18303 -0.03800
N 	N 	0.79986 0.39274 0.15288 -0.02900
H 	H 	0.70600 0.92470 0.69650 0.12300
H 	H 	0.70320 0.91100 0.74210 0.36600
N 	N 	0.75467 0.88699 0.71304 -0.10100
N 	N 	0.77740 0.88963 0.68303 -0.03600
N 	N 	0.79986 0.89274 0.65288 -0.01900
H 	H 	0.69650 0.42470 0.20600 0.10900
H 	H 	0.74210 0.41100 0.20320 0.33900
N 	N 	0.71304 0.38699 0.25467 -0.09800
N 	N 	0.68303 0.38963 0.27740 -0.03800
N 	N 	0.65288 0.39274 0.29986 -0.02900
H 	H 	0.69650 0.92470 0.70600 0.12300
H 	H 	0.74210 0.91100 0.70320 0.36600
N 	N 	0.71304 0.88699 0.75467 -0.10100
N 	N 	0.68303 0.88963 0.77740 -0.03600
N 	N 	0.65288 0.89274 0.79986 -0.01900
H 	H 	0.19650 0.42470 0.70600 0.10500
H 	H 	0.24210 0.41100 0.70320 0.33900
N 	N 	0.21304 0.38699 0.75467 -0.09800
N 	N 	0.18303 0.38963 0.77740 -0.03800
N 	N 	0.15288 0.39274 0.79986 -0.02900
H 	H 	0.19650 0.92470 0.20600 0.12300
H 	H 	0.24210 0.91100 0.20320 0.36500
N 	N 	0.21304 0.88699 0.25467 -0.10100
N 	N 	0.18303 0.88963 0.27740 -0.03700
N 	N 	0.15288 0.89274 0.29986 -0.02300
H 	H 	0.30350 0.57530 0.20600 0.11400
H 	H 	0.25790 0.58900 0.20320 0.33900
N 	N 	0.28696 0.61301 0.25467 -0.09800
N 	N 	0.31697 0.61037 0.27740 -0.03800
N 	N 	0.34712 0.60726 0.29986 -0.02900
H 	H 	0.30350 0.07530 0.70600 0.11500
H 	H 	0.25790 0.08900 0.70320 0.34400
N 	N 	0.28696 0.11301 0.75467 -0.09800
N 	N 	0.31697 0.11037 0.77740 -0.03900
N 	N 	0.34712 0.10726 0.79986 -0.03000
H 	H 	0.80350 0.57530 0.70600 0.13100
H 	H 	0.75790 0.58900 0.70320 0.34300
N 	N 	0.78696 0.61301 0.75467 -0.09700
N 	N 	0.81697 0.61037 0.77740 -0.03700
N 	N 	0.84712 0.60726 0.79986 -0.02200
H 	H 	0.80350 0.07530 0.20600 0.13500
H 	H 	0.75790 0.08900 0.20320 0.34700
N 	N 	0.78696 0.11301 0.25467 -0.09800
N 	N 	0.81697 0.11037 0.27740 -0.03800
N 	N 	0.84712 0.10726 0.29986 -0.02800
H 	H 	0.30350 0.42470 0.79400 0.09100
H 	H 	0.25790 0.41100 0.79680 0.33900
N 	N 	0.28696 0.38699 0.74533 -0.09900
N 	N 	0.31697 0.38963 0.72260 -0.03800
N 	N 	0.34712 0.39274 0.70014 -0.02900
H 	H 	0.30350 0.92470 0.29400 0.12300
H 	H 	0.25790 0.91100 0.29680 0.36500
N 	N 	0.28696 0.88699 0.24533 -0.10100
N 	N 	0.31697 0.88963 0.22260 -0.03700
N 	N 	0.34712 0.89274 0.20014 -0.02200
H 	H 	0.80350 0.42470 0.29400 0.12600
H 	H 	0.75790 0.41100 0.29680 0.34300
N 	N 	0.78696 0.38699 0.24533 -0.09700
N 	N 	0.81697 0.38963 0.22260 -0.03700
N 	N 	0.84712 0.39274 0.20014 -0.02600
H 	H 	0.80350 0.92470 0.79400 0.12500
H 	H 	0.75790 0.91100 0.79680 0.36900
N 	N 	0.78696 0.88699 0.74533 -0.10100
N 	N 	0.81697 0.88963 0.72260 -0.03600
N 	N 	0.84712 0.89274 0.70014 -0.01700
H 	H 	0.69650 0.57530 0.79400 0.08600
H 	H 	0.74210 0.58900 0.79680 0.33900
N 	N 	0.71304 0.61301 0.74533 -0.09900
N 	N 	0.68303 0.61037 0.72260 -0.03800
N 	N 	0.65288 0.60726 0.70014 -0.02900
H 	H 	0.69650 0.07530 0.29400 0.10400
H 	H 	0.74210 0.08900 0.29680 0.34300
N 	N 	0.71304 0.11301 0.24533 -0.09900
N 	N 	0.68303 0.11037 0.22260 -0.03900
N 	N 	0.65288 0.10726 0.20014 -0.03400
H 	H 	0.19650 0.57530 0.29400 0.09900
H 	H 	0.24210 0.58900 0.29680 0.33800
N 	N 	0.21304 0.61301 0.24533 -0.09800
N 	N 	0.18303 0.61037 0.22260 -0.03800
N 	N 	0.15288 0.60726 0.20014 -0.03300
H 	H 	0.19650 0.07530 0.79400 0.08500
H 	H 	0.24210 0.08900 0.79680 0.34200
N 	N 	0.21304 0.11301 0.74533 -0.09900
N 	N 	0.18303 0.11037 0.72260 -0.03900
N 	N 	0.15288 0.10726 0.70014 -0.03500
H 	H 	0.20600 0.69650 0.42470 0.10900
H 	H 	0.20320 0.74210 0.41100 0.33900
N 	N 	0.25467 0.71304 0.38699 -0.09800
N 	N 	0.27740 0.68303 0.38963 -0.03800
N 	N 	0.29986 0.65288 0.39274 -0.02900
H 	H 	0.20600 0.19650 0.92470 0.12300
H 	H 	0.20320 0.24210 0.91100 0.36500
N 	N 	0.25467 0.21304 0.88699 -0.10100
N 	N 	0.27740 0.18303 0.88963 -0.03700
N 	N 	0.29986 0.15288 0.89274 -0.02300
H 	H 	0.70600 0.69650 0.92470 0.12300
H 	H 	0.70320 0.74210 0.91100 0.36600
N 	N 	0.75467 0.71304 0.88699 -0.10100
N 	N 	0.77740 0.68303 0.88963 -0.03600
N 	N 	0.79986 0.65288 0.89274 -0.01900
H 	H 	0.70600 0.19650 0.42470 0.10500
H 	H 	0.70320 0.24210 0.41100 0.33900
N 	N 	0.75467 0.21304 0.38699 -0.09800
N 	N 	0.77740 0.18303 0.38963 -0.03800
N 	N 	0.79986 0.15288 0.39274 -0.02900
H 	H 	0.20600 0.30350 0.57530 0.11400
H 	H 	0.20320 0.25790 0.58900 0.33900
N 	N 	0.25467 0.28696 0.61301 -0.09800
N 	N 	0.27740 0.31697 0.61037 -0.03800
N 	N 	0.29986 0.34712 0.60726 -0.02900
H 	H 	0.20600 0.80350 0.07530 0.13500
H 	H 	0.20320 0.75790 0.08900 0.34700
N 	N 	0.25467 0.78696 0.11301 -0.09800
N 	N 	0.27740 0.81697 0.11037 -0.03800
N 	N 	0.29986 0.84712 0.10726 -0.02800
H 	H 	0.70600 0.30350 0.07530 0.11500
H 	H 	0.70320 0.25790 0.08900 0.34400
N 	N 	0.75467 0.28696 0.11301 -0.09800
N 	N 	0.77740 0.31697 0.11037 -0.03900
N 	N 	0.79986 0.34712 0.10726 -0.03000
H 	H 	0.70600 0.80350 0.57530 0.13100
H 	H 	0.70320 0.75790 0.58900 0.34300
N 	N 	0.75467 0.78696 0.61301 -0.09700
N 	N 	0.77740 0.81697 0.61037 -0.03700
N 	N 	0.79986 0.84712 0.60726 -0.02200
H 	H 	0.79400 0.30350 0.42470 0.09100
H 	H 	0.79680 0.25790 0.41100 0.33900
N 	N 	0.74533 0.28696 0.38699 -0.09900
N 	N 	0.72260 0.31697 0.38963 -0.03800
N 	N 	0.70014 0.34712 0.39274 -0.02900
H 	H 	0.79400 0.80350 0.92470 0.12500
H 	H 	0.79680 0.75790 0.91100 0.36900
N 	N 	0.74533 0.78696 0.88699 -0.10100
N 	N 	0.72260 0.81697 0.88963 -0.03600
N 	N 	0.70014 0.84712 0.89274 -0.01700
H 	H 	0.29400 0.30350 0.92470 0.12300
H 	H 	0.29680 0.25790 0.91100 0.36500
N 	N 	0.24533 0.28696 0.88699 -0.10100
N 	N 	0.22260 0.31697 0.88963 -0.03700
N 	N 	0.20014 0.34712 0.89274 -0.02200
H 	H 	0.29400 0.80350 0.42470 0.12600
H 	H 	0.29680 0.75790 0.41100 0.34300
N 	N 	0.24533 0.78696 0.38699 -0.09700
N 	N 	0.22260 0.81697 0.38963 -0.03700
N 	N 	0.20014 0.84712 0.39274 -0.02600
H 	H 	0.79400 0.69650 0.57530 0.08600
H 	H 	0.79680 0.74210 0.58900 0.33900
N 	N 	0.74533 0.71304 0.61301 -0.09900
N 	N 	0.72260 0.68303 0.61037 -0.03800
N 	N 	0.70014 0.65288 0.60726 -0.02900
H 	H 	0.79400 0.19650 0.07530 0.08500
H 	H 	0.79680 0.24210 0.08900 0.34200
N 	N 	0.74533 0.21304 0.11301 -0.09900
N 	N 	0.72260 0.18303 0.11037 -0.03900
N 	N 	0.70014 0.15288 0.10726 -0.03500
H 	H 	0.29400 0.69650 0.07530 0.10400
H 	H 	0.29680 0.74210 0.08900 0.34300
N 	N 	0.24533 0.71304 0.11301 -0.09900
N 	N 	0.22260 0.68303 0.11037 -0.03900
N 	N 	0.20014 0.65288 0.10726 -0.03400
H 	H 	0.29400 0.19650 0.57530 0.09900
H 	H 	0.29680 0.24210 0.58900 0.33800
N 	N 	0.24533 0.21304 0.61301 -0.09800
N 	N 	0.22260 0.18303 0.61037 -0.03800
N 	N 	0.20014 0.15288 0.60726 -0.03300
H 	H 	0.42470 0.20600 0.69650 0.10900
H 	H 	0.41100 0.20320 0.74210 0.33900
N 	N 	0.38699 0.25467 0.71304 -0.09800
N 	N 	0.38963 0.27740 0.68303 -0.03800
N 	N 	0.39274 0.29986 0.65288 -0.02900
H 	H 	0.42470 0.70600 0.19650 0.10500
H 	H 	0.41100 0.70320 0.24210 0.33900
N 	N 	0.38699 0.75467 0.21304 -0.09800
N 	N 	0.38963 0.77740 0.18303 -0.03800
N 	N 	0.39274 0.79986 0.15288 -0.02900
H 	H 	0.92470 0.20600 0.19650 0.12300
H 	H 	0.91100 0.20320 0.24210 0.36500
N 	N 	0.88699 0.25467 0.21304 -0.10100
N 	N 	0.88963 0.27740 0.18303 -0.03700
N 	N 	0.89274 0.29986 0.15288 -0.02300
H 	H 	0.92470 0.70600 0.69650 0.12300
H 	H 	0.91100 0.70320 0.74210 0.36600
N 	N 	0.88699 0.75467 0.71304 -0.10100
N 	N 	0.88963 0.77740 0.68303 -0.03600
N 	N 	0.89274 0.79986 0.65288 -0.01900
H 	H 	0.57530 0.20600 0.30350 0.11400
H 	H 	0.58900 0.20320 0.25790 0.33900
N 	N 	0.61301 0.25467 0.28696 -0.09800
N 	N 	0.61037 0.27740 0.31697 -0.03800
N 	N 	0.60726 0.29986 0.34712 -0.02900
H 	H 	0.57530 0.70600 0.80350 0.13100
H 	H 	0.58900 0.70320 0.75790 0.34300
N 	N 	0.61301 0.75467 0.78696 -0.09700
N 	N 	0.61037 0.77740 0.81697 -0.03700
N 	N 	0.60726 0.79986 0.84712 -0.02200
H 	H 	0.07530 0.20600 0.80350 0.13500
H 	H 	0.08900 0.20320 0.75790 0.34700
N 	N 	0.11301 0.25467 0.78696 -0.09800
N 	N 	0.11037 0.27740 0.81697 -0.03800
N 	N 	0.10726 0.29986 0.84712 -0.02800
H 	H 	0.07530 0.70600 0.30350 0.11500
H 	H 	0.08900 0.70320 0.25790 0.34400
N 	N 	0.11301 0.75467 0.28696 -0.09800
N 	N 	0.11037 0.77740 0.31697 -0.03900
N 	N 	0.10726 0.79986 0.34712 -0.03000
H 	H 	0.42470 0.79400 0.30350 0.09100
H 	H 	0.41100 0.79680 0.25790 0.33900
N 	N 	0.38699 0.74533 0.28696 -0.09900
N 	N 	0.38963 0.72260 0.31697 -0.03800
N 	N 	0.39274 0.70014 0.34712 -0.02900
H 	H 	0.42470 0.29400 0.80350 0.12600
H 	H 	0.41100 0.29680 0.75790 0.34300
N 	N 	0.38699 0.24533 0.78696 -0.09700
N 	N 	0.38963 0.22260 0.81697 -0.03700
N 	N 	0.39274 0.20014 0.84712 -0.02600
H 	H 	0.92470 0.79400 0.80350 0.12500
H 	H 	0.91100 0.79680 0.75790 0.36900
N 	N 	0.88699 0.74533 0.78696 -0.10100
N 	N 	0.88963 0.72260 0.81697 -0.03600
N 	N 	0.89274 0.70014 0.84712 -0.01700
H 	H 	0.92470 0.29400 0.30350 0.12300
H 	H 	0.91100 0.29680 0.25790 0.36500
N 	N 	0.88699 0.24533 0.28696 -0.10100
N 	N 	0.88963 0.22260 0.31697 -0.03700
N 	N 	0.89274 0.20014 0.34712 -0.02200
H 	H 	0.57530 0.79400 0.69650 0.08600
H 	H 	0.58900 0.79680 0.74210 0.33900
N 	N 	0.61301 0.74533 0.71304 -0.09900
N 	N 	0.61037 0.72260 0.68303 -0.03800
N 	N 	0.60726 0.70014 0.65288 -0.02900
H 	H 	0.57530 0.29400 0.19650 0.09900
H 	H 	0.58900 0.29680 0.24210 0.33800
N 	N 	0.61301 0.24533 0.21304 -0.09800
N 	N 	0.61037 0.22260 0.18303 -0.03800
N 	N 	0.60726 0.20014 0.15288 -0.03300
H 	H 	0.07530 0.79400 0.19650 0.08500
H 	H 	0.08900 0.79680 0.24210 0.34200
N 	N 	0.11301 0.74533 0.21304 -0.09900
N 	N 	0.11037 0.72260 0.18303 -0.03900
N 	N 	0.10726 0.70014 0.15288 -0.03500
H 	H 	0.07530 0.29400 0.69650 0.10400
H 	H 	0.08900 0.29680 0.74210 0.34300
N 	N 	0.11301 0.24533 0.71304 -0.09900
N 	N 	0.11037 0.22260 0.68303 -0.03900
N 	N 	0.10726 0.20014 0.65288 -0.03400
H 	H 	0.42470 0.69650 0.79400 0.08600
H 	H 	0.41100 0.74210 0.79680 0.33900
N 	N 	0.38699 0.71304 0.74533 -0.09900
N 	N 	0.38963 0.68303 0.72260 -0.03800
N 	N 	0.39274 0.65288 0.70014 -0.02900
H 	H 	0.42470 0.19650 0.29400 0.09900
H 	H 	0.41100 0.24210 0.29680 0.33800
N 	N 	0.38699 0.21304 0.24533 -0.09800
N 	N 	0.38963 0.18303 0.22260 -0.03800
N 	N 	0.39274 0.15288 0.20014 -0.03300
H 	H 	0.92470 0.69650 0.29400 0.11800
H 	H 	0.91100 0.74210 0.29680 0.36500
N 	N 	0.88699 0.71304 0.24533 -0.10100
N 	N 	0.88963 0.68303 0.22260 -0.03700
N 	N 	0.89274 0.65288 0.20014 -0.02300
H 	H 	0.92470 0.19650 0.79400 0.10000
H 	H 	0.91100 0.24210 0.79680 0.36400
N 	N 	0.88699 0.21304 0.74533 -0.10100
N 	N 	0.88963 0.18303 0.72260 -0.03600
N 	N 	0.89274 0.15288 0.70014 -0.02300
H 	H 	0.57530 0.30350 0.79400 0.09100
H 	H 	0.58900 0.25790 0.79680 0.33900
N 	N 	0.61301 0.28696 0.74533 -0.09900
N 	N 	0.61037 0.31697 0.72260 -0.03800
N 	N 	0.60726 0.34712 0.70014 -0.02900
H 	H 	0.57530 0.80350 0.29400 0.12600
H 	H 	0.58900 0.75790 0.29680 0.34300
N 	N 	0.61301 0.78696 0.24533 -0.09700
N 	N 	0.61037 0.81697 0.22260 -0.03700
N 	N 	0.60726 0.84712 0.20014 -0.02600
H 	H 	0.07530 0.30350 0.29400 0.10900
H 	H 	0.08900 0.25790 0.29680 0.34300
N 	N 	0.11301 0.28696 0.24533 -0.09800
N 	N 	0.11037 0.31697 0.22260 -0.03900
N 	N 	0.10726 0.34712 0.20014 -0.03400
H 	H 	0.07530 0.80350 0.79400 0.11200
H 	H 	0.08900 0.75790 0.79680 0.34700
N 	N 	0.11301 0.78696 0.74533 -0.09800
N 	N 	0.11037 0.81697 0.72260 -0.03800
N 	N 	0.10726 0.84712 0.70014 -0.02800
H 	H 	0.42470 0.30350 0.20600 0.11400
H 	H 	0.41100 0.25790 0.20320 0.33900
N 	N 	0.38699 0.28696 0.25467 -0.09800
N 	N 	0.38963 0.31697 0.27740 -0.03800
N 	N 	0.39274 0.34712 0.29986 -0.02900
H 	H 	0.42470 0.80350 0.70600 0.13100
H 	H 	0.41100 0.75790 0.70320 0.34300
N 	N 	0.38699 0.78696 0.75467 -0.09700
N 	N 	0.38963 0.81697 0.77740 -0.03700
N 	N 	0.39274 0.84712 0.79986 -0.02200
H 	H 	0.92470 0.30350 0.70600 0.12800
H 	H 	0.91100 0.25790 0.70320 0.36600
N 	N 	0.88699 0.28696 0.75467 -0.10100
N 	N 	0.88963 0.31697 0.77740 -0.03600
N 	N 	0.89274 0.34712 0.79986 -0.01900
H 	H 	0.92470 0.80350 0.20600 0.14900
H 	H 	0.91100 0.75790 0.20320 0.36900
N 	N 	0.88699 0.78696 0.25467 -0.10000
N 	N 	0.88963 0.81697 0.27740 -0.03600
N 	N 	0.89274 0.84712 0.29986 -0.01700
H 	H 	0.57530 0.69650 0.20600 0.10900
H 	H 	0.58900 0.74210 0.20320 0.33900
N 	N 	0.61301 0.71304 0.25467 -0.09800
N 	N 	0.61037 0.68303 0.27740 -0.03800
N 	N 	0.60726 0.65288 0.29986 -0.02900
H 	H 	0.57530 0.19650 0.70600 0.10500
H 	H 	0.58900 0.24210 0.70320 0.33900
N 	N 	0.61301 0.21304 0.75467 -0.09800
N 	N 	0.61037 0.18303 0.77740 -0.03800
N 	N 	0.60726 0.15288 0.79986 -0.02900
H 	H 	0.07530 0.69650 0.70600 0.10900
H 	H 	0.08900 0.74210 0.70320 0.34400
N 	N 	0.11301 0.71304 0.75467 -0.09800
N 	N 	0.11037 0.68303 0.77740 -0.03900
N 	N 	0.10726 0.65288 0.79986 -0.03000
H 	H 	0.07530 0.19650 0.20600 0.10900
H 	H 	0.08900 0.24210 0.20320 0.34300
N 	N 	0.11301 0.21304 0.25467 -0.09800
N 	N 	0.11037 0.18303 0.27740 -0.03900
N 	N 	0.10726 0.15288 0.29986 -0.03500
H 	H 	0.69650 0.20600 0.57530 0.10900
H 	H 	0.74210 0.20320 0.58900 0.33900
N 	N 	0.71304 0.25467 0.61301 -0.09800
N 	N 	0.68303 0.27740 0.61037 -0.03800
N 	N 	0.65288 0.29986 0.60726 -0.02900
H 	H 	0.69650 0.70600 0.07530 0.10900
H 	H 	0.74210 0.70320 0.08900 0.34400
N 	N 	0.71304 0.75467 0.11301 -0.09800
N 	N 	0.68303 0.77740 0.11037 -0.03900
N 	N 	0.65288 0.79986 0.10726 -0.03000
H 	H 	0.19650 0.20600 0.07530 0.10900
H 	H 	0.24210 0.20320 0.08900 0.34300
N 	N 	0.21304 0.25467 0.11301 -0.09800
N 	N 	0.18303 0.27740 0.11037 -0.03900
N 	N 	0.15288 0.29986 0.10726 -0.03500
H 	H 	0.19650 0.70600 0.57530 0.10500
H 	H 	0.24210 0.70320 0.58900 0.33900
N 	N 	0.21304 0.75467 0.61301 -0.09800
N 	N 	0.18303 0.77740 0.61037 -0.03800
N 	N 	0.15288 0.79986 0.60726 -0.02900
H 	H 	0.30350 0.20600 0.42470 0.11400
H 	H 	0.25790 0.20320 0.41100 0.33900
N 	N 	0.28696 0.25467 0.38699 -0.09800
N 	N 	0.31697 0.27740 0.38963 -0.03800
N 	N 	0.34712 0.29986 0.39274 -0.02900
H 	H 	0.30350 0.70600 0.92470 0.12800
H 	H 	0.25790 0.70320 0.91100 0.36600
N 	N 	0.28696 0.75467 0.88699 -0.10100
N 	N 	0.31697 0.77740 0.88963 -0.03600
N 	N 	0.34712 0.79986 0.89274 -0.01900
H 	H 	0.80350 0.20600 0.92470 0.14900
H 	H 	0.75790 0.20320 0.91100 0.36900
N 	N 	0.78696 0.25467 0.88699 -0.10000
N 	N 	0.81697 0.27740 0.88963 -0.03600
N 	N 	0.84712 0.29986 0.89274 -0.01700
H 	H 	0.80350 0.70600 0.42470 0.13100
H 	H 	0.75790 0.70320 0.41100 0.34300
N 	N 	0.78696 0.75467 0.38699 -0.09700
N 	N 	0.81697 0.77740 0.38963 -0.03700
N 	N 	0.84712 0.79986 0.39274 -0.02200
H 	H 	0.30350 0.79400 0.57530 0.09100
H 	H 	0.25790 0.79680 0.58900 0.33900
N 	N 	0.28696 0.74533 0.61301 -0.09900
N 	N 	0.31697 0.72260 0.61037 -0.03800
N 	N 	0.34712 0.70014 0.60726 -0.02900
H 	H 	0.30350 0.29400 0.07530 0.10900
H 	H 	0.25790 0.29680 0.08900 0.34300
N 	N 	0.28696 0.24533 0.11301 -0.09800
N 	N 	0.31697 0.22260 0.11037 -0.03900
N 	N 	0.34712 0.20014 0.10726 -0.03400
H 	H 	0.80350 0.79400 0.07530 0.11200
H 	H 	0.75790 0.79680 0.08900 0.34700
N 	N 	0.78696 0.74533 0.11301 -0.09800
N 	N 	0.81697 0.72260 0.11037 -0.03800
N 	N 	0.84712 0.70014 0.10726 -0.02800
H 	H 	0.80350 0.29400 0.57530 0.12600
H 	H 	0.75790 0.29680 0.58900 0.34300
N 	N 	0.78696 0.24533 0.61301 -0.09700
N 	N 	0.81697 0.22260 0.61037 -0.03700
N 	N 	0.84712 0.20014 0.60726 -0.02600
H 	H 	0.69650 0.79400 0.42470 0.08600
H 	H 	0.74210 0.79680 0.41100 0.33900
N 	N 	0.71304 0.74533 0.38699 -0.09900
N 	N 	0.68303 0.72260 0.38963 -0.03800
N 	N 	0.65288 0.70014 0.39274 -0.02900
H 	H 	0.69650 0.29400 0.92470 0.11800
H 	H 	0.74210 0.29680 0.91100 0.36500
N 	N 	0.71304 0.24533 0.88699 -0.10100
N 	N 	0.68303 0.22260 0.88963 -0.03700
N 	N 	0.65288 0.20014 0.89274 -0.02300
H 	H 	0.19650 0.79400 0.92470 0.10000
H 	H 	0.24210 0.79680 0.91100 0.36400
N 	N 	0.21304 0.74533 0.88699 -0.10100
N 	N 	0.18303 0.72260 0.88963 -0.03600
N 	N 	0.15288 0.70014 0.89274 -0.02300
H 	H 	0.19650 0.29400 0.42470 0.09900
H 	H 	0.24210 0.29680 0.41100 0.33800
N 	N 	0.21304 0.24533 0.38699 -0.09800
N 	N 	0.18303 0.22260 0.38963 -0.03800
N 	N 	0.15288 0.20014 0.39274 -0.03300
H 	H 	0.20600 0.42470 0.30350 0.11400
H 	H 	0.20320 0.41100 0.25790 0.33900
N 	N 	0.25467 0.38699 0.28696 -0.09800
N 	N 	0.27740 0.38963 0.31697 -0.03800
N 	N 	0.29986 0.39274 0.34712 -0.02900
H 	H 	0.20600 0.92470 0.80350 0.14900
H 	H 	0.20320 0.91100 0.75790 0.36900
N 	N 	0.25467 0.88699 0.78696 -0.10000
N 	N 	0.27740 0.88963 0.81697 -0.03600
N 	N 	0.29986 0.89274 0.84712 -0.01700
H 	H 	0.70600 0.42470 0.80350 0.13100
H 	H 	0.70320 0.41100 0.75790 0.34300
N 	N 	0.75467 0.38699 0.78696 -0.09700
N 	N 	0.77740 0.38963 0.81697 -0.03700
N 	N 	0.79986 0.39274 0.84712 -0.02200
H 	H 	0.70600 0.92470 0.30350 0.12800
H 	H 	0.70320 0.91100 0.25790 0.36600
N 	N 	0.75467 0.88699 0.28696 -0.10100
N 	N 	0.77740 0.88963 0.31697 -0.03600
N 	N 	0.79986 0.89274 0.34712 -0.01900
H 	H 	0.20600 0.57530 0.69650 0.10900
H 	H 	0.20320 0.58900 0.74210 0.33900
N 	N 	0.25467 0.61301 0.71304 -0.09800
N 	N 	0.27740 0.61037 0.68303 -0.03800
N 	N 	0.29986 0.60726 0.65288 -0.02900
H 	H 	0.20600 0.07530 0.19650 0.10900
H 	H 	0.20320 0.08900 0.24210 0.34300
N 	N 	0.25467 0.11301 0.21304 -0.09800
N 	N 	0.27740 0.11037 0.18303 -0.03900
N 	N 	0.29986 0.10726 0.15288 -0.03500
H 	H 	0.70600 0.57530 0.19650 0.10500
H 	H 	0.70320 0.58900 0.24210 0.33900
N 	N 	0.75467 0.61301 0.21304 -0.09800
N 	N 	0.77740 0.61037 0.18303 -0.03800
N 	N 	0.79986 0.60726 0.15288 -0.02900
H 	H 	0.70600 0.07530 0.69650 0.10900
H 	H 	0.70320 0.08900 0.74210 0.34400
N 	N 	0.75467 0.11301 0.71304 -0.09800
N 	N 	0.77740 0.11037 0.68303 -0.03900
N 	N 	0.79986 0.10726 0.65288 -0.03000
H 	H 	0.79400 0.42470 0.69650 0.08600
H 	H 	0.79680 0.41100 0.74210 0.33900
N 	N 	0.74533 0.38699 0.71304 -0.09900
N 	N 	0.72260 0.38963 0.68303 -0.03800
N 	N 	0.70014 0.39274 0.65288 -0.02900
H 	H 	0.79400 0.92470 0.19650 0.10000
H 	H 	0.79680 0.91100 0.24210 0.36400
N 	N 	0.74533 0.88699 0.21304 -0.10100
N 	N 	0.72260 0.88963 0.18303 -0.03600
N 	N 	0.70014 0.89274 0.15288 -0.02300
H 	H 	0.29400 0.42470 0.19650 0.09900
H 	H 	0.29680 0.41100 0.24210 0.33800
N 	N 	0.24533 0.38699 0.21304 -0.09800
N 	N 	0.22260 0.38963 0.18303 -0.03800
N 	N 	0.20014 0.39274 0.15288 -0.03300
H 	H 	0.29400 0.92470 0.69650 0.11800
H 	H 	0.29680 0.91100 0.74210 0.36500
N 	N 	0.24533 0.88699 0.71304 -0.10100
N 	N 	0.22260 0.88963 0.68303 -0.03700
N 	N 	0.20014 0.89274 0.65288 -0.02300
H 	H 	0.79400 0.57530 0.30350 0.09100
H 	H 	0.79680 0.58900 0.25790 0.33900
N 	N 	0.74533 0.61301 0.28696 -0.09900
N 	N 	0.72260 0.61037 0.31697 -0.03800
N 	N 	0.70014 0.60726 0.34712 -0.02900
H 	H 	0.79400 0.07530 0.80350 0.11200
H 	H 	0.79680 0.08900 0.75790 0.34700
N 	N 	0.74533 0.11301 0.78696 -0.09800
N 	N 	0.72260 0.11037 0.81697 -0.03800
N 	N 	0.70014 0.10726 0.84712 -0.02800
H 	H 	0.29400 0.57530 0.80350 0.12600
H 	H 	0.29680 0.58900 0.75790 0.34300
N 	N 	0.24533 0.61301 0.78696 -0.09700
N 	N 	0.22260 0.61037 0.81697 -0.03700
N 	N 	0.20014 0.60726 0.84712 -0.02600
H 	H 	0.29400 0.07530 0.30350 0.10900
H 	H 	0.29680 0.08900 0.25790 0.34300
N 	N 	0.24533 0.11301 0.28696 -0.09800
N 	N 	0.22260 0.11037 0.31697 -0.03900
N 	N 	0.20014 0.10726 0.34712 -0.03400
Zr	Zr	0.42475 0.50000 -0.00000 3.21600
Zr	Zr	0.92475 0.50000 0.50000 3.22100
Zr	Zr	0.57525 0.50000 -0.00000 3.21600
Zr	Zr	0.07525 0.50000 0.50000 3.22100
Zr	Zr	0.00000 0.42475 0.50000 3.21600
Zr	Zr	-0.00000 0.92475 -0.00000 3.21000
Zr	Zr	0.00000 0.57525 0.50000 3.21600
Zr	Zr	0.00000 0.07525 -0.00000 3.21000
Zr	Zr	0.50000 0.00000 0.42475 3.21600
Zr	Zr	0.50000 0.50000 0.92475 3.22100
Zr	Zr	0.50000 0.00000 0.57525 3.21600
Zr	Zr	0.50000 0.50000 0.07525 3.22100
Zr	Zr	0.50000 0.42475 -0.00000 3.21600
Zr	Zr	0.50000 0.92475 0.50000 3.22100
Zr	Zr	0.50000 0.57525 -0.00000 3.21600
Zr	Zr	0.50000 0.07525 0.50000 3.22100
Zr	Zr	0.42475 0.00000 0.50000 3.21600
Zr	Zr	0.92475 0.00000 -0.00000 3.21000
Zr	Zr	0.57525 0.00000 0.50000 3.21600
Zr	Zr	0.07525 0.00000 -0.00000 3.21000
Zr	Zr	0.00000 0.50000 0.57525 3.21600
Zr	Zr	0.00000 0.00000 0.07525 3.21000
Zr	Zr	0.00000 0.50000 0.42475 3.21600
Zr	Zr	0.00000 0.00000 0.92475 3.21000
O 	O 	0.39153 0.50000 0.94103 -0.61900
C 	C 	0.38293 0.50000 0.83181 0.19900
H 	H 	0.41040 0.50000 0.82440 -0.01200
C 	C 	0.35289 0.50000 0.80213 -0.28000
H 	H 	0.36030 0.50000 0.77470 0.14200
O 	O 	0.39153 0.00000 0.44103 -0.66700
C 	C 	0.38293 0.00000 0.33181 0.22100
H 	H 	0.41040 0.00000 0.32440 -0.03100
C 	C 	0.35289 0.00000 0.30213 -0.31900
H 	H 	0.36030 0.00000 0.27470 0.14300
O 	O 	0.89153 0.50000 0.44103 -0.64300
C 	C 	0.88293 0.50000 0.33181 0.19900
H 	H 	0.91040 0.50000 0.32440 -0.00100
C 	C 	0.85289 0.50000 0.30213 -0.27900
H 	H 	0.86030 0.50000 0.27470 0.14600
O 	O 	0.89153 0.00000 0.94103 -0.63600
C 	C 	0.88293 0.00000 0.83181 0.21000
H 	H 	0.91040 0.00000 0.82440 -0.01300
C 	C 	0.85289 0.00000 0.80213 -0.30500
H 	H 	0.86030 0.00000 0.77470 0.14400
O 	O 	0.60847 0.50000 0.94103 -0.61900
C 	C 	0.61707 0.50000 0.83181 0.19900
H 	H 	0.58960 0.50000 0.82440 -0.01200
C 	C 	0.64711 0.50000 0.80213 -0.28100
H 	H 	0.63970 0.50000 0.77470 0.14200
O 	O 	0.60847 0.00000 0.44103 -0.66700
C 	C 	0.61707 0.00000 0.33181 0.22200
H 	H 	0.58960 0.00000 0.32440 -0.03100
C 	C 	0.64711 0.00000 0.30213 -0.32000
H 	H 	0.63970 0.00000 0.27470 0.14300
O 	O 	0.10847 0.50000 0.44103 -0.64600
C 	C 	0.11707 0.50000 0.33181 0.20600
H 	H 	0.08960 0.50000 0.32440 -0.01900
C 	C 	0.14711 0.50000 0.30213 -0.28800
H 	H 	0.13970 0.50000 0.27470 0.14100
O 	O 	0.10847 0.00000 0.94103 -0.63900
C 	C 	0.11707 0.00000 0.83181 0.21700
H 	H 	0.08960 0.00000 0.82440 -0.03100
C 	C 	0.14711 0.00000 0.80213 -0.31400
H 	H 	0.13970 0.00000 0.77470 0.14000
O 	O 	0.60847 0.50000 0.05897 -0.65000
C 	C 	0.61707 0.50000 0.16819 0.20600
H 	H 	0.58960 0.50000 0.17560 -0.01500
C 	C 	0.64711 0.50000 0.19787 -0.28900
H 	H 	0.63970 0.50000 0.22530 0.14400
O 	O 	0.60847 0.00000 0.55897 -0.66700
C 	C 	0.61707 0.00000 0.66819 0.22200
H 	H 	0.58960 0.00000 0.67560 -0.03000
C 	C 	0.64711 0.00000 0.69787 -0.32100
H 	H 	0.63970 0.00000 0.72530 0.14500
O 	O 	0.10847 0.50000 0.55897 -0.64600
C 	C 	0.11707 0.50000 0.66819 0.20700
H 	H 	0.08960 0.50000 0.67560 -0.01800
C 	C 	0.14711 0.50000 0.69787 -0.28900
H 	H 	0.13970 0.50000 0.72530 0.14400
O 	O 	0.10847 0.00000 0.05897 -0.67000
C 	C 	0.11707 0.00000 0.16819 0.22400
H 	H 	0.08960 0.00000 0.17560 -0.03400
C 	C 	0.14711 0.00000 0.19787 -0.32200
H 	H 	0.13970 0.00000 0.22530 0.14200
O 	O 	0.39153 0.50000 0.05897 -0.65000
C 	C 	0.38293 0.50000 0.16819 0.20600
H 	H 	0.41040 0.50000 0.17560 -0.01500
C 	C 	0.35289 0.50000 0.19787 -0.28800
H 	H 	0.36030 0.50000 0.22530 0.14400
O 	O 	0.39153 0.00000 0.55897 -0.66700
C 	C 	0.38293 0.00000 0.66819 0.22200
H 	H 	0.41040 0.00000 0.67560 -0.03000
C 	C 	0.35289 0.00000 0.69787 -0.32000
H 	H 	0.36030 0.00000 0.72530 0.14500
O 	O 	0.89153 0.50000 0.55897 -0.64300
C 	C 	0.88293 0.50000 0.66819 0.20000
H 	H 	0.91040 0.50000 0.67560 -0.00000
C 	C 	0.85289 0.50000 0.69787 -0.28000
H 	H 	0.86030 0.50000 0.72530 0.14800
O 	O 	0.89153 0.00000 0.05897 -0.66700
C 	C 	0.88293 0.00000 0.16819 0.21700
H 	H 	0.91040 0.00000 0.17560 -0.01600
C 	C 	0.85289 0.00000 0.19787 -0.31300
H 	H 	0.86030 0.00000 0.22530 0.14700
O 	O 	0.94103 0.39153 0.50000 -0.61900
C 	C 	0.83181 0.38293 0.50000 0.19900
H 	H 	0.82440 0.41040 0.50000 -0.01200
C 	C 	0.80213 0.35289 0.50000 -0.28000
H 	H 	0.77470 0.36030 0.50000 0.14200
O 	O 	0.94103 0.89153 -0.00000 -0.63600
C 	C 	0.83181 0.88293 -0.00000 0.21000
H 	H 	0.82440 0.91040 -0.00000 -0.01300
C 	C 	0.80213 0.85289 -0.00000 -0.30500
H 	H 	0.77470 0.86030 -0.00000 0.14400
O 	O 	0.44103 0.39153 -0.00000 -0.66700
C 	C 	0.33181 0.38293 -0.00000 0.22100
H 	H 	0.32440 0.41040 -0.00000 -0.03100
C 	C 	0.30213 0.35289 -0.00000 -0.31900
H 	H 	0.27470 0.36030 -0.00000 0.14300
O 	O 	0.44103 0.89153 0.50000 -0.64300
C 	C 	0.33181 0.88293 0.50000 0.19900
H 	H 	0.32440 0.91040 0.50000 -0.00100
C 	C 	0.30213 0.85289 0.50000 -0.27900
H 	H 	0.27470 0.86030 0.50000 0.14600
O 	O 	0.94103 0.60847 0.50000 -0.61900
C 	C 	0.83181 0.61707 0.50000 0.19900
H 	H 	0.82440 0.58960 0.50000 -0.01200
C 	C 	0.80213 0.64711 0.50000 -0.28100
H 	H 	0.77470 0.63970 0.50000 0.14200
O 	O 	0.94103 0.10847 -0.00000 -0.63900
C 	C 	0.83181 0.11707 -0.00000 0.21700
H 	H 	0.82440 0.08960 -0.00000 -0.03100
C 	C 	0.80213 0.14711 -0.00000 -0.31400
H 	H 	0.77470 0.13970 -0.00000 0.14000
O 	O 	0.44103 0.60847 -0.00000 -0.66700
C 	C 	0.33181 0.61707 -0.00000 0.22200
H 	H 	0.32440 0.58960 -0.00000 -0.03100
C 	C 	0.30213 0.64711 -0.00000 -0.32000
H 	H 	0.27470 0.63970 -0.00000 0.14300
O 	O 	0.44103 0.10847 0.50000 -0.64600
C 	C 	0.33181 0.11707 0.50000 0.20600
H 	H 	0.32440 0.08960 0.50000 -0.01900
C 	C 	0.30213 0.14711 0.50000 -0.28800
H 	H 	0.27470 0.13970 0.50000 0.14100
O 	O 	0.05897 0.60847 0.50000 -0.65000
C 	C 	0.16819 0.61707 0.50000 0.20600
H 	H 	0.17560 0.58960 0.50000 -0.01500
C 	C 	0.19787 0.64711 0.50000 -0.28900
H 	H 	0.22530 0.63970 0.50000 0.14400
O 	O 	0.05897 0.10847 -0.00000 -0.67000
C 	C 	0.16819 0.11707 -0.00000 0.22400
H 	H 	0.17560 0.08960 -0.00000 -0.03400
C 	C 	0.19787 0.14711 -0.00000 -0.32200
H 	H 	0.22530 0.13970 -0.00000 0.14200
O 	O 	0.55897 0.60847 -0.00000 -0.66700
C 	C 	0.66819 0.61707 -0.00000 0.22200
H 	H 	0.67560 0.58960 -0.00000 -0.03000
C 	C 	0.69787 0.64711 -0.00000 -0.32100
H 	H 	0.72530 0.63970 -0.00000 0.14500
O 	O 	0.55897 0.10847 0.50000 -0.64600
C 	C 	0.66819 0.11707 0.50000 0.20700
H 	H 	0.67560 0.08960 0.50000 -0.01800
C 	C 	0.69787 0.14711 0.50000 -0.28900
H 	H 	0.72530 0.13970 0.50000 0.14400
O 	O 	0.05897 0.39153 0.50000 -0.65000
C 	C 	0.16819 0.38293 0.50000 0.20600
H 	H 	0.17560 0.41040 0.50000 -0.01500
C 	C 	0.19787 0.35289 0.50000 -0.28800
H 	H 	0.22530 0.36030 0.50000 0.14400
O 	O 	0.05897 0.89153 -0.00000 -0.66700
C 	C 	0.16819 0.88293 -0.00000 0.21700
H 	H 	0.17560 0.91040 -0.00000 -0.01600
C 	C 	0.19787 0.85289 -0.00000 -0.31300
H 	H 	0.22530 0.86030 -0.00000 0.14700
O 	O 	0.55897 0.39153 -0.00000 -0.66700
C 	C 	0.66819 0.38293 -0.00000 0.22200
H 	H 	0.67560 0.41040 -0.00000 -0.03000
C 	C 	0.69787 0.35289 -0.00000 -0.32000
H 	H 	0.72530 0.36030 -0.00000 0.14500
O 	O 	0.55897 0.89153 0.50000 -0.64300
C 	C 	0.66819 0.88293 0.50000 0.20000
H 	H 	0.67560 0.91040 0.50000 -0.00000
C 	C 	0.69787 0.85289 0.50000 -0.28000
H 	H 	0.72530 0.86030 0.50000 0.14800
O 	O 	0.50000 0.94103 0.39153 -0.61900
C 	C 	0.50000 0.83181 0.38293 0.19900
H 	H 	0.50000 0.82440 0.41040 -0.01200
C 	C 	0.50000 0.80213 0.35289 -0.28000
H 	H 	0.50000 0.77470 0.36030 0.14200
O 	O 	0.50000 0.44103 0.89153 -0.64300
C 	C 	0.50000 0.33181 0.88293 0.19900
H 	H 	0.50000 0.32440 0.91040 -0.00100
C 	C 	0.50000 0.30213 0.85289 -0.27900
H 	H 	0.50000 0.27470 0.86030 0.14600
O 	O 	-0.00000 0.94103 0.89153 -0.63600
C 	C 	0.00000 0.83181 0.88293 0.21000
H 	H 	0.00000 0.82440 0.91040 -0.01300
C 	C 	0.00000 0.80213 0.85289 -0.30500
H 	H 	0.00000 0.77470 0.86030 0.14400
O 	O 	0.00000 0.44103 0.39153 -0.66700
C 	C 	0.00000 0.33181 0.38293 0.22100
H 	H 	0.00000 0.32440 0.41040 -0.03100
C 	C 	0.00000 0.30213 0.35289 -0.31900
H 	H 	0.00000 0.27470 0.36030 0.14300
O 	O 	0.50000 0.94103 0.60847 -0.61900
C 	C 	0.50000 0.83181 0.61707 0.19900
H 	H 	0.50000 0.82440 0.58960 -0.01200
C 	C 	0.50000 0.80213 0.64711 -0.28100
H 	H 	0.50000 0.77470 0.63970 0.14200
O 	O 	0.50000 0.44103 0.10847 -0.64600
C 	C 	0.50000 0.33181 0.11707 0.20600
H 	H 	0.50000 0.32440 0.08960 -0.01900
C 	C 	0.50000 0.30213 0.14711 -0.28800
H 	H 	0.50000 0.27470 0.13970 0.14100
O 	O 	0.00000 0.94103 0.10847 -0.63900
C 	C 	0.00000 0.83181 0.11707 0.21700
H 	H 	0.00000 0.82440 0.08960 -0.03100
C 	C 	0.00000 0.80213 0.14711 -0.31400
H 	H 	0.00000 0.77470 0.13970 0.14000
O 	O 	0.00000 0.44103 0.60847 -0.66700
C 	C 	0.00000 0.33181 0.61707 0.22200
H 	H 	0.00000 0.32440 0.58960 -0.03100
C 	C 	0.00000 0.30213 0.64711 -0.32000
H 	H 	0.00000 0.27470 0.63970 0.14300
O 	O 	0.50000 0.05897 0.60847 -0.65000
C 	C 	0.50000 0.16819 0.61707 0.20600
H 	H 	0.50000 0.17560 0.58960 -0.01500
C 	C 	0.50000 0.19787 0.64711 -0.28900
H 	H 	0.50000 0.22530 0.63970 0.14400
O 	O 	0.50000 0.55897 0.10847 -0.64600
C 	C 	0.50000 0.66819 0.11707 0.20700
H 	H 	0.50000 0.67560 0.08960 -0.01800
C 	C 	0.50000 0.69787 0.14711 -0.28900
H 	H 	0.50000 0.72530 0.13970 0.14400
O 	O 	0.00000 0.05897 0.10847 -0.67000
C 	C 	0.00000 0.16819 0.11707 0.22400
H 	H 	0.00000 0.17560 0.08960 -0.03400
C 	C 	0.00000 0.19787 0.14711 -0.32200
H 	H 	0.00000 0.22530 0.13970 0.14200
O 	O 	0.00000 0.55897 0.60847 -0.66700
C 	C 	0.00000 0.66819 0.61707 0.22200
H 	H 	0.00000 0.67560 0.58960 -0.03000
C 	C 	0.00000 0.69787 0.64711 -0.32100
H 	H 	0.00000 0.72530 0.63970 0.14500
O 	O 	0.50000 0.05897 0.39153 -0.65000
C 	C 	0.50000 0.16819 0.38293 0.20600
H 	H 	0.50000 0.17560 0.41040 -0.01500
C 	C 	0.50000 0.19787 0.35289 -0.28800
H 	H 	0.50000 0.22530 0.36030 0.14400
O 	O 	0.50000 0.55897 0.89153 -0.64300
C 	C 	0.50000 0.66819 0.88293 0.20000
H 	H 	0.50000 0.67560 0.91040 -0.00000
C 	C 	0.50000 0.69787 0.85289 -0.28000
H 	H 	0.50000 0.72530 0.86030 0.14800
O 	O 	0.00000 0.05897 0.89153 -0.66700
C 	C 	0.00000 0.16819 0.88293 0.21700
H 	H 	0.00000 0.17560 0.91040 -0.01600
C 	C 	0.00000 0.19787 0.85289 -0.31300
H 	H 	0.00000 0.22530 0.86030 0.14700
O 	O 	0.00000 0.55897 0.39153 -0.66700
C 	C 	0.00000 0.66819 0.38293 0.22200
H 	H 	0.00000 0.67560 0.41040 -0.03000
C 	C 	0.00000 0.69787 0.35289 -0.32000
H 	H 	0.00000 0.72530 0.36030 0.14500
O 	O 	0.50000 0.39153 0.05897 -0.65000
C 	C 	0.50000 0.38293 0.16819 0.20600
H 	H 	0.50000 0.41040 0.17560 -0.01500
C 	C 	0.50000 0.35289 0.19787 -0.28800
H 	H 	0.50000 0.36030 0.22530 0.14400
O 	O 	0.50000 0.89153 0.55897 -0.64300
C 	C 	0.50000 0.88293 0.66819 0.20000
H 	H 	0.50000 0.91040 0.67560 -0.00000
C 	C 	0.50000 0.85289 0.69787 -0.28000
H 	H 	0.50000 0.86030 0.72530 0.14800
O 	O 	0.00000 0.39153 0.55897 -0.66700
C 	C 	0.00000 0.38293 0.66819 0.22200
H 	H 	0.00000 0.41040 0.67560 -0.03000
C 	C 	0.00000 0.35289 0.69787 -0.32000
H 	H 	0.00000 0.36030 0.72530 0.14500
O 	O 	0.00000 0.89153 0.05897 -0.66700
C 	C 	0.00000 0.88293 0.16819 0.21700
H 	H 	0.00000 0.91040 0.17560 -0.01600
C 	C 	0.00000 0.85289 0.19787 -0.31300
H 	H 	0.00000 0.86030 0.22530 0.14700
O 	O 	0.50000 0.60847 0.05897 -0.65000
C 	C 	0.50000 0.61707 0.16819 0.20600
H 	H 	0.50000 0.58960 0.17560 -0.01500
C 	C 	0.50000 0.64711 0.19787 -0.28900
H 	H 	0.50000 0.63970 0.22530 0.14400
O 	O 	0.50000 0.10847 0.55897 -0.64600
C 	C 	0.50000 0.11707 0.66819 0.20700
H 	H 	0.50000 0.08960 0.67560 -0.01800
C 	C 	0.50000 0.14711 0.69787 -0.28900
H 	H 	0.50000 0.13970 0.72530 0.14400
O 	O 	0.00000 0.60847 0.55897 -0.66700
C 	C 	0.00000 0.61707 0.66819 0.22200
H 	H 	0.00000 0.58960 0.67560 -0.03000
C 	C 	0.00000 0.64711 0.69787 -0.32100
H 	H 	0.00000 0.63970 0.72530 0.14500
O 	O 	0.00000 0.10847 0.05897 -0.67000
C 	C 	0.00000 0.11707 0.16819 0.22400
H 	H 	0.00000 0.08960 0.17560 -0.03400
C 	C 	0.00000 0.14711 0.19787 -0.32200
H 	H 	0.00000 0.13970 0.22530 0.14200
O 	O 	0.50000 0.60847 0.94103 -0.61900
C 	C 	0.50000 0.61707 0.83181 0.19900
H 	H 	0.50000 0.58960 0.82440 -0.01200
C 	C 	0.50000 0.64711 0.80213 -0.28100
H 	H 	0.50000 0.63970 0.77470 0.14200
O 	O 	0.50000 0.10847 0.44103 -0.64600
C 	C 	0.50000 0.11707 0.33181 0.20600
H 	H 	0.50000 0.08960 0.32440 -0.01900
C 	C 	0.50000 0.14711 0.30213 -0.28800
H 	H 	0.50000 0.13970 0.27470 0.14100
O 	O 	0.00000 0.60847 0.44103 -0.66700
C 	C 	0.00000 0.61707 0.33181 0.22200
H 	H 	0.00000 0.58960 0.32440 -0.03100
C 	C 	0.00000 0.64711 0.30213 -0.32000
H 	H 	0.00000 0.63970 0.27470 0.14300
O 	O 	0.00000 0.10847 0.94103 -0.63900
C 	C 	0.00000 0.11707 0.83181 0.21700
H 	H 	0.00000 0.08960 0.82440 -0.03100
C 	C 	0.00000 0.14711 0.80213 -0.31400
H 	H 	0.00000 0.13970 0.77470 0.14000
O 	O 	0.50000 0.39153 0.94103 -0.61900
C 	C 	0.50000 0.38293 0.83181 0.19900
H 	H 	0.50000 0.41040 0.82440 -0.01200
C 	C 	0.50000 0.35289 0.80213 -0.28000
H 	H 	0.50000 0.36030 0.77470 0.14200
O 	O 	0.50000 0.89153 0.44103 -0.64300
C 	C 	0.50000 0.88293 0.33181 0.19900
H 	H 	0.50000 0.91040 0.32440 -0.00100
C 	C 	0.50000 0.85289 0.30213 -0.27900
H 	H 	0.50000 0.86030 0.27470 0.14600
O 	O 	0.00000 0.39153 0.44103 -0.66700
C 	C 	0.00000 0.38293 0.33181 0.22100
H 	H 	0.00000 0.41040 0.32440 -0.03100
C 	C 	0.00000 0.35289 0.30213 -0.31900
H 	H 	0.00000 0.36030 0.27470 0.14300
O 	O 	-0.00000 0.89153 0.94103 -0.63600
C 	C 	0.00000 0.88293 0.83181 0.21000
H 	H 	0.00000 0.91040 0.82440 -0.01300
C 	C 	0.00000 0.85289 0.80213 -0.30500
H 	H 	0.00000 0.86030 0.77470 0.14400
O 	O 	0.39153 0.94103 0.50000 -0.61900
C 	C 	0.38293 0.83181 0.50000 0.19900
H 	H 	0.41040 0.82440 0.50000 -0.01200
C 	C 	0.35289 0.80213 0.50000 -0.28000
H 	H 	0.36030 0.77470 0.50000 0.14200
O 	O 	0.39153 0.44103 -0.00000 -0.66700
C 	C 	0.38293 0.33181 -0.00000 0.22100
H 	H 	0.41040 0.32440 -0.00000 -0.03100
C 	C 	0.35289 0.30213 -0.00000 -0.31900
H 	H 	0.36030 0.27470 -0.00000 0.14300
O 	O 	0.89153 0.94103 -0.00000 -0.63600
C 	C 	0.88293 0.83181 -0.00000 0.21000
H 	H 	0.91040 0.82440 -0.00000 -0.01300
C 	C 	0.85289 0.80213 -0.00000 -0.30500
H 	H 	0.86030 0.77470 -0.00000 0.14400
O 	O 	0.89153 0.44103 0.50000 -0.64300
C 	C 	0.88293 0.33181 0.50000 0.19900
H 	H 	0.91040 0.32440 0.50000 -0.00100
C 	C 	0.85289 0.30213 0.50000 -0.27900
H 	H 	0.86030 0.27470 0.50000 0.14600
O 	O 	0.60847 0.94103 0.50000 -0.61900
C 	C 	0.61707 0.83181 0.50000 0.19900
H 	H 	0.58960 0.82440 0.50000 -0.01200
C 	C 	0.64711 0.80213 0.50000 -0.28100
H 	H 	0.63970 0.77470 0.50000 0.14200
O 	O 	0.60847 0.44103 -0.00000 -0.66700
C 	C 	0.61707 0.33181 -0.00000 0.22200
H 	H 	0.58960 0.32440 -0.00000 -0.03100
C 	C 	0.64711 0.30213 -0.00000 -0.32000
H 	H 	0.63970 0.27470 -0.00000 0.14300
O 	O 	0.10847 0.94103 -0.00000 -0.63900
C 	C 	0.11707 0.83181 -0.00000 0.21700
H 	H 	0.08960 0.82440 -0.00000 -0.03100
C 	C 	0.14711 0.80213 -0.00000 -0.31400
H 	H 	0.13970 0.77470 -0.00000 0.14000
O 	O 	0.10847 0.44103 0.50000 -0.64600
C 	C 	0.11707 0.33181 0.50000 0.20600
H 	H 	0.08960 0.32440 0.50000 -0.01900
C 	C 	0.14711 0.30213 0.50000 -0.28800
H 	H 	0.13970 0.27470 0.50000 0.14100
O 	O 	0.60847 0.05897 0.50000 -0.65000
C 	C 	0.61707 0.16819 0.50000 0.20600
H 	H 	0.58960 0.17560 0.50000 -0.01500
C 	C 	0.64711 0.19787 0.50000 -0.28900
H 	H 	0.63970 0.22530 0.50000 0.14400
O 	O 	0.60847 0.55897 -0.00000 -0.66700
C 	C 	0.61707 0.66819 -0.00000 0.22200
H 	H 	0.58960 0.67560 -0.00000 -0.03000
C 	C 	0.64711 0.69787 -0.00000 -0.32100
H 	H 	0.63970 0.72530 -0.00000 0.14500
O 	O 	0.10847 0.05897 -0.00000 -0.67000
C 	C 	0.11707 0.16819 -0.00000 0.22400
H 	H 	0.08960 0.17560 -0.00000 -0.03400
C 	C 	0.14711 0.19787 -0.00000 -0.32200
H 	H 	0.13970 0.22530 -0.00000 0.14200
O 	O 	0.10847 0.55897 0.50000 -0.64600
C 	C 	0.11707 0.66819 0.50000 0.20700
H 	H 	0.08960 0.67560 0.50000 -0.01800
C 	C 	0.14711 0.69787 0.50000 -0.28900
H 	H 	0.13970 0.72530 0.50000 0.14400
O 	O 	0.39153 0.05897 0.50000 -0.65000
C 	C 	0.38293 0.16819 0.50000 0.20600
H 	H 	0.41040 0.17560 0.50000 -0.01500
C 	C 	0.35289 0.19787 0.50000 -0.28800
H 	H 	0.36030 0.22530 0.50000 0.14400
O 	O 	0.39153 0.55897 -0.00000 -0.66700
C 	C 	0.38293 0.66819 -0.00000 0.22200
H 	H 	0.41040 0.67560 -0.00000 -0.03000
C 	C 	0.35289 0.69787 -0.00000 -0.32000
H 	H 	0.36030 0.72530 -0.00000 0.14500
O 	O 	0.89153 0.05897 -0.00000 -0.66700
C 	C 	0.88293 0.16819 -0.00000 0.21700
H 	H 	0.91040 0.17560 -0.00000 -0.01600
C 	C 	0.85289 0.19787 -0.00000 -0.31300
H 	H 	0.86030 0.22530 -0.00000 0.14700
O 	O 	0.89153 0.55897 0.50000 -0.64300
C 	C 	0.88293 0.66819 0.50000 0.20000
H 	H 	0.91040 0.67560 0.50000 -0.00000
C 	C 	0.85289 0.69787 0.50000 -0.28000
H 	H 	0.86030 0.72530 0.50000 0.14800
O 	O 	0.94103 0.50000 0.60847 -0.61900
C 	C 	0.83181 0.50000 0.61707 0.19900
H 	H 	0.82440 0.50000 0.58960 -0.01200
C 	C 	0.80213 0.50000 0.64711 -0.28100
H 	H 	0.77470 0.50000 0.63970 0.14200
O 	O 	0.94103 0.00000 0.10847 -0.63900
C 	C 	0.83181 0.00000 0.11707 0.21700
H 	H 	0.82440 0.00000 0.08960 -0.03100
C 	C 	0.80213 0.00000 0.14711 -0.31400
H 	H 	0.77470 0.00000 0.13970 0.14000
O 	O 	0.44103 0.50000 0.10847 -0.64600
C 	C 	0.33181 0.50000 0.11707 0.20600
H 	H 	0.32440 0.50000 0.08960 -0.01900
C 	C 	0.30213 0.50000 0.14711 -0.28800
H 	H 	0.27470 0.50000 0.13970 0.14100
O 	O 	0.44103 0.00000 0.60847 -0.66700
C 	C 	0.33181 0.00000 0.61707 0.22200
H 	H 	0.32440 0.00000 0.58960 -0.03100
C 	C 	0.30213 0.00000 0.64711 -0.32000
H 	H 	0.27470 0.00000 0.63970 0.14300
O 	O 	0.94103 0.50000 0.39153 -0.61900
C 	C 	0.83181 0.50000 0.38293 0.19900
H 	H 	0.82440 0.50000 0.41040 -0.01200
C 	C 	0.80213 0.50000 0.35289 -0.28000
H 	H 	0.77470 0.50000 0.36030 0.14200
O 	O 	0.94103 0.00000 0.89153 -0.63600
C 	C 	0.83181 0.00000 0.88293 0.21000
H 	H 	0.82440 0.00000 0.91040 -0.01300
C 	C 	0.80213 0.00000 0.85289 -0.30500
H 	H 	0.77470 0.00000 0.86030 0.14400
O 	O 	0.44103 0.50000 0.89153 -0.64300
C 	C 	0.33181 0.50000 0.88293 0.19900
H 	H 	0.32440 0.50000 0.91040 -0.00100
C 	C 	0.30213 0.50000 0.85289 -0.27900
H 	H 	0.27470 0.50000 0.86030 0.14600
O 	O 	0.44103 0.00000 0.39153 -0.66700
C 	C 	0.33181 0.00000 0.38293 0.22100
H 	H 	0.32440 0.00000 0.41040 -0.03100
C 	C 	0.30213 0.00000 0.35289 -0.31900
H 	H 	0.27470 0.00000 0.36030 0.14300
O 	O 	0.05897 0.50000 0.39153 -0.65000
C 	C 	0.16819 0.50000 0.38293 0.20600
H 	H 	0.17560 0.50000 0.41040 -0.01500
C 	C 	0.19787 0.50000 0.35289 -0.28800
H 	H 	0.22530 0.50000 0.36030 0.14400
O 	O 	0.05897 0.00000 0.89153 -0.66700
C 	C 	0.16819 0.00000 0.88293 0.21700
H 	H 	0.17560 0.00000 0.91040 -0.01600
C 	C 	0.19787 0.00000 0.85289 -0.31300
H 	H 	0.22530 0.00000 0.86030 0.14700
O 	O 	0.55897 0.50000 0.89153 -0.64300
C 	C 	0.66819 0.50000 0.88293 0.20000
H 	H 	0.67560 0.50000 0.91040 -0.00000
C 	C 	0.69787 0.50000 0.85289 -0.28000
H 	H 	0.72530 0.50000 0.86030 0.14800
O 	O 	0.55897 0.00000 0.39153 -0.66700
C 	C 	0.66819 0.00000 0.38293 0.22200
H 	H 	0.67560 0.00000 0.41040 -0.03000
C 	C 	0.69787 0.00000 0.35289 -0.32000
H 	H 	0.72530 0.00000 0.36030 0.14500
O 	O 	0.05897 0.50000 0.60847 -0.65000
C 	C 	0.16819 0.50000 0.61707 0.20600
H 	H 	0.17560 0.50000 0.58960 -0.01500
C 	C 	0.19787 0.50000 0.64711 -0.28900
H 	H 	0.22530 0.50000 0.63970 0.14400
O 	O 	0.05897 0.00000 0.10847 -0.67000
C 	C 	0.16819 0.00000 0.11707 0.22400
H 	H 	0.17560 0.00000 0.08960 -0.03400
C 	C 	0.19787 0.00000 0.14711 -0.32200
H 	H 	0.22530 0.00000 0.13970 0.14200
O 	O 	0.55897 0.50000 0.10847 -0.64600
C 	C 	0.66819 0.50000 0.11707 0.20700
H 	H 	0.67560 0.50000 0.08960 -0.01800
C 	C 	0.69787 0.50000 0.14711 -0.28900
H 	H 	0.72530 0.50000 0.13970 0.14400
O 	O 	0.55897 0.00000 0.60847 -0.66700
C 	C 	0.66819 0.00000 0.61707 0.22200
H 	H 	0.67560 0.00000 0.58960 -0.03000
C 	C 	0.69787 0.00000 0.64711 -0.32100
H 	H 	0.72530 0.00000 0.63970 0.14500
O 	O 	0.46333 0.53667 0.96333 -1.22400
O 	O 	0.53667 0.46333 0.96333 -1.22400
O 	O 	0.53667 0.53667 0.03667 -1.26400
O 	O 	0.46333 0.46333 0.03667 -1.26400
O 	O 	0.96333 0.46333 0.53667 -1.22400
O 	O 	0.96333 0.96333 0.03667 -1.20800
O 	O 	0.96333 0.53667 0.46333 -1.22400
O 	O 	0.96333 0.03667 0.96333 -1.20800
O 	O 	0.03667 0.53667 0.53667 -1.26400
O 	O 	0.03667 0.03667 0.03667 -1.28800
O 	O 	0.03667 0.46333 0.46333 -1.26400
O 	O 	0.03667 0.96333 0.96333 -1.20800
O 	O 	0.53667 0.96333 0.46333 -1.22400
O 	O 	0.46333 0.96333 0.53667 -1.22400
O 	O 	0.53667 0.03667 0.53667 -1.26400
O 	O 	0.46333 0.03667 0.46333 -1.26400
O 	O 	0.53667 0.46333 0.03667 -1.26400
O 	O 	0.46333 0.53667 0.03667 -1.26400
O 	O 	0.53667 0.53667 0.96333 -1.22400
O 	O 	0.46333 0.46333 0.96333 -1.22400
O 	O 	0.46333 0.96333 0.46333 -1.22400
O 	O 	0.53667 0.96333 0.53667 -1.22400
O 	O 	0.53667 0.03667 0.46333 -1.26400
O 	O 	0.46333 0.03667 0.53667 -1.26400
O 	O 	0.96333 0.53667 0.53667 -1.22400
O 	O 	0.96333 0.03667 0.03667 -1.24700
O 	O 	0.96333 0.46333 0.46333 -1.22400
O 	O 	0.96333 0.96333 0.96333 -1.16900
O 	O 	0.03667 0.53667 0.46333 -1.26400
O 	O 	0.03667 0.03667 0.96333 -1.24700
O 	O 	0.03667 0.46333 0.53667 -1.26400
O 	O 	0.03667 0.96333 0.03667 -1.24700
C 	C 	0.40461 0.50000 0.90461 0.54800
C 	C 	0.37212 0.50000 0.87212 -0.24600
C 	C 	0.31260 0.50000 0.81260 0.22700
C 	C 	0.27960 0.50000 0.77960 -0.20600
C 	C 	0.40461 0.00000 0.40461 0.55700
C 	C 	0.37212 0.00000 0.37212 -0.28200
C 	C 	0.31260 0.00000 0.31260 0.25400
C 	C 	0.27960 0.00000 0.27960 -0.28700
C 	C 	0.59539 0.50000 0.90461 0.54800
C 	C 	0.62788 0.50000 0.87212 -0.24600
C 	C 	0.68740 0.50000 0.81260 0.22700
C 	C 	0.72040 0.50000 0.77960 -0.20600
C 	C 	0.59539 0.00000 0.40461 0.55700
C 	C 	0.62788 0.00000 0.37212 -0.28200
C 	C 	0.68740 0.00000 0.31260 0.25500
C 	C 	0.72040 0.00000 0.27960 -0.28700
C 	C 	0.59539 0.50000 0.09539 0.55400
C 	C 	0.62788 0.50000 0.12788 -0.26000
C 	C 	0.68740 0.50000 0.18740 0.23100
C 	C 	0.72040 0.50000 0.22040 -0.20700
C 	C 	0.59539 0.00000 0.59539 0.55700
C 	C 	0.62788 0.00000 0.62788 -0.28200
C 	C 	0.68740 0.00000 0.68740 0.25500
C 	C 	0.72040 0.00000 0.72040 -0.28600
C 	C 	0.40461 0.50000 0.09539 0.55400
C 	C 	0.37212 0.50000 0.12788 -0.25900
C 	C 	0.31260 0.50000 0.18740 0.23100
C 	C 	0.27960 0.50000 0.22040 -0.20700
C 	C 	0.40461 0.00000 0.59539 0.55700
C 	C 	0.37212 0.00000 0.62788 -0.28200
C 	C 	0.31260 0.00000 0.68740 0.25500
C 	C 	0.27960 0.00000 0.72040 -0.28700
C 	C 	0.90461 0.40461 0.50000 0.54800
C 	C 	0.87212 0.37212 0.50000 -0.24600
C 	C 	0.81260 0.31260 0.50000 0.22700
C 	C 	0.77960 0.27960 0.50000 -0.20600
C 	C 	0.90461 0.90461 -0.00000 0.54800
C 	C 	0.87212 0.87212 -0.00000 -0.25900
C 	C 	0.81260 0.81260 -0.00000 0.24700
C 	C 	0.77960 0.77960 -0.00000 -0.28400
C 	C 	0.90461 0.59539 0.50000 0.54800
C 	C 	0.87212 0.62788 0.50000 -0.24600
C 	C 	0.81260 0.68740 0.50000 0.22700
C 	C 	0.77960 0.72040 0.50000 -0.20600
C 	C 	0.90461 0.09539 -0.00000 0.55400
C 	C 	0.87212 0.12788 -0.00000 -0.27200
C 	C 	0.81260 0.18740 -0.00000 0.25100
C 	C 	0.77960 0.22040 -0.00000 -0.28600
C 	C 	0.09539 0.59539 0.50000 0.55400
C 	C 	0.12788 0.62788 0.50000 -0.26000
C 	C 	0.18740 0.68740 0.50000 0.23100
C 	C 	0.22040 0.72040 0.50000 -0.20700
C 	C 	0.09539 0.09539 -0.00000 0.56100
C 	C 	0.12788 0.12788 -0.00000 -0.28500
C 	C 	0.18740 0.18740 -0.00000 0.25600
C 	C 	0.22040 0.22040 -0.00000 -0.28800
C 	C 	0.09539 0.40461 0.50000 0.55400
C 	C 	0.12788 0.37212 0.50000 -0.25900
C 	C 	0.18740 0.31260 0.50000 0.23100
C 	C 	0.22040 0.27960 0.50000 -0.20700
C 	C 	0.09539 0.90461 -0.00000 0.55400
C 	C 	0.12788 0.87212 -0.00000 -0.27200
C 	C 	0.18740 0.81260 -0.00000 0.25100
C 	C 	0.22040 0.77960 -0.00000 -0.28600
C 	C 	0.50000 0.90461 0.40461 0.54800
C 	C 	0.50000 0.87212 0.37212 -0.24600
C 	C 	0.50000 0.81260 0.31260 0.22700
C 	C 	0.50000 0.77960 0.27960 -0.20600
C 	C 	0.00000 0.90461 0.90461 0.54800
C 	C 	0.00000 0.87212 0.87212 -0.25900
C 	C 	0.00000 0.81260 0.81260 0.24700
C 	C 	0.00000 0.77960 0.77960 -0.28400
C 	C 	0.50000 0.90461 0.59539 0.54800
C 	C 	0.50000 0.87212 0.62788 -0.24600
C 	C 	0.50000 0.81260 0.68740 0.22700
C 	C 	0.50000 0.77960 0.72040 -0.20600
C 	C 	0.00000 0.90461 0.09539 0.55400
C 	C 	0.00000 0.87212 0.12788 -0.27200
C 	C 	0.00000 0.81260 0.18740 0.25100
C 	C 	0.00000 0.77960 0.22040 -0.28600
C 	C 	0.50000 0.09539 0.59539 0.55400
C 	C 	0.50000 0.12788 0.62788 -0.26000
C 	C 	0.50000 0.18740 0.68740 0.23100
C 	C 	0.50000 0.22040 0.72040 -0.20700
C 	C 	0.00000 0.09539 0.09539 0.56100
C 	C 	0.00000 0.12788 0.12788 -0.28500
C 	C 	0.00000 0.18740 0.18740 0.25600
C 	C 	0.00000 0.22040 0.22040 -0.28800
C 	C 	0.50000 0.09539 0.40461 0.55400
C 	C 	0.50000 0.12788 0.37212 -0.25900
C 	C 	0.50000 0.18740 0.31260 0.23100
C 	C 	0.50000 0.22040 0.27960 -0.20700
C 	C 	0.00000 0.09539 0.90461 0.55400
C 	C 	0.00000 0.12788 0.87212 -0.27200
C 	C 	0.00000 0.18740 0.81260 0.25100
C 	C 	0.00000 0.22040 0.77960 -0.28600
C 	C 	0.50000 0.40461 0.09539 0.55400
C 	C 	0.50000 0.37212 0.12788 -0.25900
C 	C 	0.50000 0.31260 0.18740 0.23100
C 	C 	0.50000 0.27960 0.22040 -0.20700
C 	C 	0.00000 0.40461 0.59539 0.55700
C 	C 	0.00000 0.37212 0.62788 -0.28200
C 	C 	0.00000 0.31260 0.68740 0.25500
C 	C 	0.00000 0.27960 0.72040 -0.28700
C 	C 	0.50000 0.59539 0.09539 0.55400
C 	C 	0.50000 0.62788 0.12788 -0.26000
C 	C 	0.50000 0.68740 0.18740 0.23100
C 	C 	0.50000 0.72040 0.22040 -0.20700
C 	C 	0.00000 0.59539 0.59539 0.55700
C 	C 	0.00000 0.62788 0.62788 -0.28200
C 	C 	0.00000 0.68740 0.68740 0.25500
C 	C 	0.00000 0.72040 0.72040 -0.28600
C 	C 	0.50000 0.59539 0.90461 0.54800
C 	C 	0.50000 0.62788 0.87212 -0.24600
C 	C 	0.50000 0.68740 0.81260 0.22700
C 	C 	0.50000 0.72040 0.77960 -0.20600
C 	C 	0.00000 0.59539 0.40461 0.55700
C 	C 	0.00000 0.62788 0.37212 -0.28200
C 	C 	0.00000 0.68740 0.31260 0.25500
C 	C 	0.00000 0.72040 0.27960 -0.28700
C 	C 	0.50000 0.40461 0.90461 0.54800
C 	C 	0.50000 0.37212 0.87212 -0.24600
C 	C 	0.50000 0.31260 0.81260 0.22700
C 	C 	0.50000 0.27960 0.77960 -0.20600
C 	C 	0.00000 0.40461 0.40461 0.55700
C 	C 	0.00000 0.37212 0.37212 -0.28200
C 	C 	0.00000 0.31260 0.31260 0.25400
C 	C 	0.00000 0.27960 0.27960 -0.28700
C 	C 	0.40461 0.90461 0.50000 0.54800
C 	C 	0.37212 0.87212 0.50000 -0.24600
C 	C 	0.31260 0.81260 0.50000 0.22700
C 	C 	0.27960 0.77960 0.50000 -0.20600
C 	C 	0.40461 0.40461 -0.00000 0.55700
C 	C 	0.37212 0.37212 -0.00000 -0.28200
C 	C 	0.31260 0.31260 -0.00000 0.25400
C 	C 	0.27960 0.27960 -0.00000 -0.28700
C 	C 	0.59539 0.90461 0.50000 0.54800
C 	C 	0.62788 0.87212 0.50000 -0.24600
C 	C 	0.68740 0.81260 0.50000 0.22700
C 	C 	0.72040 0.77960 0.50000 -0.20600
C 	C 	0.59539 0.40461 -0.00000 0.55700
C 	C 	0.62788 0.37212 -0.00000 -0.28200
C 	C 	0.68740 0.31260 -0.00000 0.25500
C 	C 	0.72040 0.27960 -0.00000 -0.28700
C 	C 	0.59539 0.09539 0.50000 0.55400
C 	C 	0.62788 0.12788 0.50000 -0.26000
C 	C 	0.68740 0.18740 0.50000 0.23100
C 	C 	0.72040 0.22040 0.50000 -0.20700
C 	C 	0.59539 0.59539 -0.00000 0.55700
C 	C 	0.62788 0.62788 -0.00000 -0.28200
C 	C 	0.68740 0.68740 -0.00000 0.25500
C 	C 	0.72040 0.72040 -0.00000 -0.28600
C 	C 	0.40461 0.09539 0.50000 0.55400
C 	C 	0.37212 0.12788 0.50000 -0.25900
C 	C 	0.31260 0.18740 0.50000 0.23100
C 	C 	0.27960 0.22040 0.50000 -0.20700
C 	C 	0.40461 0.59539 -0.00000 0.55700
C 	C 	0.37212 0.62788 -0.00000 -0.28200
C 	C 	0.31260 0.68740 -0.00000 0.25500
C 	C 	0.27960 0.72040 -0.00000 -0.28700
C 	C 	0.90461 0.50000 0.59539 0.54800
C 	C 	0.87212 0.50000 0.62788 -0.24600
C 	C 	0.81260 0.50000 0.68740 0.22700
C 	C 	0.77960 0.50000 0.72040 -0.20600
C 	C 	0.90461 0.00000 0.09539 0.55400
C 	C 	0.87212 0.00000 0.12788 -0.27200
C 	C 	0.81260 0.00000 0.18740 0.25100
C 	C 	0.77960 0.00000 0.22040 -0.28600
C 	C 	0.90461 0.50000 0.40461 0.54800
C 	C 	0.87212 0.50000 0.37212 -0.24600
C 	C 	0.81260 0.50000 0.31260 0.22700
C 	C 	0.77960 0.50000 0.27960 -0.20600
C 	C 	0.90461 0.00000 0.90461 0.54800
C 	C 	0.87212 0.00000 0.87212 -0.25900
C 	C 	0.81260 0.00000 0.81260 0.24700
C 	C 	0.77960 0.00000 0.77960 -0.28400
C 	C 	0.09539 0.50000 0.40461 0.55400
C 	C 	0.12788 0.50000 0.37212 -0.25900
C 	C 	0.18740 0.50000 0.31260 0.23100
C 	C 	0.22040 0.50000 0.27960 -0.20700
C 	C 	0.09539 0.00000 0.90461 0.55400
C 	C 	0.12788 0.00000 0.87212 -0.27200
C 	C 	0.18740 0.00000 0.81260 0.25100
C 	C 	0.22040 0.00000 0.77960 -0.28600
C 	C 	0.09539 0.50000 0.59539 0.55400
C 	C 	0.12788 0.50000 0.62788 -0.26000
C 	C 	0.18740 0.50000 0.68740 0.23100
C 	C 	0.22040 0.50000 0.72040 -0.20700
C 	C 	0.09539 0.00000 0.09539 0.56100
C 	C 	0.12788 0.00000 0.12788 -0.28500
C 	C 	0.18740 0.00000 0.18740 0.25600
C 	C 	0.22040 0.00000 0.22040 -0.28800
C 	C 	0.26480 0.53535 0.76480 0.16200
C 	C 	0.27840 0.57857 0.77840 -0.67400
C 	C 	0.26480 0.03535 0.26480 0.17500
C 	C 	0.27840 0.07857 0.27840 -0.68600
C 	C 	0.76480 0.03535 0.76480 0.17800
C 	C 	0.77840 0.07857 0.77840 -0.69300
C 	C 	0.73520 0.46465 0.76480 0.16300
C 	C 	0.72160 0.42143 0.77840 -0.67400
C 	C 	0.73520 0.96465 0.26480 0.23200
C 	C 	0.72160 0.92143 0.27840 -0.73800
C 	C 	0.73520 0.53535 0.23520 0.16100
C 	C 	0.72160 0.57857 0.22160 -0.67000
C 	C 	0.73520 0.03535 0.73520 0.17600
C 	C 	0.72160 0.07857 0.72160 -0.68600
C 	C 	0.26480 0.46465 0.23520 0.16100
C 	C 	0.27840 0.42143 0.22160 -0.67000
C 	C 	0.26480 0.96465 0.73520 0.23200
C 	C 	0.27840 0.92143 0.72160 -0.73800
C 	C 	0.76480 0.46465 0.73520 0.16300
C 	C 	0.77840 0.42143 0.72160 -0.67400
C 	C 	0.76480 0.26480 0.53535 0.16200
C 	C 	0.77840 0.27840 0.57857 -0.67400
C 	C 	0.76480 0.76480 0.03535 0.17800
C 	C 	0.77840 0.77840 0.07857 -0.69300
C 	C 	0.76480 0.73520 0.46465 0.16300
C 	C 	0.77840 0.72160 0.42143 -0.67400
C 	C 	0.76480 0.23520 0.96465 0.23300
C 	C 	0.77840 0.22160 0.92143 -0.74100
C 	C 	0.23520 0.73520 0.53535 0.16100
C 	C 	0.22160 0.72160 0.57857 -0.67000
C 	C 	0.23520 0.23520 0.03535 0.17500
C 	C 	0.22160 0.22160 0.07857 -0.68500
C 	C 	0.73520 0.73520 0.03535 0.17600
C 	C 	0.72160 0.72160 0.07857 -0.68600
C 	C 	0.23520 0.26480 0.46465 0.16100
C 	C 	0.22160 0.27840 0.42143 -0.67000
C 	C 	0.23520 0.76480 0.96465 0.23300
C 	C 	0.22160 0.77840 0.92143 -0.74100
C 	C 	0.73520 0.76480 0.46465 0.16300
C 	C 	0.72160 0.77840 0.42143 -0.67400
C 	C 	0.53535 0.76480 0.26480 0.16200
C 	C 	0.57857 0.77840 0.27840 -0.67400
C 	C 	0.03535 0.76480 0.76480 0.17800
C 	C 	0.07857 0.77840 0.77840 -0.69300
C 	C 	0.46465 0.76480 0.73520 0.16300
C 	C 	0.42143 0.77840 0.72160 -0.67400
C 	C 	0.96465 0.76480 0.23520 0.23300
C 	C 	0.92143 0.77840 0.22160 -0.74100
C 	C 	0.53535 0.23520 0.73520 0.16100
C 	C 	0.57857 0.22160 0.72160 -0.67000
C 	C 	0.03535 0.23520 0.23520 0.17500
C 	C 	0.07857 0.22160 0.22160 -0.68500
C 	C 	0.03535 0.73520 0.73520 0.17600
C 	C 	0.07857 0.72160 0.72160 -0.68600
C 	C 	0.46465 0.23520 0.26480 0.16100
C 	C 	0.42143 0.22160 0.27840 -0.67000
C 	C 	0.46465 0.73520 0.76480 0.16300
C 	C 	0.42143 0.72160 0.77840 -0.67400
C 	C 	0.96465 0.23520 0.76480 0.23300
C 	C 	0.92143 0.22160 0.77840 -0.74100
C 	C 	0.53535 0.26480 0.23520 0.16100
C 	C 	0.57857 0.27840 0.22160 -0.67000
C 	C 	0.53535 0.76480 0.73520 0.16300
C 	C 	0.57857 0.77840 0.72160 -0.67400
C 	C 	0.03535 0.26480 0.73520 0.17500
C 	C 	0.07857 0.27840 0.72160 -0.68600
C 	C 	0.46465 0.73520 0.23520 0.16100
C 	C 	0.42143 0.72160 0.22160 -0.67000
C 	C 	0.96465 0.73520 0.73520 0.23200
C 	C 	0.92143 0.72160 0.72160 -0.73800
C 	C 	0.53535 0.73520 0.76480 0.16300
C 	C 	0.57857 0.72160 0.77840 -0.67400
C 	C 	0.03535 0.73520 0.26480 0.17500
C 	C 	0.07857 0.72160 0.27840 -0.68600
C 	C 	0.46465 0.26480 0.76480 0.16200
C 	C 	0.42143 0.27840 0.77840 -0.67400
C 	C 	0.96465 0.26480 0.26480 0.23200
C 	C 	0.92143 0.27840 0.27840 -0.73800
C 	C 	0.96465 0.76480 0.76480 0.23400
C 	C 	0.92143 0.77840 0.77840 -0.74400
C 	C 	0.26480 0.76480 0.46465 0.16200
C 	C 	0.27840 0.77840 0.42143 -0.67400
C 	C 	0.26480 0.26480 0.96465 0.23200
C 	C 	0.27840 0.27840 0.92143 -0.73800
C 	C 	0.76480 0.76480 0.96465 0.23400
C 	C 	0.77840 0.77840 0.92143 -0.74400
C 	C 	0.73520 0.76480 0.53535 0.16300
C 	C 	0.72160 0.77840 0.57857 -0.67400
C 	C 	0.73520 0.26480 0.03535 0.17500
C 	C 	0.72160 0.27840 0.07857 -0.68600
C 	C 	0.73520 0.23520 0.46465 0.16100
C 	C 	0.72160 0.22160 0.42143 -0.67000
C 	C 	0.73520 0.73520 0.96465 0.23200
C 	C 	0.72160 0.72160 0.92143 -0.73800
C 	C 	0.26480 0.23520 0.53535 0.16100
C 	C 	0.27840 0.22160 0.57857 -0.67000
C 	C 	0.26480 0.73520 0.03535 0.17500
C 	C 	0.27840 0.72160 0.07857 -0.68600
C 	C 	0.76480 0.73520 0.53535 0.16300
C 	C 	0.77840 0.72160 0.57857 -0.67400
C 	C 	0.76480 0.53535 0.73520 0.16300
C 	C 	0.77840 0.57857 0.72160 -0.67400
C 	C 	0.76480 0.03535 0.23520 0.17600
C 	C 	0.77840 0.07857 0.22160 -0.68900
C 	C 	0.76480 0.46465 0.26480 0.16200
C 	C 	0.77840 0.42143 0.27840 -0.67400
C 	C 	0.76480 0.96465 0.76480 0.23400
C 	C 	0.77840 0.92143 0.77840 -0.74400
C 	C 	0.23520 0.53535 0.26480 0.16100
C 	C 	0.22160 0.57857 0.27840 -0.67000
C 	C 	0.23520 0.03535 0.76480 0.17600
C 	C 	0.22160 0.07857 0.77840 -0.68900
C 	C 	0.73520 0.53535 0.76480 0.16300
C 	C 	0.72160 0.57857 0.77840 -0.67400
C 	C 	0.23520 0.46465 0.73520 0.16100
C 	C 	0.22160 0.42143 0.72160 -0.67000
C 	C 	0.23520 0.96465 0.23520 0.23200
C 	C 	0.22160 0.92143 0.22160 -0.73700
C 	C 	0.73520 0.96465 0.73520 0.23200
C 	C 	0.72160 0.92143 0.72160 -0.73800
C 	C 	0.73520 0.46465 0.23520 0.16100
C 	C 	0.72160 0.42143 0.22160 -0.67000
C 	C 	0.26480 0.53535 0.23520 0.16100
C 	C 	0.27840 0.57857 0.22160 -0.67000
C 	C 	0.26480 0.03535 0.73520 0.17500
C 	C 	0.27840 0.07857 0.72160 -0.68600
C 	C 	0.26480 0.46465 0.76480 0.16200
C 	C 	0.27840 0.42143 0.77840 -0.67400
C 	C 	0.26480 0.96465 0.26480 0.23200
C 	C 	0.27840 0.92143 0.27840 -0.73800
C 	C 	0.73520 0.03535 0.26480 0.17500
C 	C 	0.72160 0.07857 0.27840 -0.68600
C 	C 	0.23520 0.73520 0.46465 0.16100
C 	C 	0.22160 0.72160 0.42143 -0.67000
C 	C 	0.23520 0.23520 0.96465 0.23200
C 	C 	0.22160 0.22160 0.92143 -0.73700
C 	C 	0.23520 0.26480 0.53535 0.16100
C 	C 	0.22160 0.27840 0.57857 -0.67000
C 	C 	0.23520 0.76480 0.03535 0.17600
C 	C 	0.22160 0.77840 0.07857 -0.68900
C 	C 	0.76480 0.26480 0.46465 0.16200
C 	C 	0.77840 0.27840 0.42143 -0.67400
C 	C 	0.76480 0.23520 0.03535 0.17600
C 	C 	0.77840 0.22160 0.07857 -0.68900
C 	C 	0.46465 0.23520 0.73520 0.16100
C 	C 	0.42143 0.22160 0.72160 -0.67000
C 	C 	0.96465 0.23520 0.23520 0.23200
C 	C 	0.92143 0.22160 0.22160 -0.73700
C 	C 	0.53535 0.23520 0.26480 0.16100
C 	C 	0.57857 0.22160 0.27840 -0.67000
C 	C 	0.03535 0.23520 0.76480 0.17600
C 	C 	0.07857 0.22160 0.77840 -0.68900
C 	C 	0.46465 0.76480 0.26480 0.16200
C 	C 	0.42143 0.77840 0.27840 -0.67400
C 	C 	0.03535 0.76480 0.23520 0.17600
C 	C 	0.07857 0.77840 0.22160 -0.68900
C 	C 	0.96465 0.73520 0.26480 0.23200
C 	C 	0.92143 0.72160 0.27840 -0.73800
C 	C 	0.53535 0.26480 0.76480 0.16200
C 	C 	0.57857 0.27840 0.77840 -0.67400
C 	C 	0.03535 0.26480 0.26480 0.17500
C 	C 	0.07857 0.27840 0.27840 -0.68600
C 	C 	0.46465 0.26480 0.23520 0.16100
C 	C 	0.42143 0.27840 0.22160 -0.67000
C 	C 	0.96465 0.26480 0.73520 0.23200
C 	C 	0.92143 0.27840 0.72160 -0.73800
C 	C 	0.53535 0.73520 0.23520 0.16100
C 	C 	0.57857 0.72160 0.22160 -0.67000
C 	C 	0.73520 0.23520 0.53535 0.16100
C 	C 	0.72160 0.22160 0.57857 -0.67000
C 	C 	0.26480 0.23520 0.46465 0.16100
C 	C 	0.27840 0.22160 0.42143 -0.67000
C 	C 	0.26480 0.73520 0.96465 0.23200
C 	C 	0.27840 0.72160 0.92143 -0.73800
C 	C 	0.26480 0.76480 0.53535 0.16200
C 	C 	0.27840 0.77840 0.57857 -0.67400
C 	C 	0.26480 0.26480 0.03535 0.17500
C 	C 	0.27840 0.27840 0.07857 -0.68600
C 	C 	0.73520 0.26480 0.96465 0.23200
C 	C 	0.72160 0.27840 0.92143 -0.73800
C 	C 	0.23520 0.46465 0.26480 0.16100
C 	C 	0.22160 0.42143 0.27840 -0.67000
C 	C 	0.23520 0.96465 0.76480 0.23300
C 	C 	0.22160 0.92143 0.77840 -0.74100
C 	C 	0.23520 0.53535 0.73520 0.16100
C 	C 	0.22160 0.57857 0.72160 -0.67000
C 	C 	0.23520 0.03535 0.23520 0.17500
C 	C 	0.22160 0.07857 0.22160 -0.68500
C 	C 	0.76480 0.96465 0.23520 0.23300
C 	C 	0.77840 0.92143 0.22160 -0.74100
C 	C 	0.76480 0.53535 0.26480 0.16200
C 	C 	0.77840 0.57857 0.27840 -0.67400
