data_crystal

_cell_length_a 13.54240
_cell_length_b 13.54240
_cell_length_c 13.54240
_cell_angle_alpha 102.85800
_cell_angle_beta  102.85800
_cell_angle_gamma 102.85800

_symmetry_space_group_name_	'P 1'
_symmetry_space_group_name_H-M	'P 1'

loop_
_symmetry_equiv_pos_as_xyz
  x,y,z

loop_
_atom_site_label
_atom_site_type_symbol
_atom_site_fract_x
_atom_site_fract_y
_atom_site_fract_z
_atom_site_charge
Cr	Cr	1.00000 0.21030 0.78970 1.43400
Cr	Cr	0.78970 0.00000 0.21030 1.42600
Cr	Cr	0.21030 0.78970 -0.00000 1.45600
Ni	Ni	0.11593 0.50000 0.88407 1.12800
Ni	Ni	0.88407 0.11593 0.50000 1.07200
Ni	Ni	0.50000 0.88407 0.11593 1.09900
H 	H 	0.11860 0.37010 0.67550 -0.01600
H 	H 	0.11740 0.66550 0.75810 -0.03800
H 	H 	0.14160 0.38170 0.51550 0.09400
H 	H 	0.14980 0.34780 0.01860 -0.09600
H 	H 	0.11330 0.63040 0.09290 -0.08400
H 	H 	0.13690 0.68570 0.59900 0.09400
H 	H 	0.12660 0.62820 0.26420 0.09100
H 	H 	0.15040 0.40660 0.36480 0.05900
H 	H 	0.16480 0.33770 0.18800 0.06700
H 	H 	0.14950 0.61390 0.42270 0.05700
H 	H 	0.67550 0.11860 0.37010 -0.03300
H 	H 	0.75810 0.11740 0.66550 -0.07600
H 	H 	0.51550 0.14160 0.38170 0.08300
H 	H 	0.01860 0.14980 0.34780 -0.04600
H 	H 	0.09290 0.11330 0.63040 -0.05800
H 	H 	0.59900 0.13690 0.68570 0.06800
H 	H 	0.26420 0.12660 0.62820 0.07200
H 	H 	0.36480 0.15040 0.40660 0.04800
H 	H 	0.18800 0.16480 0.33770 0.06000
H 	H 	0.42270 0.14950 0.61390 0.04600
H 	H 	0.37010 0.67550 0.11860 -0.03300
H 	H 	0.66550 0.75810 0.11740 -0.07400
H 	H 	0.38170 0.51550 0.14160 0.07900
H 	H 	0.34780 0.01860 0.14980 -0.09800
H 	H 	0.63040 0.09290 0.11330 -0.11300
H 	H 	0.68570 0.59900 0.13690 0.05800
H 	H 	0.62820 0.26420 0.12660 0.06300
H 	H 	0.40660 0.36480 0.15040 0.05100
H 	H 	0.33770 0.18800 0.16480 0.06000
H 	H 	0.61390 0.42270 0.14950 0.03700
H 	H 	0.62990 0.88140 0.32450 -0.01800
H 	H 	0.33450 0.88260 0.24190 -0.04900
H 	H 	0.61830 0.85840 0.48450 0.09500
H 	H 	0.65220 0.85020 0.98140 -0.04300
H 	H 	0.36960 0.88670 0.90710 -0.04100
H 	H 	0.31430 0.86310 0.40100 0.09200
H 	H 	0.37180 0.87340 0.73580 0.09200
H 	H 	0.59340 0.84960 0.63520 0.05800
H 	H 	0.66230 0.83520 0.81200 0.07200
H 	H 	0.38610 0.85050 0.57730 0.05900
H 	H 	0.88140 0.32450 0.62990 -0.03500
H 	H 	0.88260 0.24190 0.33450 -0.08400
H 	H 	0.85840 0.48450 0.61830 0.08000
H 	H 	0.85020 0.98140 0.65220 -0.04500
H 	H 	0.88670 0.90710 0.36960 -0.07200
H 	H 	0.86310 0.40100 0.31430 0.05600
H 	H 	0.87340 0.73580 0.37180 0.06400
H 	H 	0.84960 0.63520 0.59340 0.05000
H 	H 	0.83520 0.81200 0.66230 0.06500
H 	H 	0.85050 0.57730 0.38610 0.03900
H 	H 	0.32450 0.62990 0.88140 -0.01800
H 	H 	0.24190 0.33450 0.88260 -0.04500
H 	H 	0.48450 0.61830 0.85840 0.09100
H 	H 	0.98140 0.65220 0.85020 -0.09500
H 	H 	0.90710 0.36960 0.88670 -0.09600
H 	H 	0.40100 0.31430 0.86310 0.08300
H 	H 	0.73580 0.37180 0.87340 0.08400
H 	H 	0.63520 0.59340 0.84960 0.06000
H 	H 	0.81200 0.66230 0.83520 0.07200
H 	H 	0.57730 0.38610 0.85050 0.05100
C 	C 	0.12210 0.43455 0.65924 0.11600
C 	C 	0.12094 0.60718 0.70764 0.12600
C 	C 	0.13527 0.44055 0.56309 -0.16300
C 	C 	0.14480 0.40532 0.06898 0.10700
C 	C 	0.12350 0.57024 0.11256 0.11800
C 	C 	0.14460 0.48120 0.24650 0.13500
C 	C 	0.13920 0.53513 0.53628 0.13100
C 	C 	0.13300 0.61990 0.61260 -0.17600
C 	C 	0.13080 0.56920 0.21520 -0.20100
C 	C 	0.14730 0.47190 0.35270 -0.09500
C 	C 	0.15320 0.39840 0.17040 -0.20800
C 	C 	0.14590 0.54683 0.43277 -0.07400
C 	C 	0.65924 0.12210 0.43455 0.09200
C 	C 	0.70764 0.12094 0.60718 0.10100
C 	C 	0.56309 0.13527 0.44055 -0.17900
C 	C 	0.06898 0.14480 0.40532 0.09400
C 	C 	0.11256 0.12350 0.57024 0.10300
C 	C 	0.24650 0.14460 0.48120 0.11300
C 	C 	0.53628 0.13920 0.53513 0.11000
C 	C 	0.61260 0.13300 0.61990 -0.19200
C 	C 	0.21520 0.13080 0.56920 -0.19200
C 	C 	0.35270 0.14730 0.47190 -0.10100
C 	C 	0.17040 0.15320 0.39840 -0.19500
C 	C 	0.43277 0.14590 0.54683 -0.09100
C 	C 	0.43455 0.65924 0.12210 0.08700
C 	C 	0.60718 0.70764 0.12094 0.09600
C 	C 	0.44055 0.56309 0.13527 -0.17400
C 	C 	0.40532 0.06898 0.14480 0.09000
C 	C 	0.57024 0.11256 0.12350 0.09700
C 	C 	0.48120 0.24650 0.14460 0.11800
C 	C 	0.53513 0.53628 0.13920 0.10100
C 	C 	0.61990 0.61260 0.13300 -0.18400
C 	C 	0.56920 0.21520 0.13080 -0.20900
C 	C 	0.47190 0.35270 0.14730 -0.11200
C 	C 	0.39840 0.17040 0.15320 -0.21300
C 	C 	0.54683 0.43277 0.14590 -0.08300
C 	C 	0.56545 0.87790 0.34076 0.11600
C 	C 	0.39282 0.87906 0.29236 0.12600
C 	C 	0.55945 0.86473 0.43691 -0.16600
C 	C 	0.59468 0.85520 0.93102 0.11100
C 	C 	0.42976 0.87650 0.88744 0.12200
C 	C 	0.51880 0.85540 0.75350 0.13100
C 	C 	0.46487 0.86080 0.46372 0.13300
C 	C 	0.38010 0.86700 0.38740 -0.18100
C 	C 	0.43080 0.86920 0.78480 -0.18700
C 	C 	0.52810 0.85270 0.64730 -0.08800
C 	C 	0.60160 0.84680 0.82960 -0.19100
C 	C 	0.45317 0.85410 0.56723 -0.07900
C 	C 	0.87790 0.34076 0.56545 0.08700
C 	C 	0.87906 0.29236 0.39282 0.09700
C 	C 	0.86473 0.43691 0.55945 -0.17700
C 	C 	0.85520 0.93102 0.59468 0.09400
C 	C 	0.87650 0.88744 0.42976 0.10100
C 	C 	0.85540 0.75350 0.51880 0.11400
C 	C 	0.86080 0.46372 0.46487 0.10300
C 	C 	0.86700 0.38740 0.38010 -0.18900
C 	C 	0.86920 0.78480 0.43080 -0.19500
C 	C 	0.85270 0.64730 0.52810 -0.10600
C 	C 	0.84680 0.82960 0.60160 -0.19600
C 	C 	0.85410 0.56723 0.45317 -0.08800
C 	C 	0.34076 0.56545 0.87790 0.11100
C 	C 	0.29236 0.39282 0.87906 0.12100
C 	C 	0.43691 0.55945 0.86473 -0.16100
C 	C 	0.93102 0.59468 0.85520 0.10700
C 	C 	0.88744 0.42976 0.87650 0.11600
C 	C 	0.75350 0.51880 0.85540 0.13600
C 	C 	0.46372 0.46487 0.86080 0.12400
C 	C 	0.38740 0.38010 0.86700 -0.17300
C 	C 	0.78480 0.43080 0.86920 -0.20400
C 	C 	0.64730 0.52810 0.85270 -0.10000
C 	C 	0.82960 0.60160 0.84680 -0.21000
C 	C 	0.56723 0.45317 0.85410 -0.07000
N 	N 	0.11406 0.51573 0.73148 -0.22800
N 	N 	0.13002 0.48909 0.03902 -0.27300
N 	N 	0.73148 0.11406 0.51573 -0.24700
N 	N 	0.03902 0.13002 0.48909 -0.22300
N 	N 	0.51573 0.73148 0.11406 -0.24700
N 	N 	0.48909 0.03902 0.13002 -0.28400
N 	N 	0.48427 0.88594 0.26852 -0.23000
N 	N 	0.51091 0.86998 0.96098 -0.21800
N 	N 	0.88594 0.26852 0.48427 -0.24900
N 	N 	0.86998 0.96098 0.51091 -0.23000
N 	N 	0.26852 0.48427 0.88594 -0.22900
N 	N 	0.96098 0.51091 0.86998 -0.27900
O 	O 	0.05718 0.33902 0.82770 -0.62100
O 	O 	0.82770 0.05718 0.33902 -0.74300
O 	O 	0.33902 0.82770 0.05718 -0.70700
O 	O 	0.66098 0.94282 0.17230 -0.66400
O 	O 	0.94282 0.17230 0.66098 -0.74400
O 	O 	0.17230 0.66098 0.94282 -0.62500
