data_crystal

_cell_length_a 26.10650
_cell_length_b 26.10650
_cell_length_c 26.10650
_cell_angle_alpha 90.00000
_cell_angle_beta  90.00000
_cell_angle_gamma 90.00000

_symmetry_space_group_name_	'P 1'
_symmetry_space_group_name_H-M	'P 1'

loop_
_symmetry_equiv_pos_as_xyz
  x,y,z

loop_
_atom_site_label
_atom_site_type_symbol
_atom_site_fract_x
_atom_site_fract_y
_atom_site_fract_z
_atom_site_charge
C 	C 	0.00920 0.87450 0.25270 0.41800
C 	C 	0.00360 0.88150 0.19380 -0.33600
H 	H 	0.03370 0.86680 0.17610 0.12500
H 	H 	0.97250 0.86360 0.18150 0.20900
O 	O 	0.00900 0.91390 0.27970 -0.35600
O 	O 	0.01360 0.82970 0.27120 -0.44700
C 	C 	0.00920 0.37450 0.75270 0.43000
C 	C 	0.00360 0.38150 0.69380 -0.34100
H 	H 	0.03370 0.36680 0.67610 0.12600
H 	H 	0.97250 0.36360 0.68150 0.21000
O 	O 	0.00900 0.41390 0.77970 -0.41100
O 	O 	0.01360 0.32970 0.77120 -0.45200
C 	C 	0.50920 0.87450 0.75270 0.38800
C 	C 	0.50360 0.88150 0.69380 -0.16700
H 	H 	0.53370 0.86680 0.67610 0.08800
H 	H 	0.47250 0.86360 0.68150 0.09000
O 	O 	0.50900 0.91390 0.77970 -0.33300
O 	O 	0.51360 0.82970 0.77120 -0.40100
C 	C 	0.50920 0.37450 0.25270 0.39900
C 	C 	0.50360 0.38150 0.19380 -0.17200
H 	H 	0.53370 0.36680 0.17610 0.08800
H 	H 	0.47250 0.36360 0.18150 0.08900
O 	O 	0.50900 0.41390 0.27970 -0.39200
O 	O 	0.51360 0.32970 0.27120 -0.41000
C 	C 	0.24080 0.87550 0.75270 0.39300
C 	C 	0.24640 0.86850 0.69380 -0.17000
H 	H 	0.21630 0.88320 0.67610 0.09000
H 	H 	0.27750 0.88640 0.68150 0.09300
O 	O 	0.24100 0.83610 0.77970 -0.38300
O 	O 	0.23640 0.92030 0.77120 -0.37200
C 	C 	0.24080 0.37550 0.25270 0.39800
C 	C 	0.24640 0.36850 0.19380 -0.17200
H 	H 	0.21630 0.38320 0.17610 0.08700
H 	H 	0.27750 0.38640 0.18150 0.08900
O 	O 	0.24100 0.33610 0.27970 -0.39200
O 	O 	0.23640 0.42030 0.27120 -0.41000
C 	C 	0.74080 0.87550 0.25270 0.39400
C 	C 	0.74640 0.86850 0.19380 -0.17100
H 	H 	0.71630 0.88320 0.17610 0.09100
H 	H 	0.77750 0.88640 0.18150 0.09500
O 	O 	0.74100 0.83610 0.27970 -0.38400
O 	O 	0.73640 0.92030 0.27120 -0.37300
C 	C 	0.74080 0.37550 0.75270 0.40000
C 	C 	0.74640 0.36850 0.69380 -0.17300
H 	H 	0.71630 0.38320 0.67610 0.08800
H 	H 	0.77750 0.38640 0.68150 0.09100
O 	O 	0.74100 0.33610 0.77970 -0.38800
O 	O 	0.73640 0.42030 0.77120 -0.40700
C 	C 	0.74080 0.37450 0.99730 0.51600
C 	C 	0.74640 0.38150 0.05620 -0.30600
H 	H 	0.71630 0.36680 0.07390 0.11600
H 	H 	0.77750 0.36360 0.06850 0.11700
O 	O 	0.74100 0.41390 0.97030 -0.35400
O 	O 	0.73640 0.32970 0.97880 -0.38600
C 	C 	0.74080 0.87450 0.49730 0.38900
C 	C 	0.74640 0.88150 0.55620 -0.16800
H 	H 	0.71630 0.86680 0.57390 0.08800
H 	H 	0.77750 0.86360 0.56850 0.09200
O 	O 	0.74100 0.91390 0.47030 -0.33400
O 	O 	0.73640 0.82970 0.47880 -0.40200
C 	C 	0.24080 0.37450 0.49730 0.39800
C 	C 	0.24640 0.38150 0.55620 -0.17200
H 	H 	0.21630 0.36680 0.57390 0.08700
H 	H 	0.27750 0.36360 0.56850 0.08900
O 	O 	0.24100 0.41390 0.47030 -0.39200
O 	O 	0.23640 0.32970 0.47880 -0.41000
C 	C 	0.24080 0.87450 0.99730 0.50200
C 	C 	0.24640 0.88150 0.05620 -0.29800
H 	H 	0.21630 0.86680 0.07390 0.11500
H 	H 	0.27750 0.86360 0.06850 0.11600
O 	O 	0.24100 0.91390 0.97030 -0.29800
O 	O 	0.23640 0.82970 0.97880 -0.38000
C 	C 	0.50920 0.37550 0.49730 0.39900
C 	C 	0.50360 0.36850 0.55620 -0.17200
H 	H 	0.53370 0.38320 0.57390 0.08800
H 	H 	0.47250 0.38640 0.56850 0.08900
O 	O 	0.50900 0.33610 0.47030 -0.39200
O 	O 	0.51360 0.42030 0.47880 -0.41000
C 	C 	0.50920 0.87550 0.99730 0.50700
C 	C 	0.50360 0.86850 0.05620 -0.30100
H 	H 	0.53370 0.88320 0.07390 0.11800
H 	H 	0.47250 0.88640 0.06850 0.11900
O 	O 	0.50900 0.83610 0.97030 -0.34900
O 	O 	0.51360 0.92030 0.97880 -0.35300
C 	C 	0.00920 0.37550 0.99730 0.55000
C 	C 	0.00360 0.36850 0.05620 -0.47900
H 	H 	0.03370 0.38320 0.07390 0.15500
H 	H 	0.97250 0.38640 0.06850 0.23900
O 	O 	0.00900 0.33610 0.97030 -0.37500
O 	O 	0.01360 0.42030 0.97880 -0.43200
C 	C 	0.00920 0.87550 0.49730 0.42400
C 	C 	0.00360 0.86850 0.55620 -0.33500
H 	H 	0.03370 0.88320 0.57390 0.12800
H 	H 	0.97250 0.88640 0.56850 0.21200
O 	O 	0.00900 0.83610 0.47030 -0.40700
O 	O 	0.01360 0.92030 0.47880 -0.41800
C 	C 	0.25270 0.00920 0.87450 0.41900
C 	C 	0.19380 0.00360 0.88150 -0.33500
H 	H 	0.17610 0.03370 0.86680 0.12600
H 	H 	0.18150 0.97250 0.86360 0.21000
O 	O 	0.27970 0.00900 0.91390 -0.35500
O 	O 	0.27120 0.01360 0.82970 -0.44700
C 	C 	0.25270 0.50920 0.37450 0.39900
C 	C 	0.19380 0.50360 0.38150 -0.17200
H 	H 	0.17610 0.53370 0.36680 0.08800
H 	H 	0.18150 0.47250 0.36360 0.08900
O 	O 	0.27970 0.50900 0.41390 -0.39200
O 	O 	0.27120 0.51360 0.32970 -0.41000
C 	C 	0.75270 0.00920 0.37450 0.43000
C 	C 	0.69380 0.00360 0.38150 -0.34100
H 	H 	0.67610 0.03370 0.36680 0.12600
H 	H 	0.68150 0.97250 0.36360 0.21000
O 	O 	0.77970 0.00900 0.41390 -0.41100
O 	O 	0.77120 0.01360 0.32970 -0.45200
C 	C 	0.75270 0.50920 0.87450 0.38800
C 	C 	0.69380 0.50360 0.88150 -0.16700
H 	H 	0.67610 0.53370 0.86680 0.08800
H 	H 	0.68150 0.47250 0.86360 0.09000
O 	O 	0.77970 0.50900 0.91390 -0.33300
O 	O 	0.77120 0.51360 0.82970 -0.40100
C 	C 	0.75270 0.24080 0.87550 0.39300
C 	C 	0.69380 0.24640 0.86850 -0.17000
H 	H 	0.67610 0.21630 0.88320 0.09000
H 	H 	0.68150 0.27750 0.88640 0.09300
O 	O 	0.77970 0.24100 0.83610 -0.38300
O 	O 	0.77120 0.23640 0.92030 -0.37200
C 	C 	0.75270 0.74080 0.37550 0.40000
C 	C 	0.69380 0.74640 0.36850 -0.17300
H 	H 	0.67610 0.71630 0.38320 0.08800
H 	H 	0.68150 0.77750 0.38640 0.09100
O 	O 	0.77970 0.74100 0.33610 -0.38800
O 	O 	0.77120 0.73640 0.42030 -0.40700
C 	C 	0.25270 0.24080 0.37550 0.39800
C 	C 	0.19380 0.24640 0.36850 -0.17200
H 	H 	0.17610 0.21630 0.38320 0.08700
H 	H 	0.18150 0.27750 0.38640 0.08900
O 	O 	0.27970 0.24100 0.33610 -0.39200
O 	O 	0.27120 0.23640 0.42030 -0.41000
C 	C 	0.25270 0.74080 0.87550 0.39400
C 	C 	0.19380 0.74640 0.86850 -0.17100
H 	H 	0.17610 0.71630 0.88320 0.09100
H 	H 	0.18150 0.77750 0.88640 0.09500
O 	O 	0.27970 0.74100 0.83610 -0.38400
O 	O 	0.27120 0.73640 0.92030 -0.37300
C 	C 	0.99730 0.74080 0.37450 0.51600
C 	C 	0.05620 0.74640 0.38150 -0.30600
H 	H 	0.07390 0.71630 0.36680 0.11600
H 	H 	0.06850 0.77750 0.36360 0.11700
O 	O 	0.97030 0.74100 0.41390 -0.35400
O 	O 	0.97880 0.73640 0.32970 -0.38600
C 	C 	0.99730 0.24080 0.87450 0.50200
C 	C 	0.05620 0.24640 0.88150 -0.29800
H 	H 	0.07390 0.21630 0.86680 0.11500
H 	H 	0.06850 0.27750 0.86360 0.11600
O 	O 	0.97030 0.24100 0.91390 -0.29800
O 	O 	0.97880 0.23640 0.82970 -0.38000
C 	C 	0.49730 0.74080 0.87450 0.38900
C 	C 	0.55620 0.74640 0.88150 -0.16800
H 	H 	0.57390 0.71630 0.86680 0.08800
H 	H 	0.56850 0.77750 0.86360 0.09200
O 	O 	0.47030 0.74100 0.91390 -0.33400
O 	O 	0.47880 0.73640 0.82970 -0.40200
C 	C 	0.49730 0.24080 0.37450 0.39800
C 	C 	0.55620 0.24640 0.38150 -0.17200
H 	H 	0.57390 0.21630 0.36680 0.08700
H 	H 	0.56850 0.27750 0.36360 0.08900
O 	O 	0.47030 0.24100 0.41390 -0.39200
O 	O 	0.47880 0.23640 0.32970 -0.41000
C 	C 	0.49730 0.50920 0.37550 0.39900
C 	C 	0.55620 0.50360 0.36850 -0.17200
H 	H 	0.57390 0.53370 0.38320 0.08800
H 	H 	0.56850 0.47250 0.38640 0.08900
O 	O 	0.47030 0.50900 0.33610 -0.39200
O 	O 	0.47880 0.51360 0.42030 -0.41000
C 	C 	0.49730 0.00920 0.87550 0.42400
C 	C 	0.55620 0.00360 0.86850 -0.33500
H 	H 	0.57390 0.03370 0.88320 0.12800
H 	H 	0.56850 0.97250 0.88640 0.21200
O 	O 	0.47030 0.00900 0.83610 -0.40700
O 	O 	0.47880 0.01360 0.92030 -0.41800
C 	C 	0.99730 0.50920 0.87550 0.50700
C 	C 	0.05620 0.50360 0.86850 -0.30100
H 	H 	0.07390 0.53370 0.88320 0.11800
H 	H 	0.06850 0.47250 0.88640 0.11900
O 	O 	0.97030 0.50900 0.83610 -0.34900
O 	O 	0.97880 0.51360 0.92030 -0.35300
C 	C 	0.99730 0.00920 0.37550 0.55000
C 	C 	0.05620 0.00360 0.36850 -0.47900
H 	H 	0.07390 0.03370 0.38320 0.15500
H 	H 	0.06850 0.97250 0.38640 0.23900
O 	O 	0.97030 0.00900 0.33610 -0.37500
O 	O 	0.97880 0.01360 0.42030 -0.43200
C 	C 	0.87450 0.25270 0.00920 0.41900
C 	C 	0.88150 0.19380 0.00360 -0.33500
H 	H 	0.86680 0.17610 0.03370 0.12600
H 	H 	0.86360 0.18150 0.97250 0.21000
O 	O 	0.91390 0.27970 0.00900 -0.35500
O 	O 	0.82970 0.27120 0.01360 -0.44700
C 	C 	0.87450 0.75270 0.50920 0.38800
C 	C 	0.88150 0.69380 0.50360 -0.16700
H 	H 	0.86680 0.67610 0.53370 0.08800
H 	H 	0.86360 0.68150 0.47250 0.09000
O 	O 	0.91390 0.77970 0.50900 -0.33300
O 	O 	0.82970 0.77120 0.51360 -0.40100
C 	C 	0.37450 0.25270 0.50920 0.39900
C 	C 	0.38150 0.19380 0.50360 -0.17200
H 	H 	0.36680 0.17610 0.53370 0.08800
H 	H 	0.36360 0.18150 0.47250 0.08900
O 	O 	0.41390 0.27970 0.50900 -0.39200
O 	O 	0.32970 0.27120 0.51360 -0.41000
C 	C 	0.37450 0.75270 0.00920 0.43000
C 	C 	0.38150 0.69380 0.00360 -0.34100
H 	H 	0.36680 0.67610 0.03370 0.12600
H 	H 	0.36360 0.68150 0.97250 0.21000
O 	O 	0.41390 0.77970 0.00900 -0.41100
O 	O 	0.32970 0.77120 0.01360 -0.45200
C 	C 	0.87550 0.75270 0.24080 0.39300
C 	C 	0.86850 0.69380 0.24640 -0.17000
H 	H 	0.88320 0.67610 0.21630 0.09000
H 	H 	0.88640 0.68150 0.27750 0.09300
O 	O 	0.83610 0.77970 0.24100 -0.38300
O 	O 	0.92030 0.77120 0.23640 -0.37200
C 	C 	0.87550 0.25270 0.74080 0.39400
C 	C 	0.86850 0.19380 0.74640 -0.17100
H 	H 	0.88320 0.17610 0.71630 0.09100
H 	H 	0.88640 0.18150 0.77750 0.09500
O 	O 	0.83610 0.27970 0.74100 -0.38400
O 	O 	0.92030 0.27120 0.73640 -0.37300
C 	C 	0.37550 0.75270 0.74080 0.40000
C 	C 	0.36850 0.69380 0.74640 -0.17300
H 	H 	0.38320 0.67610 0.71630 0.08800
H 	H 	0.38640 0.68150 0.77750 0.09100
O 	O 	0.33610 0.77970 0.74100 -0.38800
O 	O 	0.42030 0.77120 0.73640 -0.40700
C 	C 	0.37550 0.25270 0.24080 0.39800
C 	C 	0.36850 0.19380 0.24640 -0.17200
H 	H 	0.38320 0.17610 0.21630 0.08700
H 	H 	0.38640 0.18150 0.27750 0.08900
O 	O 	0.33610 0.27970 0.24100 -0.39200
O 	O 	0.42030 0.27120 0.23640 -0.41000
C 	C 	0.37450 0.99730 0.74080 0.51600
C 	C 	0.38150 0.05620 0.74640 -0.30600
H 	H 	0.36680 0.07390 0.71630 0.11600
H 	H 	0.36360 0.06850 0.77750 0.11700
O 	O 	0.41390 0.97030 0.74100 -0.35400
O 	O 	0.32970 0.97880 0.73640 -0.38600
C 	C 	0.37450 0.49730 0.24080 0.39800
C 	C 	0.38150 0.55620 0.24640 -0.17200
H 	H 	0.36680 0.57390 0.21630 0.08700
H 	H 	0.36360 0.56850 0.27750 0.08900
O 	O 	0.41390 0.47030 0.24100 -0.39200
O 	O 	0.32970 0.47880 0.23640 -0.41000
C 	C 	0.87450 0.99730 0.24080 0.50200
C 	C 	0.88150 0.05620 0.24640 -0.29800
H 	H 	0.86680 0.07390 0.21630 0.11500
H 	H 	0.86360 0.06850 0.27750 0.11600
O 	O 	0.91390 0.97030 0.24100 -0.29800
O 	O 	0.82970 0.97880 0.23640 -0.38000
C 	C 	0.87450 0.49730 0.74080 0.38900
C 	C 	0.88150 0.55620 0.74640 -0.16800
H 	H 	0.86680 0.57390 0.71630 0.08800
H 	H 	0.86360 0.56850 0.77750 0.09200
O 	O 	0.91390 0.47030 0.74100 -0.33400
O 	O 	0.82970 0.47880 0.73640 -0.40200
C 	C 	0.37550 0.49730 0.50920 0.39900
C 	C 	0.36850 0.55620 0.50360 -0.17200
H 	H 	0.38320 0.57390 0.53370 0.08800
H 	H 	0.38640 0.56850 0.47250 0.08900
O 	O 	0.33610 0.47030 0.50900 -0.39200
O 	O 	0.42030 0.47880 0.51360 -0.41000
C 	C 	0.37550 0.99730 0.00920 0.55000
C 	C 	0.36850 0.05620 0.00360 -0.47900
H 	H 	0.38320 0.07390 0.03370 0.15500
H 	H 	0.38640 0.06850 0.97250 0.23900
O 	O 	0.33610 0.97030 0.00900 -0.37500
O 	O 	0.42030 0.97880 0.01360 -0.43200
C 	C 	0.87550 0.49730 0.00920 0.42400
C 	C 	0.86850 0.55620 0.00360 -0.33500
H 	H 	0.88320 0.57390 0.03370 0.12800
H 	H 	0.88640 0.56850 0.97250 0.21200
O 	O 	0.83610 0.47030 0.00900 -0.40700
O 	O 	0.92030 0.47880 0.01360 -0.41800
C 	C 	0.87550 0.99730 0.50920 0.50700
C 	C 	0.86850 0.05620 0.50360 -0.30100
H 	H 	0.88320 0.07390 0.53370 0.11800
H 	H 	0.88640 0.06850 0.47250 0.11900
O 	O 	0.83610 0.97030 0.50900 -0.34900
O 	O 	0.92030 0.97880 0.51360 -0.35300
C 	C 	0.62450 0.25920 0.74730 0.39900
C 	C 	0.63150 0.25360 0.80620 -0.17400
H 	H 	0.61680 0.28370 0.82390 0.09100
H 	H 	0.61360 0.22250 0.81850 0.09000
O 	O 	0.66390 0.25900 0.72030 -0.39400
O 	O 	0.57970 0.26360 0.72880 -0.41100
C 	C 	0.62450 0.75920 0.24730 0.39900
C 	C 	0.63150 0.75360 0.30620 -0.17300
H 	H 	0.61680 0.78370 0.32390 0.09000
H 	H 	0.61360 0.72250 0.31850 0.08900
O 	O 	0.66390 0.75900 0.22030 -0.39400
O 	O 	0.57970 0.76360 0.22880 -0.41100
C 	C 	0.12450 0.25920 0.24730 0.40100
C 	C 	0.13150 0.25360 0.30620 -0.17400
H 	H 	0.11680 0.28370 0.32390 0.08700
H 	H 	0.11360 0.22250 0.31850 0.08700
O 	O 	0.16390 0.25900 0.22030 -0.39900
O 	O 	0.07970 0.26360 0.22880 -0.43400
C 	C 	0.12450 0.75920 0.74730 0.40300
C 	C 	0.13150 0.75360 0.80620 -0.17700
H 	H 	0.11680 0.78370 0.82390 0.09100
H 	H 	0.11360 0.72250 0.81850 0.08900
O 	O 	0.16390 0.75900 0.72030 -0.39700
O 	O 	0.07970 0.76360 0.72880 -0.43100
C 	C 	0.62550 0.49080 0.24730 0.39900
C 	C 	0.61850 0.49640 0.30620 -0.17300
H 	H 	0.63320 0.46630 0.32390 0.08800
H 	H 	0.63640 0.52750 0.31850 0.08800
O 	O 	0.58610 0.49100 0.22030 -0.39400
O 	O 	0.67030 0.48640 0.22880 -0.41100
C 	C 	0.62550 0.99080 0.74730 0.31200
C 	C 	0.61850 0.99640 0.80620 0.17800
H 	H 	0.63320 0.96630 0.82390 0.00900
H 	H 	0.63640 0.02750 0.81850 -0.07200
O 	O 	0.58610 0.99100 0.72030 -0.29600
O 	O 	0.67030 0.98640 0.72880 -0.33600
C 	C 	0.12550 0.49080 0.74730 0.40100
C 	C 	0.11850 0.49640 0.80620 -0.18700
H 	H 	0.13320 0.46630 0.82390 0.09500
H 	H 	0.13640 0.52750 0.81850 0.09300
O 	O 	0.08610 0.49100 0.72030 -0.38800
O 	O 	0.17030 0.48640 0.72880 -0.41200
C 	C 	0.12550 0.99080 0.24730 0.30900
C 	C 	0.11850 0.99640 0.30620 0.18100
H 	H 	0.13320 0.96630 0.32390 0.00800
H 	H 	0.13640 0.02750 0.31850 -0.07700
O 	O 	0.08610 0.99100 0.22030 -0.29000
O 	O 	0.17030 0.98640 0.22880 -0.33600
C 	C 	0.12450 0.99080 0.00270 0.19300
C 	C 	0.13150 0.99640 0.94380 0.30000
H 	H 	0.11680 0.96630 0.92610 -0.01500
H 	H 	0.11360 0.02750 0.93150 -0.09600
O 	O 	0.16390 0.99100 0.02970 -0.28400
O 	O 	0.07970 0.98640 0.02120 -0.36100
C 	C 	0.12450 0.49080 0.50270 0.40200
C 	C 	0.13150 0.49640 0.44380 -0.17400
H 	H 	0.11680 0.46630 0.42610 0.08700
H 	H 	0.11360 0.52750 0.43150 0.08800
O 	O 	0.16390 0.49100 0.52970 -0.39700
O 	O 	0.07970 0.48640 0.52120 -0.43100
C 	C 	0.62450 0.99080 0.50270 0.31000
C 	C 	0.63150 0.99640 0.44380 0.18700
H 	H 	0.61680 0.96630 0.42610 0.00500
H 	H 	0.61360 0.02750 0.43150 -0.07700
O 	O 	0.66390 0.99100 0.52970 -0.29600
O 	O 	0.57970 0.98640 0.52120 -0.33500
C 	C 	0.62450 0.49080 0.00270 0.27500
C 	C 	0.63150 0.49640 0.94380 -0.04800
H 	H 	0.61680 0.46630 0.92610 0.06700
H 	H 	0.61360 0.52750 0.93150 0.06800
O 	O 	0.66390 0.49100 0.02970 -0.37800
O 	O 	0.57970 0.48640 0.02120 -0.41500
C 	C 	0.12550 0.75920 0.50270 0.40000
C 	C 	0.11850 0.75360 0.44380 -0.18600
H 	H 	0.13320 0.78370 0.42610 0.09400
H 	H 	0.13640 0.72250 0.43150 0.09200
O 	O 	0.08610 0.75900 0.52970 -0.38800
O 	O 	0.17030 0.76360 0.52120 -0.41200
C 	C 	0.12550 0.25920 0.00270 0.27300
C 	C 	0.11850 0.25360 0.94380 -0.05800
H 	H 	0.13320 0.28370 0.92610 0.07100
H 	H 	0.13640 0.22250 0.93150 0.07000
O 	O 	0.08610 0.25900 0.02970 -0.37500
O 	O 	0.17030 0.26360 0.02120 -0.41800
C 	C 	0.62550 0.75920 0.00270 0.27700
C 	C 	0.61850 0.75360 0.94380 -0.05100
H 	H 	0.63320 0.78370 0.92610 0.06900
H 	H 	0.63640 0.72250 0.93150 0.06800
O 	O 	0.58610 0.75900 0.02970 -0.37800
O 	O 	0.67030 0.76360 0.02120 -0.41500
C 	C 	0.62550 0.25920 0.50270 0.39800
C 	C 	0.61850 0.25360 0.44380 -0.17200
H 	H 	0.63320 0.28370 0.42610 0.08800
H 	H 	0.63640 0.22250 0.43150 0.08800
O 	O 	0.58610 0.25900 0.52970 -0.39300
O 	O 	0.67030 0.26360 0.52120 -0.41100
C 	C 	0.75920 0.50270 0.12550 0.40000
C 	C 	0.75360 0.44380 0.11850 -0.18600
H 	H 	0.78370 0.42610 0.13320 0.09400
H 	H 	0.72250 0.43150 0.13640 0.09200
O 	O 	0.75900 0.52970 0.08610 -0.38800
O 	O 	0.76360 0.52120 0.17030 -0.41200
C 	C 	0.75920 0.00270 0.62550 0.27700
C 	C 	0.75360 0.94380 0.61850 -0.05100
H 	H 	0.78370 0.92610 0.63320 0.06900
H 	H 	0.72250 0.93150 0.63640 0.06800
O 	O 	0.75900 0.02970 0.58610 -0.37800
O 	O 	0.76360 0.02120 0.67030 -0.41500
C 	C 	0.25920 0.50270 0.62550 0.39800
C 	C 	0.25360 0.44380 0.61850 -0.17200
H 	H 	0.28370 0.42610 0.63320 0.08800
H 	H 	0.22250 0.43150 0.63640 0.08800
O 	O 	0.25900 0.52970 0.58610 -0.39300
O 	O 	0.26360 0.52120 0.67030 -0.41100
C 	C 	0.25920 0.00270 0.12550 0.27300
C 	C 	0.25360 0.94380 0.11850 -0.05800
H 	H 	0.28370 0.92610 0.13320 0.07100
H 	H 	0.22250 0.93150 0.13640 0.07000
O 	O 	0.25900 0.02970 0.08610 -0.37500
O 	O 	0.26360 0.02120 0.17030 -0.41800
C 	C 	0.99080 0.00270 0.12450 0.19300
C 	C 	0.99640 0.94380 0.13150 0.30000
H 	H 	0.96630 0.92610 0.11680 -0.01500
H 	H 	0.02750 0.93150 0.11360 -0.09600
O 	O 	0.99100 0.02970 0.16390 -0.28400
O 	O 	0.98640 0.02120 0.07970 -0.36100
C 	C 	0.99080 0.50270 0.62450 0.31000
C 	C 	0.99640 0.44380 0.63150 0.18700
H 	H 	0.96630 0.42610 0.61680 0.00500
H 	H 	0.02750 0.43150 0.61360 -0.07700
O 	O 	0.99100 0.52970 0.66390 -0.29600
O 	O 	0.98640 0.52120 0.57970 -0.33500
C 	C 	0.49080 0.00270 0.62450 0.27500
C 	C 	0.49640 0.94380 0.63150 -0.04800
H 	H 	0.46630 0.92610 0.61680 0.06700
H 	H 	0.52750 0.93150 0.61360 0.06800
O 	O 	0.49100 0.02970 0.66390 -0.37800
O 	O 	0.48640 0.02120 0.57970 -0.41500
C 	C 	0.49080 0.50270 0.12450 0.40200
C 	C 	0.49640 0.44380 0.13150 -0.17400
H 	H 	0.46630 0.42610 0.11680 0.08700
H 	H 	0.52750 0.43150 0.11360 0.08800
O 	O 	0.49100 0.52970 0.16390 -0.39700
O 	O 	0.48640 0.52120 0.07970 -0.43100
C 	C 	0.49080 0.24730 0.62550 0.39900
C 	C 	0.49640 0.30620 0.61850 -0.17300
H 	H 	0.46630 0.32390 0.63320 0.08800
H 	H 	0.52750 0.31850 0.63640 0.08800
O 	O 	0.49100 0.22030 0.58610 -0.39400
O 	O 	0.48640 0.22880 0.67030 -0.41100
C 	C 	0.49080 0.74730 0.12550 0.40100
C 	C 	0.49640 0.80620 0.11850 -0.18700
H 	H 	0.46630 0.82390 0.13320 0.09500
H 	H 	0.52750 0.81850 0.13640 0.09300
O 	O 	0.49100 0.72030 0.08610 -0.38800
O 	O 	0.48640 0.72880 0.17030 -0.41200
C 	C 	0.99080 0.24730 0.12550 0.30900
C 	C 	0.99640 0.30620 0.11850 0.18100
H 	H 	0.96630 0.32390 0.13320 0.00800
H 	H 	0.02750 0.31850 0.13640 -0.07700
O 	O 	0.99100 0.22030 0.08610 -0.29000
O 	O 	0.98640 0.22880 0.17030 -0.33600
C 	C 	0.99080 0.74730 0.62550 0.31200
C 	C 	0.99640 0.80620 0.61850 0.17800
H 	H 	0.96630 0.82390 0.63320 0.00900
H 	H 	0.02750 0.81850 0.63640 -0.07200
O 	O 	0.99100 0.72030 0.58610 -0.29600
O 	O 	0.98640 0.72880 0.67030 -0.33600
C 	C 	0.25920 0.74730 0.62450 0.39900
C 	C 	0.25360 0.80620 0.63150 -0.17400
H 	H 	0.28370 0.82390 0.61680 0.09100
H 	H 	0.22250 0.81850 0.61360 0.09000
O 	O 	0.25900 0.72030 0.66390 -0.39400
O 	O 	0.26360 0.72880 0.57970 -0.41100
C 	C 	0.25920 0.24730 0.12450 0.40100
C 	C 	0.25360 0.30620 0.13150 -0.17400
H 	H 	0.28370 0.32390 0.11680 0.08700
H 	H 	0.22250 0.31850 0.11360 0.08700
O 	O 	0.25900 0.22030 0.16390 -0.39900
O 	O 	0.26360 0.22880 0.07970 -0.43400
C 	C 	0.75920 0.74730 0.12450 0.40300
C 	C 	0.75360 0.80620 0.13150 -0.17700
H 	H 	0.78370 0.82390 0.11680 0.09100
H 	H 	0.72250 0.81850 0.11360 0.08900
O 	O 	0.75900 0.72030 0.16390 -0.39700
O 	O 	0.76360 0.72880 0.07970 -0.43100
C 	C 	0.75920 0.24730 0.62450 0.39900
C 	C 	0.75360 0.30620 0.63150 -0.17300
H 	H 	0.78370 0.32390 0.61680 0.09000
H 	H 	0.72250 0.31850 0.61360 0.08900
O 	O 	0.75900 0.22030 0.66390 -0.39400
O 	O 	0.76360 0.22880 0.57970 -0.41100
C 	C 	0.00270 0.12450 0.99080 0.19300
C 	C 	0.94380 0.13150 0.99640 0.30000
H 	H 	0.92610 0.11680 0.96630 -0.01500
H 	H 	0.93150 0.11360 0.02750 -0.09600
O 	O 	0.02970 0.16390 0.99100 -0.28400
O 	O 	0.02120 0.07970 0.98640 -0.36100
C 	C 	0.00270 0.62450 0.49080 0.27500
C 	C 	0.94380 0.63150 0.49640 -0.04800
H 	H 	0.92610 0.61680 0.46630 0.06700
H 	H 	0.93150 0.61360 0.52750 0.06800
O 	O 	0.02970 0.66390 0.49100 -0.37800
O 	O 	0.02120 0.57970 0.48640 -0.41500
C 	C 	0.50270 0.12450 0.49080 0.40200
C 	C 	0.44380 0.13150 0.49640 -0.17400
H 	H 	0.42610 0.11680 0.46630 0.08700
H 	H 	0.43150 0.11360 0.52750 0.08800
O 	O 	0.52970 0.16390 0.49100 -0.39700
O 	O 	0.52120 0.07970 0.48640 -0.43100
C 	C 	0.50270 0.62450 0.99080 0.31000
C 	C 	0.44380 0.63150 0.99640 0.18700
H 	H 	0.42610 0.61680 0.96630 0.00500
H 	H 	0.43150 0.61360 0.02750 -0.07700
O 	O 	0.52970 0.66390 0.99100 -0.29600
O 	O 	0.52120 0.57970 0.98640 -0.33500
C 	C 	0.50270 0.12550 0.75920 0.40000
C 	C 	0.44380 0.11850 0.75360 -0.18600
H 	H 	0.42610 0.13320 0.78370 0.09400
H 	H 	0.43150 0.13640 0.72250 0.09200
O 	O 	0.52970 0.08610 0.75900 -0.38800
O 	O 	0.52120 0.17030 0.76360 -0.41200
C 	C 	0.50270 0.62550 0.25920 0.39800
C 	C 	0.44380 0.61850 0.25360 -0.17200
H 	H 	0.42610 0.63320 0.28370 0.08800
H 	H 	0.43150 0.63640 0.22250 0.08800
O 	O 	0.52970 0.58610 0.25900 -0.39300
O 	O 	0.52120 0.67030 0.26360 -0.41100
C 	C 	0.00270 0.12550 0.25920 0.27300
C 	C 	0.94380 0.11850 0.25360 -0.05800
H 	H 	0.92610 0.13320 0.28370 0.07100
H 	H 	0.93150 0.13640 0.22250 0.07000
O 	O 	0.02970 0.08610 0.25900 -0.37500
O 	O 	0.02120 0.17030 0.26360 -0.41800
C 	C 	0.00270 0.62550 0.75920 0.27700
C 	C 	0.94380 0.61850 0.75360 -0.05100
H 	H 	0.92610 0.63320 0.78370 0.06900
H 	H 	0.93150 0.63640 0.72250 0.06800
O 	O 	0.02970 0.58610 0.75900 -0.37800
O 	O 	0.02120 0.67030 0.76360 -0.41500
C 	C 	0.74730 0.62450 0.25920 0.39900
C 	C 	0.80620 0.63150 0.25360 -0.17400
H 	H 	0.82390 0.61680 0.28370 0.09100
H 	H 	0.81850 0.61360 0.22250 0.09000
O 	O 	0.72030 0.66390 0.25900 -0.39400
O 	O 	0.72880 0.57970 0.26360 -0.41100
C 	C 	0.74730 0.12450 0.75920 0.40300
C 	C 	0.80620 0.13150 0.75360 -0.17700
H 	H 	0.82390 0.11680 0.78370 0.09100
H 	H 	0.81850 0.11360 0.72250 0.08900
O 	O 	0.72030 0.16390 0.75900 -0.39700
O 	O 	0.72880 0.07970 0.76360 -0.43100
C 	C 	0.24730 0.62450 0.75920 0.39900
C 	C 	0.30620 0.63150 0.75360 -0.17300
H 	H 	0.32390 0.61680 0.78370 0.09000
H 	H 	0.31850 0.61360 0.72250 0.08900
O 	O 	0.22030 0.66390 0.75900 -0.39400
O 	O 	0.22880 0.57970 0.76360 -0.41100
C 	C 	0.24730 0.12450 0.25920 0.40100
C 	C 	0.30620 0.13150 0.25360 -0.17400
H 	H 	0.32390 0.11680 0.28370 0.08700
H 	H 	0.31850 0.11360 0.22250 0.08700
O 	O 	0.22030 0.16390 0.25900 -0.39900
O 	O 	0.22880 0.07970 0.26360 -0.43400
C 	C 	0.24730 0.62550 0.49080 0.39900
C 	C 	0.30620 0.61850 0.49640 -0.17300
H 	H 	0.32390 0.63320 0.46630 0.08800
H 	H 	0.31850 0.63640 0.52750 0.08800
O 	O 	0.22030 0.58610 0.49100 -0.39400
O 	O 	0.22880 0.67030 0.48640 -0.41100
C 	C 	0.24730 0.12550 0.99080 0.30900
C 	C 	0.30620 0.11850 0.99640 0.18100
H 	H 	0.32390 0.13320 0.96630 0.00800
H 	H 	0.31850 0.13640 0.02750 -0.07700
O 	O 	0.22030 0.08610 0.99100 -0.29000
O 	O 	0.22880 0.17030 0.98640 -0.33600
C 	C 	0.74730 0.62550 0.99080 0.31200
C 	C 	0.80620 0.61850 0.99640 0.17800
H 	H 	0.82390 0.63320 0.96630 0.00900
H 	H 	0.81850 0.63640 0.02750 -0.07200
O 	O 	0.72030 0.58610 0.99100 -0.29600
O 	O 	0.72880 0.67030 0.98640 -0.33600
C 	C 	0.74730 0.12550 0.49080 0.40100
C 	C 	0.80620 0.11850 0.49640 -0.18700
H 	H 	0.82390 0.13320 0.46630 0.09500
H 	H 	0.81850 0.13640 0.52750 0.09300
O 	O 	0.72030 0.08610 0.49100 -0.38800
O 	O 	0.72880 0.17030 0.48640 -0.41200
C 	C 	0.99080 0.12550 0.74730 0.31200
C 	C 	0.99640 0.11850 0.80620 0.17000
H 	H 	0.96630 0.13320 0.82390 0.01200
H 	H 	0.02750 0.13640 0.81850 -0.07100
O 	O 	0.99100 0.08610 0.72030 -0.29100
O 	O 	0.98640 0.17030 0.72880 -0.33700
C 	C 	0.99080 0.62550 0.24730 0.30900
C 	C 	0.99640 0.61850 0.30620 0.18900
H 	H 	0.96630 0.63320 0.32390 0.00500
H 	H 	0.02750 0.63640 0.31850 -0.07800
O 	O 	0.99100 0.58610 0.22030 -0.29600
O 	O 	0.98640 0.67030 0.22880 -0.33600
C 	C 	0.49080 0.12550 0.24730 0.40000
C 	C 	0.49640 0.11850 0.30620 -0.18600
H 	H 	0.46630 0.13320 0.32390 0.09300
H 	H 	0.52750 0.13640 0.31850 0.09200
O 	O 	0.49100 0.08610 0.22030 -0.39000
O 	O 	0.48640 0.17030 0.22880 -0.41300
C 	C 	0.49080 0.62550 0.74730 0.39900
C 	C 	0.49640 0.61850 0.80620 -0.17400
H 	H 	0.46630 0.63320 0.82390 0.09100
H 	H 	0.52750 0.63640 0.81850 0.09000
O 	O 	0.49100 0.58610 0.72030 -0.39300
O 	O 	0.48640 0.67030 0.72880 -0.41000
C 	C 	0.75920 0.12450 0.24730 0.40200
C 	C 	0.75360 0.13150 0.30620 -0.17500
H 	H 	0.78370 0.11680 0.32390 0.08800
H 	H 	0.72250 0.11360 0.31850 0.08800
O 	O 	0.75900 0.16390 0.22030 -0.39800
O 	O 	0.76360 0.07970 0.22880 -0.43200
C 	C 	0.75920 0.62450 0.74730 0.40000
C 	C 	0.75360 0.63150 0.80620 -0.17500
H 	H 	0.78370 0.61680 0.82390 0.09200
H 	H 	0.72250 0.61360 0.81850 0.09000
O 	O 	0.75900 0.66390 0.72030 -0.39300
O 	O 	0.76360 0.57970 0.72880 -0.41000
C 	C 	0.25920 0.12450 0.74730 0.40200
C 	C 	0.25360 0.13150 0.80620 -0.17600
H 	H 	0.28370 0.11680 0.82390 0.08900
H 	H 	0.22250 0.11360 0.81850 0.08900
O 	O 	0.25900 0.16390 0.72030 -0.39800
O 	O 	0.26360 0.07970 0.72880 -0.43200
C 	C 	0.25920 0.62450 0.24730 0.39800
C 	C 	0.25360 0.63150 0.30620 -0.17200
H 	H 	0.28370 0.61680 0.32390 0.08800
H 	H 	0.22250 0.61360 0.31850 0.08800
O 	O 	0.25900 0.66390 0.22030 -0.39500
O 	O 	0.26360 0.57970 0.22880 -0.41200
C 	C 	0.25920 0.62550 0.00270 0.27400
C 	C 	0.25360 0.61850 0.94380 -0.04700
H 	H 	0.28370 0.63320 0.92610 0.06700
H 	H 	0.22250 0.63640 0.93150 0.06700
O 	O 	0.25900 0.58610 0.02970 -0.37900
O 	O 	0.26360 0.67030 0.02120 -0.41600
C 	C 	0.25920 0.12550 0.50270 0.39900
C 	C 	0.25360 0.11850 0.44380 -0.18500
H 	H 	0.28370 0.13320 0.42610 0.09200
H 	H 	0.22250 0.13640 0.43150 0.09100
O 	O 	0.25900 0.08610 0.52970 -0.38900
O 	O 	0.26360 0.17030 0.52120 -0.41300
C 	C 	0.75920 0.62550 0.50270 0.39900
C 	C 	0.75360 0.61850 0.44380 -0.17300
H 	H 	0.78370 0.63320 0.42610 0.09000
H 	H 	0.72250 0.63640 0.43150 0.08900
O 	O 	0.75900 0.58610 0.52970 -0.39200
O 	O 	0.76360 0.67030 0.52120 -0.41000
C 	C 	0.75920 0.12550 0.00270 0.27700
C 	C 	0.75360 0.11850 0.94380 -0.06200
H 	H 	0.78370 0.13320 0.92610 0.07300
H 	H 	0.72250 0.13640 0.93150 0.07100
O 	O 	0.75900 0.08610 0.02970 -0.37400
O 	O 	0.76360 0.17030 0.02120 -0.41700
C 	C 	0.49080 0.62450 0.50270 0.39900
C 	C 	0.49640 0.63150 0.44380 -0.17200
H 	H 	0.46630 0.61680 0.42610 0.08800
H 	H 	0.52750 0.61360 0.43150 0.08900
O 	O 	0.49100 0.66390 0.52970 -0.39300
O 	O 	0.48640 0.57970 0.52120 -0.41000
C 	C 	0.49080 0.12450 0.00270 0.27700
C 	C 	0.49640 0.13150 0.94380 -0.04800
H 	H 	0.46630 0.11680 0.92610 0.06600
H 	H 	0.52750 0.11360 0.93150 0.06600
O 	O 	0.49100 0.16390 0.02970 -0.38200
O 	O 	0.48640 0.07970 0.02120 -0.43700
C 	C 	0.99080 0.62450 0.00270 0.19300
C 	C 	0.99640 0.63150 0.94380 0.29400
H 	H 	0.96630 0.61680 0.92610 -0.01200
H 	H 	0.02750 0.61360 0.93150 -0.09200
O 	O 	0.99100 0.66390 0.02970 -0.28200
O 	O 	0.98640 0.57970 0.02120 -0.34100
C 	C 	0.99080 0.12450 0.50270 0.31200
C 	C 	0.99640 0.13150 0.44380 0.19100
H 	H 	0.96630 0.11680 0.42610 0.00200
H 	H 	0.02750 0.11360 0.43150 -0.08100
O 	O 	0.99100 0.16390 0.52970 -0.29800
O 	O 	0.98640 0.07970 0.52120 -0.35500
C 	C 	0.74730 0.99080 0.12550 0.31200
C 	C 	0.80620 0.99640 0.11850 0.17000
H 	H 	0.82390 0.96630 0.13320 0.01200
H 	H 	0.81850 0.02750 0.13640 -0.07100
O 	O 	0.72030 0.99100 0.08610 -0.29100
O 	O 	0.72880 0.98640 0.17030 -0.33700
C 	C 	0.74730 0.49080 0.62550 0.39900
C 	C 	0.80620 0.49640 0.61850 -0.17400
H 	H 	0.82390 0.46630 0.63320 0.09100
H 	H 	0.81850 0.52750 0.63640 0.09000
O 	O 	0.72030 0.49100 0.58610 -0.39300
O 	O 	0.72880 0.48640 0.67030 -0.41000
C 	C 	0.24730 0.99080 0.62550 0.30900
C 	C 	0.30620 0.99640 0.61850 0.18900
H 	H 	0.32390 0.96630 0.63320 0.00500
H 	H 	0.31850 0.02750 0.63640 -0.07800
O 	O 	0.22030 0.99100 0.58610 -0.29600
O 	O 	0.22880 0.98640 0.67030 -0.33600
C 	C 	0.24730 0.49080 0.12550 0.40000
C 	C 	0.30620 0.49640 0.11850 -0.18600
H 	H 	0.32390 0.46630 0.13320 0.09300
H 	H 	0.31850 0.52750 0.13640 0.09200
O 	O 	0.22030 0.49100 0.08610 -0.39000
O 	O 	0.22880 0.48640 0.17030 -0.41300
C 	C 	0.24730 0.75920 0.12450 0.40200
C 	C 	0.30620 0.75360 0.13150 -0.17500
H 	H 	0.32390 0.78370 0.11680 0.08800
H 	H 	0.31850 0.72250 0.11360 0.08800
O 	O 	0.22030 0.75900 0.16390 -0.39800
O 	O 	0.22880 0.76360 0.07970 -0.43200
C 	C 	0.24730 0.25920 0.62450 0.39800
C 	C 	0.30620 0.25360 0.63150 -0.17200
H 	H 	0.32390 0.28370 0.61680 0.08800
H 	H 	0.31850 0.22250 0.61360 0.08800
O 	O 	0.22030 0.25900 0.66390 -0.39500
O 	O 	0.22880 0.26360 0.57970 -0.41200
C 	C 	0.74730 0.75920 0.62450 0.40000
C 	C 	0.80620 0.75360 0.63150 -0.17500
H 	H 	0.82390 0.78370 0.61680 0.09200
H 	H 	0.81850 0.72250 0.61360 0.09000
O 	O 	0.72030 0.75900 0.66390 -0.39300
O 	O 	0.72880 0.76360 0.57970 -0.41000
C 	C 	0.74730 0.25920 0.12450 0.40200
C 	C 	0.80620 0.25360 0.13150 -0.17600
H 	H 	0.82390 0.28370 0.11680 0.08900
H 	H 	0.81850 0.22250 0.11360 0.08900
O 	O 	0.72030 0.25900 0.16390 -0.39800
O 	O 	0.72880 0.26360 0.07970 -0.43200
C 	C 	0.00270 0.25920 0.62550 0.27400
C 	C 	0.94380 0.25360 0.61850 -0.04700
H 	H 	0.92610 0.28370 0.63320 0.06700
H 	H 	0.93150 0.22250 0.63640 0.06700
O 	O 	0.02970 0.25900 0.58610 -0.37900
O 	O 	0.02120 0.26360 0.67030 -0.41600
C 	C 	0.00270 0.75920 0.12550 0.27700
C 	C 	0.94380 0.75360 0.11850 -0.06200
H 	H 	0.92610 0.78370 0.13320 0.07300
H 	H 	0.93150 0.72250 0.13640 0.07100
O 	O 	0.02970 0.75900 0.08610 -0.37400
O 	O 	0.02120 0.76360 0.17030 -0.41700
C 	C 	0.50270 0.25920 0.12550 0.39900
C 	C 	0.44380 0.25360 0.11850 -0.18500
H 	H 	0.42610 0.28370 0.13320 0.09200
H 	H 	0.43150 0.22250 0.13640 0.09100
O 	O 	0.52970 0.25900 0.08610 -0.38900
O 	O 	0.52120 0.26360 0.17030 -0.41300
C 	C 	0.50270 0.75920 0.62550 0.39900
C 	C 	0.44380 0.75360 0.61850 -0.17300
H 	H 	0.42610 0.78370 0.63320 0.09000
H 	H 	0.43150 0.72250 0.63640 0.08900
O 	O 	0.52970 0.75900 0.58610 -0.39200
O 	O 	0.52120 0.76360 0.67030 -0.41000
C 	C 	0.50270 0.49080 0.62450 0.39900
C 	C 	0.44380 0.49640 0.63150 -0.17200
H 	H 	0.42610 0.46630 0.61680 0.08800
H 	H 	0.43150 0.52750 0.61360 0.08900
O 	O 	0.52970 0.49100 0.66390 -0.39300
O 	O 	0.52120 0.48640 0.57970 -0.41000
C 	C 	0.50270 0.99080 0.12450 0.31200
C 	C 	0.44380 0.99640 0.13150 0.19100
H 	H 	0.42610 0.96630 0.11680 0.00200
H 	H 	0.43150 0.02750 0.11360 -0.08100
O 	O 	0.52970 0.99100 0.16390 -0.29800
O 	O 	0.52120 0.98640 0.07970 -0.35500
C 	C 	0.00270 0.49080 0.12450 0.27700
C 	C 	0.94380 0.49640 0.13150 -0.04800
H 	H 	0.92610 0.46630 0.11680 0.06600
H 	H 	0.93150 0.52750 0.11360 0.06600
O 	O 	0.02970 0.49100 0.16390 -0.38200
O 	O 	0.02120 0.48640 0.07970 -0.43700
C 	C 	0.00270 0.99080 0.62450 0.19300
C 	C 	0.94380 0.99640 0.63150 0.29400
H 	H 	0.92610 0.96630 0.61680 -0.01200
H 	H 	0.93150 0.02750 0.61360 -0.09200
O 	O 	0.02970 0.99100 0.66390 -0.28200
O 	O 	0.02120 0.98640 0.57970 -0.34100
C 	C 	0.12550 0.74730 0.99080 0.31200
C 	C 	0.11850 0.80620 0.99640 0.17000
H 	H 	0.13320 0.82390 0.96630 0.01200
H 	H 	0.13640 0.81850 0.02750 -0.07100
O 	O 	0.08610 0.72030 0.99100 -0.29100
O 	O 	0.17030 0.72880 0.98640 -0.33700
C 	C 	0.12550 0.24730 0.49080 0.40000
C 	C 	0.11850 0.30620 0.49640 -0.18600
H 	H 	0.13320 0.32390 0.46630 0.09300
H 	H 	0.13640 0.31850 0.52750 0.09200
O 	O 	0.08610 0.22030 0.49100 -0.39000
O 	O 	0.17030 0.22880 0.48640 -0.41300
C 	C 	0.62550 0.74730 0.49080 0.39900
C 	C 	0.61850 0.80620 0.49640 -0.17400
H 	H 	0.63320 0.82390 0.46630 0.09100
H 	H 	0.63640 0.81850 0.52750 0.09000
O 	O 	0.58610 0.72030 0.49100 -0.39300
O 	O 	0.67030 0.72880 0.48640 -0.41000
C 	C 	0.62550 0.24730 0.99080 0.30900
C 	C 	0.61850 0.30620 0.99640 0.18900
H 	H 	0.63320 0.32390 0.96630 0.00500
H 	H 	0.63640 0.31850 0.02750 -0.07800
O 	O 	0.58610 0.22030 0.99100 -0.29600
O 	O 	0.67030 0.22880 0.98640 -0.33600
C 	C 	0.12450 0.24730 0.75920 0.40200
C 	C 	0.13150 0.30620 0.75360 -0.17500
H 	H 	0.11680 0.32390 0.78370 0.08800
H 	H 	0.11360 0.31850 0.72250 0.08800
O 	O 	0.16390 0.22030 0.75900 -0.39800
O 	O 	0.07970 0.22880 0.76360 -0.43200
C 	C 	0.12450 0.74730 0.25920 0.40200
C 	C 	0.13150 0.80620 0.25360 -0.17600
H 	H 	0.11680 0.82390 0.28370 0.08900
H 	H 	0.11360 0.81850 0.22250 0.08900
O 	O 	0.16390 0.72030 0.25900 -0.39800
O 	O 	0.07970 0.72880 0.26360 -0.43200
C 	C 	0.62450 0.24730 0.25920 0.39800
C 	C 	0.63150 0.30620 0.25360 -0.17200
H 	H 	0.61680 0.32390 0.28370 0.08800
H 	H 	0.61360 0.31850 0.22250 0.08800
O 	O 	0.66390 0.22030 0.25900 -0.39500
O 	O 	0.57970 0.22880 0.26360 -0.41200
C 	C 	0.62450 0.74730 0.75920 0.40000
C 	C 	0.63150 0.80620 0.75360 -0.17500
H 	H 	0.61680 0.82390 0.78370 0.09200
H 	H 	0.61360 0.81850 0.72250 0.09000
O 	O 	0.66390 0.72030 0.75900 -0.39300
O 	O 	0.57970 0.72880 0.76360 -0.41000
C 	C 	0.62550 0.00270 0.25920 0.27400
C 	C 	0.61850 0.94380 0.25360 -0.04700
H 	H 	0.63320 0.92610 0.28370 0.06700
H 	H 	0.63640 0.93150 0.22250 0.06700
O 	O 	0.58610 0.02970 0.25900 -0.37900
O 	O 	0.67030 0.02120 0.26360 -0.41600
C 	C 	0.62550 0.50270 0.75920 0.39900
C 	C 	0.61850 0.44380 0.75360 -0.17300
H 	H 	0.63320 0.42610 0.78370 0.09000
H 	H 	0.63640 0.43150 0.72250 0.08900
O 	O 	0.58610 0.52970 0.75900 -0.39200
O 	O 	0.67030 0.52120 0.76360 -0.41000
C 	C 	0.12550 0.00270 0.75920 0.27700
C 	C 	0.11850 0.94380 0.75360 -0.06200
H 	H 	0.13320 0.92610 0.78370 0.07300
H 	H 	0.13640 0.93150 0.72250 0.07100
O 	O 	0.08610 0.02970 0.75900 -0.37400
O 	O 	0.17030 0.02120 0.76360 -0.41700
C 	C 	0.12550 0.50270 0.25920 0.39900
C 	C 	0.11850 0.44380 0.25360 -0.18500
H 	H 	0.13320 0.42610 0.28370 0.09200
H 	H 	0.13640 0.43150 0.22250 0.09100
O 	O 	0.08610 0.52970 0.25900 -0.38900
O 	O 	0.17030 0.52120 0.26360 -0.41300
C 	C 	0.62450 0.50270 0.49080 0.39900
C 	C 	0.63150 0.44380 0.49640 -0.17200
H 	H 	0.61680 0.42610 0.46630 0.08800
H 	H 	0.61360 0.43150 0.52750 0.08900
O 	O 	0.66390 0.52970 0.49100 -0.39300
O 	O 	0.57970 0.52120 0.48640 -0.41000
C 	C 	0.62450 0.00270 0.99080 0.19300
C 	C 	0.63150 0.94380 0.99640 0.29400
H 	H 	0.61680 0.92610 0.96630 -0.01200
H 	H 	0.61360 0.93150 0.02750 -0.09200
O 	O 	0.66390 0.02970 0.99100 -0.28200
O 	O 	0.57970 0.02120 0.98640 -0.34100
C 	C 	0.12450 0.50270 0.99080 0.31200
C 	C 	0.13150 0.44380 0.99640 0.19100
H 	H 	0.11680 0.42610 0.96630 0.00200
H 	H 	0.11360 0.43150 0.02750 -0.08100
O 	O 	0.16390 0.52970 0.99100 -0.29800
O 	O 	0.07970 0.52120 0.98640 -0.35500
C 	C 	0.12450 0.00270 0.49080 0.27700
C 	C 	0.13150 0.94380 0.49640 -0.04800
H 	H 	0.11680 0.92610 0.46630 0.06600
H 	H 	0.11360 0.93150 0.52750 0.06600
O 	O 	0.16390 0.02970 0.49100 -0.38200
O 	O 	0.07970 0.02120 0.48640 -0.43700
C 	C 	0.37550 0.74080 0.25270 0.40000
C 	C 	0.36850 0.74640 0.19380 -0.17300
H 	H 	0.38320 0.71630 0.17610 0.08800
H 	H 	0.38640 0.77750 0.18150 0.09000
O 	O 	0.33610 0.74100 0.27970 -0.39100
O 	O 	0.42030 0.73640 0.27120 -0.40900
C 	C 	0.37550 0.24080 0.75270 0.39800
C 	C 	0.36850 0.24640 0.69380 -0.17200
H 	H 	0.38320 0.21630 0.67610 0.08700
H 	H 	0.38640 0.27750 0.68150 0.08900
O 	O 	0.33610 0.24100 0.77970 -0.38900
O 	O 	0.42030 0.23640 0.77120 -0.40800
C 	C 	0.87550 0.74080 0.75270 0.39400
C 	C 	0.86850 0.74640 0.69380 -0.17100
H 	H 	0.88320 0.71630 0.67610 0.09100
H 	H 	0.88640 0.77750 0.68150 0.09500
O 	O 	0.83610 0.74100 0.77970 -0.38200
O 	O 	0.92030 0.73640 0.77120 -0.37200
C 	C 	0.87550 0.24080 0.25270 0.39200
C 	C 	0.86850 0.24640 0.19380 -0.16900
H 	H 	0.88320 0.21630 0.17610 0.09000
H 	H 	0.88640 0.27750 0.18150 0.09300
O 	O 	0.83610 0.24100 0.27970 -0.38600
O 	O 	0.92030 0.23640 0.27120 -0.37300
C 	C 	0.37450 0.50920 0.75270 0.39900
C 	C 	0.38150 0.50360 0.69380 -0.17200
H 	H 	0.36680 0.53370 0.67610 0.08800
H 	H 	0.36360 0.47250 0.68150 0.08900
O 	O 	0.41390 0.50900 0.77970 -0.39000
O 	O 	0.32970 0.51360 0.77120 -0.40800
C 	C 	0.37450 0.00920 0.25270 0.43100
C 	C 	0.38150 0.00360 0.19380 -0.34400
H 	H 	0.36680 0.03370 0.17610 0.12700
H 	H 	0.36360 0.97250 0.18150 0.21200
O 	O 	0.41390 0.00900 0.27970 -0.41400
O 	O 	0.32970 0.01360 0.27120 -0.45500
C 	C 	0.87450 0.50920 0.25270 0.38700
C 	C 	0.88150 0.50360 0.19380 -0.16700
H 	H 	0.86680 0.53370 0.17610 0.08800
H 	H 	0.86360 0.47250 0.18150 0.09000
O 	O 	0.91390 0.50900 0.27970 -0.33400
O 	O 	0.82970 0.51360 0.27120 -0.40300
C 	C 	0.87450 0.00920 0.75270 0.41900
C 	C 	0.88150 0.00360 0.69380 -0.33200
H 	H 	0.86680 0.03370 0.67610 0.12500
H 	H 	0.86360 0.97250 0.68150 0.20800
O 	O 	0.91390 0.00900 0.77970 -0.35400
O 	O 	0.82970 0.01360 0.77120 -0.44500
C 	C 	0.87550 0.00920 0.99730 0.53900
C 	C 	0.86850 0.00360 0.05620 -0.46800
H 	H 	0.88320 0.03370 0.07390 0.15600
H 	H 	0.88640 0.97250 0.06850 0.23900
O 	O 	0.83610 0.00900 0.97030 -0.36900
O 	O 	0.92030 0.01360 0.97880 -0.39600
C 	C 	0.87550 0.50920 0.49730 0.39300
C 	C 	0.86850 0.50360 0.55620 -0.17000
H 	H 	0.88320 0.53370 0.57390 0.09100
H 	H 	0.88640 0.47250 0.56850 0.09300
O 	O 	0.83610 0.50900 0.47030 -0.38600
O 	O 	0.92030 0.51360 0.47880 -0.37400
C 	C 	0.37550 0.00920 0.49730 0.43100
C 	C 	0.36850 0.00360 0.55620 -0.34200
H 	H 	0.38320 0.03370 0.57390 0.12600
H 	H 	0.38640 0.97250 0.56850 0.21100
O 	O 	0.33610 0.00900 0.47030 -0.41400
O 	O 	0.42030 0.01360 0.47880 -0.45500
C 	C 	0.37550 0.50920 0.99730 0.51600
C 	C 	0.36850 0.50360 0.05620 -0.30700
H 	H 	0.38320 0.53370 0.07390 0.11600
H 	H 	0.38640 0.47250 0.06850 0.11500
O 	O 	0.33610 0.50900 0.97030 -0.35400
O 	O 	0.42030 0.51360 0.97880 -0.38700
C 	C 	0.87450 0.24080 0.49730 0.38700
C 	C 	0.88150 0.24640 0.55620 -0.16600
H 	H 	0.86680 0.21630 0.57390 0.08700
H 	H 	0.86360 0.27750 0.56850 0.09000
O 	O 	0.91390 0.24100 0.47030 -0.33400
O 	O 	0.82970 0.23640 0.47880 -0.40300
C 	C 	0.87450 0.74080 0.99730 0.50100
C 	C 	0.88150 0.74640 0.05620 -0.29600
H 	H 	0.86680 0.71630 0.07390 0.11500
H 	H 	0.86360 0.77750 0.06850 0.11700
O 	O 	0.91390 0.74100 0.97030 -0.29900
O 	O 	0.82970 0.73640 0.97880 -0.38000
C 	C 	0.37450 0.24080 0.99730 0.51700
C 	C 	0.38150 0.24640 0.05620 -0.30700
H 	H 	0.36680 0.21630 0.07390 0.11600
H 	H 	0.36360 0.27750 0.06850 0.11600
O 	O 	0.41390 0.24100 0.97030 -0.35400
O 	O 	0.32970 0.23640 0.97880 -0.38700
C 	C 	0.37450 0.74080 0.49730 0.40000
C 	C 	0.38150 0.74640 0.55620 -0.17300
H 	H 	0.36680 0.71630 0.57390 0.08800
H 	H 	0.36360 0.77750 0.56850 0.09000
O 	O 	0.41390 0.74100 0.47030 -0.39100
O 	O 	0.32970 0.73640 0.47880 -0.40900
C 	C 	0.24080 0.49730 0.87450 0.38700
C 	C 	0.24640 0.55620 0.88150 -0.16600
H 	H 	0.21630 0.57390 0.86680 0.08700
H 	H 	0.27750 0.56850 0.86360 0.09000
O 	O 	0.24100 0.47030 0.91390 -0.33400
O 	O 	0.23640 0.47880 0.82970 -0.40300
C 	C 	0.24080 0.99730 0.37450 0.51700
C 	C 	0.24640 0.05620 0.38150 -0.30700
H 	H 	0.21630 0.07390 0.36680 0.11600
H 	H 	0.27750 0.06850 0.36360 0.11600
O 	O 	0.24100 0.97030 0.41390 -0.35400
O 	O 	0.23640 0.97880 0.32970 -0.38700
C 	C 	0.74080 0.49730 0.37450 0.40000
C 	C 	0.74640 0.55620 0.38150 -0.17300
H 	H 	0.71630 0.57390 0.36680 0.08800
H 	H 	0.77750 0.56850 0.36360 0.09000
O 	O 	0.74100 0.47030 0.41390 -0.39100
O 	O 	0.73640 0.47880 0.32970 -0.40900
C 	C 	0.74080 0.99730 0.87450 0.50100
C 	C 	0.74640 0.05620 0.88150 -0.29600
H 	H 	0.71630 0.07390 0.86680 0.11500
H 	H 	0.77750 0.06850 0.86360 0.11700
O 	O 	0.74100 0.97030 0.91390 -0.29900
O 	O 	0.73640 0.97880 0.82970 -0.38000
C 	C 	0.00920 0.99730 0.87550 0.53900
C 	C 	0.00360 0.05620 0.86850 -0.46800
H 	H 	0.03370 0.07390 0.88320 0.15600
H 	H 	0.97250 0.06850 0.88640 0.23900
O 	O 	0.00900 0.97030 0.83610 -0.36900
O 	O 	0.01360 0.97880 0.92030 -0.39600
C 	C 	0.00920 0.49730 0.37550 0.43100
C 	C 	0.00360 0.55620 0.36850 -0.34200
H 	H 	0.03370 0.57390 0.38320 0.12600
H 	H 	0.97250 0.56850 0.38640 0.21100
O 	O 	0.00900 0.47030 0.33610 -0.41400
O 	O 	0.01360 0.47880 0.42030 -0.45500
C 	C 	0.50920 0.99730 0.37550 0.51600
C 	C 	0.50360 0.05620 0.36850 -0.30700
H 	H 	0.53370 0.07390 0.38320 0.11600
H 	H 	0.47250 0.06850 0.38640 0.11500
O 	O 	0.50900 0.97030 0.33610 -0.35400
O 	O 	0.51360 0.97880 0.42030 -0.38700
C 	C 	0.50920 0.49730 0.87550 0.39300
C 	C 	0.50360 0.55620 0.86850 -0.17000
H 	H 	0.53370 0.57390 0.88320 0.09100
H 	H 	0.47250 0.56850 0.88640 0.09300
O 	O 	0.50900 0.47030 0.83610 -0.38600
O 	O 	0.51360 0.47880 0.92030 -0.37400
C 	C 	0.50920 0.75270 0.37450 0.39900
C 	C 	0.50360 0.69380 0.38150 -0.17200
H 	H 	0.53370 0.67610 0.36680 0.08800
H 	H 	0.47250 0.68150 0.36360 0.08900
O 	O 	0.50900 0.77970 0.41390 -0.39000
O 	O 	0.51360 0.77120 0.32970 -0.40800
C 	C 	0.50920 0.25270 0.87450 0.38700
C 	C 	0.50360 0.19380 0.88150 -0.16700
H 	H 	0.53370 0.17610 0.86680 0.08800
H 	H 	0.47250 0.18150 0.86360 0.09000
O 	O 	0.50900 0.27970 0.91390 -0.33400
O 	O 	0.51360 0.27120 0.82970 -0.40300
C 	C 	0.00920 0.75270 0.87450 0.41900
C 	C 	0.00360 0.69380 0.88150 -0.33200
H 	H 	0.03370 0.67610 0.86680 0.12500
H 	H 	0.97250 0.68150 0.86360 0.20800
O 	O 	0.00900 0.77970 0.91390 -0.35400
O 	O 	0.01360 0.77120 0.82970 -0.44500
C 	C 	0.00920 0.25270 0.37450 0.43100
C 	C 	0.00360 0.19380 0.38150 -0.34400
H 	H 	0.03370 0.17610 0.36680 0.12700
H 	H 	0.97250 0.18150 0.36360 0.21200
O 	O 	0.00900 0.27970 0.41390 -0.41400
O 	O 	0.01360 0.27120 0.32970 -0.45500
C 	C 	0.74080 0.25270 0.37550 0.40000
C 	C 	0.74640 0.19380 0.36850 -0.17300
H 	H 	0.71630 0.17610 0.38320 0.08800
H 	H 	0.77750 0.18150 0.38640 0.09000
O 	O 	0.74100 0.27970 0.33610 -0.39100
O 	O 	0.73640 0.27120 0.42030 -0.40900
C 	C 	0.74080 0.75270 0.87550 0.39400
C 	C 	0.74640 0.69380 0.86850 -0.17100
H 	H 	0.71630 0.67610 0.88320 0.09100
H 	H 	0.77750 0.68150 0.88640 0.09500
O 	O 	0.74100 0.77970 0.83610 -0.38200
O 	O 	0.73640 0.77120 0.92030 -0.37200
C 	C 	0.24080 0.25270 0.87550 0.39200
C 	C 	0.24640 0.19380 0.86850 -0.16900
H 	H 	0.21630 0.17610 0.88320 0.09000
H 	H 	0.27750 0.18150 0.88640 0.09300
O 	O 	0.24100 0.27970 0.83610 -0.38600
O 	O 	0.23640 0.27120 0.92030 -0.37300
C 	C 	0.24080 0.75270 0.37550 0.39800
C 	C 	0.24640 0.69380 0.36850 -0.17200
H 	H 	0.21630 0.67610 0.38320 0.08700
H 	H 	0.27750 0.68150 0.38640 0.08900
O 	O 	0.24100 0.77970 0.33610 -0.38900
O 	O 	0.23640 0.77120 0.42030 -0.40800
C 	C 	0.99730 0.87550 0.00920 0.53900
C 	C 	0.05620 0.86850 0.00360 -0.46800
H 	H 	0.07390 0.88320 0.03370 0.15600
H 	H 	0.06850 0.88640 0.97250 0.23900
O 	O 	0.97030 0.83610 0.00900 -0.36900
O 	O 	0.97880 0.92030 0.01360 -0.39600
C 	C 	0.99730 0.37550 0.50920 0.51600
C 	C 	0.05620 0.36850 0.50360 -0.30700
H 	H 	0.07390 0.38320 0.53370 0.11600
H 	H 	0.06850 0.38640 0.47250 0.11500
O 	O 	0.97030 0.33610 0.50900 -0.35400
O 	O 	0.97880 0.42030 0.51360 -0.38700
C 	C 	0.49730 0.87550 0.50920 0.39300
C 	C 	0.55620 0.86850 0.50360 -0.17000
H 	H 	0.57390 0.88320 0.53370 0.09100
H 	H 	0.56850 0.88640 0.47250 0.09300
O 	O 	0.47030 0.83610 0.50900 -0.38600
O 	O 	0.47880 0.92030 0.51360 -0.37400
C 	C 	0.49730 0.37550 0.00920 0.43100
C 	C 	0.55620 0.36850 0.00360 -0.34200
H 	H 	0.57390 0.38320 0.03370 0.12600
H 	H 	0.56850 0.38640 0.97250 0.21100
O 	O 	0.47030 0.33610 0.00900 -0.41400
O 	O 	0.47880 0.42030 0.01360 -0.45500
C 	C 	0.49730 0.87450 0.24080 0.38700
C 	C 	0.55620 0.88150 0.24640 -0.16600
H 	H 	0.57390 0.86680 0.21630 0.08700
H 	H 	0.56850 0.86360 0.27750 0.09000
O 	O 	0.47030 0.91390 0.24100 -0.33400
O 	O 	0.47880 0.82970 0.23640 -0.40300
C 	C 	0.49730 0.37450 0.74080 0.40000
C 	C 	0.55620 0.38150 0.74640 -0.17300
H 	H 	0.57390 0.36680 0.71630 0.08800
H 	H 	0.56850 0.36360 0.77750 0.09000
O 	O 	0.47030 0.41390 0.74100 -0.39100
O 	O 	0.47880 0.32970 0.73640 -0.40900
C 	C 	0.99730 0.87450 0.74080 0.50100
C 	C 	0.05620 0.88150 0.74640 -0.29600
H 	H 	0.07390 0.86680 0.71630 0.11500
H 	H 	0.06850 0.86360 0.77750 0.11700
O 	O 	0.97030 0.91390 0.74100 -0.29900
O 	O 	0.97880 0.82970 0.73640 -0.38000
C 	C 	0.99730 0.37450 0.24080 0.51700
C 	C 	0.05620 0.38150 0.24640 -0.30700
H 	H 	0.07390 0.36680 0.21630 0.11600
H 	H 	0.06850 0.36360 0.27750 0.11600
O 	O 	0.97030 0.41390 0.24100 -0.35400
O 	O 	0.97880 0.32970 0.23640 -0.38700
C 	C 	0.25270 0.37550 0.74080 0.40000
C 	C 	0.19380 0.36850 0.74640 -0.17300
H 	H 	0.17610 0.38320 0.71630 0.08800
H 	H 	0.18150 0.38640 0.77750 0.09000
O 	O 	0.27970 0.33610 0.74100 -0.39100
O 	O 	0.27120 0.42030 0.73640 -0.40900
C 	C 	0.25270 0.87550 0.24080 0.39200
C 	C 	0.19380 0.86850 0.24640 -0.16900
H 	H 	0.17610 0.88320 0.21630 0.09000
H 	H 	0.18150 0.88640 0.27750 0.09300
O 	O 	0.27970 0.83610 0.24100 -0.38600
O 	O 	0.27120 0.92030 0.23640 -0.37300
C 	C 	0.75270 0.37550 0.24080 0.39800
C 	C 	0.69380 0.36850 0.24640 -0.17200
H 	H 	0.67610 0.38320 0.21630 0.08700
H 	H 	0.68150 0.38640 0.27750 0.08900
O 	O 	0.77970 0.33610 0.24100 -0.38900
O 	O 	0.77120 0.42030 0.23640 -0.40800
C 	C 	0.75270 0.87550 0.74080 0.39400
C 	C 	0.69380 0.86850 0.74640 -0.17100
H 	H 	0.67610 0.88320 0.71630 0.09100
H 	H 	0.68150 0.88640 0.77750 0.09500
O 	O 	0.77970 0.83610 0.74100 -0.38200
O 	O 	0.77120 0.92030 0.73640 -0.37200
C 	C 	0.75270 0.37450 0.50920 0.39900
C 	C 	0.69380 0.38150 0.50360 -0.17200
H 	H 	0.67610 0.36680 0.53370 0.08800
H 	H 	0.68150 0.36360 0.47250 0.08900
O 	O 	0.77970 0.41390 0.50900 -0.39000
O 	O 	0.77120 0.32970 0.51360 -0.40800
C 	C 	0.75270 0.87450 0.00920 0.41900
C 	C 	0.69380 0.88150 0.00360 -0.33200
H 	H 	0.67610 0.86680 0.03370 0.12500
H 	H 	0.68150 0.86360 0.97250 0.20800
O 	O 	0.77970 0.91390 0.00900 -0.35400
O 	O 	0.77120 0.82970 0.01360 -0.44500
C 	C 	0.25270 0.37450 0.00920 0.43100
C 	C 	0.19380 0.38150 0.00360 -0.34400
H 	H 	0.17610 0.36680 0.03370 0.12700
H 	H 	0.18150 0.36360 0.97250 0.21200
O 	O 	0.27970 0.41390 0.00900 -0.41400
O 	O 	0.27120 0.32970 0.01360 -0.45500
C 	C 	0.25270 0.87450 0.50920 0.38700
C 	C 	0.19380 0.88150 0.50360 -0.16700
H 	H 	0.17610 0.86680 0.53370 0.08800
H 	H 	0.18150 0.86360 0.47250 0.09000
O 	O 	0.27970 0.91390 0.50900 -0.33400
O 	O 	0.27120 0.82970 0.51360 -0.40300
Gd	Gd	-0.00000 -0.00000 0.25000 1.31000
Gd	Gd	-0.00000 0.50000 0.75000 1.52500
Gd	Gd	0.25000 0.75000 0.75000 1.73100
Gd	Gd	0.25000 0.25000 0.25000 1.72900
Gd	Gd	0.75000 0.50000 -0.00000 1.52400
Gd	Gd	0.75000 -0.00000 0.50000 1.52500
Gd	Gd	0.50000 0.25000 0.50000 1.73000
Gd	Gd	0.50000 0.75000 -0.00000 1.52500
Gd	Gd	0.25000 0.00000 -0.00000 1.31000
Gd	Gd	0.75000 0.25000 0.75000 1.73100
Gd	Gd	-0.00000 0.75000 0.50000 1.52400
Gd	Gd	0.50000 0.50000 0.25000 1.73000
Gd	Gd	-0.00000 0.25000 -0.00000 1.31000
Gd	Gd	0.75000 0.75000 0.25000 1.73100
Gd	Gd	0.50000 -0.00000 0.75000 1.52400
Gd	Gd	0.25000 0.50000 0.50000 1.73000
Gd	Gd	-0.00000 -0.00000 0.75000 1.31800
Gd	Gd	-0.00000 0.50000 0.25000 1.52000
Gd	Gd	0.75000 0.25000 0.25000 1.73000
Gd	Gd	0.75000 0.75000 0.75000 1.73100
Gd	Gd	0.25000 0.50000 -0.00000 1.52000
Gd	Gd	0.25000 -0.00000 0.50000 1.52000
Gd	Gd	0.50000 0.75000 0.50000 1.73100
Gd	Gd	0.50000 0.25000 -0.00000 1.52000
Gd	Gd	0.75000 0.00000 -0.00000 1.31800
Gd	Gd	0.25000 0.75000 0.25000 1.73000
Gd	Gd	-0.00000 0.25000 0.50000 1.52000
Gd	Gd	0.50000 0.50000 0.75000 1.73100
Gd	Gd	-0.00000 0.75000 -0.00000 1.31800
Gd	Gd	0.25000 0.25000 0.75000 1.73000
Gd	Gd	0.50000 -0.00000 0.25000 1.52000
Gd	Gd	0.75000 0.50000 0.50000 1.73100
Mn	Mn	-0.00000 0.75000 0.25000 1.27900
Mn	Mn	0.50000 0.75000 0.75000 1.32100
Mn	Mn	0.25000 -0.00000 0.75000 1.27900
Mn	Mn	0.25000 0.50000 0.25000 1.32100
Mn	Mn	0.75000 0.25000 -0.00000 1.27900
Mn	Mn	0.75000 0.75000 0.50000 1.32100
Mn	Mn	0.50000 0.50000 0.50000 1.32100
Mn	Mn	0.50000 0.00000 -0.00000 1.23700
Mn	Mn	-0.00000 0.50000 -0.00000 1.23700
Mn	Mn	-0.00000 -0.00000 0.50000 1.23700
Mn	Mn	0.25000 0.25000 0.50000 1.32100
Mn	Mn	0.50000 0.25000 0.75000 1.32100
Mn	Mn	-0.00000 0.25000 0.25000 1.27800
Mn	Mn	0.75000 0.50000 0.25000 1.32100
Mn	Mn	0.75000 -0.00000 0.75000 1.28000
Mn	Mn	-0.00000 0.00000 -0.00000 1.19400
Mn	Mn	-0.00000 0.50000 0.50000 1.27900
Mn	Mn	0.50000 -0.00000 0.50000 1.27900
Mn	Mn	0.50000 0.50000 -0.00000 1.27900
Mn	Mn	0.25000 0.75000 0.50000 1.32100
Mn	Mn	0.25000 0.25000 -0.00000 1.27800
Mn	Mn	-0.00000 0.25000 0.75000 1.27900
Mn	Mn	0.50000 0.25000 0.25000 1.32100
Mn	Mn	0.75000 -0.00000 0.25000 1.27900
Mn	Mn	0.75000 0.50000 0.75000 1.32100
Mn	Mn	0.25000 0.75000 -0.00000 1.27900
Mn	Mn	0.50000 0.75000 0.25000 1.32100
Mn	Mn	-0.00000 0.75000 0.75000 1.28000
Mn	Mn	0.25000 0.50000 0.75000 1.32100
Mn	Mn	0.25000 -0.00000 0.25000 1.27800
Mn	Mn	0.75000 0.25000 0.50000 1.32100
Mn	Mn	0.75000 0.75000 -0.00000 1.28000
O 	O 	-0.00000 0.93360 0.18360 -0.29100
O 	O 	0.00000 0.43360 0.68360 -0.31300
O 	O 	0.50000 0.93360 0.68360 -0.20200
O 	O 	0.50000 0.43360 0.18360 -0.22000
O 	O 	0.25000 0.81640 0.68360 -0.22000
O 	O 	0.25000 0.31640 0.18360 -0.22000
O 	O 	0.75000 0.81640 0.18360 -0.21900
O 	O 	0.75000 0.31640 0.68360 -0.21900
O 	O 	0.75000 0.43360 0.06640 -0.19200
O 	O 	0.75000 0.93360 0.56640 -0.20100
O 	O 	0.25000 0.43360 0.56640 -0.22000
O 	O 	0.25000 0.93360 0.06640 -0.17400
O 	O 	0.50000 0.31640 0.56640 -0.22000
O 	O 	0.50000 0.81640 0.06640 -0.19200
O 	O 	-0.00000 0.31640 0.06640 -0.28700
O 	O 	-0.00000 0.81640 0.56640 -0.31100
O 	O 	0.18360 0.00000 0.93360 -0.29100
O 	O 	0.18360 0.50000 0.43360 -0.22000
O 	O 	0.68360 0.00000 0.43360 -0.31300
O 	O 	0.68360 0.50000 0.93360 -0.20200
O 	O 	0.68360 0.25000 0.81640 -0.22000
O 	O 	0.68360 0.75000 0.31640 -0.21900
O 	O 	0.18360 0.25000 0.31640 -0.22000
O 	O 	0.18360 0.75000 0.81640 -0.21900
O 	O 	0.06640 0.75000 0.43360 -0.19200
O 	O 	0.06640 0.25000 0.93360 -0.17400
O 	O 	0.56640 0.75000 0.93360 -0.20100
O 	O 	0.56640 0.25000 0.43360 -0.22000
O 	O 	0.56640 0.50000 0.31640 -0.22000
O 	O 	0.56640 0.00000 0.81640 -0.31100
O 	O 	0.06640 0.50000 0.81640 -0.19200
O 	O 	0.06640 -0.00000 0.31640 -0.28700
O 	O 	0.93360 0.18360 -0.00000 -0.29100
O 	O 	0.93360 0.68360 0.50000 -0.20200
O 	O 	0.43360 0.18360 0.50000 -0.22000
O 	O 	0.43360 0.68360 -0.00000 -0.31300
O 	O 	0.81640 0.68360 0.25000 -0.22000
O 	O 	0.81640 0.18360 0.75000 -0.21900
O 	O 	0.31640 0.68360 0.75000 -0.21900
O 	O 	0.31640 0.18360 0.25000 -0.22000
O 	O 	0.43360 0.06640 0.75000 -0.19200
O 	O 	0.43360 0.56640 0.25000 -0.22000
O 	O 	0.93360 0.06640 0.25000 -0.17400
O 	O 	0.93360 0.56640 0.75000 -0.20100
O 	O 	0.31640 0.56640 0.50000 -0.22000
O 	O 	0.31640 0.06640 -0.00000 -0.28700
O 	O 	0.81640 0.56640 -0.00000 -0.31100
O 	O 	0.81640 0.06640 0.50000 -0.19200
O 	O 	-0.00000 0.06640 0.81640 -0.28500
O 	O 	-0.00000 0.56640 0.31640 -0.31400
O 	O 	0.50000 0.06640 0.31640 -0.19200
O 	O 	0.50000 0.56640 0.81640 -0.21900
O 	O 	0.75000 0.18360 0.31640 -0.21900
O 	O 	0.75000 0.68360 0.81640 -0.21900
O 	O 	0.25000 0.18360 0.81640 -0.22000
O 	O 	0.25000 0.68360 0.31640 -0.22000
O 	O 	0.25000 0.56640 0.93360 -0.20200
O 	O 	0.25000 0.06640 0.43360 -0.19200
O 	O 	0.75000 0.56640 0.43360 -0.21900
O 	O 	0.75000 0.06640 0.93360 -0.17400
O 	O 	0.50000 0.68360 0.43360 -0.22000
O 	O 	0.50000 0.18360 0.93360 -0.20100
O 	O 	0.00000 0.68360 0.93360 -0.29100
O 	O 	-0.00000 0.18360 0.43360 -0.31500
O 	O 	0.81640 -0.00000 0.06640 -0.28500
O 	O 	0.81640 0.50000 0.56640 -0.21900
O 	O 	0.31640 0.00000 0.56640 -0.31400
O 	O 	0.31640 0.50000 0.06640 -0.19200
O 	O 	0.31640 0.75000 0.18360 -0.21900
O 	O 	0.31640 0.25000 0.68360 -0.22000
O 	O 	0.81640 0.75000 0.68360 -0.21900
O 	O 	0.81640 0.25000 0.18360 -0.22000
O 	O 	0.93360 0.25000 0.56640 -0.20200
O 	O 	0.93360 0.75000 0.06640 -0.17400
O 	O 	0.43360 0.25000 0.06640 -0.19200
O 	O 	0.43360 0.75000 0.56640 -0.21900
O 	O 	0.43360 0.50000 0.68360 -0.22000
O 	O 	0.43360 -0.00000 0.18360 -0.31500
O 	O 	0.93360 0.50000 0.18360 -0.20100
O 	O 	0.93360 0.00000 0.68360 -0.29100
O 	O 	0.06640 0.81640 -0.00000 -0.28500
O 	O 	0.06640 0.31640 0.50000 -0.19200
O 	O 	0.56640 0.81640 0.50000 -0.21900
O 	O 	0.56640 0.31640 -0.00000 -0.31400
O 	O 	0.18360 0.31640 0.75000 -0.21900
O 	O 	0.18360 0.81640 0.25000 -0.22000
O 	O 	0.68360 0.31640 0.25000 -0.22000
O 	O 	0.68360 0.81640 0.75000 -0.21900
O 	O 	0.56640 0.93360 0.25000 -0.20200
O 	O 	0.56640 0.43360 0.75000 -0.21900
O 	O 	0.06640 0.93360 0.75000 -0.17400
O 	O 	0.06640 0.43360 0.25000 -0.19200
O 	O 	0.68360 0.43360 0.50000 -0.22000
O 	O 	0.68360 0.93360 -0.00000 -0.29100
O 	O 	0.18360 0.43360 -0.00000 -0.31500
O 	O 	0.18360 0.93360 0.50000 -0.20100
