data_crystal

_cell_length_a 13.94110
_cell_length_b 17.08170
_cell_length_c 7.66800
_cell_angle_alpha 90.00000
_cell_angle_beta  91.97400
_cell_angle_gamma 90.00000

_symmetry_space_group_name_	'P 1'
_symmetry_space_group_name_H-M	'P 1'

loop_
_symmetry_equiv_pos_as_xyz
  x,y,z

loop_
_atom_site_label
_atom_site_type_symbol
_atom_site_fract_x
_atom_site_fract_y
_atom_site_fract_z
_atom_site_charge
Cd	Cd	0.12674 0.52202 0.35893 1.24100
O 	O 	0.08620 0.47160 0.62470 -0.42800
O 	O 	0.97690 0.38170 0.67320 -0.39600
O 	O 	0.07330 0.10240 0.75020 -0.35300
O 	O 	0.22370 0.07060 0.73140 -0.37400
O 	O 	0.75960 0.38200 0.71130 -0.34800
O 	O 	0.72620 0.44360 0.46670 -0.33800
C 	C 	0.06390 0.40230 0.65110 0.34200
C 	C 	0.16010 0.12080 0.72050 0.30300
C 	C 	0.13880 0.34020 0.65420 -0.09000
C 	C 	0.11390 0.26190 0.68050 0.02100
H 	H 	0.05000 0.24840 0.69450 0.06100
C 	C 	0.18460 0.20390 0.68580 -0.06800
C 	C 	0.27950 0.22520 0.66270 -0.02000
H 	H 	0.32660 0.18660 0.66360 0.05500
C 	C 	0.30590 0.30320 0.63820 -0.01600
C 	C 	0.23380 0.35970 0.63420 -0.01400
H 	H 	0.25020 0.41180 0.61770 0.04600
C 	C 	0.70140 0.40040 0.58710 0.31200
C 	C 	0.60110 0.37070 0.59320 -0.09700
C 	C 	0.52950 0.40540 0.49130 0.04000
H 	H 	0.54620 0.44460 0.41380 0.03700
C 	C 	0.43360 0.38420 0.50000 -0.12600
H 	H 	0.38670 0.40850 0.42980 0.09000
C 	C 	0.40930 0.32480 0.61810 0.07300
C 	C 	0.48090 0.28730 0.71660 -0.12200
H 	H 	0.46510 0.24610 0.78950 0.08100
C 	C 	0.57550 0.31080 0.70700 0.04200
H 	H 	0.62250 0.28660 0.77690 0.04100
Cd	Cd	0.87326 0.02202 0.14107 1.23900
O 	O 	0.91380 0.97160 0.87530 -0.43000
O 	O 	0.02310 0.88170 0.82680 -0.40300
O 	O 	0.92670 0.60240 0.74980 -0.35500
O 	O 	0.77630 0.57060 0.76860 -0.37600
O 	O 	0.24040 0.88200 0.78870 -0.34600
O 	O 	0.27380 0.94360 0.03330 -0.32800
C 	C 	0.93610 0.90230 0.84890 0.34800
C 	C 	0.83990 0.62080 0.77950 0.30300
C 	C 	0.86120 0.84020 0.84580 -0.09100
C 	C 	0.88610 0.76190 0.81950 0.02100
H 	H 	0.95000 0.74840 0.80550 0.06100
C 	C 	0.81540 0.70390 0.81420 -0.06900
C 	C 	0.72050 0.72520 0.83730 -0.02100
H 	H 	0.67340 0.68660 0.83640 0.05400
C 	C 	0.69410 0.80320 0.86180 -0.01500
C 	C 	0.76620 0.85970 0.86580 -0.01500
H 	H 	0.74980 0.91180 0.88230 0.04600
C 	C 	0.29860 0.90040 0.91290 0.30100
C 	C 	0.39890 0.87070 0.90680 -0.10500
C 	C 	0.47050 0.90540 0.00870 0.05000
H 	H 	0.45380 0.94460 0.08620 0.03600
C 	C 	0.56640 0.88420 -0.00000 -0.11700
H 	H 	0.61330 0.90850 0.07020 0.08900
C 	C 	0.59070 0.82480 0.88190 0.06300
C 	C 	0.51910 0.78730 0.78340 -0.12000
H 	H 	0.53490 0.74610 0.71050 0.08100
C 	C 	0.42450 0.81080 0.79300 0.04100
H 	H 	0.37750 0.78660 0.72310 0.04100
Cd	Cd	0.87326 0.47798 0.64107 1.23900
O 	O 	0.91380 0.52840 0.37530 -0.42800
O 	O 	0.02310 0.61830 0.32680 -0.39600
O 	O 	0.92670 0.89760 0.24980 -0.35100
O 	O 	0.77630 0.92940 0.26860 -0.37200
O 	O 	0.24040 0.61800 0.28870 -0.34600
O 	O 	0.27380 0.55640 0.53330 -0.33900
C 	C 	0.93610 0.59770 0.34890 0.34300
C 	C 	0.83990 0.87920 0.27950 0.30300
C 	C 	0.86120 0.65980 0.34580 -0.08800
C 	C 	0.88610 0.73810 0.31950 0.02100
H 	H 	0.95000 0.75160 0.30550 0.06200
C 	C 	0.81540 0.79610 0.31420 -0.06600
C 	C 	0.72050 0.77480 0.33730 -0.01900
H 	H 	0.67340 0.81340 0.33640 0.05500
C 	C 	0.69410 0.69680 0.36180 -0.01500
C 	C 	0.76620 0.64030 0.36580 -0.01300
H 	H 	0.74980 0.58820 0.38230 0.04700
C 	C 	0.29860 0.59960 0.41290 0.31200
C 	C 	0.39890 0.62930 0.40680 -0.09700
C 	C 	0.47050 0.59460 0.50870 0.04000
H 	H 	0.45380 0.55540 0.58620 0.03600
C 	C 	0.56640 0.61580 0.50000 -0.12600
H 	H 	0.61330 0.59150 0.57020 0.09000
C 	C 	0.59070 0.67520 0.38190 0.07400
C 	C 	0.51910 0.71270 0.28340 -0.12100
H 	H 	0.53490 0.75390 0.21050 0.08400
C 	C 	0.42450 0.68920 0.29300 0.04200
H 	H 	0.37750 0.71340 0.22310 0.04300
Cd	Cd	0.12674 0.97798 0.85893 1.23600
O 	O 	0.08620 0.02840 0.12470 -0.42600
O 	O 	0.97690 0.11830 0.17320 -0.40000
O 	O 	0.07330 0.39760 0.25020 -0.35200
O 	O 	0.22370 0.42940 0.23140 -0.37400
O 	O 	0.75960 0.11800 0.21130 -0.34700
O 	O 	0.72620 0.05640 0.96670 -0.34100
C 	C 	0.06390 0.09770 0.15110 0.34700
C 	C 	0.16010 0.37920 0.22050 0.30300
C 	C 	0.13880 0.15980 0.15420 -0.08600
C 	C 	0.11390 0.23810 0.18050 0.02000
H 	H 	0.05000 0.25160 0.19450 0.06300
C 	C 	0.18460 0.29610 0.18580 -0.06400
C 	C 	0.27950 0.27480 0.16270 -0.02400
H 	H 	0.32660 0.31340 0.16360 0.05800
C 	C 	0.30590 0.19680 0.13820 -0.00700
C 	C 	0.23380 0.14030 0.13420 -0.01800
H 	H 	0.25020 0.08820 0.11770 0.04900
C 	C 	0.70140 0.09960 0.08710 0.31000
C 	C 	0.60110 0.12930 0.09320 -0.07800
C 	C 	0.52950 0.09460 0.99130 0.00700
H 	H 	0.54620 0.05540 0.91380 0.04600
C 	C 	0.43360 0.11580 -0.00000 -0.09200
H 	H 	0.38670 0.09150 0.92980 0.07500
C 	C 	0.40930 0.17520 0.11810 0.05700
C 	C 	0.48090 0.21270 0.21660 -0.10500
H 	H 	0.46510 0.25390 0.28950 0.07700
C 	C 	0.57550 0.18920 0.20700 0.02700
H 	H 	0.62250 0.21340 0.27690 0.04700
