data_crystal

_cell_length_a 8.70000
_cell_length_b 11.45170
_cell_length_c 23.04910
_cell_angle_alpha 90.00000
_cell_angle_beta  90.00000
_cell_angle_gamma 90.00000

_symmetry_space_group_name_	'P 1'
_symmetry_space_group_name_H-M	'P 1'

loop_
_symmetry_equiv_pos_as_xyz
  x,y,z

loop_
_atom_site_label
_atom_site_type_symbol
_atom_site_fract_x
_atom_site_fract_y
_atom_site_fract_z
_atom_site_charge
Zn	Zn	0.15229 0.82596 0.72796 1.22700
Zn	Zn	0.63304 0.79067 0.65885 1.20900
N 	N 	0.14640 0.95300 0.66740 -0.27400
N 	N 	0.12840 0.55570 0.39110 -0.25500
O 	O 	0.56670 0.60140 0.68010 -0.37300
O 	O 	0.47830 0.69600 0.60630 -0.41400
O 	O 	0.16960 0.65840 0.71590 -0.45500
O 	O 	0.10440 0.66510 0.62370 -0.31200
O 	O 	0.69150 0.34670 0.70980 -0.43500
O 	O 	0.53710 0.35090 0.78500 -0.47800
O 	O 	0.18290 0.31480 0.78800 -0.51000
O 	O 	0.02310 0.37870 0.72300 -0.45900
C 	C 	0.45280 0.38750 0.62690 -0.04700
H 	H 	0.56290 0.39510 0.62140 0.05900
H 	H 	0.41430 0.32930 0.60000 0.04700
C 	C 	0.37430 0.50300 0.61690 -0.10500
H 	H 	0.34470 0.51210 0.57620 0.07500
C 	C 	0.23210 0.49650 0.65620 -0.07800
H 	H 	0.15480 0.44850 0.63660 0.07200
C 	C 	0.28560 0.43010 0.71080 -0.13900
H 	H 	0.33020 0.48770 0.73740 0.08800
C 	C 	0.41680 0.35140 0.69000 -0.11300
H 	H 	0.37780 0.27110 0.68900 0.06500
C 	C 	0.48430 0.60410 0.63660 0.31400
C 	C 	0.16480 0.61610 0.66520 0.34500
C 	C 	0.15680 0.37090 0.74250 0.39700
C 	C 	0.55740 0.35300 0.72980 0.35800
C 	C 	0.18440 0.93840 0.61290 0.09800
H 	H 	0.22070 0.86550 0.60160 -0.00800
C 	C 	0.17390 0.02610 0.57030 -0.17400
H 	H 	0.20260 0.01140 0.53210 0.09200
C 	C 	0.12020 0.13390 0.58670 0.12300
C 	C 	0.07960 0.15180 0.64330 -0.18300
H 	H 	0.04270 0.22400 0.65540 0.09900
C 	C 	0.09440 0.06000 0.68260 0.09400
H 	H 	0.06730 0.07290 0.72110 -0.00900
C 	C 	0.09760 0.23990 0.54640 -0.08000
H 	H 	0.03970 0.30230 0.56020 0.05600
C 	C 	0.15140 0.24690 0.49750 -0.08900
H 	H 	0.20420 0.18320 0.48240 0.05800
C 	C 	0.13550 0.35260 0.46160 0.11500
C 	C 	0.19580 0.35130 0.40600 -0.17500
H 	H 	0.24240 0.28440 0.39140 0.09700
C 	C 	0.18550 0.45100 0.37240 0.09300
H 	H 	0.22010 0.44660 0.33430 -0.01200
C 	C 	0.07230 0.55380 0.44690 0.07600
H 	H 	0.02910 0.62240 0.46100 -0.00100
C 	C 	0.07470 0.45750 0.48400 -0.16100
H 	H 	0.03780 0.46220 0.52180 0.08800
Zn	Zn	0.34771 0.17404 0.22796 1.22600
Zn	Zn	0.86696 0.20933 0.15885 1.20800
N 	N 	0.35360 0.04700 0.16740 -0.27400
N 	N 	0.37160 0.44430 0.89110 -0.25600
O 	O 	0.93330 0.39860 0.18010 -0.37500
O 	O 	0.02170 0.30400 0.10630 -0.41500
O 	O 	0.33040 0.34160 0.21590 -0.45500
O 	O 	0.39560 0.33490 0.12370 -0.31300
O 	O 	0.80850 0.65330 0.20980 -0.43500
O 	O 	0.96290 0.64910 0.28500 -0.47700
O 	O 	0.31710 0.68520 0.28800 -0.51000
O 	O 	0.47690 0.62130 0.22300 -0.45900
C 	C 	0.04720 0.61250 0.12690 -0.04700
H 	H 	0.93710 0.60490 0.12140 0.05900
H 	H 	0.08570 0.67070 0.10000 0.04700
C 	C 	0.12570 0.49700 0.11690 -0.10500
H 	H 	0.15530 0.48790 0.07620 0.07500
C 	C 	0.26790 0.50350 0.15620 -0.07800
H 	H 	0.34520 0.55150 0.13660 0.07200
C 	C 	0.21440 0.56990 0.21080 -0.13900
H 	H 	0.16980 0.51230 0.23740 0.08800
C 	C 	0.08320 0.64860 0.19000 -0.11400
H 	H 	0.12220 0.72890 0.18900 0.06500
C 	C 	0.01570 0.39590 0.13660 0.31500
C 	C 	0.33520 0.38390 0.16520 0.34500
C 	C 	0.34320 0.62910 0.24250 0.39700
C 	C 	0.94260 0.64700 0.22980 0.35800
C 	C 	0.31560 0.06160 0.11290 0.10300
H 	H 	0.27930 0.13450 0.10160 -0.00900
C 	C 	0.32610 0.97390 0.07030 -0.17900
H 	H 	0.29740 0.98860 0.03210 0.09300
C 	C 	0.37980 0.86610 0.08670 0.12500
C 	C 	0.42040 0.84820 0.14330 -0.18400
H 	H 	0.45730 0.77600 0.15540 0.09900
C 	C 	0.40560 0.94000 0.18260 0.09200
H 	H 	0.43270 0.92710 0.22110 -0.00900
C 	C 	0.40240 0.76010 0.04640 -0.08200
H 	H 	0.46030 0.69770 0.06020 0.05600
C 	C 	0.34860 0.75310 0.99750 -0.08700
H 	H 	0.29580 0.81680 0.98240 0.05800
C 	C 	0.36450 0.64740 0.96160 0.11400
C 	C 	0.30420 0.64870 0.90600 -0.17400
H 	H 	0.25760 0.71560 0.89140 0.09700
C 	C 	0.31450 0.54900 0.87240 0.09300
H 	H 	0.27990 0.55340 0.83430 -0.01200
C 	C 	0.42770 0.44620 0.94690 0.07500
H 	H 	0.47090 0.37760 0.96100 -0.00000
C 	C 	0.42530 0.54250 0.98400 -0.16000
H 	H 	0.46220 0.53780 0.02180 0.08800
Zn	Zn	0.84771 0.32596 0.77204 1.22600
Zn	Zn	0.36696 0.29067 0.84115 1.20800
N 	N 	0.85360 0.45300 0.83260 -0.27400
N 	N 	0.87160 0.05570 0.10890 -0.25700
O 	O 	0.43330 0.10140 0.81990 -0.37400
O 	O 	0.52170 0.19600 0.89370 -0.41500
O 	O 	0.83040 0.15840 0.78410 -0.45600
O 	O 	0.89560 0.16510 0.87630 -0.31300
O 	O 	0.30850 0.84670 0.79020 -0.43600
O 	O 	0.46290 0.85090 0.71500 -0.47800
O 	O 	0.81710 0.81480 0.71200 -0.51000
O 	O 	0.97690 0.87870 0.77700 -0.45800
C 	C 	0.54720 0.88750 0.87310 -0.04700
H 	H 	0.43710 0.89510 0.87860 0.05900
H 	H 	0.58570 0.82930 0.90000 0.04700
C 	C 	0.62570 0.00300 0.88310 -0.10500
H 	H 	0.65530 0.01210 0.92380 0.07500
C 	C 	0.76790 0.99650 0.84380 -0.07800
H 	H 	0.84520 0.94850 0.86340 0.07200
C 	C 	0.71440 0.93010 0.78920 -0.13900
H 	H 	0.66980 0.98770 0.76260 0.08800
C 	C 	0.58320 0.85140 0.81000 -0.11400
H 	H 	0.62220 0.77110 0.81100 0.06500
C 	C 	0.51570 0.10410 0.86340 0.31500
C 	C 	0.83520 0.11610 0.83480 0.34400
C 	C 	0.84320 0.87090 0.75750 0.39700
C 	C 	0.44260 0.85300 0.77020 0.35800
C 	C 	0.81560 0.43840 0.88710 0.10200
H 	H 	0.77930 0.36550 0.89840 -0.00900
C 	C 	0.82610 0.52610 0.92970 -0.17800
H 	H 	0.79740 0.51140 0.96790 0.09300
C 	C 	0.87980 0.63390 0.91330 0.12400
C 	C 	0.92040 0.65180 0.85670 -0.18400
H 	H 	0.95730 0.72400 0.84460 0.10000
C 	C 	0.90560 0.56000 0.81740 0.09200
H 	H 	0.93270 0.57290 0.77890 -0.00900
C 	C 	0.90240 0.73990 0.95360 -0.08100
H 	H 	0.96030 0.80230 0.93980 0.05600
C 	C 	0.84860 0.74690 0.00250 -0.08700
H 	H 	0.79580 0.68320 0.01760 0.05800
C 	C 	0.86450 0.85260 0.03840 0.11300
C 	C 	0.80420 0.85130 0.09400 -0.17400
H 	H 	0.75760 0.78440 0.10860 0.09700
C 	C 	0.81450 0.95100 0.12760 0.09500
H 	H 	0.77990 0.94660 0.16570 -0.01300
C 	C 	0.92770 0.05380 0.05310 0.07200
H 	H 	0.97090 0.12240 0.03900 0.00000
C 	C 	0.92530 0.95750 0.01600 -0.15700
H 	H 	0.96220 0.96220 0.97820 0.08700
Zn	Zn	0.65229 0.67404 0.27204 1.22600
Zn	Zn	0.13304 0.70933 0.34115 1.20800
N 	N 	0.64640 0.54700 0.33260 -0.27400
N 	N 	0.62840 0.94430 0.60890 -0.25600
O 	O 	0.06670 0.89860 0.31990 -0.37700
O 	O 	0.97830 0.80400 0.39370 -0.41500
O 	O 	0.66960 0.84160 0.28410 -0.45600
O 	O 	0.60440 0.83490 0.37630 -0.31300
O 	O 	0.19150 0.15330 0.29020 -0.43500
O 	O 	0.03710 0.14910 0.21500 -0.47700
O 	O 	0.68290 0.18520 0.21200 -0.51000
O 	O 	0.52310 0.12130 0.27700 -0.45900
C 	C 	0.95280 0.11250 0.37310 -0.05200
H 	H 	0.06290 0.10490 0.37860 0.06200
H 	H 	0.91430 0.17070 0.40000 0.04800
C 	C 	0.87430 0.99700 0.38310 -0.10100
H 	H 	0.84470 0.98790 0.42380 0.07500
C 	C 	0.73210 0.00350 0.34380 -0.08100
H 	H 	0.65480 0.05150 0.36340 0.07300
C 	C 	0.78560 0.06990 0.28920 -0.13800
H 	H 	0.83020 0.01230 0.26260 0.08700
C 	C 	0.91680 0.14860 0.31000 -0.11400
H 	H 	0.87780 0.22890 0.31100 0.06500
C 	C 	0.98430 0.89590 0.36340 0.31600
C 	C 	0.66480 0.88390 0.33480 0.34600
C 	C 	0.65680 0.12910 0.25750 0.39700
C 	C 	0.05740 0.14700 0.27020 0.35900
C 	C 	0.68440 0.56160 0.38710 0.10200
H 	H 	0.72070 0.63450 0.39840 -0.00900
C 	C 	0.67390 0.47390 0.42970 -0.17800
H 	H 	0.70260 0.48860 0.46790 0.09300
C 	C 	0.62020 0.36610 0.41330 0.12400
C 	C 	0.57960 0.34820 0.35670 -0.18400
H 	H 	0.54270 0.27600 0.34460 0.09900
C 	C 	0.59440 0.44000 0.31740 0.09200
H 	H 	0.56730 0.42710 0.27890 -0.00900
C 	C 	0.59760 0.26010 0.45360 -0.08100
H 	H 	0.53970 0.19770 0.43980 0.05600
C 	C 	0.65140 0.25310 0.50250 -0.08800
H 	H 	0.70420 0.31680 0.51760 0.05800
C 	C 	0.63550 0.14740 0.53840 0.11400
C 	C 	0.69580 0.14870 0.59400 -0.17500
H 	H 	0.74240 0.21560 0.60860 0.09700
C 	C 	0.68550 0.04900 0.62760 0.09300
H 	H 	0.72010 0.05340 0.66570 -0.01300
C 	C 	0.57230 0.94620 0.55310 0.07500
H 	H 	0.52910 0.87760 0.53900 -0.00000
C 	C 	0.57470 0.04250 0.51600 -0.16100
H 	H 	0.53780 0.03780 0.47820 0.08800
