data_crystal

_cell_length_a 35.26270
_cell_length_b 35.26270
_cell_length_c 35.26270
_cell_angle_alpha 60.00000
_cell_angle_beta  60.00000
_cell_angle_gamma 60.00000

_symmetry_space_group_name_	'P 1'
_symmetry_space_group_name_H-M	'P 1'

loop_
_symmetry_equiv_pos_as_xyz
  x,y,z

loop_
_atom_site_label
_atom_site_type_symbol
_atom_site_fract_x
_atom_site_fract_y
_atom_site_fract_z
_atom_site_charge
Ag	Ag	0.06907 0.88306 0.31498 0.51800
Ag	Ag	0.00831 0.81699 0.43491 0.52400
Ag	Ag	0.38306 0.56907 0.73289 0.51800
Ag	Ag	0.31699 0.50831 0.73979 0.52400
Ag	Ag	0.81498 0.73289 0.56907 0.51800
Ag	Ag	0.93491 0.73979 0.50831 0.52400
Ag	Ag	0.23289 0.31498 0.88306 0.51800
Ag	Ag	0.23979 0.43491 0.81699 0.52400
Ag	Ag	0.06907 0.31498 0.73289 0.51800
Ag	Ag	0.00831 0.43491 0.73979 0.52400
Ag	Ag	0.38306 0.73289 0.31498 0.51800
Ag	Ag	0.31699 0.73979 0.43491 0.52400
Ag	Ag	0.81498 0.56907 0.88306 0.51800
Ag	Ag	0.93491 0.50831 0.81699 0.52400
Ag	Ag	0.23289 0.88306 0.56907 0.51800
Ag	Ag	0.23979 0.81699 0.50831 0.52400
Ag	Ag	0.06907 0.73289 0.88306 0.51700
Ag	Ag	0.00831 0.73979 0.81699 0.52400
Ag	Ag	0.38306 0.31498 0.56907 0.51800
Ag	Ag	0.31699 0.43491 0.50831 0.52400
Ag	Ag	0.81498 0.88306 0.73289 0.51800
Ag	Ag	0.93491 0.81699 0.73979 0.52400
Ag	Ag	0.23289 0.56907 0.31498 0.51700
Ag	Ag	0.23979 0.50831 0.43491 0.52300
Ag	Ag	0.11694 0.93093 0.18502 0.51700
Ag	Ag	0.18301 0.99169 0.06509 0.52300
Ag	Ag	0.43093 0.61694 0.76711 0.51700
Ag	Ag	0.49169 0.68301 0.76021 0.52300
Ag	Ag	0.26711 0.18502 0.93093 0.51700
Ag	Ag	0.26021 0.06509 0.99169 0.52300
Ag	Ag	0.68502 0.76711 0.61694 0.51700
Ag	Ag	0.56509 0.76021 0.68301 0.52300
Ag	Ag	0.68502 0.93093 0.76711 0.51700
Ag	Ag	0.56509 0.99169 0.76021 0.52300
Ag	Ag	0.26711 0.61694 0.18502 0.51700
Ag	Ag	0.26021 0.68301 0.06509 0.52300
Ag	Ag	0.43093 0.18502 0.61694 0.51700
Ag	Ag	0.49169 0.06509 0.68301 0.52300
Ag	Ag	0.11694 0.76711 0.93093 0.51700
Ag	Ag	0.18301 0.76021 0.99169 0.52300
Ag	Ag	0.26711 0.93093 0.61694 0.51700
Ag	Ag	0.26021 0.99169 0.68301 0.52300
Ag	Ag	0.68502 0.61694 0.93093 0.51700
Ag	Ag	0.56509 0.68301 0.99169 0.52300
Ag	Ag	0.11694 0.18502 0.76711 0.51700
Ag	Ag	0.18301 0.06509 0.76021 0.52300
Ag	Ag	0.43093 0.76711 0.18502 0.51700
Ag	Ag	0.49169 0.76021 0.06509 0.52300
Ag	Ag	0.93093 0.11694 0.68502 0.51700
Ag	Ag	0.99169 0.18301 0.56509 0.52300
Ag	Ag	0.61694 0.43093 0.26711 0.51700
Ag	Ag	0.68301 0.49169 0.26021 0.52300
Ag	Ag	0.18502 0.26711 0.43093 0.51700
Ag	Ag	0.06509 0.26021 0.49169 0.52300
Ag	Ag	0.76711 0.68502 0.11694 0.51700
Ag	Ag	0.76021 0.56509 0.18301 0.52300
Ag	Ag	0.93093 0.68502 0.26711 0.51700
Ag	Ag	0.99169 0.56509 0.26021 0.52300
Ag	Ag	0.61694 0.26711 0.68502 0.51700
Ag	Ag	0.68301 0.26021 0.56509 0.52300
Ag	Ag	0.18502 0.43093 0.11694 0.51700
Ag	Ag	0.06509 0.49169 0.18301 0.52300
Ag	Ag	0.76711 0.11694 0.43093 0.51700
Ag	Ag	0.76021 0.18301 0.49169 0.52300
Ag	Ag	0.93093 0.26711 0.11694 0.51600
Ag	Ag	0.99169 0.26021 0.18301 0.52300
Ag	Ag	0.61694 0.68502 0.43093 0.51700
Ag	Ag	0.68301 0.56509 0.49169 0.52300
Ag	Ag	0.18502 0.11694 0.26711 0.51700
Ag	Ag	0.06509 0.18301 0.26021 0.52300
Ag	Ag	0.76711 0.43093 0.68502 0.51700
Ag	Ag	0.76021 0.49169 0.56509 0.52300
Ag	Ag	0.88306 0.06907 0.81498 0.51700
Ag	Ag	0.81699 0.00831 0.93491 0.52300
Ag	Ag	0.56907 0.38306 0.23289 0.51700
Ag	Ag	0.50831 0.31699 0.23979 0.52300
Ag	Ag	0.73289 0.81498 0.06907 0.51700
Ag	Ag	0.73979 0.93491 0.00831 0.52300
Ag	Ag	0.31498 0.23289 0.38306 0.51700
Ag	Ag	0.43491 0.23979 0.31699 0.52300
Ag	Ag	0.31498 0.06907 0.23289 0.51700
Ag	Ag	0.43491 0.00831 0.23979 0.52300
Ag	Ag	0.73289 0.38306 0.81498 0.51700
Ag	Ag	0.73979 0.31699 0.93491 0.52300
Ag	Ag	0.56907 0.81498 0.38306 0.51700
Ag	Ag	0.50831 0.93491 0.31699 0.52300
Ag	Ag	0.88306 0.23289 0.06907 0.51700
Ag	Ag	0.81699 0.23979 0.00831 0.52300
Ag	Ag	0.73289 0.06907 0.38306 0.51700
Ag	Ag	0.73979 0.00831 0.31699 0.52300
Ag	Ag	0.31498 0.38306 0.06907 0.51700
Ag	Ag	0.43491 0.31699 0.00831 0.52300
Ag	Ag	0.88306 0.81498 0.23289 0.51700
Ag	Ag	0.81699 0.93491 0.23979 0.52300
Ag	Ag	0.56907 0.23289 0.81498 0.51700
Ag	Ag	0.50831 0.23979 0.93491 0.52300
H 	H 	0.15760 0.86420 0.34320 -0.00700
H 	H 	0.10300 0.78800 0.47140 -0.00000
H 	H 	0.96160 0.98300 0.32080 -0.00100
H 	H 	0.90230 0.90430 0.44390 -0.00400
H 	H 	0.15050 0.85730 0.46170 -0.00000
H 	H 	0.23440 0.77040 0.39240 -0.01000
H 	H 	0.87490 0.02310 0.42330 0.00100
H 	H 	0.84480 0.98940 0.35200 -0.00700
H 	H 	0.36420 0.65760 0.63500 -0.00700
H 	H 	0.28800 0.60300 0.63760 -0.00000
H 	H 	0.48300 0.46160 0.73460 -0.00100
H 	H 	0.40430 0.40230 0.74950 -0.00400
H 	H 	0.35730 0.65050 0.53050 -0.00000
H 	H 	0.27040 0.73440 0.60280 -0.01000
H 	H 	0.52310 0.37490 0.67870 0.00100
H 	H 	0.48940 0.34480 0.81380 -0.00700
H 	H 	0.84320 0.63500 0.65760 -0.00700
H 	H 	0.97140 0.63760 0.60300 -0.00000
H 	H 	0.82080 0.73460 0.46160 -0.00100
H 	H 	0.94390 0.74950 0.40230 -0.00400
H 	H 	0.96170 0.53050 0.65050 -0.00000
H 	H 	0.89240 0.60280 0.73440 -0.01000
H 	H 	0.92330 0.67870 0.37490 0.00100
H 	H 	0.85200 0.81380 0.34480 -0.00700
H 	H 	0.13500 0.34320 0.86420 -0.00700
H 	H 	0.13760 0.47140 0.78800 -0.00000
H 	H 	0.23460 0.32080 0.98300 -0.00100
H 	H 	0.24950 0.44390 0.90430 -0.00400
H 	H 	0.03050 0.46170 0.85730 -0.00000
H 	H 	0.10280 0.39240 0.77040 -0.01000
H 	H 	0.17870 0.42330 0.02310 0.00100
H 	H 	0.31380 0.35200 0.98940 -0.00800
H 	H 	0.15760 0.34320 0.63500 -0.00700
H 	H 	0.10300 0.47140 0.63760 -0.00000
H 	H 	0.96160 0.32080 0.73460 -0.00100
H 	H 	0.90230 0.44390 0.74950 -0.00400
H 	H 	0.15050 0.46170 0.53050 -0.00000
H 	H 	0.23440 0.39240 0.60280 -0.01000
H 	H 	0.87490 0.42330 0.67870 0.00100
H 	H 	0.84480 0.35200 0.81380 -0.00700
H 	H 	0.36420 0.63500 0.34320 -0.00700
H 	H 	0.28800 0.63760 0.47140 -0.00000
H 	H 	0.48300 0.73460 0.32080 -0.00100
H 	H 	0.40430 0.74950 0.44390 -0.00400
H 	H 	0.35730 0.53050 0.46170 -0.00000
H 	H 	0.27040 0.60280 0.39240 -0.01000
H 	H 	0.52310 0.67870 0.42330 0.00100
H 	H 	0.48940 0.81380 0.35200 -0.00700
H 	H 	0.84320 0.65760 0.86420 -0.00700
H 	H 	0.97140 0.60300 0.78800 -0.00000
H 	H 	0.82080 0.46160 0.98300 -0.00100
H 	H 	0.94390 0.40230 0.90430 -0.00400
H 	H 	0.96170 0.65050 0.85730 -0.00000
H 	H 	0.89240 0.73440 0.77040 -0.01000
H 	H 	0.92330 0.37490 0.02310 0.00100
H 	H 	0.85200 0.34480 0.98940 -0.00700
H 	H 	0.13500 0.86420 0.65760 -0.00700
H 	H 	0.13760 0.78800 0.60300 -0.00000
H 	H 	0.23460 0.98300 0.46160 -0.00100
H 	H 	0.24950 0.90430 0.40230 -0.00400
H 	H 	0.03050 0.85730 0.65050 -0.00000
H 	H 	0.10280 0.77040 0.73440 -0.01000
H 	H 	0.17870 0.02310 0.37490 0.00100
H 	H 	0.31380 0.98940 0.34480 -0.00800
H 	H 	0.15760 0.63500 0.86420 -0.00700
H 	H 	0.10300 0.63760 0.78800 -0.00000
H 	H 	0.96160 0.73460 0.98300 -0.00100
H 	H 	0.90230 0.74950 0.90430 -0.00400
H 	H 	0.15050 0.53050 0.85730 -0.00000
H 	H 	0.23440 0.60280 0.77040 -0.01000
H 	H 	0.87490 0.67870 0.02310 0.00100
H 	H 	0.84480 0.81380 0.98940 -0.00700
H 	H 	0.36420 0.34320 0.65760 -0.00700
H 	H 	0.28800 0.47140 0.60300 -0.00000
H 	H 	0.48300 0.32080 0.46160 -0.00100
H 	H 	0.40430 0.44390 0.40230 -0.00400
H 	H 	0.35730 0.46170 0.65050 -0.00000
H 	H 	0.27040 0.39240 0.73440 -0.01000
H 	H 	0.52310 0.42330 0.37490 0.00100
H 	H 	0.48940 0.35200 0.34480 -0.00700
H 	H 	0.84320 0.86420 0.63500 -0.00700
H 	H 	0.97140 0.78800 0.63760 -0.00000
H 	H 	0.82080 0.98300 0.73460 -0.00100
H 	H 	0.94390 0.90430 0.74950 -0.00300
H 	H 	0.96170 0.85730 0.53050 -0.00000
H 	H 	0.89240 0.77040 0.60280 -0.01000
H 	H 	0.92330 0.02310 0.67870 0.00100
H 	H 	0.85200 0.98940 0.81380 -0.00700
H 	H 	0.13500 0.65760 0.34320 -0.00700
H 	H 	0.13760 0.60300 0.47140 -0.00000
H 	H 	0.23460 0.46160 0.32080 -0.00100
H 	H 	0.24950 0.40230 0.44390 -0.00400
H 	H 	0.03050 0.65050 0.46170 -0.00000
H 	H 	0.10280 0.73440 0.39240 -0.01000
H 	H 	0.17870 0.37490 0.42330 0.00100
H 	H 	0.31380 0.34480 0.35200 -0.00700
H 	H 	0.13580 0.84240 0.15680 -0.00700
H 	H 	0.21200 0.89700 0.02860 -0.00000
H 	H 	0.01700 0.03840 0.17920 -0.00100
H 	H 	0.09570 0.09770 0.05610 -0.00300
H 	H 	0.14270 0.84950 0.03830 -0.00000
H 	H 	0.22960 0.76560 0.10760 -0.01000
H 	H 	0.97690 0.12510 0.07670 0.00100
H 	H 	0.01060 0.15520 0.14800 -0.00600
H 	H 	0.34240 0.63580 0.86500 -0.00700
H 	H 	0.39700 0.71200 0.86240 -0.00000
H 	H 	0.53840 0.51700 0.76540 -0.00100
H 	H 	0.59770 0.59570 0.75050 -0.00400
H 	H 	0.34950 0.64270 0.96950 -0.00000
H 	H 	0.26560 0.72960 0.89720 -0.01000
H 	H 	0.62510 0.47690 0.82130 0.00100
H 	H 	0.65520 0.51060 0.68620 -0.00700
H 	H 	0.36500 0.15680 0.84240 -0.00700
H 	H 	0.36240 0.02860 0.89700 -0.00000
H 	H 	0.26540 0.17920 0.03840 -0.00100
H 	H 	0.25050 0.05610 0.09770 -0.00400
H 	H 	0.46950 0.03830 0.84950 -0.00000
H 	H 	0.39720 0.10760 0.76560 -0.01000
H 	H 	0.32130 0.07670 0.12510 0.00100
H 	H 	0.18620 0.14800 0.15520 -0.00700
H 	H 	0.65680 0.86500 0.63580 -0.00700
H 	H 	0.52860 0.86240 0.71200 -0.00000
H 	H 	0.67920 0.76540 0.51700 -0.00100
H 	H 	0.55610 0.75050 0.59570 -0.00400
H 	H 	0.53830 0.96950 0.64270 -0.00000
H 	H 	0.60760 0.89720 0.72960 -0.01000
H 	H 	0.57670 0.82130 0.47690 0.00100
H 	H 	0.64800 0.68620 0.51060 -0.00700
H 	H 	0.65680 0.84240 0.86500 -0.00700
H 	H 	0.52860 0.89700 0.86240 -0.00000
H 	H 	0.67920 0.03840 0.76540 -0.00100
H 	H 	0.55610 0.09770 0.75050 -0.00400
H 	H 	0.53830 0.84950 0.96950 -0.00000
H 	H 	0.60760 0.76560 0.89720 -0.01000
H 	H 	0.57670 0.12510 0.82130 0.00100
H 	H 	0.64800 0.15520 0.68620 -0.00700
H 	H 	0.36500 0.63580 0.15680 -0.00700
H 	H 	0.36240 0.71200 0.02860 -0.00000
H 	H 	0.26540 0.51700 0.17920 -0.00100
H 	H 	0.25050 0.59570 0.05610 -0.00400
H 	H 	0.46950 0.64270 0.03830 -0.00000
H 	H 	0.39720 0.72960 0.10760 -0.01000
H 	H 	0.32130 0.47690 0.07670 0.00100
H 	H 	0.18620 0.51060 0.14800 -0.00700
H 	H 	0.34240 0.15680 0.63580 -0.00700
H 	H 	0.39700 0.02860 0.71200 -0.00000
H 	H 	0.53840 0.17920 0.51700 -0.00100
H 	H 	0.59770 0.05610 0.59570 -0.00400
H 	H 	0.34950 0.03830 0.64270 -0.00000
H 	H 	0.26560 0.10760 0.72960 -0.01000
H 	H 	0.62510 0.07670 0.47690 0.00100
H 	H 	0.65520 0.14800 0.51060 -0.00700
H 	H 	0.13580 0.86500 0.84240 -0.00700
H 	H 	0.21200 0.86240 0.89700 -0.00000
H 	H 	0.01700 0.76540 0.03840 -0.00100
H 	H 	0.09570 0.75050 0.09770 -0.00400
H 	H 	0.14270 0.96950 0.84950 -0.00000
H 	H 	0.22960 0.89720 0.76560 -0.01000
H 	H 	0.97690 0.82130 0.12510 0.00100
H 	H 	0.01060 0.68620 0.15520 -0.00700
H 	H 	0.36500 0.84240 0.63580 -0.00700
H 	H 	0.36240 0.89700 0.71200 -0.00000
H 	H 	0.26540 0.03840 0.51700 -0.00100
H 	H 	0.25050 0.09770 0.59570 -0.00400
H 	H 	0.46950 0.84950 0.64270 -0.00000
H 	H 	0.39720 0.76560 0.72960 -0.01000
H 	H 	0.32130 0.12510 0.47690 0.00100
H 	H 	0.18620 0.15520 0.51060 -0.00700
H 	H 	0.65680 0.63580 0.84240 -0.00700
H 	H 	0.52860 0.71200 0.89700 -0.00000
H 	H 	0.67920 0.51700 0.03840 -0.00100
H 	H 	0.55610 0.59570 0.09770 -0.00400
H 	H 	0.53830 0.64270 0.84950 -0.00000
H 	H 	0.60760 0.72960 0.76560 -0.01000
H 	H 	0.57670 0.47690 0.12510 0.00100
H 	H 	0.64800 0.51060 0.15520 -0.00700
H 	H 	0.13580 0.15680 0.86500 -0.00700
H 	H 	0.21200 0.02860 0.86240 -0.00000
H 	H 	0.01700 0.17920 0.76540 -0.00100
H 	H 	0.09570 0.05610 0.75050 -0.00400
H 	H 	0.14270 0.03830 0.96950 -0.00000
H 	H 	0.22960 0.10760 0.89720 -0.01000
H 	H 	0.97690 0.07670 0.82130 0.00100
H 	H 	0.01060 0.14800 0.68620 -0.00700
H 	H 	0.34240 0.86500 0.15680 -0.00700
H 	H 	0.39700 0.86240 0.02860 -0.00000
H 	H 	0.53840 0.76540 0.17920 -0.00100
H 	H 	0.59770 0.75050 0.05610 -0.00400
H 	H 	0.34950 0.96950 0.03830 -0.00000
H 	H 	0.26560 0.89720 0.10760 -0.01000
H 	H 	0.62510 0.82130 0.07670 0.00100
H 	H 	0.65520 0.68620 0.14800 -0.00700
H 	H 	0.84240 0.13580 0.65680 -0.00700
H 	H 	0.89700 0.21200 0.52860 -0.00000
H 	H 	0.03840 0.01700 0.67920 -0.00100
H 	H 	0.09770 0.09570 0.55610 -0.00400
H 	H 	0.84950 0.14270 0.53830 -0.00000
H 	H 	0.76560 0.22960 0.60760 -0.01000
H 	H 	0.12510 0.97690 0.57670 0.00100
H 	H 	0.15520 0.01060 0.64800 -0.00700
H 	H 	0.63580 0.34240 0.36500 -0.00700
H 	H 	0.71200 0.39700 0.36240 -0.00000
H 	H 	0.51700 0.53840 0.26540 -0.00100
H 	H 	0.59570 0.59770 0.25050 -0.00400
H 	H 	0.64270 0.34950 0.46950 -0.00000
H 	H 	0.72960 0.26560 0.39720 -0.01000
H 	H 	0.47690 0.62510 0.32130 0.00100
H 	H 	0.51060 0.65520 0.18620 -0.00700
H 	H 	0.15680 0.36500 0.34240 -0.00700
H 	H 	0.02860 0.36240 0.39700 -0.00000
H 	H 	0.17920 0.26540 0.53840 -0.00100
H 	H 	0.05610 0.25050 0.59770 -0.00400
H 	H 	0.03830 0.46950 0.34950 -0.00000
H 	H 	0.10760 0.39720 0.26560 -0.01000
H 	H 	0.07670 0.32130 0.62510 0.00100
H 	H 	0.14800 0.18620 0.65520 -0.00700
H 	H 	0.86500 0.65680 0.13580 -0.00700
H 	H 	0.86240 0.52860 0.21200 -0.00000
H 	H 	0.76540 0.67920 0.01700 -0.00100
H 	H 	0.75050 0.55610 0.09570 -0.00400
H 	H 	0.96950 0.53830 0.14270 -0.00000
H 	H 	0.89720 0.60760 0.22960 -0.01000
H 	H 	0.82130 0.57670 0.97690 0.00100
H 	H 	0.68620 0.64800 0.01060 -0.00800
H 	H 	0.84240 0.65680 0.36500 -0.00700
H 	H 	0.89700 0.52860 0.36240 -0.00000
H 	H 	0.03840 0.67920 0.26540 -0.00100
H 	H 	0.09770 0.55610 0.25050 -0.00400
H 	H 	0.84950 0.53830 0.46950 -0.00000
H 	H 	0.76560 0.60760 0.39720 -0.01000
H 	H 	0.12510 0.57670 0.32130 0.00100
H 	H 	0.15520 0.64800 0.18620 -0.00700
H 	H 	0.63580 0.36500 0.65680 -0.00700
H 	H 	0.71200 0.36240 0.52860 -0.00000
H 	H 	0.51700 0.26540 0.67920 -0.00100
H 	H 	0.59570 0.25050 0.55610 -0.00400
H 	H 	0.64270 0.46950 0.53830 -0.00000
H 	H 	0.72960 0.39720 0.60760 -0.01000
H 	H 	0.47690 0.32130 0.57670 0.00100
H 	H 	0.51060 0.18620 0.64800 -0.00700
H 	H 	0.15680 0.34240 0.13580 -0.00700
H 	H 	0.02860 0.39700 0.21200 -0.00000
H 	H 	0.17920 0.53840 0.01700 -0.00100
H 	H 	0.05610 0.59770 0.09570 -0.00400
H 	H 	0.03830 0.34950 0.14270 -0.00000
H 	H 	0.10760 0.26560 0.22960 -0.01000
H 	H 	0.07670 0.62510 0.97690 0.00100
H 	H 	0.14800 0.65520 0.01060 -0.00700
H 	H 	0.86500 0.13580 0.34240 -0.00700
H 	H 	0.86240 0.21200 0.39700 -0.00000
H 	H 	0.76540 0.01700 0.53840 -0.00100
H 	H 	0.75050 0.09570 0.59770 -0.00400
H 	H 	0.96950 0.14270 0.34950 -0.00000
H 	H 	0.89720 0.22960 0.26560 -0.01000
H 	H 	0.82130 0.97690 0.62510 0.00100
H 	H 	0.68620 0.01060 0.65520 -0.00800
H 	H 	0.84240 0.36500 0.13580 -0.00700
H 	H 	0.89700 0.36240 0.21200 -0.00000
H 	H 	0.03840 0.26540 0.01700 -0.00100
H 	H 	0.09770 0.25050 0.09570 -0.00400
H 	H 	0.84950 0.46950 0.14270 -0.00000
H 	H 	0.76560 0.39720 0.22960 -0.01000
H 	H 	0.12510 0.32130 0.97690 0.00100
H 	H 	0.15520 0.18620 0.01060 -0.00700
H 	H 	0.63580 0.65680 0.34240 -0.00700
H 	H 	0.71200 0.52860 0.39700 -0.00000
H 	H 	0.51700 0.67920 0.53840 -0.00100
H 	H 	0.59570 0.55610 0.59770 -0.00400
H 	H 	0.64270 0.53830 0.34950 -0.00000
H 	H 	0.72960 0.60760 0.26560 -0.01000
H 	H 	0.47690 0.57670 0.62510 0.00100
H 	H 	0.51060 0.64800 0.65520 -0.00700
H 	H 	0.15680 0.13580 0.36500 -0.00700
H 	H 	0.02860 0.21200 0.36240 -0.00000
H 	H 	0.17920 0.01700 0.26540 -0.00100
H 	H 	0.05610 0.09570 0.25050 -0.00300
H 	H 	0.03830 0.14270 0.46950 -0.00000
H 	H 	0.10760 0.22960 0.39720 -0.01000
H 	H 	0.07670 0.97690 0.32130 0.00100
H 	H 	0.14800 0.01060 0.18620 -0.00700
H 	H 	0.86500 0.34240 0.65680 -0.00700
H 	H 	0.86240 0.39700 0.52860 -0.00000
H 	H 	0.76540 0.53840 0.67920 -0.00100
H 	H 	0.75050 0.59770 0.55610 -0.00400
H 	H 	0.96950 0.34950 0.53830 -0.00000
H 	H 	0.89720 0.26560 0.60760 -0.01000
H 	H 	0.82130 0.62510 0.57670 0.00100
H 	H 	0.68620 0.65520 0.64800 -0.00700
H 	H 	0.86420 0.15760 0.84320 -0.00700
H 	H 	0.78800 0.10300 0.97140 -0.00000
H 	H 	0.98300 0.96160 0.82080 -0.00100
H 	H 	0.90430 0.90230 0.94390 -0.00300
H 	H 	0.85730 0.15050 0.96170 -0.00000
H 	H 	0.77040 0.23440 0.89240 -0.01000
H 	H 	0.02310 0.87490 0.92330 0.00100
H 	H 	0.98940 0.84480 0.85200 -0.00600
H 	H 	0.65760 0.36420 0.13500 -0.00700
H 	H 	0.60300 0.28800 0.13760 -0.00000
H 	H 	0.46160 0.48300 0.23460 -0.00100
H 	H 	0.40230 0.40430 0.24950 -0.00400
H 	H 	0.65050 0.35730 0.03050 -0.00000
H 	H 	0.73440 0.27040 0.10280 -0.01000
H 	H 	0.37490 0.52310 0.17870 0.00100
H 	H 	0.34480 0.48940 0.31380 -0.00700
H 	H 	0.63500 0.84320 0.15760 -0.00700
H 	H 	0.63760 0.97140 0.10300 -0.00000
H 	H 	0.73460 0.82080 0.96160 -0.00100
H 	H 	0.74950 0.94390 0.90230 -0.00400
H 	H 	0.53050 0.96170 0.15050 -0.00000
H 	H 	0.60280 0.89240 0.23440 -0.01000
H 	H 	0.67870 0.92330 0.87490 0.00100
H 	H 	0.81380 0.85200 0.84480 -0.00700
H 	H 	0.34320 0.13500 0.36420 -0.00700
H 	H 	0.47140 0.13760 0.28800 -0.00000
H 	H 	0.32080 0.23460 0.48300 -0.00100
H 	H 	0.44390 0.24950 0.40430 -0.00400
H 	H 	0.46170 0.03050 0.35730 -0.00000
H 	H 	0.39240 0.10280 0.27040 -0.01000
H 	H 	0.42330 0.17870 0.52310 0.00100
H 	H 	0.35200 0.31380 0.48940 -0.00700
H 	H 	0.34320 0.15760 0.13500 -0.00700
H 	H 	0.47140 0.10300 0.13760 -0.00000
H 	H 	0.32080 0.96160 0.23460 -0.00100
H 	H 	0.44390 0.90230 0.24950 -0.00400
H 	H 	0.46170 0.15050 0.03050 -0.00000
H 	H 	0.39240 0.23440 0.10280 -0.01000
H 	H 	0.42330 0.87490 0.17870 0.00100
H 	H 	0.35200 0.84480 0.31380 -0.00700
H 	H 	0.63500 0.36420 0.84320 -0.00700
H 	H 	0.63760 0.28800 0.97140 -0.00000
H 	H 	0.73460 0.48300 0.82080 -0.00100
H 	H 	0.74950 0.40430 0.94390 -0.00400
H 	H 	0.53050 0.35730 0.96170 -0.00000
H 	H 	0.60280 0.27040 0.89240 -0.01000
H 	H 	0.67870 0.52310 0.92330 0.00100
H 	H 	0.81380 0.48940 0.85200 -0.00700
H 	H 	0.65760 0.84320 0.36420 -0.00700
H 	H 	0.60300 0.97140 0.28800 -0.00000
H 	H 	0.46160 0.82080 0.48300 -0.00100
H 	H 	0.40230 0.94390 0.40430 -0.00400
H 	H 	0.65050 0.96170 0.35730 -0.00000
H 	H 	0.73440 0.89240 0.27040 -0.01000
H 	H 	0.37490 0.92330 0.52310 0.00100
H 	H 	0.34480 0.85200 0.48940 -0.00700
H 	H 	0.86420 0.13500 0.15760 -0.00700
H 	H 	0.78800 0.13760 0.10300 -0.00000
H 	H 	0.98300 0.23460 0.96160 -0.00100
H 	H 	0.90430 0.24950 0.90230 -0.00400
H 	H 	0.85730 0.03050 0.15050 -0.00000
H 	H 	0.77040 0.10280 0.23440 -0.01000
H 	H 	0.02310 0.17870 0.87490 0.00100
H 	H 	0.98940 0.31380 0.84480 -0.00700
H 	H 	0.63500 0.15760 0.36420 -0.00700
H 	H 	0.63760 0.10300 0.28800 -0.00000
H 	H 	0.73460 0.96160 0.48300 -0.00100
H 	H 	0.74950 0.90230 0.40430 -0.00400
H 	H 	0.53050 0.15050 0.35730 -0.00000
H 	H 	0.60280 0.23440 0.27040 -0.01000
H 	H 	0.67870 0.87490 0.52310 0.00100
H 	H 	0.81380 0.84480 0.48940 -0.00700
H 	H 	0.34320 0.36420 0.15760 -0.00700
H 	H 	0.47140 0.28800 0.10300 -0.00000
H 	H 	0.32080 0.48300 0.96160 -0.00100
H 	H 	0.44390 0.40430 0.90230 -0.00400
H 	H 	0.46170 0.35730 0.15050 -0.00000
H 	H 	0.39240 0.27040 0.23440 -0.01000
H 	H 	0.42330 0.52310 0.87490 0.00100
H 	H 	0.35200 0.48940 0.84480 -0.00700
H 	H 	0.86420 0.84320 0.13500 -0.00700
H 	H 	0.78800 0.97140 0.13760 -0.00000
H 	H 	0.98300 0.82080 0.23460 -0.00100
H 	H 	0.90430 0.94390 0.24950 -0.00400
H 	H 	0.85730 0.96170 0.03050 -0.00000
H 	H 	0.77040 0.89240 0.10280 -0.01000
H 	H 	0.02310 0.92330 0.17870 0.00100
H 	H 	0.98940 0.85200 0.31380 -0.00700
H 	H 	0.65760 0.13500 0.84320 -0.00700
H 	H 	0.60300 0.13760 0.97140 -0.00000
H 	H 	0.46160 0.23460 0.82080 -0.00100
H 	H 	0.40230 0.24950 0.94390 -0.00400
H 	H 	0.65050 0.03050 0.96170 -0.00000
H 	H 	0.73440 0.10280 0.89240 -0.01000
H 	H 	0.37490 0.17870 0.92330 0.00100
H 	H 	0.34480 0.31380 0.85200 -0.00700
C 	C 	0.13790 0.84796 0.36978 0.09100
C 	C 	0.10782 0.80692 0.43970 0.08500
C 	C 	0.95697 0.95731 0.34845 0.09700
C 	C 	0.92474 0.91472 0.41516 0.09300
C 	C 	0.17731 0.83449 0.44943 0.09100
C 	C 	0.22214 0.78794 0.41192 0.09100
C 	C 	0.85930 0.02338 0.40764 0.09000
C 	C 	0.84262 0.00500 0.36884 0.08500
C 	C 	0.34796 0.63790 0.64436 0.09100
C 	C 	0.30692 0.60782 0.64556 0.08500
C 	C 	0.45731 0.45697 0.73727 0.09700
C 	C 	0.41472 0.42474 0.74538 0.09300
C 	C 	0.33449 0.67731 0.53877 0.09100
C 	C 	0.28794 0.72214 0.57800 0.09100
C 	C 	0.52338 0.35930 0.70968 0.09000
C 	C 	0.50500 0.34262 0.78354 0.08700
C 	C 	0.86978 0.64436 0.63790 0.09100
C 	C 	0.93970 0.64556 0.60782 0.08500
C 	C 	0.84845 0.73727 0.45697 0.09700
C 	C 	0.91516 0.74538 0.42474 0.09300
C 	C 	0.94943 0.53877 0.67731 0.09100
C 	C 	0.91192 0.57800 0.72214 0.09100
C 	C 	0.90764 0.70968 0.35930 0.09000
C 	C 	0.86884 0.78354 0.34262 0.08700
C 	C 	0.14436 0.36978 0.84796 0.09100
C 	C 	0.14556 0.43970 0.80692 0.08500
C 	C 	0.23727 0.34845 0.95731 0.09700
C 	C 	0.24538 0.41516 0.91472 0.09300
C 	C 	0.03877 0.44943 0.83449 0.09100
C 	C 	0.07800 0.41192 0.78794 0.09100
C 	C 	0.20968 0.40764 0.02338 0.09100
C 	C 	0.28354 0.36884 0.00500 0.08700
C 	C 	0.13790 0.36978 0.64436 0.09100
C 	C 	0.10782 0.43970 0.64556 0.08500
C 	C 	0.95697 0.34845 0.73727 0.09700
C 	C 	0.92474 0.41516 0.74538 0.09300
C 	C 	0.17731 0.44943 0.53877 0.09100
C 	C 	0.22214 0.41192 0.57800 0.09100
C 	C 	0.85930 0.40764 0.70968 0.09000
C 	C 	0.84262 0.36884 0.78354 0.08700
C 	C 	0.34796 0.64436 0.36978 0.09100
C 	C 	0.30692 0.64556 0.43970 0.08500
C 	C 	0.45731 0.73727 0.34845 0.09700
C 	C 	0.41472 0.74538 0.41516 0.09300
C 	C 	0.33449 0.53877 0.44943 0.09100
C 	C 	0.28794 0.57800 0.41192 0.09100
C 	C 	0.52338 0.70968 0.40764 0.09000
C 	C 	0.50500 0.78354 0.36884 0.08700
C 	C 	0.86978 0.63790 0.84796 0.09100
C 	C 	0.93970 0.60782 0.80692 0.08500
C 	C 	0.84845 0.45697 0.95731 0.09700
C 	C 	0.91516 0.42474 0.91472 0.09300
C 	C 	0.94943 0.67731 0.83449 0.09100
C 	C 	0.91192 0.72214 0.78794 0.09100
C 	C 	0.90764 0.35930 0.02338 0.09000
C 	C 	0.86884 0.34262 0.00500 0.08500
C 	C 	0.14436 0.84796 0.63790 0.09100
C 	C 	0.14556 0.80692 0.60782 0.08500
C 	C 	0.23727 0.95731 0.45697 0.09700
C 	C 	0.24538 0.91472 0.42474 0.09300
C 	C 	0.03877 0.83449 0.67731 0.09100
C 	C 	0.07800 0.78794 0.72214 0.09100
C 	C 	0.20968 0.02338 0.35930 0.09100
C 	C 	0.28354 0.00500 0.34262 0.08700
C 	C 	0.13790 0.64436 0.84796 0.09100
C 	C 	0.10782 0.64556 0.80692 0.08500
C 	C 	0.95697 0.73727 0.95731 0.09700
C 	C 	0.92474 0.74538 0.91472 0.09300
C 	C 	0.17731 0.53877 0.83449 0.09100
C 	C 	0.22214 0.57800 0.78794 0.09100
C 	C 	0.85930 0.70968 0.02338 0.09000
C 	C 	0.84262 0.78354 0.00500 0.08500
C 	C 	0.34796 0.36978 0.63790 0.09100
C 	C 	0.30692 0.43970 0.60782 0.08500
C 	C 	0.45731 0.34845 0.45697 0.09700
C 	C 	0.41472 0.41516 0.42474 0.09300
C 	C 	0.33449 0.44943 0.67731 0.09100
C 	C 	0.28794 0.41192 0.72214 0.09100
C 	C 	0.52338 0.40764 0.35930 0.09000
C 	C 	0.50500 0.36884 0.34262 0.08700
C 	C 	0.86978 0.84796 0.64436 0.09100
C 	C 	0.93970 0.80692 0.64556 0.08500
C 	C 	0.84845 0.95731 0.73727 0.09700
C 	C 	0.91516 0.91472 0.74538 0.09300
C 	C 	0.94943 0.83449 0.53877 0.09100
C 	C 	0.91192 0.78794 0.57800 0.09100
C 	C 	0.90764 0.02338 0.70968 0.09000
C 	C 	0.86884 0.00500 0.78354 0.08500
C 	C 	0.14436 0.63790 0.36978 0.09100
C 	C 	0.14556 0.60782 0.43970 0.08500
C 	C 	0.23727 0.45697 0.34845 0.09700
C 	C 	0.24538 0.42474 0.41516 0.09300
C 	C 	0.03877 0.67731 0.44943 0.09100
C 	C 	0.07800 0.72214 0.41192 0.09100
C 	C 	0.20968 0.35930 0.40764 0.09000
C 	C 	0.28354 0.34262 0.36884 0.08700
C 	C 	0.15204 0.86210 0.13022 0.09100
C 	C 	0.19308 0.89218 0.06030 0.08500
C 	C 	0.04269 0.04303 0.15155 0.09700
C 	C 	0.08528 0.07526 0.08484 0.09300
C 	C 	0.16551 0.82269 0.05057 0.09100
C 	C 	0.21206 0.77786 0.08808 0.09100
C 	C 	0.97662 0.14070 0.09236 0.08900
C 	C 	0.99500 0.15738 0.13116 0.08400
C 	C 	0.36210 0.65204 0.85564 0.09100
C 	C 	0.39218 0.69308 0.85444 0.08500
C 	C 	0.54303 0.54269 0.76273 0.09700
C 	C 	0.57526 0.58528 0.75462 0.09300
C 	C 	0.32269 0.66551 0.96123 0.09100
C 	C 	0.27786 0.71206 0.92200 0.09100
C 	C 	0.64070 0.47662 0.79032 0.09000
C 	C 	0.65738 0.49500 0.71646 0.08700
C 	C 	0.35564 0.13022 0.86210 0.09100
C 	C 	0.35444 0.06030 0.89218 0.08500
C 	C 	0.26273 0.15155 0.04303 0.09700
C 	C 	0.25462 0.08484 0.07526 0.09300
C 	C 	0.46123 0.05057 0.82269 0.09100
C 	C 	0.42200 0.08808 0.77786 0.09100
C 	C 	0.29032 0.09236 0.14070 0.09000
C 	C 	0.21646 0.13116 0.15738 0.08700
C 	C 	0.63022 0.85564 0.65204 0.09100
C 	C 	0.56030 0.85444 0.69308 0.08500
C 	C 	0.65155 0.76273 0.54269 0.09700
C 	C 	0.58484 0.75462 0.58528 0.09300
C 	C 	0.55057 0.96123 0.66551 0.09100
C 	C 	0.58808 0.92200 0.71206 0.09100
C 	C 	0.59236 0.79032 0.47662 0.09000
C 	C 	0.63116 0.71646 0.49500 0.08700
C 	C 	0.63022 0.86210 0.85564 0.09100
C 	C 	0.56030 0.89218 0.85444 0.08500
C 	C 	0.65155 0.04303 0.76273 0.09700
C 	C 	0.58484 0.07526 0.75462 0.09300
C 	C 	0.55057 0.82269 0.96123 0.09100
C 	C 	0.58808 0.77786 0.92200 0.09100
C 	C 	0.59236 0.14070 0.79032 0.09000
C 	C 	0.63116 0.15738 0.71646 0.08700
C 	C 	0.35564 0.65204 0.13022 0.09100
C 	C 	0.35444 0.69308 0.06030 0.08500
C 	C 	0.26273 0.54269 0.15155 0.09700
C 	C 	0.25462 0.58528 0.08484 0.09300
C 	C 	0.46123 0.66551 0.05057 0.09100
C 	C 	0.42200 0.71206 0.08808 0.09100
C 	C 	0.29032 0.47662 0.09236 0.09000
C 	C 	0.21646 0.49500 0.13116 0.08700
C 	C 	0.36210 0.13022 0.65204 0.09100
C 	C 	0.39218 0.06030 0.69308 0.08500
C 	C 	0.54303 0.15155 0.54269 0.09700
C 	C 	0.57526 0.08484 0.58528 0.09300
C 	C 	0.32269 0.05057 0.66551 0.09100
C 	C 	0.27786 0.08808 0.71206 0.09100
C 	C 	0.64070 0.09236 0.47662 0.09000
C 	C 	0.65738 0.13116 0.49500 0.08700
C 	C 	0.15204 0.85564 0.86210 0.09100
C 	C 	0.19308 0.85444 0.89218 0.08500
C 	C 	0.04269 0.76273 0.04303 0.09700
C 	C 	0.08528 0.75462 0.07526 0.09300
C 	C 	0.16551 0.96123 0.82269 0.09100
C 	C 	0.21206 0.92200 0.77786 0.09100
C 	C 	0.97662 0.79032 0.14070 0.09000
C 	C 	0.99500 0.71646 0.15738 0.08600
C 	C 	0.35564 0.86210 0.65204 0.09100
C 	C 	0.35444 0.89218 0.69308 0.08500
C 	C 	0.26273 0.04303 0.54269 0.09700
C 	C 	0.25462 0.07526 0.58528 0.09300
C 	C 	0.46123 0.82269 0.66551 0.09100
C 	C 	0.42200 0.77786 0.71206 0.09100
C 	C 	0.29032 0.14070 0.47662 0.09000
C 	C 	0.21646 0.15738 0.49500 0.08700
C 	C 	0.63022 0.65204 0.86210 0.09100
C 	C 	0.56030 0.69308 0.89218 0.08500
C 	C 	0.65155 0.54269 0.04303 0.09700
C 	C 	0.58484 0.58528 0.07526 0.09300
C 	C 	0.55057 0.66551 0.82269 0.09100
C 	C 	0.58808 0.71206 0.77786 0.09100
C 	C 	0.59236 0.47662 0.14070 0.09000
C 	C 	0.63116 0.49500 0.15738 0.08700
C 	C 	0.15204 0.13022 0.85564 0.09100
C 	C 	0.19308 0.06030 0.85444 0.08500
C 	C 	0.04269 0.15155 0.76273 0.09700
C 	C 	0.08528 0.08484 0.75462 0.09300
C 	C 	0.16551 0.05057 0.96123 0.09100
C 	C 	0.21206 0.08808 0.92200 0.09100
C 	C 	0.97662 0.09236 0.79032 0.09000
C 	C 	0.99500 0.13116 0.71646 0.08600
C 	C 	0.36210 0.85564 0.13022 0.09100
C 	C 	0.39218 0.85444 0.06030 0.08500
C 	C 	0.54303 0.76273 0.15155 0.09700
C 	C 	0.57526 0.75462 0.08484 0.09300
C 	C 	0.32269 0.96123 0.05057 0.09100
C 	C 	0.27786 0.92200 0.08808 0.09100
C 	C 	0.64070 0.79032 0.09236 0.09000
C 	C 	0.65738 0.71646 0.13116 0.08700
C 	C 	0.86210 0.15204 0.63022 0.09100
C 	C 	0.89218 0.19308 0.56030 0.08500
C 	C 	0.04303 0.04269 0.65155 0.09700
C 	C 	0.07526 0.08528 0.58484 0.09300
C 	C 	0.82269 0.16551 0.55057 0.09100
C 	C 	0.77786 0.21206 0.58808 0.09100
C 	C 	0.14070 0.97662 0.59236 0.09000
C 	C 	0.15738 0.99500 0.63116 0.08500
C 	C 	0.65204 0.36210 0.35564 0.09100
C 	C 	0.69308 0.39218 0.35444 0.08500
C 	C 	0.54269 0.54303 0.26273 0.09700
C 	C 	0.58528 0.57526 0.25462 0.09300
C 	C 	0.66551 0.32269 0.46123 0.09100
C 	C 	0.71206 0.27786 0.42200 0.09100
C 	C 	0.47662 0.64070 0.29032 0.09000
C 	C 	0.49500 0.65738 0.21646 0.08700
C 	C 	0.13022 0.35564 0.36210 0.09100
C 	C 	0.06030 0.35444 0.39218 0.08500
C 	C 	0.15155 0.26273 0.54303 0.09700
C 	C 	0.08484 0.25462 0.57526 0.09300
C 	C 	0.05057 0.46123 0.32269 0.09100
C 	C 	0.08808 0.42200 0.27786 0.09100
C 	C 	0.09236 0.29032 0.64070 0.09000
C 	C 	0.13116 0.21646 0.65738 0.08700
C 	C 	0.85564 0.63022 0.15204 0.09100
C 	C 	0.85444 0.56030 0.19308 0.08500
C 	C 	0.76273 0.65155 0.04269 0.09700
C 	C 	0.75462 0.58484 0.08528 0.09300
C 	C 	0.96123 0.55057 0.16551 0.09100
C 	C 	0.92200 0.58808 0.21206 0.09100
C 	C 	0.79032 0.59236 0.97662 0.09100
C 	C 	0.71646 0.63116 0.99500 0.08700
C 	C 	0.86210 0.63022 0.35564 0.09100
C 	C 	0.89218 0.56030 0.35444 0.08500
C 	C 	0.04303 0.65155 0.26273 0.09700
C 	C 	0.07526 0.58484 0.25462 0.09300
C 	C 	0.82269 0.55057 0.46123 0.09100
C 	C 	0.77786 0.58808 0.42200 0.09100
C 	C 	0.14070 0.59236 0.29032 0.09000
C 	C 	0.15738 0.63116 0.21646 0.08700
C 	C 	0.65204 0.35564 0.63022 0.09100
C 	C 	0.69308 0.35444 0.56030 0.08500
C 	C 	0.54269 0.26273 0.65155 0.09700
C 	C 	0.58528 0.25462 0.58484 0.09300
C 	C 	0.66551 0.46123 0.55057 0.09100
C 	C 	0.71206 0.42200 0.58808 0.09100
C 	C 	0.47662 0.29032 0.59236 0.09000
C 	C 	0.49500 0.21646 0.63116 0.08700
C 	C 	0.13022 0.36210 0.15204 0.09100
C 	C 	0.06030 0.39218 0.19308 0.08500
C 	C 	0.15155 0.54303 0.04269 0.09700
C 	C 	0.08484 0.57526 0.08528 0.09300
C 	C 	0.05057 0.32269 0.16551 0.09100
C 	C 	0.08808 0.27786 0.21206 0.09100
C 	C 	0.09236 0.64070 0.97662 0.09000
C 	C 	0.13116 0.65738 0.99500 0.08500
C 	C 	0.85564 0.15204 0.36210 0.09100
C 	C 	0.85444 0.19308 0.39218 0.08500
C 	C 	0.76273 0.04269 0.54303 0.09700
C 	C 	0.75462 0.08528 0.57526 0.09300
C 	C 	0.96123 0.16551 0.32269 0.09100
C 	C 	0.92200 0.21206 0.27786 0.09100
C 	C 	0.79032 0.97662 0.64070 0.09100
C 	C 	0.71646 0.99500 0.65738 0.08700
C 	C 	0.86210 0.35564 0.15204 0.09100
C 	C 	0.89218 0.35444 0.19308 0.08500
C 	C 	0.04303 0.26273 0.04269 0.09700
C 	C 	0.07526 0.25462 0.08528 0.09300
C 	C 	0.82269 0.46123 0.16551 0.09100
C 	C 	0.77786 0.42200 0.21206 0.09100
C 	C 	0.14070 0.29032 0.97662 0.09000
C 	C 	0.15738 0.21646 0.99500 0.08500
C 	C 	0.65204 0.63022 0.36210 0.09100
C 	C 	0.69308 0.56030 0.39218 0.08500
C 	C 	0.54269 0.65155 0.54303 0.09700
C 	C 	0.58528 0.58484 0.57526 0.09300
C 	C 	0.66551 0.55057 0.32269 0.09100
C 	C 	0.71206 0.58808 0.27786 0.09100
C 	C 	0.47662 0.59236 0.64070 0.09000
C 	C 	0.49500 0.63116 0.65738 0.08700
C 	C 	0.13022 0.15204 0.35564 0.09100
C 	C 	0.06030 0.19308 0.35444 0.08500
C 	C 	0.15155 0.04269 0.26273 0.09700
C 	C 	0.08484 0.08528 0.25462 0.09300
C 	C 	0.05057 0.16551 0.46123 0.09100
C 	C 	0.08808 0.21206 0.42200 0.09100
C 	C 	0.09236 0.97662 0.29032 0.09000
C 	C 	0.13116 0.99500 0.21646 0.08500
C 	C 	0.85564 0.36210 0.63022 0.09100
C 	C 	0.85444 0.39218 0.56030 0.08500
C 	C 	0.76273 0.54303 0.65155 0.09700
C 	C 	0.75462 0.57526 0.58484 0.09300
C 	C 	0.96123 0.32269 0.55057 0.09100
C 	C 	0.92200 0.27786 0.58808 0.09100
C 	C 	0.79032 0.64070 0.59236 0.09000
C 	C 	0.71646 0.65738 0.63116 0.08700
C 	C 	0.84796 0.13790 0.86978 0.09100
C 	C 	0.80692 0.10782 0.93970 0.08500
C 	C 	0.95731 0.95697 0.84845 0.09700
C 	C 	0.91472 0.92474 0.91516 0.09300
C 	C 	0.83449 0.17731 0.94943 0.09100
C 	C 	0.78794 0.22214 0.91192 0.09100
C 	C 	0.02338 0.85930 0.90764 0.08900
C 	C 	0.00500 0.84262 0.86884 0.08400
C 	C 	0.63790 0.34796 0.14436 0.09100
C 	C 	0.60782 0.30692 0.14556 0.08500
C 	C 	0.45697 0.45731 0.23727 0.09700
C 	C 	0.42474 0.41472 0.24538 0.09300
C 	C 	0.67731 0.33449 0.03877 0.09100
C 	C 	0.72214 0.28794 0.07800 0.09100
C 	C 	0.35930 0.52338 0.20968 0.09000
C 	C 	0.34262 0.50500 0.28354 0.08700
C 	C 	0.64436 0.86978 0.13790 0.09100
C 	C 	0.64556 0.93970 0.10782 0.08500
C 	C 	0.73727 0.84845 0.95697 0.09700
C 	C 	0.74538 0.91516 0.92474 0.09300
C 	C 	0.53877 0.94943 0.17731 0.09100
C 	C 	0.57800 0.91192 0.22214 0.09100
C 	C 	0.70968 0.90764 0.85930 0.09000
C 	C 	0.78354 0.86884 0.84262 0.08700
C 	C 	0.36978 0.14436 0.34796 0.09100
C 	C 	0.43970 0.14556 0.30692 0.08500
C 	C 	0.34845 0.23727 0.45731 0.09700
C 	C 	0.41516 0.24538 0.41472 0.09300
C 	C 	0.44943 0.03877 0.33449 0.09100
C 	C 	0.41192 0.07800 0.28794 0.09100
C 	C 	0.40764 0.20968 0.52338 0.09000
C 	C 	0.36884 0.28354 0.50500 0.08700
C 	C 	0.36978 0.13790 0.14436 0.09100
C 	C 	0.43970 0.10782 0.14556 0.08500
C 	C 	0.34845 0.95697 0.23727 0.09700
C 	C 	0.41516 0.92474 0.24538 0.09300
C 	C 	0.44943 0.17731 0.03877 0.09100
C 	C 	0.41192 0.22214 0.07800 0.09100
C 	C 	0.40764 0.85930 0.20968 0.09000
C 	C 	0.36884 0.84262 0.28354 0.08700
C 	C 	0.64436 0.34796 0.86978 0.09100
C 	C 	0.64556 0.30692 0.93970 0.08500
C 	C 	0.73727 0.45731 0.84845 0.09700
C 	C 	0.74538 0.41472 0.91516 0.09300
C 	C 	0.53877 0.33449 0.94943 0.09100
C 	C 	0.57800 0.28794 0.91192 0.09100
C 	C 	0.70968 0.52338 0.90764 0.09000
C 	C 	0.78354 0.50500 0.86884 0.08700
C 	C 	0.63790 0.86978 0.34796 0.09100
C 	C 	0.60782 0.93970 0.30692 0.08500
C 	C 	0.45697 0.84845 0.45731 0.09700
C 	C 	0.42474 0.91516 0.41472 0.09300
C 	C 	0.67731 0.94943 0.33449 0.09100
C 	C 	0.72214 0.91192 0.28794 0.09100
C 	C 	0.35930 0.90764 0.52338 0.09000
C 	C 	0.34262 0.86884 0.50500 0.08700
C 	C 	0.84796 0.14436 0.13790 0.09100
C 	C 	0.80692 0.14556 0.10782 0.08500
C 	C 	0.95731 0.23727 0.95697 0.09700
C 	C 	0.91472 0.24538 0.92474 0.09300
C 	C 	0.83449 0.03877 0.17731 0.09100
C 	C 	0.78794 0.07800 0.22214 0.09100
C 	C 	0.02338 0.20968 0.85930 0.09000
C 	C 	0.00500 0.28354 0.84262 0.08600
C 	C 	0.64436 0.13790 0.34796 0.09100
C 	C 	0.64556 0.10782 0.30692 0.08500
C 	C 	0.73727 0.95697 0.45731 0.09700
C 	C 	0.74538 0.92474 0.41472 0.09300
C 	C 	0.53877 0.17731 0.33449 0.09100
C 	C 	0.57800 0.22214 0.28794 0.09100
C 	C 	0.70968 0.85930 0.52338 0.09000
C 	C 	0.78354 0.84262 0.50500 0.08700
C 	C 	0.36978 0.34796 0.13790 0.09100
C 	C 	0.43970 0.30692 0.10782 0.08500
C 	C 	0.34845 0.45731 0.95697 0.09700
C 	C 	0.41516 0.41472 0.92474 0.09300
C 	C 	0.44943 0.33449 0.17731 0.09100
C 	C 	0.41192 0.28794 0.22214 0.09100
C 	C 	0.40764 0.52338 0.85930 0.09000
C 	C 	0.36884 0.50500 0.84262 0.08700
C 	C 	0.84796 0.86978 0.14436 0.09100
C 	C 	0.80692 0.93970 0.14556 0.08500
C 	C 	0.95731 0.84845 0.23727 0.09700
C 	C 	0.91472 0.91516 0.24538 0.09300
C 	C 	0.83449 0.94943 0.03877 0.09100
C 	C 	0.78794 0.91192 0.07800 0.09100
C 	C 	0.02338 0.90764 0.20968 0.09000
C 	C 	0.00500 0.86884 0.28354 0.08600
C 	C 	0.63790 0.14436 0.86978 0.09100
C 	C 	0.60782 0.14556 0.93970 0.08500
C 	C 	0.45697 0.23727 0.84845 0.09700
C 	C 	0.42474 0.24538 0.91516 0.09300
C 	C 	0.67731 0.03877 0.94943 0.09100
C 	C 	0.72214 0.07800 0.91192 0.09100
C 	C 	0.35930 0.20968 0.90764 0.09000
C 	C 	0.34262 0.28354 0.86884 0.08700
N 	N 	0.96735 0.89019 0.40071 -0.16500
N 	N 	0.98874 0.91758 0.35750 -0.15300
N 	N 	0.08076 0.82064 0.41650 -0.15600
N 	N 	0.10217 0.84569 0.37105 -0.16700
N 	N 	0.21641 0.81803 0.45597 -0.15900
N 	N 	0.24582 0.78762 0.43082 -0.16900
N 	N 	0.80852 0.04098 0.37890 -0.16500
N 	N 	0.81869 0.05391 0.40329 -0.15800
N 	N 	0.14331 0.82395 0.41165 -0.11000
N 	N 	0.17894 0.81570 0.42340 -0.11400
N 	N 	0.91680 0.95742 0.38330 -0.11200
N 	N 	0.87502 0.99344 0.38696 -0.10900
N 	N 	0.39019 0.46735 0.74175 -0.16500
N 	N 	0.41758 0.48874 0.73618 -0.15300
N 	N 	0.32064 0.58076 0.68210 -0.15600
N 	N 	0.34569 0.60217 0.68109 -0.16700
N 	N 	0.31803 0.71641 0.50959 -0.15900
N 	N 	0.28762 0.74582 0.53574 -0.16900
N 	N 	0.54098 0.30852 0.77160 -0.16500
N 	N 	0.55391 0.31869 0.72411 -0.15800
N 	N 	0.32395 0.64331 0.62109 -0.11000
N 	N 	0.31570 0.67894 0.58196 -0.11400
N 	N 	0.45742 0.41680 0.74248 -0.11200
N 	N 	0.49344 0.37502 0.74458 -0.10900
N 	N 	0.90071 0.74175 0.46735 -0.16500
N 	N 	0.85750 0.73618 0.48874 -0.15300
N 	N 	0.91650 0.68210 0.58076 -0.15600
N 	N 	0.87105 0.68109 0.60217 -0.16700
N 	N 	0.95597 0.50959 0.71641 -0.15900
N 	N 	0.93082 0.53574 0.74582 -0.16900
N 	N 	0.87890 0.77160 0.30852 -0.16500
N 	N 	0.90329 0.72411 0.31869 -0.15800
N 	N 	0.91165 0.62109 0.64331 -0.11000
N 	N 	0.92340 0.58196 0.67894 -0.11400
N 	N 	0.88330 0.74248 0.41680 -0.11200
N 	N 	0.88696 0.74458 0.37502 -0.10900
N 	N 	0.24175 0.40071 0.89019 -0.16500
N 	N 	0.23618 0.35750 0.91758 -0.15300
N 	N 	0.18210 0.41650 0.82064 -0.15600
N 	N 	0.18109 0.37105 0.84569 -0.16700
N 	N 	0.00959 0.45597 0.81803 -0.15900
N 	N 	0.03574 0.43082 0.78762 -0.16900
N 	N 	0.27160 0.37890 0.04098 -0.16500
N 	N 	0.22411 0.40329 0.05391 -0.15800
N 	N 	0.12109 0.41165 0.82395 -0.11000
N 	N 	0.08196 0.42340 0.81570 -0.11400
N 	N 	0.24248 0.38330 0.95742 -0.11200
N 	N 	0.24458 0.38696 0.99344 -0.11000
N 	N 	0.96735 0.40071 0.74175 -0.16500
N 	N 	0.98874 0.35750 0.73618 -0.15300
N 	N 	0.08076 0.41650 0.68210 -0.15600
N 	N 	0.10217 0.37105 0.68109 -0.16700
N 	N 	0.21641 0.45597 0.50959 -0.15900
N 	N 	0.24582 0.43082 0.53574 -0.16900
N 	N 	0.80852 0.37890 0.77160 -0.16500
N 	N 	0.81869 0.40329 0.72411 -0.15800
N 	N 	0.14331 0.41165 0.62109 -0.11000
N 	N 	0.17894 0.42340 0.58196 -0.11400
N 	N 	0.91680 0.38330 0.74248 -0.11200
N 	N 	0.87502 0.38696 0.74458 -0.10900
N 	N 	0.39019 0.74175 0.40071 -0.16500
N 	N 	0.41758 0.73618 0.35750 -0.15300
N 	N 	0.32064 0.68210 0.41650 -0.15600
N 	N 	0.34569 0.68109 0.37105 -0.16700
N 	N 	0.31803 0.50959 0.45597 -0.15900
N 	N 	0.28762 0.53574 0.43082 -0.16900
N 	N 	0.54098 0.77160 0.37890 -0.16500
N 	N 	0.55391 0.72411 0.40329 -0.15800
N 	N 	0.32395 0.62109 0.41165 -0.11000
N 	N 	0.31570 0.58196 0.42340 -0.11400
N 	N 	0.45742 0.74248 0.38330 -0.11200
N 	N 	0.49344 0.74458 0.38696 -0.10900
N 	N 	0.90071 0.46735 0.89019 -0.16500
N 	N 	0.85750 0.48874 0.91758 -0.15300
N 	N 	0.91650 0.58076 0.82064 -0.15600
N 	N 	0.87105 0.60217 0.84569 -0.16700
N 	N 	0.95597 0.71641 0.81803 -0.15900
N 	N 	0.93082 0.74582 0.78762 -0.16900
N 	N 	0.87890 0.30852 0.04098 -0.16500
N 	N 	0.90329 0.31869 0.05391 -0.15800
N 	N 	0.91165 0.64331 0.82395 -0.10900
N 	N 	0.92340 0.67894 0.81570 -0.11400
N 	N 	0.88330 0.41680 0.95742 -0.11200
N 	N 	0.88696 0.37502 0.99344 -0.10900
N 	N 	0.24175 0.89019 0.46735 -0.16500
N 	N 	0.23618 0.91758 0.48874 -0.15300
N 	N 	0.18210 0.82064 0.58076 -0.15600
N 	N 	0.18109 0.84569 0.60217 -0.16700
N 	N 	0.00959 0.81803 0.71641 -0.15900
N 	N 	0.03574 0.78762 0.74582 -0.16900
N 	N 	0.27160 0.04098 0.30852 -0.16500
N 	N 	0.22411 0.05391 0.31869 -0.15800
N 	N 	0.12109 0.82395 0.64331 -0.11000
N 	N 	0.08196 0.81570 0.67894 -0.11400
N 	N 	0.24248 0.95742 0.41680 -0.11200
N 	N 	0.24458 0.99344 0.37502 -0.11000
N 	N 	0.96735 0.74175 0.89019 -0.16500
N 	N 	0.98874 0.73618 0.91758 -0.15300
N 	N 	0.08076 0.68210 0.82064 -0.15600
N 	N 	0.10217 0.68109 0.84569 -0.16700
N 	N 	0.21641 0.50959 0.81803 -0.15900
N 	N 	0.24582 0.53574 0.78762 -0.16900
N 	N 	0.80852 0.77160 0.04098 -0.16500
N 	N 	0.81869 0.72411 0.05391 -0.15800
N 	N 	0.14331 0.62109 0.82395 -0.11000
N 	N 	0.17894 0.58196 0.81570 -0.11400
N 	N 	0.91680 0.74248 0.95742 -0.11200
N 	N 	0.87502 0.74458 0.99344 -0.10900
N 	N 	0.39019 0.40071 0.46735 -0.16500
N 	N 	0.41758 0.35750 0.48874 -0.15300
N 	N 	0.32064 0.41650 0.58076 -0.15600
N 	N 	0.34569 0.37105 0.60217 -0.16700
N 	N 	0.31803 0.45597 0.71641 -0.15900
N 	N 	0.28762 0.43082 0.74582 -0.16900
N 	N 	0.54098 0.37890 0.30852 -0.16500
N 	N 	0.55391 0.40329 0.31869 -0.15800
N 	N 	0.32395 0.41165 0.64331 -0.11000
N 	N 	0.31570 0.42340 0.67894 -0.11400
N 	N 	0.45742 0.38330 0.41680 -0.11200
N 	N 	0.49344 0.38696 0.37502 -0.10900
N 	N 	0.90071 0.89019 0.74175 -0.16500
N 	N 	0.85750 0.91758 0.73618 -0.15300
N 	N 	0.91650 0.82064 0.68210 -0.15600
N 	N 	0.87105 0.84569 0.68109 -0.16700
N 	N 	0.95597 0.81803 0.50959 -0.15900
N 	N 	0.93082 0.78762 0.53574 -0.16900
N 	N 	0.87890 0.04098 0.77160 -0.16500
N 	N 	0.90329 0.05391 0.72411 -0.15800
N 	N 	0.91165 0.82395 0.62109 -0.10900
N 	N 	0.92340 0.81570 0.58196 -0.11400
N 	N 	0.88330 0.95742 0.74248 -0.11200
N 	N 	0.88696 0.99344 0.74458 -0.10900
N 	N 	0.24175 0.46735 0.40071 -0.16500
N 	N 	0.23618 0.48874 0.35750 -0.15300
N 	N 	0.18210 0.58076 0.41650 -0.15600
N 	N 	0.18109 0.60217 0.37105 -0.16700
N 	N 	0.00959 0.71641 0.45597 -0.15900
N 	N 	0.03574 0.74582 0.43082 -0.16900
N 	N 	0.27160 0.30852 0.37890 -0.16500
N 	N 	0.22411 0.31869 0.40329 -0.15800
N 	N 	0.12109 0.64331 0.41165 -0.11000
N 	N 	0.08196 0.67894 0.42340 -0.11400
N 	N 	0.24248 0.41680 0.38330 -0.11200
N 	N 	0.24458 0.37502 0.38696 -0.10900
N 	N 	0.10981 0.03265 0.09929 -0.16500
N 	N 	0.08242 0.01126 0.14250 -0.15300
N 	N 	0.17936 0.91924 0.08350 -0.15600
N 	N 	0.15431 0.89783 0.12895 -0.16700
N 	N 	0.18197 0.78359 0.04403 -0.15900
N 	N 	0.21238 0.75418 0.06918 -0.16900
N 	N 	0.95902 0.19148 0.12110 -0.16500
N 	N 	0.94609 0.18131 0.09671 -0.15800
N 	N 	0.17605 0.85669 0.08835 -0.11000
N 	N 	0.18430 0.82106 0.07660 -0.11400
N 	N 	0.04258 0.08320 0.11670 -0.11200
N 	N 	0.00656 0.12498 0.11304 -0.10800
N 	N 	0.53265 0.60981 0.75825 -0.16500
N 	N 	0.51126 0.58242 0.76382 -0.15300
N 	N 	0.41924 0.67936 0.81790 -0.15600
N 	N 	0.39783 0.65431 0.81891 -0.16700
N 	N 	0.28359 0.68197 0.99041 -0.15900
N 	N 	0.25418 0.71238 0.96426 -0.16900
N 	N 	0.69148 0.45902 0.72840 -0.16500
N 	N 	0.68131 0.44609 0.77589 -0.15800
N 	N 	0.35669 0.67605 0.87891 -0.11000
N 	N 	0.32106 0.68430 0.91804 -0.11400
N 	N 	0.58320 0.54258 0.75752 -0.11200
N 	N 	0.62498 0.50656 0.75542 -0.10900
N 	N 	0.25825 0.09929 0.03265 -0.16500
N 	N 	0.26382 0.14250 0.01126 -0.15300
N 	N 	0.31790 0.08350 0.91924 -0.15600
N 	N 	0.31891 0.12895 0.89783 -0.16700
N 	N 	0.49041 0.04403 0.78359 -0.15900
N 	N 	0.46426 0.06918 0.75418 -0.16900
N 	N 	0.22840 0.12110 0.19148 -0.16500
N 	N 	0.27589 0.09671 0.18131 -0.15800
N 	N 	0.37891 0.08835 0.85669 -0.11000
N 	N 	0.41804 0.07660 0.82106 -0.11400
N 	N 	0.25752 0.11670 0.08320 -0.11200
N 	N 	0.25542 0.11304 0.12498 -0.10900
N 	N 	0.59929 0.75825 0.60981 -0.16500
N 	N 	0.64250 0.76382 0.58242 -0.15300
N 	N 	0.58350 0.81790 0.67936 -0.15600
N 	N 	0.62895 0.81891 0.65431 -0.16700
N 	N 	0.54403 0.99041 0.68197 -0.15900
N 	N 	0.56918 0.96426 0.71238 -0.16900
N 	N 	0.62110 0.72840 0.45902 -0.16500
N 	N 	0.59671 0.77589 0.44609 -0.15800
N 	N 	0.58835 0.87891 0.67605 -0.11000
N 	N 	0.57660 0.91804 0.68430 -0.11400
N 	N 	0.61670 0.75752 0.54258 -0.11200
N 	N 	0.61304 0.75542 0.50656 -0.10900
N 	N 	0.59929 0.03265 0.75825 -0.16500
N 	N 	0.64250 0.01126 0.76382 -0.15300
N 	N 	0.58350 0.91924 0.81790 -0.15600
N 	N 	0.62895 0.89783 0.81891 -0.16700
N 	N 	0.54403 0.78359 0.99041 -0.15900
N 	N 	0.56918 0.75418 0.96426 -0.16900
N 	N 	0.62110 0.19148 0.72840 -0.16500
N 	N 	0.59671 0.18131 0.77589 -0.15800
N 	N 	0.58835 0.85669 0.87891 -0.11000
N 	N 	0.57660 0.82106 0.91804 -0.11400
N 	N 	0.61670 0.08320 0.75752 -0.11200
N 	N 	0.61304 0.12498 0.75542 -0.10900
N 	N 	0.25825 0.60981 0.09929 -0.16500
N 	N 	0.26382 0.58242 0.14250 -0.15300
N 	N 	0.31790 0.67936 0.08350 -0.15600
N 	N 	0.31891 0.65431 0.12895 -0.16700
N 	N 	0.49041 0.68197 0.04403 -0.15900
N 	N 	0.46426 0.71238 0.06918 -0.16900
N 	N 	0.22840 0.45902 0.12110 -0.16500
N 	N 	0.27589 0.44609 0.09671 -0.15800
N 	N 	0.37891 0.67605 0.08835 -0.11000
N 	N 	0.41804 0.68430 0.07660 -0.11400
N 	N 	0.25752 0.54258 0.11670 -0.11200
N 	N 	0.25542 0.50656 0.11304 -0.10900
N 	N 	0.53265 0.09929 0.60981 -0.16500
N 	N 	0.51126 0.14250 0.58242 -0.15300
N 	N 	0.41924 0.08350 0.67936 -0.15600
N 	N 	0.39783 0.12895 0.65431 -0.16700
N 	N 	0.28359 0.04403 0.68197 -0.15900
N 	N 	0.25418 0.06918 0.71238 -0.16900
N 	N 	0.69148 0.12110 0.45902 -0.16500
N 	N 	0.68131 0.09671 0.44609 -0.15800
N 	N 	0.35669 0.08835 0.67605 -0.11000
N 	N 	0.32106 0.07660 0.68430 -0.11400
N 	N 	0.58320 0.11670 0.54258 -0.11200
N 	N 	0.62498 0.11304 0.50656 -0.10900
N 	N 	0.10981 0.75825 0.03265 -0.16500
N 	N 	0.08242 0.76382 0.01126 -0.15300
N 	N 	0.17936 0.81790 0.91924 -0.15600
N 	N 	0.15431 0.81891 0.89783 -0.16700
N 	N 	0.18197 0.99041 0.78359 -0.15900
N 	N 	0.21238 0.96426 0.75418 -0.16900
N 	N 	0.95902 0.72840 0.19148 -0.16500
N 	N 	0.94609 0.77589 0.18131 -0.15800
N 	N 	0.17605 0.87891 0.85669 -0.11000
N 	N 	0.18430 0.91804 0.82106 -0.11400
N 	N 	0.04258 0.75752 0.08320 -0.11200
N 	N 	0.00656 0.75542 0.12498 -0.10900
N 	N 	0.25825 0.03265 0.60981 -0.16500
N 	N 	0.26382 0.01126 0.58242 -0.15300
N 	N 	0.31790 0.91924 0.67936 -0.15600
N 	N 	0.31891 0.89783 0.65431 -0.16700
N 	N 	0.49041 0.78359 0.68197 -0.15900
N 	N 	0.46426 0.75418 0.71238 -0.16900
N 	N 	0.22840 0.19148 0.45902 -0.16500
N 	N 	0.27589 0.18131 0.44609 -0.15800
N 	N 	0.37891 0.85669 0.67605 -0.11000
N 	N 	0.41804 0.82106 0.68430 -0.11400
N 	N 	0.25752 0.08320 0.54258 -0.11200
N 	N 	0.25542 0.12498 0.50656 -0.10900
N 	N 	0.59929 0.60981 0.03265 -0.16500
N 	N 	0.64250 0.58242 0.01126 -0.15300
N 	N 	0.58350 0.67936 0.91924 -0.15600
N 	N 	0.62895 0.65431 0.89783 -0.16700
N 	N 	0.54403 0.68197 0.78359 -0.15900
N 	N 	0.56918 0.71238 0.75418 -0.16900
N 	N 	0.62110 0.45902 0.19148 -0.16500
N 	N 	0.59671 0.44609 0.18131 -0.15800
N 	N 	0.58835 0.67605 0.85669 -0.11000
N 	N 	0.57660 0.68430 0.82106 -0.11400
N 	N 	0.61670 0.54258 0.08320 -0.11200
N 	N 	0.61304 0.50656 0.12498 -0.10900
N 	N 	0.10981 0.09929 0.75825 -0.16500
N 	N 	0.08242 0.14250 0.76382 -0.15300
N 	N 	0.17936 0.08350 0.81790 -0.15600
N 	N 	0.15431 0.12895 0.81891 -0.16700
N 	N 	0.18197 0.04403 0.99041 -0.15900
N 	N 	0.21238 0.06918 0.96426 -0.16900
N 	N 	0.95902 0.12110 0.72840 -0.16500
N 	N 	0.94609 0.09671 0.77589 -0.15800
N 	N 	0.17605 0.08835 0.87891 -0.11000
N 	N 	0.18430 0.07660 0.91804 -0.11400
N 	N 	0.04258 0.11670 0.75752 -0.11200
N 	N 	0.00656 0.11304 0.75542 -0.10900
N 	N 	0.53265 0.75825 0.09929 -0.16500
N 	N 	0.51126 0.76382 0.14250 -0.15300
N 	N 	0.41924 0.81790 0.08350 -0.15600
N 	N 	0.39783 0.81891 0.12895 -0.16700
N 	N 	0.28359 0.99041 0.04403 -0.15900
N 	N 	0.25418 0.96426 0.06918 -0.16900
N 	N 	0.69148 0.72840 0.12110 -0.16500
N 	N 	0.68131 0.77589 0.09671 -0.15800
N 	N 	0.35669 0.87891 0.08835 -0.11000
N 	N 	0.32106 0.91804 0.07660 -0.11400
N 	N 	0.58320 0.75752 0.11670 -0.11200
N 	N 	0.62498 0.75542 0.11304 -0.10900
N 	N 	0.03265 0.10981 0.59929 -0.16500
N 	N 	0.01126 0.08242 0.64250 -0.15300
N 	N 	0.91924 0.17936 0.58350 -0.15600
N 	N 	0.89783 0.15431 0.62895 -0.16700
N 	N 	0.78359 0.18197 0.54403 -0.15900
N 	N 	0.75418 0.21238 0.56918 -0.16900
N 	N 	0.19148 0.95902 0.62110 -0.16500
N 	N 	0.18131 0.94609 0.59671 -0.15800
N 	N 	0.85669 0.17605 0.58835 -0.11000
N 	N 	0.82106 0.18430 0.57660 -0.11400
N 	N 	0.08320 0.04258 0.61670 -0.11200
N 	N 	0.12498 0.00656 0.61304 -0.10900
N 	N 	0.60981 0.53265 0.25825 -0.16500
N 	N 	0.58242 0.51126 0.26382 -0.15300
N 	N 	0.67936 0.41924 0.31790 -0.15600
N 	N 	0.65431 0.39783 0.31891 -0.16700
N 	N 	0.68197 0.28359 0.49041 -0.15900
N 	N 	0.71238 0.25418 0.46426 -0.16900
N 	N 	0.45902 0.69148 0.22840 -0.16500
N 	N 	0.44609 0.68131 0.27589 -0.15800
N 	N 	0.67605 0.35669 0.37891 -0.11000
N 	N 	0.68430 0.32106 0.41804 -0.11400
N 	N 	0.54258 0.58320 0.25752 -0.11200
N 	N 	0.50656 0.62498 0.25542 -0.10900
N 	N 	0.09929 0.25825 0.53265 -0.16500
N 	N 	0.14250 0.26382 0.51126 -0.15300
N 	N 	0.08350 0.31790 0.41924 -0.15600
N 	N 	0.12895 0.31891 0.39783 -0.16700
N 	N 	0.04403 0.49041 0.28359 -0.15900
N 	N 	0.06918 0.46426 0.25418 -0.16900
N 	N 	0.12110 0.22840 0.69148 -0.16500
N 	N 	0.09671 0.27589 0.68131 -0.15800
N 	N 	0.08835 0.37891 0.35669 -0.11000
N 	N 	0.07660 0.41804 0.32106 -0.11400
N 	N 	0.11670 0.25752 0.58320 -0.11200
N 	N 	0.11304 0.25542 0.62498 -0.10900
N 	N 	0.75825 0.59929 0.10981 -0.16500
N 	N 	0.76382 0.64250 0.08242 -0.15300
N 	N 	0.81790 0.58350 0.17936 -0.15600
N 	N 	0.81891 0.62895 0.15431 -0.16700
N 	N 	0.99041 0.54403 0.18197 -0.15900
N 	N 	0.96426 0.56918 0.21238 -0.16900
N 	N 	0.72840 0.62110 0.95902 -0.16500
N 	N 	0.77589 0.59671 0.94609 -0.15800
N 	N 	0.87891 0.58835 0.17605 -0.11000
N 	N 	0.91804 0.57660 0.18430 -0.11400
N 	N 	0.75752 0.61670 0.04258 -0.11200
N 	N 	0.75542 0.61304 0.00656 -0.11000
N 	N 	0.03265 0.59929 0.25825 -0.16500
N 	N 	0.01126 0.64250 0.26382 -0.15300
N 	N 	0.91924 0.58350 0.31790 -0.15600
N 	N 	0.89783 0.62895 0.31891 -0.16700
N 	N 	0.78359 0.54403 0.49041 -0.15900
N 	N 	0.75418 0.56918 0.46426 -0.16900
N 	N 	0.19148 0.62110 0.22840 -0.16500
N 	N 	0.18131 0.59671 0.27589 -0.15800
N 	N 	0.85669 0.58835 0.37891 -0.11000
N 	N 	0.82106 0.57660 0.41804 -0.11400
N 	N 	0.08320 0.61670 0.25752 -0.11200
N 	N 	0.12498 0.61304 0.25542 -0.10900
N 	N 	0.60981 0.25825 0.59929 -0.16500
N 	N 	0.58242 0.26382 0.64250 -0.15300
N 	N 	0.67936 0.31790 0.58350 -0.15600
N 	N 	0.65431 0.31891 0.62895 -0.16700
N 	N 	0.68197 0.49041 0.54403 -0.15900
N 	N 	0.71238 0.46426 0.56918 -0.16900
N 	N 	0.45902 0.22840 0.62110 -0.16500
N 	N 	0.44609 0.27589 0.59671 -0.15800
N 	N 	0.67605 0.37891 0.58835 -0.11000
N 	N 	0.68430 0.41804 0.57660 -0.11400
N 	N 	0.54258 0.25752 0.61670 -0.11200
N 	N 	0.50656 0.25542 0.61304 -0.10900
N 	N 	0.09929 0.53265 0.10981 -0.16500
N 	N 	0.14250 0.51126 0.08242 -0.15300
N 	N 	0.08350 0.41924 0.17936 -0.15600
N 	N 	0.12895 0.39783 0.15431 -0.16700
N 	N 	0.04403 0.28359 0.18197 -0.15900
N 	N 	0.06918 0.25418 0.21238 -0.16900
N 	N 	0.12110 0.69148 0.95902 -0.16500
N 	N 	0.09671 0.68131 0.94609 -0.15800
N 	N 	0.08835 0.35669 0.17605 -0.10900
N 	N 	0.07660 0.32106 0.18430 -0.11400
N 	N 	0.11670 0.58320 0.04258 -0.11200
N 	N 	0.11304 0.62498 0.00656 -0.10900
N 	N 	0.75825 0.10981 0.53265 -0.16500
N 	N 	0.76382 0.08242 0.51126 -0.15300
N 	N 	0.81790 0.17936 0.41924 -0.15600
N 	N 	0.81891 0.15431 0.39783 -0.16700
N 	N 	0.99041 0.18197 0.28359 -0.15900
N 	N 	0.96426 0.21238 0.25418 -0.16900
N 	N 	0.72840 0.95902 0.69148 -0.16500
N 	N 	0.77589 0.94609 0.68131 -0.15800
N 	N 	0.87891 0.17605 0.35669 -0.11000
N 	N 	0.91804 0.18430 0.32106 -0.11400
N 	N 	0.75752 0.04258 0.58320 -0.11200
N 	N 	0.75542 0.00656 0.62498 -0.11000
N 	N 	0.03265 0.25825 0.10981 -0.16500
N 	N 	0.01126 0.26382 0.08242 -0.15300
N 	N 	0.91924 0.31790 0.17936 -0.15600
N 	N 	0.89783 0.31891 0.15431 -0.16700
N 	N 	0.78359 0.49041 0.18197 -0.15900
N 	N 	0.75418 0.46426 0.21238 -0.16900
N 	N 	0.19148 0.22840 0.95902 -0.16500
N 	N 	0.18131 0.27589 0.94609 -0.15800
N 	N 	0.85669 0.37891 0.17605 -0.11000
N 	N 	0.82106 0.41804 0.18430 -0.11400
N 	N 	0.08320 0.25752 0.04258 -0.11200
N 	N 	0.12498 0.25542 0.00656 -0.10900
N 	N 	0.60981 0.59929 0.53265 -0.16500
N 	N 	0.58242 0.64250 0.51126 -0.15300
N 	N 	0.67936 0.58350 0.41924 -0.15600
N 	N 	0.65431 0.62895 0.39783 -0.16700
N 	N 	0.68197 0.54403 0.28359 -0.15900
N 	N 	0.71238 0.56918 0.25418 -0.16900
N 	N 	0.45902 0.62110 0.69148 -0.16500
N 	N 	0.44609 0.59671 0.68131 -0.15800
N 	N 	0.67605 0.58835 0.35669 -0.11000
N 	N 	0.68430 0.57660 0.32106 -0.11400
N 	N 	0.54258 0.61670 0.58320 -0.11200
N 	N 	0.50656 0.61304 0.62498 -0.10900
N 	N 	0.09929 0.10981 0.25825 -0.16500
N 	N 	0.14250 0.08242 0.26382 -0.15300
N 	N 	0.08350 0.17936 0.31790 -0.15600
N 	N 	0.12895 0.15431 0.31891 -0.16700
N 	N 	0.04403 0.18197 0.49041 -0.15900
N 	N 	0.06918 0.21238 0.46426 -0.16900
N 	N 	0.12110 0.95902 0.22840 -0.16500
N 	N 	0.09671 0.94609 0.27589 -0.15800
N 	N 	0.08835 0.17605 0.37891 -0.10900
N 	N 	0.07660 0.18430 0.41804 -0.11400
N 	N 	0.11670 0.04258 0.25752 -0.11200
N 	N 	0.11304 0.00656 0.25542 -0.10900
N 	N 	0.75825 0.53265 0.59929 -0.16500
N 	N 	0.76382 0.51126 0.64250 -0.15300
N 	N 	0.81790 0.41924 0.58350 -0.15600
N 	N 	0.81891 0.39783 0.62895 -0.16700
N 	N 	0.99041 0.28359 0.54403 -0.15900
N 	N 	0.96426 0.25418 0.56918 -0.16900
N 	N 	0.72840 0.69148 0.62110 -0.16500
N 	N 	0.77589 0.68131 0.59671 -0.15800
N 	N 	0.87891 0.35669 0.58835 -0.11000
N 	N 	0.91804 0.32106 0.57660 -0.11400
N 	N 	0.75752 0.58320 0.61670 -0.11200
N 	N 	0.75542 0.62498 0.61304 -0.10900
N 	N 	0.89019 0.96735 0.90071 -0.16500
N 	N 	0.91758 0.98874 0.85750 -0.15300
N 	N 	0.82064 0.08076 0.91650 -0.15600
N 	N 	0.84569 0.10217 0.87105 -0.16700
N 	N 	0.81803 0.21641 0.95597 -0.15900
N 	N 	0.78762 0.24582 0.93082 -0.16900
N 	N 	0.04098 0.80852 0.87890 -0.16500
N 	N 	0.05391 0.81869 0.90329 -0.15800
N 	N 	0.82395 0.14331 0.91165 -0.11000
N 	N 	0.81570 0.17894 0.92340 -0.11400
N 	N 	0.95742 0.91680 0.88330 -0.11200
N 	N 	0.99344 0.87502 0.88696 -0.10800
N 	N 	0.46735 0.39019 0.24175 -0.16500
N 	N 	0.48874 0.41758 0.23618 -0.15300
N 	N 	0.58076 0.32064 0.18210 -0.15600
N 	N 	0.60217 0.34569 0.18109 -0.16700
N 	N 	0.71641 0.31803 0.00959 -0.15900
N 	N 	0.74582 0.28762 0.03574 -0.16900
N 	N 	0.30852 0.54098 0.27160 -0.16500
N 	N 	0.31869 0.55391 0.22411 -0.15800
N 	N 	0.64331 0.32395 0.12109 -0.11000
N 	N 	0.67894 0.31570 0.08196 -0.11400
N 	N 	0.41680 0.45742 0.24248 -0.11200
N 	N 	0.37502 0.49344 0.24458 -0.10900
N 	N 	0.74175 0.90071 0.96735 -0.16500
N 	N 	0.73618 0.85750 0.98874 -0.15300
N 	N 	0.68210 0.91650 0.08076 -0.15600
N 	N 	0.68109 0.87105 0.10217 -0.16700
N 	N 	0.50959 0.95597 0.21641 -0.15900
N 	N 	0.53574 0.93082 0.24582 -0.16900
N 	N 	0.77160 0.87890 0.80852 -0.16500
N 	N 	0.72411 0.90329 0.81869 -0.15800
N 	N 	0.62109 0.91165 0.14331 -0.11000
N 	N 	0.58196 0.92340 0.17894 -0.11400
N 	N 	0.74248 0.88330 0.91680 -0.11200
N 	N 	0.74458 0.88696 0.87502 -0.10900
N 	N 	0.40071 0.24175 0.39019 -0.16500
N 	N 	0.35750 0.23618 0.41758 -0.15300
N 	N 	0.41650 0.18210 0.32064 -0.15600
N 	N 	0.37105 0.18109 0.34569 -0.16700
N 	N 	0.45597 0.00959 0.31803 -0.15900
N 	N 	0.43082 0.03574 0.28762 -0.16900
N 	N 	0.37890 0.27160 0.54098 -0.16500
N 	N 	0.40329 0.22411 0.55391 -0.15800
N 	N 	0.41165 0.12109 0.32395 -0.11000
N 	N 	0.42340 0.08196 0.31570 -0.11400
N 	N 	0.38330 0.24248 0.45742 -0.11200
N 	N 	0.38696 0.24458 0.49344 -0.10900
N 	N 	0.40071 0.96735 0.24175 -0.16500
N 	N 	0.35750 0.98874 0.23618 -0.15300
N 	N 	0.41650 0.08076 0.18210 -0.15600
N 	N 	0.37105 0.10217 0.18109 -0.16700
N 	N 	0.45597 0.21641 0.00959 -0.15900
N 	N 	0.43082 0.24582 0.03574 -0.16900
N 	N 	0.37890 0.80852 0.27160 -0.16500
N 	N 	0.40329 0.81869 0.22411 -0.15800
N 	N 	0.41165 0.14331 0.12109 -0.11000
N 	N 	0.42340 0.17894 0.08196 -0.11400
N 	N 	0.38330 0.91680 0.24248 -0.11200
N 	N 	0.38696 0.87502 0.24458 -0.10900
N 	N 	0.74175 0.39019 0.90071 -0.16500
N 	N 	0.73618 0.41758 0.85750 -0.15300
N 	N 	0.68210 0.32064 0.91650 -0.15600
N 	N 	0.68109 0.34569 0.87105 -0.16700
N 	N 	0.50959 0.31803 0.95597 -0.15900
N 	N 	0.53574 0.28762 0.93082 -0.16900
N 	N 	0.77160 0.54098 0.87890 -0.16500
N 	N 	0.72411 0.55391 0.90329 -0.15800
N 	N 	0.62109 0.32395 0.91165 -0.11000
N 	N 	0.58196 0.31570 0.92340 -0.11400
N 	N 	0.74248 0.45742 0.88330 -0.11200
N 	N 	0.74458 0.49344 0.88696 -0.10900
N 	N 	0.46735 0.90071 0.39019 -0.16500
N 	N 	0.48874 0.85750 0.41758 -0.15300
N 	N 	0.58076 0.91650 0.32064 -0.15600
N 	N 	0.60217 0.87105 0.34569 -0.16700
N 	N 	0.71641 0.95597 0.31803 -0.15900
N 	N 	0.74582 0.93082 0.28762 -0.16900
N 	N 	0.30852 0.87890 0.54098 -0.16500
N 	N 	0.31869 0.90329 0.55391 -0.15800
N 	N 	0.64331 0.91165 0.32395 -0.11000
N 	N 	0.67894 0.92340 0.31570 -0.11400
N 	N 	0.41680 0.88330 0.45742 -0.11200
N 	N 	0.37502 0.88696 0.49344 -0.10900
N 	N 	0.89019 0.24175 0.96735 -0.16500
N 	N 	0.91758 0.23618 0.98874 -0.15300
N 	N 	0.82064 0.18210 0.08076 -0.15600
N 	N 	0.84569 0.18109 0.10217 -0.16700
N 	N 	0.81803 0.00959 0.21641 -0.15900
N 	N 	0.78762 0.03574 0.24582 -0.16900
N 	N 	0.04098 0.27160 0.80852 -0.16500
N 	N 	0.05391 0.22411 0.81869 -0.15800
N 	N 	0.82395 0.12109 0.14331 -0.11000
N 	N 	0.81570 0.08196 0.17894 -0.11400
N 	N 	0.95742 0.24248 0.91680 -0.11200
N 	N 	0.99344 0.24458 0.87502 -0.10900
N 	N 	0.74175 0.96735 0.39019 -0.16500
N 	N 	0.73618 0.98874 0.41758 -0.15300
N 	N 	0.68210 0.08076 0.32064 -0.15600
N 	N 	0.68109 0.10217 0.34569 -0.16700
N 	N 	0.50959 0.21641 0.31803 -0.15900
N 	N 	0.53574 0.24582 0.28762 -0.16900
N 	N 	0.77160 0.80852 0.54098 -0.16500
N 	N 	0.72411 0.81869 0.55391 -0.15800
N 	N 	0.62109 0.14331 0.32395 -0.11000
N 	N 	0.58196 0.17894 0.31570 -0.11400
N 	N 	0.74248 0.91680 0.45742 -0.11200
N 	N 	0.74458 0.87502 0.49344 -0.10900
N 	N 	0.40071 0.39019 0.96735 -0.16500
N 	N 	0.35750 0.41758 0.98874 -0.15300
N 	N 	0.41650 0.32064 0.08076 -0.15600
N 	N 	0.37105 0.34569 0.10217 -0.16700
N 	N 	0.45597 0.31803 0.21641 -0.15900
N 	N 	0.43082 0.28762 0.24582 -0.16900
N 	N 	0.37890 0.54098 0.80852 -0.16500
N 	N 	0.40329 0.55391 0.81869 -0.15800
N 	N 	0.41165 0.32395 0.14331 -0.11000
N 	N 	0.42340 0.31570 0.17894 -0.11400
N 	N 	0.38330 0.45742 0.91680 -0.11200
N 	N 	0.38696 0.49344 0.87502 -0.10900
N 	N 	0.89019 0.90071 0.24175 -0.16500
N 	N 	0.91758 0.85750 0.23618 -0.15300
N 	N 	0.82064 0.91650 0.18210 -0.15600
N 	N 	0.84569 0.87105 0.18109 -0.16700
N 	N 	0.81803 0.95597 0.00959 -0.15900
N 	N 	0.78762 0.93082 0.03574 -0.16900
N 	N 	0.04098 0.87890 0.27160 -0.16500
N 	N 	0.05391 0.90329 0.22411 -0.15800
N 	N 	0.82395 0.91165 0.12109 -0.11000
N 	N 	0.81570 0.92340 0.08196 -0.11400
N 	N 	0.95742 0.88330 0.24248 -0.11200
N 	N 	0.99344 0.88696 0.24458 -0.10900
N 	N 	0.46735 0.24175 0.90071 -0.16500
N 	N 	0.48874 0.23618 0.85750 -0.15300
N 	N 	0.58076 0.18210 0.91650 -0.15600
N 	N 	0.60217 0.18109 0.87105 -0.16700
N 	N 	0.71641 0.00959 0.95597 -0.15900
N 	N 	0.74582 0.03574 0.93082 -0.16900
N 	N 	0.30852 0.27160 0.87890 -0.16500
N 	N 	0.31869 0.22411 0.90329 -0.15800
N 	N 	0.64331 0.12109 0.91165 -0.11000
N 	N 	0.67894 0.08196 0.92340 -0.11400
N 	N 	0.41680 0.24248 0.88330 -0.11200
N 	N 	0.37502 0.24458 0.88696 -0.10900
