data_crystal

_cell_length_a 35.26510
_cell_length_b 35.26510
_cell_length_c 35.26510
_cell_angle_alpha 60.00000
_cell_angle_beta  60.00000
_cell_angle_gamma 60.00000

_symmetry_space_group_name_	'P 1'
_symmetry_space_group_name_H-M	'P 1'

loop_
_symmetry_equiv_pos_as_xyz
  x,y,z

loop_
_atom_site_label
_atom_site_type_symbol
_atom_site_fract_x
_atom_site_fract_y
_atom_site_fract_z
_atom_site_charge
Ag	Ag	0.06886 0.88361 0.31540 0.51700
Ag	Ag	0.00700 0.81926 0.43473 0.52000
Ag	Ag	0.38361 0.56886 0.73213 0.51700
Ag	Ag	0.31926 0.50700 0.73901 0.52000
Ag	Ag	0.81540 0.73213 0.56886 0.51700
Ag	Ag	0.93473 0.73901 0.50700 0.52000
Ag	Ag	0.23213 0.31540 0.88361 0.51700
Ag	Ag	0.23901 0.43473 0.81926 0.52000
Ag	Ag	0.06886 0.31540 0.73213 0.51700
Ag	Ag	0.00700 0.43473 0.73901 0.52000
Ag	Ag	0.38361 0.73213 0.31540 0.51700
Ag	Ag	0.31926 0.73901 0.43473 0.52000
Ag	Ag	0.81540 0.56886 0.88361 0.51700
Ag	Ag	0.93473 0.50700 0.81926 0.52000
Ag	Ag	0.23213 0.88361 0.56886 0.51700
Ag	Ag	0.23901 0.81926 0.50700 0.52000
Ag	Ag	0.06886 0.73213 0.88361 0.51700
Ag	Ag	0.00700 0.73901 0.81926 0.52000
Ag	Ag	0.38361 0.31540 0.56886 0.51700
Ag	Ag	0.31926 0.43473 0.50700 0.52000
Ag	Ag	0.81540 0.88361 0.73213 0.51700
Ag	Ag	0.93473 0.81926 0.73901 0.52100
Ag	Ag	0.23213 0.56886 0.31540 0.51700
Ag	Ag	0.23901 0.50700 0.43473 0.52000
Ag	Ag	0.11639 0.93114 0.18460 0.51700
Ag	Ag	0.18074 0.99300 0.06527 0.52000
Ag	Ag	0.43114 0.61639 0.76787 0.51700
Ag	Ag	0.49300 0.68074 0.76099 0.52000
Ag	Ag	0.26787 0.18460 0.93114 0.51700
Ag	Ag	0.26099 0.06527 0.99300 0.52000
Ag	Ag	0.68460 0.76787 0.61639 0.51700
Ag	Ag	0.56527 0.76099 0.68074 0.52000
Ag	Ag	0.68460 0.93114 0.76787 0.51700
Ag	Ag	0.56527 0.99300 0.76099 0.52000
Ag	Ag	0.26787 0.61639 0.18460 0.51700
Ag	Ag	0.26099 0.68074 0.06527 0.52000
Ag	Ag	0.43114 0.18460 0.61639 0.51700
Ag	Ag	0.49300 0.06527 0.68074 0.52000
Ag	Ag	0.11639 0.76787 0.93114 0.51700
Ag	Ag	0.18074 0.76099 0.99300 0.52000
Ag	Ag	0.26787 0.93114 0.61639 0.51700
Ag	Ag	0.26099 0.99300 0.68074 0.52000
Ag	Ag	0.68460 0.61639 0.93114 0.51700
Ag	Ag	0.56527 0.68074 0.99300 0.52000
Ag	Ag	0.11639 0.18460 0.76787 0.51700
Ag	Ag	0.18074 0.06527 0.76099 0.52000
Ag	Ag	0.43114 0.76787 0.18460 0.51700
Ag	Ag	0.49300 0.76099 0.06527 0.52000
Ag	Ag	0.93114 0.11639 0.68460 0.51700
Ag	Ag	0.99300 0.18074 0.56527 0.52000
Ag	Ag	0.61639 0.43114 0.26787 0.51700
Ag	Ag	0.68074 0.49300 0.26099 0.52000
Ag	Ag	0.18460 0.26787 0.43114 0.51700
Ag	Ag	0.06527 0.26099 0.49300 0.52000
Ag	Ag	0.76787 0.68460 0.11639 0.51700
Ag	Ag	0.76099 0.56527 0.18074 0.52000
Ag	Ag	0.93114 0.68460 0.26787 0.51700
Ag	Ag	0.99300 0.56527 0.26099 0.52000
Ag	Ag	0.61639 0.26787 0.68460 0.51700
Ag	Ag	0.68074 0.26099 0.56527 0.52000
Ag	Ag	0.18460 0.43114 0.11639 0.51700
Ag	Ag	0.06527 0.49300 0.18074 0.52000
Ag	Ag	0.76787 0.11639 0.43114 0.51700
Ag	Ag	0.76099 0.18074 0.49300 0.52000
Ag	Ag	0.93114 0.26787 0.11639 0.51700
Ag	Ag	0.99300 0.26099 0.18074 0.52000
Ag	Ag	0.61639 0.68460 0.43114 0.51700
Ag	Ag	0.68074 0.56527 0.49300 0.52000
Ag	Ag	0.18460 0.11639 0.26787 0.51700
Ag	Ag	0.06527 0.18074 0.26099 0.52100
Ag	Ag	0.76787 0.43114 0.68460 0.51700
Ag	Ag	0.76099 0.49300 0.56527 0.52000
Ag	Ag	0.88361 0.06886 0.81540 0.51800
Ag	Ag	0.81926 0.00700 0.93473 0.52100
Ag	Ag	0.56886 0.38361 0.23213 0.51800
Ag	Ag	0.50700 0.31926 0.23901 0.52100
Ag	Ag	0.73213 0.81540 0.06886 0.51800
Ag	Ag	0.73901 0.93473 0.00700 0.52100
Ag	Ag	0.31540 0.23213 0.38361 0.51800
Ag	Ag	0.43473 0.23901 0.31926 0.52100
Ag	Ag	0.31540 0.06886 0.23213 0.51800
Ag	Ag	0.43473 0.00700 0.23901 0.52100
Ag	Ag	0.73213 0.38361 0.81540 0.51800
Ag	Ag	0.73901 0.31926 0.93473 0.52100
Ag	Ag	0.56886 0.81540 0.38361 0.51800
Ag	Ag	0.50700 0.93473 0.31926 0.52100
Ag	Ag	0.88361 0.23213 0.06886 0.51800
Ag	Ag	0.81926 0.23901 0.00700 0.52100
Ag	Ag	0.73213 0.06886 0.38361 0.51800
Ag	Ag	0.73901 0.00700 0.31926 0.52100
Ag	Ag	0.31540 0.38361 0.06886 0.51800
Ag	Ag	0.43473 0.31926 0.00700 0.52100
Ag	Ag	0.88361 0.81540 0.23213 0.51800
Ag	Ag	0.81926 0.93473 0.23901 0.52100
Ag	Ag	0.56886 0.23213 0.81540 0.51800
Ag	Ag	0.50700 0.23901 0.93473 0.52100
H 	H 	0.96200 0.98340 0.31680 -0.00100
H 	H 	0.90080 0.90700 0.44220 -0.00100
H 	H 	0.84270 0.99110 0.35150 -0.00800
H 	H 	0.87680 0.02960 0.41520 -0.00100
H 	H 	0.15990 0.86270 0.34530 -0.00400
H 	H 	0.10330 0.78350 0.46950 -0.00500
H 	H 	0.14850 0.84950 0.46890 -0.00400
H 	H 	0.23570 0.76530 0.39530 -0.00500
H 	H 	0.48340 0.46200 0.73780 -0.00100
H 	H 	0.40700 0.40080 0.75000 -0.00100
H 	H 	0.49110 0.34270 0.81470 -0.00900
H 	H 	0.52960 0.37680 0.67840 -0.00100
H 	H 	0.36270 0.65990 0.63210 -0.00400
H 	H 	0.28350 0.60330 0.64370 -0.00500
H 	H 	0.34950 0.64850 0.53310 -0.00400
H 	H 	0.26530 0.73570 0.60370 -0.00500
H 	H 	0.81680 0.73780 0.46200 -0.00100
H 	H 	0.94220 0.75000 0.40080 -0.00100
H 	H 	0.85150 0.81470 0.34270 -0.00900
H 	H 	0.91520 0.67840 0.37680 -0.00100
H 	H 	0.84530 0.63210 0.65990 -0.00400
H 	H 	0.96950 0.64370 0.60330 -0.00500
H 	H 	0.96890 0.53310 0.64850 -0.00400
H 	H 	0.89530 0.60370 0.73570 -0.00500
H 	H 	0.23780 0.31680 0.98340 -0.00100
H 	H 	0.25000 0.44220 0.90700 -0.00100
H 	H 	0.31470 0.35150 0.99110 -0.00900
H 	H 	0.17840 0.41520 0.02960 -0.00100
H 	H 	0.13210 0.34530 0.86270 -0.00400
H 	H 	0.14370 0.46950 0.78350 -0.00500
H 	H 	0.03310 0.46890 0.84950 -0.00400
H 	H 	0.10370 0.39530 0.76530 -0.00500
H 	H 	0.96200 0.31680 0.73780 -0.00100
H 	H 	0.90080 0.44220 0.75000 -0.00100
H 	H 	0.84270 0.35150 0.81470 -0.00900
H 	H 	0.87680 0.41520 0.67840 -0.00100
H 	H 	0.15990 0.34530 0.63210 -0.00400
H 	H 	0.10330 0.46950 0.64370 -0.00500
H 	H 	0.14850 0.46890 0.53310 -0.00400
H 	H 	0.23570 0.39530 0.60370 -0.00500
H 	H 	0.48340 0.73780 0.31680 -0.00100
H 	H 	0.40700 0.75000 0.44220 -0.00100
H 	H 	0.49110 0.81470 0.35150 -0.00900
H 	H 	0.52960 0.67840 0.41520 -0.00100
H 	H 	0.36270 0.63210 0.34530 -0.00400
H 	H 	0.28350 0.64370 0.46950 -0.00500
H 	H 	0.34950 0.53310 0.46890 -0.00400
H 	H 	0.26530 0.60370 0.39530 -0.00500
H 	H 	0.81680 0.46200 0.98340 -0.00100
H 	H 	0.94220 0.40080 0.90700 -0.00100
H 	H 	0.85150 0.34270 0.99110 -0.00800
H 	H 	0.91520 0.37680 0.02960 -0.00200
H 	H 	0.84530 0.65990 0.86270 -0.00400
H 	H 	0.96950 0.60330 0.78350 -0.00500
H 	H 	0.96890 0.64850 0.84950 -0.00400
H 	H 	0.89530 0.73570 0.76530 -0.00500
H 	H 	0.23780 0.98340 0.46200 -0.00100
H 	H 	0.25000 0.90700 0.40080 -0.00100
H 	H 	0.31470 0.99110 0.34270 -0.00900
H 	H 	0.17840 0.02960 0.37680 -0.00100
H 	H 	0.13210 0.86270 0.65990 -0.00400
H 	H 	0.14370 0.78350 0.60330 -0.00500
H 	H 	0.03310 0.84950 0.64850 -0.00400
H 	H 	0.10370 0.76530 0.73570 -0.00500
H 	H 	0.96200 0.73780 0.98340 -0.00100
H 	H 	0.90080 0.75000 0.90700 -0.00100
H 	H 	0.84270 0.81470 0.99110 -0.00800
H 	H 	0.87680 0.67840 0.02960 -0.00100
H 	H 	0.15990 0.63210 0.86270 -0.00400
H 	H 	0.10330 0.64370 0.78350 -0.00500
H 	H 	0.14850 0.53310 0.84950 -0.00400
H 	H 	0.23570 0.60370 0.76530 -0.00500
H 	H 	0.48340 0.31680 0.46200 -0.00100
H 	H 	0.40700 0.44220 0.40080 -0.00100
H 	H 	0.49110 0.35150 0.34270 -0.00900
H 	H 	0.52960 0.41520 0.37680 -0.00100
H 	H 	0.36270 0.34530 0.65990 -0.00400
H 	H 	0.28350 0.46950 0.60330 -0.00500
H 	H 	0.34950 0.46890 0.64850 -0.00400
H 	H 	0.26530 0.39530 0.73570 -0.00500
H 	H 	0.81680 0.98340 0.73780 -0.00100
H 	H 	0.94220 0.90700 0.75000 -0.00100
H 	H 	0.85150 0.99110 0.81470 -0.00800
H 	H 	0.91520 0.02960 0.67840 -0.00100
H 	H 	0.84530 0.86270 0.63210 -0.00400
H 	H 	0.96950 0.78350 0.64370 -0.00500
H 	H 	0.96890 0.84950 0.53310 -0.00400
H 	H 	0.89530 0.76530 0.60370 -0.00500
H 	H 	0.23780 0.46200 0.31680 -0.00100
H 	H 	0.25000 0.40080 0.44220 -0.00100
H 	H 	0.31470 0.34270 0.35150 -0.00900
H 	H 	0.17840 0.37680 0.41520 -0.00100
H 	H 	0.13210 0.65990 0.34530 -0.00400
H 	H 	0.14370 0.60330 0.46950 -0.00500
H 	H 	0.03310 0.64850 0.46890 -0.00400
H 	H 	0.10370 0.73570 0.39530 -0.00500
H 	H 	0.01660 0.03800 0.18320 -0.00100
H 	H 	0.09300 0.09920 0.05780 -0.00100
H 	H 	0.00890 0.15730 0.14850 -0.00800
H 	H 	0.97040 0.12320 0.08480 -0.00100
H 	H 	0.13730 0.84010 0.15470 -0.00400
H 	H 	0.21650 0.89670 0.03050 -0.00500
H 	H 	0.15050 0.85150 0.03110 -0.00400
H 	H 	0.23470 0.76430 0.10470 -0.00500
H 	H 	0.53800 0.51660 0.76220 -0.00100
H 	H 	0.59920 0.59300 0.75000 -0.00100
H 	H 	0.65730 0.50890 0.68530 -0.00900
H 	H 	0.62320 0.47040 0.82160 -0.00100
H 	H 	0.34010 0.63730 0.86790 -0.00400
H 	H 	0.39670 0.71650 0.85630 -0.00500
H 	H 	0.35150 0.65050 0.96690 -0.00400
H 	H 	0.26430 0.73470 0.89630 -0.00500
H 	H 	0.26220 0.18320 0.03800 -0.00100
H 	H 	0.25000 0.05780 0.09920 -0.00100
H 	H 	0.18530 0.14850 0.15730 -0.00900
H 	H 	0.32160 0.08480 0.12320 -0.00100
H 	H 	0.36790 0.15470 0.84010 -0.00400
H 	H 	0.35630 0.03050 0.89670 -0.00500
H 	H 	0.46690 0.03110 0.85150 -0.00400
H 	H 	0.39630 0.10470 0.76430 -0.00500
H 	H 	0.68320 0.76220 0.51660 -0.00100
H 	H 	0.55780 0.75000 0.59300 -0.00100
H 	H 	0.64850 0.68530 0.50890 -0.00900
H 	H 	0.58480 0.82160 0.47040 -0.00100
H 	H 	0.65470 0.86790 0.63730 -0.00400
H 	H 	0.53050 0.85630 0.71650 -0.00500
H 	H 	0.53110 0.96690 0.65050 -0.00400
H 	H 	0.60470 0.89630 0.73470 -0.00500
H 	H 	0.68320 0.03800 0.76220 -0.00100
H 	H 	0.55780 0.09920 0.75000 -0.00100
H 	H 	0.64850 0.15730 0.68530 -0.00900
H 	H 	0.58480 0.12320 0.82160 -0.00100
H 	H 	0.65470 0.84010 0.86790 -0.00400
H 	H 	0.53050 0.89670 0.85630 -0.00500
H 	H 	0.53110 0.85150 0.96690 -0.00400
H 	H 	0.60470 0.76430 0.89630 -0.00500
H 	H 	0.26220 0.51660 0.18320 -0.00100
H 	H 	0.25000 0.59300 0.05780 -0.00100
H 	H 	0.18530 0.50890 0.14850 -0.00900
H 	H 	0.32160 0.47040 0.08480 -0.00100
H 	H 	0.36790 0.63730 0.15470 -0.00400
H 	H 	0.35630 0.71650 0.03050 -0.00500
H 	H 	0.46690 0.65050 0.03110 -0.00400
H 	H 	0.39630 0.73470 0.10470 -0.00500
H 	H 	0.53800 0.18320 0.51660 -0.00100
H 	H 	0.59920 0.05780 0.59300 -0.00100
H 	H 	0.65730 0.14850 0.50890 -0.00900
H 	H 	0.62320 0.08480 0.47040 -0.00200
H 	H 	0.34010 0.15470 0.63730 -0.00400
H 	H 	0.39670 0.03050 0.71650 -0.00500
H 	H 	0.35150 0.03110 0.65050 -0.00400
H 	H 	0.26430 0.10470 0.73470 -0.00500
H 	H 	0.01660 0.76220 0.03800 -0.00100
H 	H 	0.09300 0.75000 0.09920 -0.00100
H 	H 	0.00890 0.68530 0.15730 -0.00900
H 	H 	0.97040 0.82160 0.12320 -0.00100
H 	H 	0.13730 0.86790 0.84010 -0.00400
H 	H 	0.21650 0.85630 0.89670 -0.00500
H 	H 	0.15050 0.96690 0.85150 -0.00400
H 	H 	0.23470 0.89630 0.76430 -0.00500
H 	H 	0.26220 0.03800 0.51660 -0.00100
H 	H 	0.25000 0.09920 0.59300 -0.00100
H 	H 	0.18530 0.15730 0.50890 -0.00900
H 	H 	0.32160 0.12320 0.47040 -0.00100
H 	H 	0.36790 0.84010 0.63730 -0.00400
H 	H 	0.35630 0.89670 0.71650 -0.00500
H 	H 	0.46690 0.85150 0.65050 -0.00400
H 	H 	0.39630 0.76430 0.73470 -0.00500
H 	H 	0.68320 0.51660 0.03800 -0.00100
H 	H 	0.55780 0.59300 0.09920 -0.00100
H 	H 	0.64850 0.50890 0.15730 -0.00900
H 	H 	0.58480 0.47040 0.12320 -0.00100
H 	H 	0.65470 0.63730 0.84010 -0.00400
H 	H 	0.53050 0.71650 0.89670 -0.00500
H 	H 	0.53110 0.65050 0.85150 -0.00400
H 	H 	0.60470 0.73470 0.76430 -0.00500
H 	H 	0.01660 0.18320 0.76220 -0.00100
H 	H 	0.09300 0.05780 0.75000 -0.00100
H 	H 	0.00890 0.14850 0.68530 -0.00900
H 	H 	0.97040 0.08480 0.82160 -0.00100
H 	H 	0.13730 0.15470 0.86790 -0.00400
H 	H 	0.21650 0.03050 0.85630 -0.00500
H 	H 	0.15050 0.03110 0.96690 -0.00400
H 	H 	0.23470 0.10470 0.89630 -0.00500
H 	H 	0.53800 0.76220 0.18320 -0.00100
H 	H 	0.59920 0.75000 0.05780 -0.00100
H 	H 	0.65730 0.68530 0.14850 -0.00900
H 	H 	0.62320 0.82160 0.08480 -0.00200
H 	H 	0.34010 0.86790 0.15470 -0.00400
H 	H 	0.39670 0.85630 0.03050 -0.00500
H 	H 	0.35150 0.96690 0.03110 -0.00400
H 	H 	0.26430 0.89630 0.10470 -0.00500
H 	H 	0.03800 0.01660 0.68320 -0.00100
H 	H 	0.09920 0.09300 0.55780 -0.00100
H 	H 	0.15730 0.00890 0.64850 -0.00800
H 	H 	0.12320 0.97040 0.58480 -0.00100
H 	H 	0.84010 0.13730 0.65470 -0.00400
H 	H 	0.89670 0.21650 0.53050 -0.00500
H 	H 	0.85150 0.15050 0.53110 -0.00400
H 	H 	0.76430 0.23470 0.60470 -0.00500
H 	H 	0.51660 0.53800 0.26220 -0.00100
H 	H 	0.59300 0.59920 0.25000 -0.00100
H 	H 	0.50890 0.65730 0.18530 -0.00900
H 	H 	0.47040 0.62320 0.32160 -0.00100
H 	H 	0.63730 0.34010 0.36790 -0.00400
H 	H 	0.71650 0.39670 0.35630 -0.00500
H 	H 	0.65050 0.35150 0.46690 -0.00400
H 	H 	0.73470 0.26430 0.39630 -0.00500
H 	H 	0.18320 0.26220 0.53800 -0.00100
H 	H 	0.05780 0.25000 0.59920 -0.00100
H 	H 	0.14850 0.18530 0.65730 -0.00900
H 	H 	0.08480 0.32160 0.62320 -0.00100
H 	H 	0.15470 0.36790 0.34010 -0.00400
H 	H 	0.03050 0.35630 0.39670 -0.00500
H 	H 	0.03110 0.46690 0.35150 -0.00400
H 	H 	0.10470 0.39630 0.26430 -0.00500
H 	H 	0.76220 0.68320 0.01660 -0.00100
H 	H 	0.75000 0.55780 0.09300 -0.00100
H 	H 	0.68530 0.64850 0.00890 -0.00900
H 	H 	0.82160 0.58480 0.97040 -0.00100
H 	H 	0.86790 0.65470 0.13730 -0.00400
H 	H 	0.85630 0.53050 0.21650 -0.00500
H 	H 	0.96690 0.53110 0.15050 -0.00400
H 	H 	0.89630 0.60470 0.23470 -0.00500
H 	H 	0.03800 0.68320 0.26220 -0.00100
H 	H 	0.09920 0.55780 0.25000 -0.00100
H 	H 	0.15730 0.64850 0.18530 -0.00900
H 	H 	0.12320 0.58480 0.32160 -0.00100
H 	H 	0.84010 0.65470 0.36790 -0.00400
H 	H 	0.89670 0.53050 0.35630 -0.00500
H 	H 	0.85150 0.53110 0.46690 -0.00400
H 	H 	0.76430 0.60470 0.39630 -0.00500
H 	H 	0.51660 0.26220 0.68320 -0.00100
H 	H 	0.59300 0.25000 0.55780 -0.00100
H 	H 	0.50890 0.18530 0.64850 -0.00900
H 	H 	0.47040 0.32160 0.58480 -0.00100
H 	H 	0.63730 0.36790 0.65470 -0.00400
H 	H 	0.71650 0.35630 0.53050 -0.00500
H 	H 	0.65050 0.46690 0.53110 -0.00400
H 	H 	0.73470 0.39630 0.60470 -0.00500
H 	H 	0.18320 0.53800 0.01660 -0.00100
H 	H 	0.05780 0.59920 0.09300 -0.00100
H 	H 	0.14850 0.65730 0.00890 -0.00800
H 	H 	0.08480 0.62320 0.97040 -0.00200
H 	H 	0.15470 0.34010 0.13730 -0.00400
H 	H 	0.03050 0.39670 0.21650 -0.00500
H 	H 	0.03110 0.35150 0.15050 -0.00400
H 	H 	0.10470 0.26430 0.23470 -0.00500
H 	H 	0.76220 0.01660 0.53800 -0.00100
H 	H 	0.75000 0.09300 0.59920 -0.00100
H 	H 	0.68530 0.00890 0.65730 -0.00900
H 	H 	0.82160 0.97040 0.62320 -0.00100
H 	H 	0.86790 0.13730 0.34010 -0.00400
H 	H 	0.85630 0.21650 0.39670 -0.00500
H 	H 	0.96690 0.15050 0.35150 -0.00400
H 	H 	0.89630 0.23470 0.26430 -0.00500
H 	H 	0.03800 0.26220 0.01660 -0.00100
H 	H 	0.09920 0.25000 0.09300 -0.00100
H 	H 	0.15730 0.18530 0.00890 -0.00800
H 	H 	0.12320 0.32160 0.97040 -0.00100
H 	H 	0.84010 0.36790 0.13730 -0.00400
H 	H 	0.89670 0.35630 0.21650 -0.00500
H 	H 	0.85150 0.46690 0.15050 -0.00400
H 	H 	0.76430 0.39630 0.23470 -0.00500
H 	H 	0.51660 0.68320 0.53800 -0.00100
H 	H 	0.59300 0.55780 0.59920 -0.00100
H 	H 	0.50890 0.64850 0.65730 -0.00900
H 	H 	0.47040 0.58480 0.62320 -0.00100
H 	H 	0.63730 0.65470 0.34010 -0.00400
H 	H 	0.71650 0.53050 0.39670 -0.00500
H 	H 	0.65050 0.53110 0.35150 -0.00400
H 	H 	0.73470 0.60470 0.26430 -0.00500
H 	H 	0.18320 0.01660 0.26220 -0.00100
H 	H 	0.05780 0.09300 0.25000 -0.00100
H 	H 	0.14850 0.00890 0.18530 -0.00800
H 	H 	0.08480 0.97040 0.32160 -0.00100
H 	H 	0.15470 0.13730 0.36790 -0.00400
H 	H 	0.03050 0.21650 0.35630 -0.00500
H 	H 	0.03110 0.15050 0.46690 -0.00400
H 	H 	0.10470 0.23470 0.39630 -0.00500
H 	H 	0.76220 0.53800 0.68320 -0.00100
H 	H 	0.75000 0.59920 0.55780 -0.00100
H 	H 	0.68530 0.65730 0.64850 -0.00900
H 	H 	0.82160 0.62320 0.58480 -0.00100
H 	H 	0.86790 0.34010 0.65470 -0.00400
H 	H 	0.85630 0.39670 0.53050 -0.00500
H 	H 	0.96690 0.35150 0.53110 -0.00400
H 	H 	0.89630 0.26430 0.60470 -0.00500
H 	H 	0.98340 0.96200 0.81680 -0.00100
H 	H 	0.90700 0.90080 0.94220 -0.00100
H 	H 	0.99110 0.84270 0.85150 -0.00800
H 	H 	0.02960 0.87680 0.91520 -0.00100
H 	H 	0.86270 0.15990 0.84530 -0.00400
H 	H 	0.78350 0.10330 0.96950 -0.00500
H 	H 	0.84950 0.14850 0.96890 -0.00400
H 	H 	0.76530 0.23570 0.89530 -0.00500
H 	H 	0.46200 0.48340 0.23780 -0.00100
H 	H 	0.40080 0.40700 0.25000 -0.00100
H 	H 	0.34270 0.49110 0.31470 -0.00900
H 	H 	0.37680 0.52960 0.17840 -0.00100
H 	H 	0.65990 0.36270 0.13210 -0.00400
H 	H 	0.60330 0.28350 0.14370 -0.00500
H 	H 	0.64850 0.34950 0.03310 -0.00400
H 	H 	0.73570 0.26530 0.10370 -0.00500
H 	H 	0.73780 0.81680 0.96200 -0.00100
H 	H 	0.75000 0.94220 0.90080 -0.00100
H 	H 	0.81470 0.85150 0.84270 -0.00900
H 	H 	0.67840 0.91520 0.87680 -0.00100
H 	H 	0.63210 0.84530 0.15990 -0.00400
H 	H 	0.64370 0.96950 0.10330 -0.00500
H 	H 	0.53310 0.96890 0.14850 -0.00400
H 	H 	0.60370 0.89530 0.23570 -0.00500
H 	H 	0.31680 0.23780 0.48340 -0.00100
H 	H 	0.44220 0.25000 0.40700 -0.00100
H 	H 	0.35150 0.31470 0.49110 -0.00900
H 	H 	0.41520 0.17840 0.52960 -0.00100
H 	H 	0.34530 0.13210 0.36270 -0.00400
H 	H 	0.46950 0.14370 0.28350 -0.00500
H 	H 	0.46890 0.03310 0.34950 -0.00400
H 	H 	0.39530 0.10370 0.26530 -0.00500
H 	H 	0.31680 0.96200 0.23780 -0.00100
H 	H 	0.44220 0.90080 0.25000 -0.00100
H 	H 	0.35150 0.84270 0.31470 -0.00900
H 	H 	0.41520 0.87680 0.17840 -0.00100
H 	H 	0.34530 0.15990 0.13210 -0.00400
H 	H 	0.46950 0.10330 0.14370 -0.00500
H 	H 	0.46890 0.14850 0.03310 -0.00400
H 	H 	0.39530 0.23570 0.10370 -0.00500
H 	H 	0.73780 0.48340 0.81680 -0.00100
H 	H 	0.75000 0.40700 0.94220 -0.00100
H 	H 	0.81470 0.49110 0.85150 -0.00900
H 	H 	0.67840 0.52960 0.91520 -0.00100
H 	H 	0.63210 0.36270 0.84530 -0.00400
H 	H 	0.64370 0.28350 0.96950 -0.00500
H 	H 	0.53310 0.34950 0.96890 -0.00400
H 	H 	0.60370 0.26530 0.89530 -0.00500
H 	H 	0.46200 0.81680 0.48340 -0.00100
H 	H 	0.40080 0.94220 0.40700 -0.00100
H 	H 	0.34270 0.85150 0.49110 -0.00900
H 	H 	0.37680 0.91520 0.52960 -0.00200
H 	H 	0.65990 0.84530 0.36270 -0.00400
H 	H 	0.60330 0.96950 0.28350 -0.00500
H 	H 	0.64850 0.96890 0.34950 -0.00400
H 	H 	0.73570 0.89530 0.26530 -0.00500
H 	H 	0.98340 0.23780 0.96200 -0.00100
H 	H 	0.90700 0.25000 0.90080 -0.00100
H 	H 	0.99110 0.31470 0.84270 -0.00900
H 	H 	0.02960 0.17840 0.87680 -0.00100
H 	H 	0.86270 0.13210 0.15990 -0.00400
H 	H 	0.78350 0.14370 0.10330 -0.00500
H 	H 	0.84950 0.03310 0.14850 -0.00400
H 	H 	0.76530 0.10370 0.23570 -0.00500
H 	H 	0.73780 0.96200 0.48340 -0.00100
H 	H 	0.75000 0.90080 0.40700 -0.00100
H 	H 	0.81470 0.84270 0.49110 -0.00900
H 	H 	0.67840 0.87680 0.52960 -0.00100
H 	H 	0.63210 0.15990 0.36270 -0.00400
H 	H 	0.64370 0.10330 0.28350 -0.00500
H 	H 	0.53310 0.14850 0.34950 -0.00400
H 	H 	0.60370 0.23570 0.26530 -0.00500
H 	H 	0.31680 0.48340 0.96200 -0.00100
H 	H 	0.44220 0.40700 0.90080 -0.00100
H 	H 	0.35150 0.49110 0.84270 -0.00900
H 	H 	0.41520 0.52960 0.87680 -0.00100
H 	H 	0.34530 0.36270 0.15990 -0.00400
H 	H 	0.46950 0.28350 0.10330 -0.00500
H 	H 	0.46890 0.34950 0.14850 -0.00400
H 	H 	0.39530 0.26530 0.23570 -0.00500
H 	H 	0.98340 0.81680 0.23780 -0.00100
H 	H 	0.90700 0.94220 0.25000 -0.00100
H 	H 	0.99110 0.85150 0.31470 -0.00900
H 	H 	0.02960 0.91520 0.17840 -0.00100
H 	H 	0.86270 0.84530 0.13210 -0.00400
H 	H 	0.78350 0.96950 0.14370 -0.00500
H 	H 	0.84950 0.96890 0.03310 -0.00400
H 	H 	0.76530 0.89530 0.10370 -0.00500
H 	H 	0.46200 0.23780 0.81680 -0.00100
H 	H 	0.40080 0.25000 0.94220 -0.00100
H 	H 	0.34270 0.31470 0.85150 -0.00900
H 	H 	0.37680 0.17840 0.91520 -0.00200
H 	H 	0.65990 0.13210 0.84530 -0.00400
H 	H 	0.60330 0.14370 0.96950 -0.00500
H 	H 	0.64850 0.03310 0.96890 -0.00400
H 	H 	0.73570 0.10370 0.89530 -0.00500
C 	C 	0.95699 0.95825 0.34485 0.09300
C 	C 	0.92348 0.91674 0.41346 0.08300
C 	C 	0.84171 0.00721 0.36711 0.08900
C 	C 	0.85994 0.02796 0.40212 0.09100
C 	C 	0.13967 0.84637 0.37071 0.08900
C 	C 	0.10865 0.80357 0.43813 0.10000
C 	C 	0.17606 0.82892 0.45436 0.09500
C 	C 	0.22325 0.78321 0.41441 0.08300
C 	C 	0.45825 0.45699 0.73991 0.09300
C 	C 	0.41674 0.42348 0.74632 0.08300
C 	C 	0.50721 0.34171 0.78397 0.09000
C 	C 	0.52796 0.35994 0.70998 0.09200
C 	C 	0.34637 0.63967 0.64325 0.08900
C 	C 	0.30357 0.60865 0.64965 0.10000
C 	C 	0.32892 0.67606 0.54066 0.09500
C 	C 	0.28321 0.72325 0.57913 0.08300
C 	C 	0.84485 0.73991 0.45699 0.09300
C 	C 	0.91346 0.74632 0.42348 0.08300
C 	C 	0.86711 0.78397 0.34171 0.09000
C 	C 	0.90212 0.70998 0.35994 0.09200
C 	C 	0.87071 0.64325 0.63967 0.08900
C 	C 	0.93813 0.64965 0.60865 0.10000
C 	C 	0.95436 0.54066 0.67606 0.09500
C 	C 	0.91441 0.57913 0.72325 0.08300
C 	C 	0.23991 0.34485 0.95825 0.09300
C 	C 	0.24632 0.41346 0.91674 0.08300
C 	C 	0.28397 0.36711 0.00721 0.09100
C 	C 	0.20998 0.40212 0.02796 0.09200
C 	C 	0.14325 0.37071 0.84637 0.08900
C 	C 	0.14965 0.43813 0.80357 0.10000
C 	C 	0.04066 0.45436 0.82892 0.09500
C 	C 	0.07913 0.41441 0.78321 0.08300
C 	C 	0.95699 0.34485 0.73991 0.09300
C 	C 	0.92348 0.41346 0.74632 0.08300
C 	C 	0.84171 0.36711 0.78397 0.09000
C 	C 	0.85994 0.40212 0.70998 0.09200
C 	C 	0.13967 0.37071 0.64325 0.08900
C 	C 	0.10865 0.43813 0.64965 0.10000
C 	C 	0.17606 0.45436 0.54066 0.09500
C 	C 	0.22325 0.41441 0.57913 0.08300
C 	C 	0.45825 0.73991 0.34485 0.09300
C 	C 	0.41674 0.74632 0.41346 0.08300
C 	C 	0.50721 0.78397 0.36711 0.09000
C 	C 	0.52796 0.70998 0.40212 0.09200
C 	C 	0.34637 0.64325 0.37071 0.08900
C 	C 	0.30357 0.64965 0.43813 0.10000
C 	C 	0.32892 0.54066 0.45436 0.09500
C 	C 	0.28321 0.57913 0.41441 0.08300
C 	C 	0.84485 0.45699 0.95825 0.09300
C 	C 	0.91346 0.42348 0.91674 0.08300
C 	C 	0.86711 0.34171 0.00721 0.08900
C 	C 	0.90212 0.35994 0.02796 0.09100
C 	C 	0.87071 0.63967 0.84637 0.08900
C 	C 	0.93813 0.60865 0.80357 0.10000
C 	C 	0.95436 0.67606 0.82892 0.09500
C 	C 	0.91441 0.72325 0.78321 0.08300
C 	C 	0.23991 0.95825 0.45699 0.09300
C 	C 	0.24632 0.91674 0.42348 0.08300
C 	C 	0.28397 0.00721 0.34171 0.09100
C 	C 	0.20998 0.02796 0.35994 0.09200
C 	C 	0.14325 0.84637 0.63967 0.08900
C 	C 	0.14965 0.80357 0.60865 0.10000
C 	C 	0.04066 0.82892 0.67606 0.09500
C 	C 	0.07913 0.78321 0.72325 0.08300
C 	C 	0.95699 0.73991 0.95825 0.09300
C 	C 	0.92348 0.74632 0.91674 0.08300
C 	C 	0.84171 0.78397 0.00721 0.08900
C 	C 	0.85994 0.70998 0.02796 0.09100
C 	C 	0.13967 0.64325 0.84637 0.08900
C 	C 	0.10865 0.64965 0.80357 0.10000
C 	C 	0.17606 0.54066 0.82892 0.09500
C 	C 	0.22325 0.57913 0.78321 0.08300
C 	C 	0.45825 0.34485 0.45699 0.09300
C 	C 	0.41674 0.41346 0.42348 0.08300
C 	C 	0.50721 0.36711 0.34171 0.09000
C 	C 	0.52796 0.40212 0.35994 0.09200
C 	C 	0.34637 0.37071 0.63967 0.08900
C 	C 	0.30357 0.43813 0.60865 0.10000
C 	C 	0.32892 0.45436 0.67606 0.09500
C 	C 	0.28321 0.41441 0.72325 0.08300
C 	C 	0.84485 0.95825 0.73991 0.09300
C 	C 	0.91346 0.91674 0.74632 0.08300
C 	C 	0.86711 0.00721 0.78397 0.08900
C 	C 	0.90212 0.02796 0.70998 0.09100
C 	C 	0.87071 0.84637 0.64325 0.08900
C 	C 	0.93813 0.80357 0.64965 0.10000
C 	C 	0.95436 0.82892 0.54066 0.09500
C 	C 	0.91441 0.78321 0.57913 0.08300
C 	C 	0.23991 0.45699 0.34485 0.09300
C 	C 	0.24632 0.42348 0.41346 0.08300
C 	C 	0.28397 0.34171 0.36711 0.09000
C 	C 	0.20998 0.35994 0.40212 0.09200
C 	C 	0.14325 0.63967 0.37071 0.08900
C 	C 	0.14965 0.60865 0.43813 0.10000
C 	C 	0.04066 0.67606 0.45436 0.09500
C 	C 	0.07913 0.72325 0.41441 0.08300
C 	C 	0.04175 0.04301 0.15515 0.09300
C 	C 	0.08326 0.07652 0.08654 0.08300
C 	C 	0.99279 0.15829 0.13289 0.08700
C 	C 	0.97204 0.14006 0.09788 0.09100
C 	C 	0.15363 0.86033 0.12929 0.08900
C 	C 	0.19643 0.89135 0.06187 0.10000
C 	C 	0.17108 0.82394 0.04564 0.09500
C 	C 	0.21679 0.77675 0.08559 0.08300
C 	C 	0.54301 0.54175 0.76009 0.09300
C 	C 	0.57652 0.58326 0.75368 0.08300
C 	C 	0.65829 0.49279 0.71603 0.09000
C 	C 	0.64006 0.47204 0.79002 0.09200
C 	C 	0.36033 0.65363 0.85675 0.08900
C 	C 	0.39135 0.69643 0.85035 0.10000
C 	C 	0.32394 0.67108 0.95934 0.09500
C 	C 	0.27675 0.71679 0.92087 0.08300
C 	C 	0.26009 0.15515 0.04301 0.09300
C 	C 	0.25368 0.08654 0.07652 0.08300
C 	C 	0.21603 0.13289 0.15829 0.09000
C 	C 	0.29002 0.09788 0.14006 0.09200
C 	C 	0.35675 0.12929 0.86033 0.08900
C 	C 	0.35035 0.06187 0.89135 0.10000
C 	C 	0.45934 0.04564 0.82394 0.09500
C 	C 	0.42087 0.08559 0.77675 0.08300
C 	C 	0.65515 0.76009 0.54175 0.09300
C 	C 	0.58654 0.75368 0.58326 0.08300
C 	C 	0.63289 0.71603 0.49279 0.09000
C 	C 	0.59788 0.79002 0.47204 0.09200
C 	C 	0.62929 0.85675 0.65363 0.08900
C 	C 	0.56187 0.85035 0.69643 0.10000
C 	C 	0.54564 0.95934 0.67108 0.09500
C 	C 	0.58559 0.92087 0.71679 0.08300
C 	C 	0.65515 0.04301 0.76009 0.09300
C 	C 	0.58654 0.07652 0.75368 0.08300
C 	C 	0.63289 0.15829 0.71603 0.09000
C 	C 	0.59788 0.14006 0.79002 0.09200
C 	C 	0.62929 0.86033 0.85675 0.08900
C 	C 	0.56187 0.89135 0.85035 0.10000
C 	C 	0.54564 0.82394 0.95934 0.09500
C 	C 	0.58559 0.77675 0.92087 0.08300
C 	C 	0.26009 0.54175 0.15515 0.09300
C 	C 	0.25368 0.58326 0.08654 0.08300
C 	C 	0.21603 0.49279 0.13289 0.09000
C 	C 	0.29002 0.47204 0.09788 0.09200
C 	C 	0.35675 0.65363 0.12929 0.08900
C 	C 	0.35035 0.69643 0.06187 0.10000
C 	C 	0.45934 0.67108 0.04564 0.09500
C 	C 	0.42087 0.71679 0.08559 0.08300
C 	C 	0.54301 0.15515 0.54175 0.09300
C 	C 	0.57652 0.08654 0.58326 0.08300
C 	C 	0.65829 0.13289 0.49279 0.09000
C 	C 	0.64006 0.09788 0.47204 0.09200
C 	C 	0.36033 0.12929 0.65363 0.08900
C 	C 	0.39135 0.06187 0.69643 0.10000
C 	C 	0.32394 0.04564 0.67108 0.09500
C 	C 	0.27675 0.08559 0.71679 0.08300
C 	C 	0.04175 0.76009 0.04301 0.09300
C 	C 	0.08326 0.75368 0.07652 0.08300
C 	C 	0.99279 0.71603 0.15829 0.08900
C 	C 	0.97204 0.79002 0.14006 0.09200
C 	C 	0.15363 0.85675 0.86033 0.08900
C 	C 	0.19643 0.85035 0.89135 0.10000
C 	C 	0.17108 0.95934 0.82394 0.09500
C 	C 	0.21679 0.92087 0.77675 0.08300
C 	C 	0.26009 0.04301 0.54175 0.09300
C 	C 	0.25368 0.07652 0.58326 0.08300
C 	C 	0.21603 0.15829 0.49279 0.09000
C 	C 	0.29002 0.14006 0.47204 0.09200
C 	C 	0.35675 0.86033 0.65363 0.08900
C 	C 	0.35035 0.89135 0.69643 0.10000
C 	C 	0.45934 0.82394 0.67108 0.09500
C 	C 	0.42087 0.77675 0.71679 0.08300
C 	C 	0.65515 0.54175 0.04301 0.09300
C 	C 	0.58654 0.58326 0.07652 0.08300
C 	C 	0.63289 0.49279 0.15829 0.09000
C 	C 	0.59788 0.47204 0.14006 0.09200
C 	C 	0.62929 0.65363 0.86033 0.08900
C 	C 	0.56187 0.69643 0.89135 0.10000
C 	C 	0.54564 0.67108 0.82394 0.09500
C 	C 	0.58559 0.71679 0.77675 0.08300
C 	C 	0.04175 0.15515 0.76009 0.09300
C 	C 	0.08326 0.08654 0.75368 0.08300
C 	C 	0.99279 0.13289 0.71603 0.08900
C 	C 	0.97204 0.09788 0.79002 0.09200
C 	C 	0.15363 0.12929 0.85675 0.08900
C 	C 	0.19643 0.06187 0.85035 0.10000
C 	C 	0.17108 0.04564 0.95934 0.09500
C 	C 	0.21679 0.08559 0.92087 0.08300
C 	C 	0.54301 0.76009 0.15515 0.09300
C 	C 	0.57652 0.75368 0.08654 0.08300
C 	C 	0.65829 0.71603 0.13289 0.09000
C 	C 	0.64006 0.79002 0.09788 0.09200
C 	C 	0.36033 0.85675 0.12929 0.08900
C 	C 	0.39135 0.85035 0.06187 0.10000
C 	C 	0.32394 0.95934 0.04564 0.09500
C 	C 	0.27675 0.92087 0.08559 0.08300
C 	C 	0.04301 0.04175 0.65515 0.09300
C 	C 	0.07652 0.08326 0.58654 0.08300
C 	C 	0.15829 0.99279 0.63289 0.08900
C 	C 	0.14006 0.97204 0.59788 0.09100
C 	C 	0.86033 0.15363 0.62929 0.08900
C 	C 	0.89135 0.19643 0.56187 0.10000
C 	C 	0.82394 0.17108 0.54564 0.09500
C 	C 	0.77675 0.21679 0.58559 0.08300
C 	C 	0.54175 0.54301 0.26009 0.09300
C 	C 	0.58326 0.57652 0.25368 0.08300
C 	C 	0.49279 0.65829 0.21603 0.09000
C 	C 	0.47204 0.64006 0.29002 0.09200
C 	C 	0.65363 0.36033 0.35675 0.08900
C 	C 	0.69643 0.39135 0.35035 0.10000
C 	C 	0.67108 0.32394 0.45934 0.09500
C 	C 	0.71679 0.27675 0.42087 0.08300
C 	C 	0.15515 0.26009 0.54301 0.09300
C 	C 	0.08654 0.25368 0.57652 0.08300
C 	C 	0.13289 0.21603 0.65829 0.09000
C 	C 	0.09788 0.29002 0.64006 0.09200
C 	C 	0.12929 0.35675 0.36033 0.08900
C 	C 	0.06187 0.35035 0.39135 0.10000
C 	C 	0.04564 0.45934 0.32394 0.09500
C 	C 	0.08559 0.42087 0.27675 0.08300
C 	C 	0.76009 0.65515 0.04175 0.09300
C 	C 	0.75368 0.58654 0.08326 0.08300
C 	C 	0.71603 0.63289 0.99279 0.09100
C 	C 	0.79002 0.59788 0.97204 0.09200
C 	C 	0.85675 0.62929 0.15363 0.08900
C 	C 	0.85035 0.56187 0.19643 0.10000
C 	C 	0.95934 0.54564 0.17108 0.09500
C 	C 	0.92087 0.58559 0.21679 0.08300
C 	C 	0.04301 0.65515 0.26009 0.09300
C 	C 	0.07652 0.58654 0.25368 0.08300
C 	C 	0.15829 0.63289 0.21603 0.09000
C 	C 	0.14006 0.59788 0.29002 0.09200
C 	C 	0.86033 0.62929 0.35675 0.08900
C 	C 	0.89135 0.56187 0.35035 0.10000
C 	C 	0.82394 0.54564 0.45934 0.09500
C 	C 	0.77675 0.58559 0.42087 0.08300
C 	C 	0.54175 0.26009 0.65515 0.09300
C 	C 	0.58326 0.25368 0.58654 0.08300
C 	C 	0.49279 0.21603 0.63289 0.09000
C 	C 	0.47204 0.29002 0.59788 0.09200
C 	C 	0.65363 0.35675 0.62929 0.08900
C 	C 	0.69643 0.35035 0.56187 0.10000
C 	C 	0.67108 0.45934 0.54564 0.09500
C 	C 	0.71679 0.42087 0.58559 0.08300
C 	C 	0.15515 0.54301 0.04175 0.09300
C 	C 	0.08654 0.57652 0.08326 0.08300
C 	C 	0.13289 0.65829 0.99279 0.08900
C 	C 	0.09788 0.64006 0.97204 0.09100
C 	C 	0.12929 0.36033 0.15363 0.08900
C 	C 	0.06187 0.39135 0.19643 0.10000
C 	C 	0.04564 0.32394 0.17108 0.09500
C 	C 	0.08559 0.27675 0.21679 0.08300
C 	C 	0.76009 0.04175 0.54301 0.09300
C 	C 	0.75368 0.08326 0.57652 0.08300
C 	C 	0.71603 0.99279 0.65829 0.09100
C 	C 	0.79002 0.97204 0.64006 0.09200
C 	C 	0.85675 0.15363 0.36033 0.08900
C 	C 	0.85035 0.19643 0.39135 0.10000
C 	C 	0.95934 0.17108 0.32394 0.09500
C 	C 	0.92087 0.21679 0.27675 0.08300
C 	C 	0.04301 0.26009 0.04175 0.09300
C 	C 	0.07652 0.25368 0.08326 0.08300
C 	C 	0.15829 0.21603 0.99279 0.08900
C 	C 	0.14006 0.29002 0.97204 0.09100
C 	C 	0.86033 0.35675 0.15363 0.08900
C 	C 	0.89135 0.35035 0.19643 0.10000
C 	C 	0.82394 0.45934 0.17108 0.09500
C 	C 	0.77675 0.42087 0.21679 0.08300
C 	C 	0.54175 0.65515 0.54301 0.09300
C 	C 	0.58326 0.58654 0.57652 0.08300
C 	C 	0.49279 0.63289 0.65829 0.09000
C 	C 	0.47204 0.59788 0.64006 0.09200
C 	C 	0.65363 0.62929 0.36033 0.08900
C 	C 	0.69643 0.56187 0.39135 0.10000
C 	C 	0.67108 0.54564 0.32394 0.09500
C 	C 	0.71679 0.58559 0.27675 0.08300
C 	C 	0.15515 0.04175 0.26009 0.09300
C 	C 	0.08654 0.08326 0.25368 0.08300
C 	C 	0.13289 0.99279 0.21603 0.08900
C 	C 	0.09788 0.97204 0.29002 0.09100
C 	C 	0.12929 0.15363 0.35675 0.08900
C 	C 	0.06187 0.19643 0.35035 0.10000
C 	C 	0.04564 0.17108 0.45934 0.09500
C 	C 	0.08559 0.21679 0.42087 0.08300
C 	C 	0.76009 0.54301 0.65515 0.09300
C 	C 	0.75368 0.57652 0.58654 0.08300
C 	C 	0.71603 0.65829 0.63289 0.09000
C 	C 	0.79002 0.64006 0.59788 0.09200
C 	C 	0.85675 0.36033 0.62929 0.08900
C 	C 	0.85035 0.39135 0.56187 0.10000
C 	C 	0.95934 0.32394 0.54564 0.09500
C 	C 	0.92087 0.27675 0.58559 0.08300
C 	C 	0.95825 0.95699 0.84485 0.09300
C 	C 	0.91674 0.92348 0.91346 0.08300
C 	C 	0.00721 0.84171 0.86711 0.08700
C 	C 	0.02796 0.85994 0.90212 0.09100
C 	C 	0.84637 0.13967 0.87071 0.08900
C 	C 	0.80357 0.10865 0.93813 0.10000
C 	C 	0.82892 0.17606 0.95436 0.09500
C 	C 	0.78321 0.22325 0.91441 0.08300
C 	C 	0.45699 0.45825 0.23991 0.09300
C 	C 	0.42348 0.41674 0.24632 0.08300
C 	C 	0.34171 0.50721 0.28397 0.09000
C 	C 	0.35994 0.52796 0.20998 0.09200
C 	C 	0.63967 0.34637 0.14325 0.08900
C 	C 	0.60865 0.30357 0.14965 0.10000
C 	C 	0.67606 0.32892 0.04066 0.09500
C 	C 	0.72325 0.28321 0.07913 0.08300
C 	C 	0.73991 0.84485 0.95699 0.09300
C 	C 	0.74632 0.91346 0.92348 0.08300
C 	C 	0.78397 0.86711 0.84171 0.09000
C 	C 	0.70998 0.90212 0.85994 0.09200
C 	C 	0.64325 0.87071 0.13967 0.08900
C 	C 	0.64965 0.93813 0.10865 0.10000
C 	C 	0.54066 0.95436 0.17606 0.09500
C 	C 	0.57913 0.91441 0.22325 0.08300
C 	C 	0.34485 0.23991 0.45825 0.09300
C 	C 	0.41346 0.24632 0.41674 0.08300
C 	C 	0.36711 0.28397 0.50721 0.09000
C 	C 	0.40212 0.20998 0.52796 0.09200
C 	C 	0.37071 0.14325 0.34637 0.08900
C 	C 	0.43813 0.14965 0.30357 0.10000
C 	C 	0.45436 0.04066 0.32892 0.09500
C 	C 	0.41441 0.07913 0.28321 0.08300
C 	C 	0.34485 0.95699 0.23991 0.09300
C 	C 	0.41346 0.92348 0.24632 0.08300
C 	C 	0.36711 0.84171 0.28397 0.09000
C 	C 	0.40212 0.85994 0.20998 0.09200
C 	C 	0.37071 0.13967 0.14325 0.08900
C 	C 	0.43813 0.10865 0.14965 0.10000
C 	C 	0.45436 0.17606 0.04066 0.09500
C 	C 	0.41441 0.22325 0.07913 0.08300
C 	C 	0.73991 0.45825 0.84485 0.09300
C 	C 	0.74632 0.41674 0.91346 0.08300
C 	C 	0.78397 0.50721 0.86711 0.09000
C 	C 	0.70998 0.52796 0.90212 0.09200
C 	C 	0.64325 0.34637 0.87071 0.08900
C 	C 	0.64965 0.30357 0.93813 0.10000
C 	C 	0.54066 0.32892 0.95436 0.09500
C 	C 	0.57913 0.28321 0.91441 0.08300
C 	C 	0.45699 0.84485 0.45825 0.09300
C 	C 	0.42348 0.91346 0.41674 0.08300
C 	C 	0.34171 0.86711 0.50721 0.09000
C 	C 	0.35994 0.90212 0.52796 0.09200
C 	C 	0.63967 0.87071 0.34637 0.08900
C 	C 	0.60865 0.93813 0.30357 0.10000
C 	C 	0.67606 0.95436 0.32892 0.09500
C 	C 	0.72325 0.91441 0.28321 0.08300
C 	C 	0.95825 0.23991 0.95699 0.09300
C 	C 	0.91674 0.24632 0.92348 0.08300
C 	C 	0.00721 0.28397 0.84171 0.08900
C 	C 	0.02796 0.20998 0.85994 0.09200
C 	C 	0.84637 0.14325 0.13967 0.08900
C 	C 	0.80357 0.14965 0.10865 0.10000
C 	C 	0.82892 0.04066 0.17606 0.09500
C 	C 	0.78321 0.07913 0.22325 0.08300
C 	C 	0.73991 0.95699 0.45825 0.09300
C 	C 	0.74632 0.92348 0.41674 0.08300
C 	C 	0.78397 0.84171 0.50721 0.09000
C 	C 	0.70998 0.85994 0.52796 0.09200
C 	C 	0.64325 0.13967 0.34637 0.08900
C 	C 	0.64965 0.10865 0.30357 0.10000
C 	C 	0.54066 0.17606 0.32892 0.09500
C 	C 	0.57913 0.22325 0.28321 0.08300
C 	C 	0.34485 0.45825 0.95699 0.09300
C 	C 	0.41346 0.41674 0.92348 0.08300
C 	C 	0.36711 0.50721 0.84171 0.09000
C 	C 	0.40212 0.52796 0.85994 0.09200
C 	C 	0.37071 0.34637 0.13967 0.08900
C 	C 	0.43813 0.30357 0.10865 0.10000
C 	C 	0.45436 0.32892 0.17606 0.09500
C 	C 	0.41441 0.28321 0.22325 0.08300
C 	C 	0.95825 0.84485 0.23991 0.09300
C 	C 	0.91674 0.91346 0.24632 0.08300
C 	C 	0.00721 0.86711 0.28397 0.08900
C 	C 	0.02796 0.90212 0.20998 0.09200
C 	C 	0.84637 0.87071 0.14325 0.08900
C 	C 	0.80357 0.93813 0.14965 0.10000
C 	C 	0.82892 0.95436 0.04066 0.09500
C 	C 	0.78321 0.91441 0.07913 0.08300
C 	C 	0.45699 0.23991 0.84485 0.09300
C 	C 	0.42348 0.24632 0.91346 0.08300
C 	C 	0.34171 0.28397 0.86711 0.09000
C 	C 	0.35994 0.20998 0.90212 0.09200
C 	C 	0.63967 0.14325 0.87071 0.08900
C 	C 	0.60865 0.14965 0.93813 0.10000
C 	C 	0.67606 0.04066 0.95436 0.09500
C 	C 	0.72325 0.07913 0.91441 0.08300
N 	N 	0.98773 0.91819 0.35467 -0.15300
N 	N 	0.96735 0.89113 0.39881 -0.16400
N 	N 	0.91633 0.95899 0.38077 -0.10900
N 	N 	0.87490 0.99566 0.38352 -0.11000
N 	N 	0.80846 0.04382 0.37612 -0.16500
N 	N 	0.81947 0.05625 0.39963 -0.16000
N 	N 	0.10284 0.84568 0.37040 -0.16400
N 	N 	0.08384 0.81858 0.41428 -0.15800
N 	N 	0.14387 0.82061 0.41207 -0.11500
N 	N 	0.17904 0.81194 0.42632 -0.11200
N 	N 	0.21560 0.81362 0.45902 -0.15900
N 	N 	0.24578 0.78452 0.43354 -0.16300
N 	N 	0.41819 0.48773 0.73941 -0.15300
N 	N 	0.39113 0.46735 0.74271 -0.16400
N 	N 	0.45899 0.41633 0.74391 -0.10900
N 	N 	0.49566 0.37490 0.74592 -0.11000
N 	N 	0.54382 0.30846 0.77160 -0.16500
N 	N 	0.55625 0.31947 0.72465 -0.16000
N 	N 	0.34568 0.60284 0.68108 -0.16400
N 	N 	0.31858 0.58384 0.68330 -0.15800
N 	N 	0.32061 0.64387 0.62345 -0.11500
N 	N 	0.31194 0.67904 0.58270 -0.11200
N 	N 	0.31362 0.71560 0.51176 -0.15900
N 	N 	0.28452 0.74578 0.53616 -0.16300
N 	N 	0.85467 0.73941 0.48773 -0.15300
N 	N 	0.89881 0.74271 0.46735 -0.16400
N 	N 	0.88077 0.74391 0.41633 -0.10900
N 	N 	0.88352 0.74592 0.37490 -0.11000
N 	N 	0.87612 0.77160 0.30846 -0.16500
N 	N 	0.89963 0.72465 0.31947 -0.16000
N 	N 	0.87040 0.68108 0.60284 -0.16400
N 	N 	0.91428 0.68330 0.58384 -0.15800
N 	N 	0.91207 0.62345 0.64387 -0.11500
N 	N 	0.92632 0.58270 0.67904 -0.11200
N 	N 	0.95902 0.51176 0.71560 -0.15900
N 	N 	0.93354 0.53616 0.74578 -0.16300
N 	N 	0.23941 0.35467 0.91819 -0.15300
N 	N 	0.24271 0.39881 0.89113 -0.16400
N 	N 	0.24391 0.38077 0.95899 -0.10900
N 	N 	0.24592 0.38352 0.99566 -0.11100
N 	N 	0.27160 0.37612 0.04382 -0.16500
N 	N 	0.22465 0.39963 0.05625 -0.16000
N 	N 	0.18108 0.37040 0.84568 -0.16400
N 	N 	0.18330 0.41428 0.81858 -0.15800
N 	N 	0.12345 0.41207 0.82061 -0.11500
N 	N 	0.08270 0.42632 0.81194 -0.11200
N 	N 	0.01176 0.45902 0.81362 -0.15900
N 	N 	0.03616 0.43354 0.78452 -0.16300
N 	N 	0.98773 0.35467 0.73941 -0.15300
N 	N 	0.96735 0.39881 0.74271 -0.16400
N 	N 	0.91633 0.38077 0.74391 -0.10900
N 	N 	0.87490 0.38352 0.74592 -0.11000
N 	N 	0.80846 0.37612 0.77160 -0.16500
N 	N 	0.81947 0.39963 0.72465 -0.16000
N 	N 	0.10284 0.37040 0.68108 -0.16400
N 	N 	0.08384 0.41428 0.68330 -0.15800
N 	N 	0.14387 0.41207 0.62345 -0.11500
N 	N 	0.17904 0.42632 0.58270 -0.11200
N 	N 	0.21560 0.45902 0.51176 -0.15900
N 	N 	0.24578 0.43354 0.53616 -0.16300
N 	N 	0.41819 0.73941 0.35467 -0.15300
N 	N 	0.39113 0.74271 0.39881 -0.16400
N 	N 	0.45899 0.74391 0.38077 -0.10900
N 	N 	0.49566 0.74592 0.38352 -0.11000
N 	N 	0.54382 0.77160 0.37612 -0.16500
N 	N 	0.55625 0.72465 0.39963 -0.16000
N 	N 	0.34568 0.68108 0.37040 -0.16400
N 	N 	0.31858 0.68330 0.41428 -0.15800
N 	N 	0.32061 0.62345 0.41207 -0.11500
N 	N 	0.31194 0.58270 0.42632 -0.11200
N 	N 	0.31362 0.51176 0.45902 -0.15900
N 	N 	0.28452 0.53616 0.43354 -0.16300
N 	N 	0.85467 0.48773 0.91819 -0.15300
N 	N 	0.89881 0.46735 0.89113 -0.16400
N 	N 	0.88077 0.41633 0.95899 -0.10900
N 	N 	0.88352 0.37490 0.99566 -0.11000
N 	N 	0.87612 0.30846 0.04382 -0.16500
N 	N 	0.89963 0.31947 0.05625 -0.16000
N 	N 	0.87040 0.60284 0.84568 -0.16400
N 	N 	0.91428 0.58384 0.81858 -0.15800
N 	N 	0.91207 0.64387 0.82061 -0.11500
N 	N 	0.92632 0.67904 0.81194 -0.11200
N 	N 	0.95902 0.71560 0.81362 -0.15800
N 	N 	0.93354 0.74578 0.78452 -0.16300
N 	N 	0.23941 0.91819 0.48773 -0.15300
N 	N 	0.24271 0.89113 0.46735 -0.16400
N 	N 	0.24391 0.95899 0.41633 -0.10900
N 	N 	0.24592 0.99566 0.37490 -0.11100
N 	N 	0.27160 0.04382 0.30846 -0.16500
N 	N 	0.22465 0.05625 0.31947 -0.16000
N 	N 	0.18108 0.84568 0.60284 -0.16400
N 	N 	0.18330 0.81858 0.58384 -0.15800
N 	N 	0.12345 0.82061 0.64387 -0.11500
N 	N 	0.08270 0.81194 0.67904 -0.11200
N 	N 	0.01176 0.81362 0.71560 -0.15900
N 	N 	0.03616 0.78452 0.74578 -0.16300
N 	N 	0.98773 0.73941 0.91819 -0.15300
N 	N 	0.96735 0.74271 0.89113 -0.16400
N 	N 	0.91633 0.74391 0.95899 -0.10900
N 	N 	0.87490 0.74592 0.99566 -0.11000
N 	N 	0.80846 0.77160 0.04382 -0.16500
N 	N 	0.81947 0.72465 0.05625 -0.16000
N 	N 	0.10284 0.68108 0.84568 -0.16400
N 	N 	0.08384 0.68330 0.81858 -0.15800
N 	N 	0.14387 0.62345 0.82061 -0.11500
N 	N 	0.17904 0.58270 0.81194 -0.11200
N 	N 	0.21560 0.51176 0.81362 -0.15900
N 	N 	0.24578 0.53616 0.78452 -0.16300
N 	N 	0.41819 0.35467 0.48773 -0.15300
N 	N 	0.39113 0.39881 0.46735 -0.16400
N 	N 	0.45899 0.38077 0.41633 -0.10900
N 	N 	0.49566 0.38352 0.37490 -0.11000
N 	N 	0.54382 0.37612 0.30846 -0.16500
N 	N 	0.55625 0.39963 0.31947 -0.16000
N 	N 	0.34568 0.37040 0.60284 -0.16400
N 	N 	0.31858 0.41428 0.58384 -0.15800
N 	N 	0.32061 0.41207 0.64387 -0.11500
N 	N 	0.31194 0.42632 0.67904 -0.11200
N 	N 	0.31362 0.45902 0.71560 -0.15900
N 	N 	0.28452 0.43354 0.74578 -0.16300
N 	N 	0.85467 0.91819 0.73941 -0.15300
N 	N 	0.89881 0.89113 0.74271 -0.16400
N 	N 	0.88077 0.95899 0.74391 -0.10900
N 	N 	0.88352 0.99566 0.74592 -0.11000
N 	N 	0.87612 0.04382 0.77160 -0.16500
N 	N 	0.89963 0.05625 0.72465 -0.16000
N 	N 	0.87040 0.84568 0.68108 -0.16400
N 	N 	0.91428 0.81858 0.68330 -0.15800
N 	N 	0.91207 0.82061 0.62345 -0.11500
N 	N 	0.92632 0.81194 0.58270 -0.11200
N 	N 	0.95902 0.81362 0.51176 -0.15900
N 	N 	0.93354 0.78452 0.53616 -0.16300
N 	N 	0.23941 0.48773 0.35467 -0.15300
N 	N 	0.24271 0.46735 0.39881 -0.16400
N 	N 	0.24391 0.41633 0.38077 -0.10900
N 	N 	0.24592 0.37490 0.38352 -0.11000
N 	N 	0.27160 0.30846 0.37612 -0.16500
N 	N 	0.22465 0.31947 0.39963 -0.16000
N 	N 	0.18108 0.60284 0.37040 -0.16400
N 	N 	0.18330 0.58384 0.41428 -0.15800
N 	N 	0.12345 0.64387 0.41207 -0.11500
N 	N 	0.08270 0.67904 0.42632 -0.11200
N 	N 	0.01176 0.71560 0.45902 -0.15900
N 	N 	0.03616 0.74578 0.43354 -0.16300
N 	N 	0.08181 0.01227 0.14533 -0.15300
N 	N 	0.10887 0.03265 0.10119 -0.16400
N 	N 	0.04101 0.08367 0.11923 -0.10900
N 	N 	0.00434 0.12510 0.11648 -0.10900
N 	N 	0.95618 0.19154 0.12388 -0.16400
N 	N 	0.94375 0.18053 0.10037 -0.16000
N 	N 	0.15432 0.89716 0.12960 -0.16400
N 	N 	0.18142 0.91616 0.08572 -0.15800
N 	N 	0.17939 0.85613 0.08793 -0.11500
N 	N 	0.18806 0.82096 0.07368 -0.11200
N 	N 	0.18638 0.78440 0.04098 -0.15900
N 	N 	0.21548 0.75422 0.06646 -0.16300
N 	N 	0.51227 0.58181 0.76059 -0.15300
N 	N 	0.53265 0.60887 0.75729 -0.16400
N 	N 	0.58367 0.54101 0.75609 -0.10900
N 	N 	0.62510 0.50434 0.75408 -0.11000
N 	N 	0.69154 0.45618 0.72840 -0.16500
N 	N 	0.68053 0.44375 0.77535 -0.16000
N 	N 	0.39716 0.65432 0.81892 -0.16400
N 	N 	0.41616 0.68142 0.81670 -0.15800
N 	N 	0.35613 0.67939 0.87655 -0.11500
N 	N 	0.32096 0.68806 0.91730 -0.11200
N 	N 	0.28440 0.68638 0.98824 -0.15900
N 	N 	0.25422 0.71548 0.96384 -0.16300
N 	N 	0.26059 0.14533 0.01227 -0.15300
N 	N 	0.25729 0.10119 0.03265 -0.16400
N 	N 	0.25609 0.11923 0.08367 -0.10900
N 	N 	0.25408 0.11648 0.12510 -0.11000
N 	N 	0.22840 0.12388 0.19154 -0.16500
N 	N 	0.27535 0.10037 0.18053 -0.16000
N 	N 	0.31892 0.12960 0.89716 -0.16400
N 	N 	0.31670 0.08572 0.91616 -0.15800
N 	N 	0.37655 0.08793 0.85613 -0.11500
N 	N 	0.41730 0.07368 0.82096 -0.11200
N 	N 	0.48824 0.04098 0.78440 -0.15900
N 	N 	0.46384 0.06646 0.75422 -0.16300
N 	N 	0.64533 0.76059 0.58181 -0.15300
N 	N 	0.60119 0.75729 0.60887 -0.16400
N 	N 	0.61923 0.75609 0.54101 -0.10900
N 	N 	0.61648 0.75408 0.50434 -0.11000
N 	N 	0.62388 0.72840 0.45618 -0.16500
N 	N 	0.60037 0.77535 0.44375 -0.16000
N 	N 	0.62960 0.81892 0.65432 -0.16400
N 	N 	0.58572 0.81670 0.68142 -0.15800
N 	N 	0.58793 0.87655 0.67939 -0.11500
N 	N 	0.57368 0.91730 0.68806 -0.11200
N 	N 	0.54098 0.98824 0.68638 -0.15900
N 	N 	0.56646 0.96384 0.71548 -0.16300
N 	N 	0.64533 0.01227 0.76059 -0.15400
N 	N 	0.60119 0.03265 0.75729 -0.16500
N 	N 	0.61923 0.08367 0.75609 -0.10900
N 	N 	0.61648 0.12510 0.75408 -0.11000
N 	N 	0.62388 0.19154 0.72840 -0.16500
N 	N 	0.60037 0.18053 0.77535 -0.16000
N 	N 	0.62960 0.89716 0.81892 -0.16400
N 	N 	0.58572 0.91616 0.81670 -0.15800
N 	N 	0.58793 0.85613 0.87655 -0.11500
N 	N 	0.57368 0.82096 0.91730 -0.11200
N 	N 	0.54098 0.78440 0.98824 -0.15900
N 	N 	0.56646 0.75422 0.96384 -0.16300
N 	N 	0.26059 0.58181 0.14533 -0.15300
N 	N 	0.25729 0.60887 0.10119 -0.16400
N 	N 	0.25609 0.54101 0.11923 -0.10900
N 	N 	0.25408 0.50434 0.11648 -0.11000
N 	N 	0.22840 0.45618 0.12388 -0.16500
N 	N 	0.27535 0.44375 0.10037 -0.16000
N 	N 	0.31892 0.65432 0.12960 -0.16400
N 	N 	0.31670 0.68142 0.08572 -0.15800
N 	N 	0.37655 0.67939 0.08793 -0.11500
N 	N 	0.41730 0.68806 0.07368 -0.11200
N 	N 	0.48824 0.68638 0.04098 -0.15900
N 	N 	0.46384 0.71548 0.06646 -0.16300
N 	N 	0.51227 0.14533 0.58181 -0.15300
N 	N 	0.53265 0.10119 0.60887 -0.16400
N 	N 	0.58367 0.11923 0.54101 -0.10900
N 	N 	0.62510 0.11648 0.50434 -0.11000
N 	N 	0.69154 0.12388 0.45618 -0.16500
N 	N 	0.68053 0.10037 0.44375 -0.16000
N 	N 	0.39716 0.12960 0.65432 -0.16400
N 	N 	0.41616 0.08572 0.68142 -0.15800
N 	N 	0.35613 0.08793 0.67939 -0.11500
N 	N 	0.32096 0.07368 0.68806 -0.11200
N 	N 	0.28440 0.04098 0.68638 -0.15900
N 	N 	0.25422 0.06646 0.71548 -0.16300
N 	N 	0.08181 0.76059 0.01227 -0.15300
N 	N 	0.10887 0.75729 0.03265 -0.16400
N 	N 	0.04101 0.75609 0.08367 -0.10900
N 	N 	0.00434 0.75408 0.12510 -0.11000
N 	N 	0.95618 0.72840 0.19154 -0.16500
N 	N 	0.94375 0.77535 0.18053 -0.16000
N 	N 	0.15432 0.81892 0.89716 -0.16400
N 	N 	0.18142 0.81670 0.91616 -0.15800
N 	N 	0.17939 0.87655 0.85613 -0.11500
N 	N 	0.18806 0.91730 0.82096 -0.11200
N 	N 	0.18638 0.98824 0.78440 -0.15900
N 	N 	0.21548 0.96384 0.75422 -0.16300
N 	N 	0.26059 0.01227 0.58181 -0.15300
N 	N 	0.25729 0.03265 0.60887 -0.16400
N 	N 	0.25609 0.08367 0.54101 -0.10900
N 	N 	0.25408 0.12510 0.50434 -0.11000
N 	N 	0.22840 0.19154 0.45618 -0.16500
N 	N 	0.27535 0.18053 0.44375 -0.16000
N 	N 	0.31892 0.89716 0.65432 -0.16400
N 	N 	0.31670 0.91616 0.68142 -0.15800
N 	N 	0.37655 0.85613 0.67939 -0.11500
N 	N 	0.41730 0.82096 0.68806 -0.11200
N 	N 	0.48824 0.78440 0.68638 -0.15900
N 	N 	0.46384 0.75422 0.71548 -0.16300
N 	N 	0.64533 0.58181 0.01227 -0.15400
N 	N 	0.60119 0.60887 0.03265 -0.16500
N 	N 	0.61923 0.54101 0.08367 -0.10900
N 	N 	0.61648 0.50434 0.12510 -0.11000
N 	N 	0.62388 0.45618 0.19154 -0.16500
N 	N 	0.60037 0.44375 0.18053 -0.16000
N 	N 	0.62960 0.65432 0.89716 -0.16400
N 	N 	0.58572 0.68142 0.91616 -0.15800
N 	N 	0.58793 0.67939 0.85613 -0.11500
N 	N 	0.57368 0.68806 0.82096 -0.11200
N 	N 	0.54098 0.68638 0.78440 -0.15900
N 	N 	0.56646 0.71548 0.75422 -0.16300
N 	N 	0.08181 0.14533 0.76059 -0.15300
N 	N 	0.10887 0.10119 0.75729 -0.16400
N 	N 	0.04101 0.11923 0.75609 -0.10900
N 	N 	0.00434 0.11648 0.75408 -0.11000
N 	N 	0.95618 0.12388 0.72840 -0.16500
N 	N 	0.94375 0.10037 0.77535 -0.16000
N 	N 	0.15432 0.12960 0.81892 -0.16400
N 	N 	0.18142 0.08572 0.81670 -0.15800
N 	N 	0.17939 0.08793 0.87655 -0.11500
N 	N 	0.18806 0.07368 0.91730 -0.11200
N 	N 	0.18638 0.04098 0.98824 -0.15900
N 	N 	0.21548 0.06646 0.96384 -0.16300
N 	N 	0.51227 0.76059 0.14533 -0.15300
N 	N 	0.53265 0.75729 0.10119 -0.16400
N 	N 	0.58367 0.75609 0.11923 -0.10900
N 	N 	0.62510 0.75408 0.11648 -0.11000
N 	N 	0.69154 0.72840 0.12388 -0.16500
N 	N 	0.68053 0.77535 0.10037 -0.16000
N 	N 	0.39716 0.81892 0.12960 -0.16400
N 	N 	0.41616 0.81670 0.08572 -0.15800
N 	N 	0.35613 0.87655 0.08793 -0.11500
N 	N 	0.32096 0.91730 0.07368 -0.11200
N 	N 	0.28440 0.98824 0.04098 -0.15900
N 	N 	0.25422 0.96384 0.06646 -0.16300
N 	N 	0.01227 0.08181 0.64533 -0.15300
N 	N 	0.03265 0.10887 0.60119 -0.16400
N 	N 	0.08367 0.04101 0.61923 -0.10900
N 	N 	0.12510 0.00434 0.61648 -0.11000
N 	N 	0.19154 0.95618 0.62388 -0.16500
N 	N 	0.18053 0.94375 0.60037 -0.16000
N 	N 	0.89716 0.15432 0.62960 -0.16400
N 	N 	0.91616 0.18142 0.58572 -0.15800
N 	N 	0.85613 0.17939 0.58793 -0.11500
N 	N 	0.82096 0.18806 0.57368 -0.11200
N 	N 	0.78440 0.18638 0.54098 -0.15900
N 	N 	0.75422 0.21548 0.56646 -0.16300
N 	N 	0.58181 0.51227 0.26059 -0.15300
N 	N 	0.60887 0.53265 0.25729 -0.16400
N 	N 	0.54101 0.58367 0.25609 -0.10900
N 	N 	0.50434 0.62510 0.25408 -0.11000
N 	N 	0.45618 0.69154 0.22840 -0.16500
N 	N 	0.44375 0.68053 0.27535 -0.16000
N 	N 	0.65432 0.39716 0.31892 -0.16400
N 	N 	0.68142 0.41616 0.31670 -0.15800
N 	N 	0.67939 0.35613 0.37655 -0.11500
N 	N 	0.68806 0.32096 0.41730 -0.11200
N 	N 	0.68638 0.28440 0.48824 -0.15900
N 	N 	0.71548 0.25422 0.46384 -0.16300
N 	N 	0.14533 0.26059 0.51227 -0.15300
N 	N 	0.10119 0.25729 0.53265 -0.16400
N 	N 	0.11923 0.25609 0.58367 -0.10900
N 	N 	0.11648 0.25408 0.62510 -0.11000
N 	N 	0.12388 0.22840 0.69154 -0.16500
N 	N 	0.10037 0.27535 0.68053 -0.16000
N 	N 	0.12960 0.31892 0.39716 -0.16400
N 	N 	0.08572 0.31670 0.41616 -0.15800
N 	N 	0.08793 0.37655 0.35613 -0.11500
N 	N 	0.07368 0.41730 0.32096 -0.11200
N 	N 	0.04098 0.48824 0.28440 -0.15900
N 	N 	0.06646 0.46384 0.25422 -0.16300
N 	N 	0.76059 0.64533 0.08181 -0.15300
N 	N 	0.75729 0.60119 0.10887 -0.16400
N 	N 	0.75609 0.61923 0.04101 -0.10900
N 	N 	0.75408 0.61648 0.00434 -0.11100
N 	N 	0.72840 0.62388 0.95618 -0.16500
N 	N 	0.77535 0.60037 0.94375 -0.16000
N 	N 	0.81892 0.62960 0.15432 -0.16400
N 	N 	0.81670 0.58572 0.18142 -0.15800
N 	N 	0.87655 0.58793 0.17939 -0.11500
N 	N 	0.91730 0.57368 0.18806 -0.11200
N 	N 	0.98824 0.54098 0.18638 -0.15900
N 	N 	0.96384 0.56646 0.21548 -0.16300
N 	N 	0.01227 0.64533 0.26059 -0.15300
N 	N 	0.03265 0.60119 0.25729 -0.16400
N 	N 	0.08367 0.61923 0.25609 -0.10900
N 	N 	0.12510 0.61648 0.25408 -0.11000
N 	N 	0.19154 0.62388 0.22840 -0.16500
N 	N 	0.18053 0.60037 0.27535 -0.16000
N 	N 	0.89716 0.62960 0.31892 -0.16400
N 	N 	0.91616 0.58572 0.31670 -0.15800
N 	N 	0.85613 0.58793 0.37655 -0.11500
N 	N 	0.82096 0.57368 0.41730 -0.11200
N 	N 	0.78440 0.54098 0.48824 -0.15900
N 	N 	0.75422 0.56646 0.46384 -0.16300
N 	N 	0.58181 0.26059 0.64533 -0.15300
N 	N 	0.60887 0.25729 0.60119 -0.16400
N 	N 	0.54101 0.25609 0.61923 -0.10900
N 	N 	0.50434 0.25408 0.61648 -0.11000
N 	N 	0.45618 0.22840 0.62388 -0.16500
N 	N 	0.44375 0.27535 0.60037 -0.16000
N 	N 	0.65432 0.31892 0.62960 -0.16400
N 	N 	0.68142 0.31670 0.58572 -0.15800
N 	N 	0.67939 0.37655 0.58793 -0.11500
N 	N 	0.68806 0.41730 0.57368 -0.11200
N 	N 	0.68638 0.48824 0.54098 -0.15900
N 	N 	0.71548 0.46384 0.56646 -0.16300
N 	N 	0.14533 0.51227 0.08181 -0.15300
N 	N 	0.10119 0.53265 0.10887 -0.16400
N 	N 	0.11923 0.58367 0.04101 -0.10900
N 	N 	0.11648 0.62510 0.00434 -0.11000
N 	N 	0.12388 0.69154 0.95618 -0.16500
N 	N 	0.10037 0.68053 0.94375 -0.16000
N 	N 	0.12960 0.39716 0.15432 -0.16400
N 	N 	0.08572 0.41616 0.18142 -0.15800
N 	N 	0.08793 0.35613 0.17939 -0.11500
N 	N 	0.07368 0.32096 0.18806 -0.11200
N 	N 	0.04098 0.28440 0.18638 -0.15800
N 	N 	0.06646 0.25422 0.21548 -0.16300
N 	N 	0.76059 0.08181 0.51227 -0.15300
N 	N 	0.75729 0.10887 0.53265 -0.16400
N 	N 	0.75609 0.04101 0.58367 -0.10900
N 	N 	0.75408 0.00434 0.62510 -0.11100
N 	N 	0.72840 0.95618 0.69154 -0.16500
N 	N 	0.77535 0.94375 0.68053 -0.16000
N 	N 	0.81892 0.15432 0.39716 -0.16400
N 	N 	0.81670 0.18142 0.41616 -0.15800
N 	N 	0.87655 0.17939 0.35613 -0.11500
N 	N 	0.91730 0.18806 0.32096 -0.11200
N 	N 	0.98824 0.18638 0.28440 -0.15900
N 	N 	0.96384 0.21548 0.25422 -0.16300
N 	N 	0.01227 0.26059 0.08181 -0.15300
N 	N 	0.03265 0.25729 0.10887 -0.16400
N 	N 	0.08367 0.25609 0.04101 -0.10900
N 	N 	0.12510 0.25408 0.00434 -0.11000
N 	N 	0.19154 0.22840 0.95618 -0.16500
N 	N 	0.18053 0.27535 0.94375 -0.16000
N 	N 	0.89716 0.31892 0.15432 -0.16400
N 	N 	0.91616 0.31670 0.18142 -0.15800
N 	N 	0.85613 0.37655 0.17939 -0.11500
N 	N 	0.82096 0.41730 0.18806 -0.11200
N 	N 	0.78440 0.48824 0.18638 -0.15900
N 	N 	0.75422 0.46384 0.21548 -0.16300
N 	N 	0.58181 0.64533 0.51227 -0.15300
N 	N 	0.60887 0.60119 0.53265 -0.16400
N 	N 	0.54101 0.61923 0.58367 -0.10900
N 	N 	0.50434 0.61648 0.62510 -0.11000
N 	N 	0.45618 0.62388 0.69154 -0.16500
N 	N 	0.44375 0.60037 0.68053 -0.16000
N 	N 	0.65432 0.62960 0.39716 -0.16400
N 	N 	0.68142 0.58572 0.41616 -0.15800
N 	N 	0.67939 0.58793 0.35613 -0.11500
N 	N 	0.68806 0.57368 0.32096 -0.11200
N 	N 	0.68638 0.54098 0.28440 -0.15900
N 	N 	0.71548 0.56646 0.25422 -0.16300
N 	N 	0.14533 0.08181 0.26059 -0.15300
N 	N 	0.10119 0.10887 0.25729 -0.16400
N 	N 	0.11923 0.04101 0.25609 -0.10900
N 	N 	0.11648 0.00434 0.25408 -0.11000
N 	N 	0.12388 0.95618 0.22840 -0.16500
N 	N 	0.10037 0.94375 0.27535 -0.16000
N 	N 	0.12960 0.15432 0.31892 -0.16400
N 	N 	0.08572 0.18142 0.31670 -0.15800
N 	N 	0.08793 0.17939 0.37655 -0.11500
N 	N 	0.07368 0.18806 0.41730 -0.11200
N 	N 	0.04098 0.18638 0.48824 -0.15900
N 	N 	0.06646 0.21548 0.46384 -0.16300
N 	N 	0.76059 0.51227 0.64533 -0.15300
N 	N 	0.75729 0.53265 0.60119 -0.16400
N 	N 	0.75609 0.58367 0.61923 -0.10900
N 	N 	0.75408 0.62510 0.61648 -0.11000
N 	N 	0.72840 0.69154 0.62388 -0.16500
N 	N 	0.77535 0.68053 0.60037 -0.16000
N 	N 	0.81892 0.39716 0.62960 -0.16400
N 	N 	0.81670 0.41616 0.58572 -0.15800
N 	N 	0.87655 0.35613 0.58793 -0.11500
N 	N 	0.91730 0.32096 0.57368 -0.11200
N 	N 	0.98824 0.28440 0.54098 -0.15900
N 	N 	0.96384 0.25422 0.56646 -0.16300
N 	N 	0.91819 0.98773 0.85467 -0.15300
N 	N 	0.89113 0.96735 0.89881 -0.16400
N 	N 	0.95899 0.91633 0.88077 -0.10900
N 	N 	0.99566 0.87490 0.88352 -0.10900
N 	N 	0.04382 0.80846 0.87612 -0.16400
N 	N 	0.05625 0.81947 0.89963 -0.16000
N 	N 	0.84568 0.10284 0.87040 -0.16400
N 	N 	0.81858 0.08384 0.91428 -0.15800
N 	N 	0.82061 0.14387 0.91207 -0.11500
N 	N 	0.81194 0.17904 0.92632 -0.11200
N 	N 	0.81362 0.21560 0.95902 -0.15900
N 	N 	0.78452 0.24578 0.93354 -0.16300
N 	N 	0.48773 0.41819 0.23941 -0.15300
N 	N 	0.46735 0.39113 0.24271 -0.16400
N 	N 	0.41633 0.45899 0.24391 -0.10900
N 	N 	0.37490 0.49566 0.24592 -0.11000
N 	N 	0.30846 0.54382 0.27160 -0.16500
N 	N 	0.31947 0.55625 0.22465 -0.16000
N 	N 	0.60284 0.34568 0.18108 -0.16400
N 	N 	0.58384 0.31858 0.18330 -0.15800
N 	N 	0.64387 0.32061 0.12345 -0.11500
N 	N 	0.67904 0.31194 0.08270 -0.11200
N 	N 	0.71560 0.31362 0.01176 -0.15900
N 	N 	0.74578 0.28452 0.03616 -0.16300
N 	N 	0.73941 0.85467 0.98773 -0.15300
N 	N 	0.74271 0.89881 0.96735 -0.16400
N 	N 	0.74391 0.88077 0.91633 -0.10900
N 	N 	0.74592 0.88352 0.87490 -0.11000
N 	N 	0.77160 0.87612 0.80846 -0.16500
N 	N 	0.72465 0.89963 0.81947 -0.16000
N 	N 	0.68108 0.87040 0.10284 -0.16400
N 	N 	0.68330 0.91428 0.08384 -0.15800
N 	N 	0.62345 0.91207 0.14387 -0.11500
N 	N 	0.58270 0.92632 0.17904 -0.11200
N 	N 	0.51176 0.95902 0.21560 -0.15900
N 	N 	0.53616 0.93354 0.24578 -0.16300
N 	N 	0.35467 0.23941 0.41819 -0.15300
N 	N 	0.39881 0.24271 0.39113 -0.16400
N 	N 	0.38077 0.24391 0.45899 -0.10900
N 	N 	0.38352 0.24592 0.49566 -0.11000
N 	N 	0.37612 0.27160 0.54382 -0.16500
N 	N 	0.39963 0.22465 0.55625 -0.16000
N 	N 	0.37040 0.18108 0.34568 -0.16400
N 	N 	0.41428 0.18330 0.31858 -0.15800
N 	N 	0.41207 0.12345 0.32061 -0.11500
N 	N 	0.42632 0.08270 0.31194 -0.11200
N 	N 	0.45902 0.01176 0.31362 -0.15900
N 	N 	0.43354 0.03616 0.28452 -0.16300
N 	N 	0.35467 0.98773 0.23941 -0.15400
N 	N 	0.39881 0.96735 0.24271 -0.16500
N 	N 	0.38077 0.91633 0.24391 -0.10900
N 	N 	0.38352 0.87490 0.24592 -0.11000
N 	N 	0.37612 0.80846 0.27160 -0.16500
N 	N 	0.39963 0.81947 0.22465 -0.16000
N 	N 	0.37040 0.10284 0.18108 -0.16400
N 	N 	0.41428 0.08384 0.18330 -0.15800
N 	N 	0.41207 0.14387 0.12345 -0.11500
N 	N 	0.42632 0.17904 0.08270 -0.11200
N 	N 	0.45902 0.21560 0.01176 -0.15900
N 	N 	0.43354 0.24578 0.03616 -0.16300
N 	N 	0.73941 0.41819 0.85467 -0.15300
N 	N 	0.74271 0.39113 0.89881 -0.16400
N 	N 	0.74391 0.45899 0.88077 -0.10900
N 	N 	0.74592 0.49566 0.88352 -0.11000
N 	N 	0.77160 0.54382 0.87612 -0.16500
N 	N 	0.72465 0.55625 0.89963 -0.16000
N 	N 	0.68108 0.34568 0.87040 -0.16400
N 	N 	0.68330 0.31858 0.91428 -0.15800
N 	N 	0.62345 0.32061 0.91207 -0.11500
N 	N 	0.58270 0.31194 0.92632 -0.11200
N 	N 	0.51176 0.31362 0.95902 -0.15900
N 	N 	0.53616 0.28452 0.93354 -0.16300
N 	N 	0.48773 0.85467 0.41819 -0.15300
N 	N 	0.46735 0.89881 0.39113 -0.16400
N 	N 	0.41633 0.88077 0.45899 -0.10900
N 	N 	0.37490 0.88352 0.49566 -0.11000
N 	N 	0.30846 0.87612 0.54382 -0.16500
N 	N 	0.31947 0.89963 0.55625 -0.16000
N 	N 	0.60284 0.87040 0.34568 -0.16400
N 	N 	0.58384 0.91428 0.31858 -0.15800
N 	N 	0.64387 0.91207 0.32061 -0.11500
N 	N 	0.67904 0.92632 0.31194 -0.11200
N 	N 	0.71560 0.95902 0.31362 -0.15900
N 	N 	0.74578 0.93354 0.28452 -0.16300
N 	N 	0.91819 0.23941 0.98773 -0.15300
N 	N 	0.89113 0.24271 0.96735 -0.16400
N 	N 	0.95899 0.24391 0.91633 -0.10900
N 	N 	0.99566 0.24592 0.87490 -0.11000
N 	N 	0.04382 0.27160 0.80846 -0.16500
N 	N 	0.05625 0.22465 0.81947 -0.16000
N 	N 	0.84568 0.18108 0.10284 -0.16400
N 	N 	0.81858 0.18330 0.08384 -0.15800
N 	N 	0.82061 0.12345 0.14387 -0.11500
N 	N 	0.81194 0.08270 0.17904 -0.11200
N 	N 	0.81362 0.01176 0.21560 -0.15900
N 	N 	0.78452 0.03616 0.24578 -0.16300
N 	N 	0.73941 0.98773 0.41819 -0.15300
N 	N 	0.74271 0.96735 0.39113 -0.16400
N 	N 	0.74391 0.91633 0.45899 -0.10900
N 	N 	0.74592 0.87490 0.49566 -0.11000
N 	N 	0.77160 0.80846 0.54382 -0.16500
N 	N 	0.72465 0.81947 0.55625 -0.16000
N 	N 	0.68108 0.10284 0.34568 -0.16400
N 	N 	0.68330 0.08384 0.31858 -0.15800
N 	N 	0.62345 0.14387 0.32061 -0.11500
N 	N 	0.58270 0.17904 0.31194 -0.11200
N 	N 	0.51176 0.21560 0.31362 -0.15900
N 	N 	0.53616 0.24578 0.28452 -0.16300
N 	N 	0.35467 0.41819 0.98773 -0.15400
N 	N 	0.39881 0.39113 0.96735 -0.16500
N 	N 	0.38077 0.45899 0.91633 -0.10900
N 	N 	0.38352 0.49566 0.87490 -0.11000
N 	N 	0.37612 0.54382 0.80846 -0.16500
N 	N 	0.39963 0.55625 0.81947 -0.16000
N 	N 	0.37040 0.34568 0.10284 -0.16400
N 	N 	0.41428 0.31858 0.08384 -0.15800
N 	N 	0.41207 0.32061 0.14387 -0.11500
N 	N 	0.42632 0.31194 0.17904 -0.11200
N 	N 	0.45902 0.31362 0.21560 -0.15900
N 	N 	0.43354 0.28452 0.24578 -0.16300
N 	N 	0.91819 0.85467 0.23941 -0.15300
N 	N 	0.89113 0.89881 0.24271 -0.16400
N 	N 	0.95899 0.88077 0.24391 -0.10900
N 	N 	0.99566 0.88352 0.24592 -0.11000
N 	N 	0.04382 0.87612 0.27160 -0.16500
N 	N 	0.05625 0.89963 0.22465 -0.16000
N 	N 	0.84568 0.87040 0.18108 -0.16400
N 	N 	0.81858 0.91428 0.18330 -0.15800
N 	N 	0.82061 0.91207 0.12345 -0.11500
N 	N 	0.81194 0.92632 0.08270 -0.11200
N 	N 	0.81362 0.95902 0.01176 -0.15900
N 	N 	0.78452 0.93354 0.03616 -0.16300
N 	N 	0.48773 0.23941 0.85467 -0.15300
N 	N 	0.46735 0.24271 0.89881 -0.16400
N 	N 	0.41633 0.24391 0.88077 -0.10900
N 	N 	0.37490 0.24592 0.88352 -0.11000
N 	N 	0.30846 0.27160 0.87612 -0.16500
N 	N 	0.31947 0.22465 0.89963 -0.16000
N 	N 	0.60284 0.18108 0.87040 -0.16400
N 	N 	0.58384 0.18330 0.91428 -0.15800
N 	N 	0.64387 0.12345 0.91207 -0.11500
N 	N 	0.67904 0.08270 0.92632 -0.11200
N 	N 	0.71560 0.01176 0.95902 -0.15900
N 	N 	0.74578 0.03616 0.93354 -0.16300
