data_crystal

_cell_length_a 9.38650
_cell_length_b 17.44690
_cell_length_c 17.44690
_cell_angle_alpha 104.36500
_cell_angle_beta  102.82300
_cell_angle_gamma 77.17680

_symmetry_space_group_name_	'P 1'
_symmetry_space_group_name_H-M	'P 1'

loop_
_symmetry_equiv_pos_as_xyz
  x,y,z

loop_
_atom_site_label
_atom_site_type_symbol
_atom_site_fract_x
_atom_site_fract_y
_atom_site_fract_z
_atom_site_charge
Mn	Mn	0.44067 0.68148 0.18678 1.29400
Mn	Mn	0.55933 0.31852 0.81322 1.29600
Mn	Mn	0.05933 0.18678 0.68148 1.28900
Mn	Mn	0.50000 0.50000 -0.00000 1.22400
Mn	Mn	0.94067 0.81322 0.31852 1.30100
Mn	Mn	0.00000 0.00000 0.50000 1.21700
H 	H 	0.32070 0.41390 0.53510 0.18800
H 	H 	0.01580 0.77920 0.02300 -0.06200
H 	H 	0.17450 0.89420 0.66000 -0.05200
H 	H 	0.42600 0.33760 0.12420 0.13400
H 	H 	0.06440 0.63160 0.34000 -0.04400
H 	H 	0.18920 0.70860 0.78500 0.12200
H 	H 	0.42930 0.29010 0.33870 0.18300
H 	H 	0.87010 0.82520 0.91240 0.15000
H 	H 	0.62990 0.91240 0.82520 0.20200
H 	H 	0.12990 0.17480 0.08760 0.17100
H 	H 	0.69900 0.53130 0.27450 -0.03600
H 	H 	0.93560 0.36840 0.66000 -0.09200
H 	H 	0.32550 0.66000 0.89420 -0.01500
H 	H 	0.82070 0.46490 0.58610 0.21600
H 	H 	0.57070 0.70990 0.66130 0.18700
H 	H 	0.81230 0.43480 0.34800 0.13800
H 	H 	0.51580 0.97700 0.22080 0.03600
H 	H 	0.91490 0.68070 0.48390 0.15700
H 	H 	0.17930 0.53510 0.41390 0.16600
H 	H 	0.31080 0.78500 0.70860 0.15800
H 	H 	0.18770 0.56520 0.65200 0.19000
H 	H 	0.30100 0.46870 0.72550 -0.08400
H 	H 	0.37010 0.08760 0.17480 0.12700
H 	H 	0.07400 0.12420 0.33760 0.13300
H 	H 	0.68920 0.21500 0.29140 0.14200
H 	H 	0.82550 0.10580 0.34000 -0.03900
H 	H 	0.68770 0.34800 0.43480 0.16500
H 	H 	0.58510 0.48390 0.68070 0.15200
H 	H 	0.56440 0.66000 0.36840 -0.06800
H 	H 	0.08510 0.31930 0.51610 0.14200
H 	H 	0.92600 0.87580 0.66240 0.15700
H 	H 	0.41490 0.51610 0.31930 0.14700
H 	H 	0.67450 0.34000 0.10580 -0.07400
H 	H 	0.43560 0.34000 0.63160 -0.06600
H 	H 	0.48420 0.02300 0.77920 -0.09600
H 	H 	0.98420 0.22080 0.97700 0.01300
H 	H 	0.80100 0.27450 0.53130 -0.05300
H 	H 	0.92930 0.66130 0.70990 0.19200
H 	H 	0.57400 0.66240 0.87580 0.15600
H 	H 	0.19900 0.72550 0.46870 -0.06500
H 	H 	0.81080 0.29140 0.21500 0.17500
H 	H 	0.07070 0.33870 0.29010 0.17900
H 	H 	0.67930 0.58610 0.46490 0.19200
H 	H 	0.31230 0.65200 0.56520 0.16100
C 	C 	0.72010 0.31082 0.95498 0.42200
C 	C 	0.44970 0.97454 0.76486 0.32300
C 	C 	0.07920 0.16550 0.49630 0.33300
C 	C 	0.65430 0.16650 0.27670 -0.31800
C 	C 	0.36950 0.69868 0.40794 -0.32600
C 	C 	0.27990 0.68918 0.04502 0.31300
C 	C 	0.93330 0.77411 0.69889 0.34100
C 	C 	0.03650 0.20621 0.09079 -0.40400
C 	C 	0.70810 0.25606 0.65674 0.51100
C 	C 	0.99310 0.52436 0.61216 0.44600
C 	C 	0.57870 0.56404 0.78568 0.10100
C 	C 	0.18650 0.71529 0.97023 -0.17800
C 	C 	0.42950 0.32629 0.30751 -0.39800
C 	C 	0.07390 0.34069 0.40671 0.33400
C 	C 	0.92080 0.83450 0.50370 0.32700
C 	C 	0.51380 0.65782 0.40780 0.26900
C 	C 	0.07330 0.17913 0.35517 -0.27000
C 	C 	0.50690 0.61216 0.52436 0.37400
C 	C 	0.96350 0.79379 0.90921 -0.23600
C 	C 	0.79190 0.65674 0.25606 0.49100
C 	C 	0.15430 0.72330 0.83350 -0.27200
C 	C 	0.20490 0.46784 0.69700 0.33400
C 	C 	0.86950 0.59206 0.30132 -0.25500
C 	C 	0.86260 0.47452 0.34628 -0.29200
C 	C 	0.34570 0.83350 0.72330 -0.37100
C 	C 	0.57330 0.64483 0.82087 -0.27800
C 	C 	0.00690 0.47564 0.38784 0.30200
C 	C 	0.49310 0.38784 0.47564 0.36900
C 	C 	0.07050 0.30751 0.32629 -0.40100
C 	C 	0.58270 0.61409 0.46543 -0.37600
C 	C 	0.91730 0.46543 0.61409 -0.44200
C 	C 	0.26470 0.89858 0.69442 0.24100
C 	C 	0.07870 0.21432 0.43596 0.08000
C 	C 	0.81350 0.28471 0.02977 -0.31700
C 	C 	0.98620 0.40780 0.65782 0.36000
C 	C 	0.13050 0.40794 0.69868 -0.39800
C 	C 	0.63050 0.30132 0.59206 -0.32000
C 	C 	0.46350 0.09079 0.20621 -0.26800
C 	C 	0.48620 0.34218 0.59220 0.26200
C 	C 	0.42080 0.49630 0.16550 0.33400
C 	C 	0.29510 0.69700 0.46784 0.26500
C 	C 	0.41990 0.46180 0.29540 -0.27400
C 	C 	0.63740 0.34628 0.47452 -0.37400
C 	C 	0.41730 0.38591 0.53457 -0.37000
C 	C 	0.92950 0.69249 0.67371 -0.40400
C 	C 	0.57390 0.59329 0.65931 0.35000
C 	C 	0.84570 0.27670 0.16650 -0.40600
C 	C 	0.92130 0.78568 0.56404 0.10400
C 	C 	0.31350 0.97023 0.71529 -0.25600
C 	C 	0.42130 0.43596 0.21432 0.08400
C 	C 	0.01380 0.59220 0.34218 0.18000
C 	C 	0.79510 0.53216 0.30300 0.19500
C 	C 	0.76470 0.30558 0.10142 0.27500
C 	C 	0.51990 0.16037 0.22543 0.30700
C 	C 	0.05030 0.76486 0.97454 0.19800
C 	C 	0.57050 0.67371 0.69249 -0.40800
C 	C 	0.55030 0.02546 0.23514 0.09000
C 	C 	0.92610 0.65931 0.59329 0.35800
C 	C 	0.43330 0.30111 0.22589 0.33100
C 	C 	0.29190 0.74394 0.34326 0.51700
C 	C 	0.70490 0.30300 0.53216 0.25800
C 	C 	0.73530 0.10142 0.30558 0.19300
C 	C 	0.06670 0.22589 0.30111 0.33500
C 	C 	0.42670 0.35517 0.17913 -0.26600
C 	C 	0.13740 0.52548 0.65372 -0.46700
C 	C 	0.92670 0.82087 0.64483 -0.27400
C 	C 	0.57920 0.50370 0.83450 0.32800
C 	C 	0.22010 0.04502 0.68918 0.34300
C 	C 	0.42610 0.40671 0.34069 0.34200
C 	C 	0.91990 0.70460 0.53820 -0.28400
C 	C 	0.98010 0.22543 0.16037 0.41700
C 	C 	0.68650 0.02977 0.28471 -0.24600
C 	C 	0.58010 0.53820 0.70460 -0.28300
C 	C 	0.94970 0.23514 0.02546 0.19200
C 	C 	0.48010 0.83963 0.77457 0.37800
C 	C 	0.01990 0.77457 0.83963 0.25500
C 	C 	0.77990 0.95498 0.31082 0.39200
C 	C 	0.53650 0.90921 0.79379 -0.39300
C 	C 	0.08010 0.29540 0.46180 -0.27200
C 	C 	0.36260 0.65372 0.52548 -0.37900
C 	C 	0.56670 0.69889 0.77411 0.34600
C 	C 	0.23530 0.69442 0.89858 0.15000
C 	C 	0.08270 0.53457 0.38591 -0.31000
C 	C 	0.20810 0.34326 0.74394 0.54000
O 	O 	0.93180 0.90739 0.53179 -0.44800
O 	O 	0.14320 0.28956 0.74534 -0.51600
O 	O 	0.90940 0.80012 0.43158 -0.43600
O 	O 	0.76660 0.28148 0.88942 -0.43600
O 	O 	0.40940 0.56842 0.19988 -0.45000
O 	O 	0.33720 0.34965 0.78171 -0.52900
O 	O 	0.93260 0.81207 0.77877 -0.29200
O 	O 	0.42040 0.43665 0.42153 -0.33200
O 	O 	0.16280 0.78171 0.34965 -0.53200
O 	O 	0.43180 0.46821 0.09261 -0.48900
O 	O 	0.66280 0.65035 0.21829 -0.52100
O 	O 	0.56820 0.53179 0.90739 -0.45500
O 	O 	0.90400 0.95782 0.35778 -0.49100
O 	O 	0.09600 0.04218 0.64222 -0.53200
O 	O 	0.92040 0.57847 0.56335 -0.34800
O 	O 	0.73340 0.88942 0.28148 -0.43400
O 	O 	0.06740 0.18793 0.22123 -0.36200
O 	O 	0.56740 0.77877 0.81207 -0.33000
O 	O 	0.57960 0.56335 0.57847 -0.33600
O 	O 	0.35680 0.74534 0.28956 -0.50600
O 	O 	0.59600 0.35778 0.95782 -0.50500
O 	O 	0.06820 0.09261 0.46821 -0.49400
O 	O 	0.07960 0.42153 0.43665 -0.32200
O 	O 	0.43260 0.22123 0.18793 -0.32700
O 	O 	0.09060 0.19988 0.56842 -0.45300
O 	O 	0.40400 0.64222 0.04218 -0.51900
O 	O 	0.59060 0.43158 0.80012 -0.43800
O 	O 	0.85680 0.71044 0.25466 -0.49500
O 	O 	0.26660 0.11058 0.71852 -0.43400
O 	O 	0.64320 0.25466 0.71044 -0.50300
O 	O 	0.23340 0.71852 0.11058 -0.43000
O 	O 	0.83720 0.21829 0.65035 -0.51500
