data_crystal

_cell_length_a 18.44300
_cell_length_b 18.44300
_cell_length_c 15.16600
_cell_angle_alpha 90.00000
_cell_angle_beta  90.00000
_cell_angle_gamma 90.00000

_symmetry_space_group_name_	'P 1'
_symmetry_space_group_name_H-M	'P 1'

loop_
_symmetry_equiv_pos_as_xyz
  x,y,z

loop_
_atom_site_label
_atom_site_type_symbol
_atom_site_fract_x
_atom_site_fract_y
_atom_site_fract_z
_atom_site_charge
C 	C 	0.68590 0.94700 0.36260 0.03700
C 	C 	0.69580 0.96060 0.27380 -0.02500
H 	H 	0.73210 0.93660 0.24280 0.03900
C 	C 	0.65120 0.01020 0.23120 -0.10700
H 	H 	0.65800 0.01820 0.17120 0.05900
C 	C 	0.59830 0.04750 0.27350 0.05500
C 	C 	0.58860 0.03360 0.36450 -0.10700
H 	H 	0.55230 0.05800 0.39500 0.06200
C 	C 	0.63130 0.98540 0.40860 -0.01900
H 	H 	0.62450 0.97770 0.46870 0.04800
C 	C 	0.73200 0.89090 0.40870 -0.11000
H 	H 	0.70170 0.86210 0.44750 0.07300
H 	H 	0.75310 0.85870 0.36510 0.06400
C 	C 	0.84780 0.96440 0.56870 0.10300
H 	H 	0.85970 0.97840 0.62580 -0.00800
C 	C 	0.85640 0.94140 0.43460 0.09700
H 	H 	0.87370 0.93490 0.37750 -0.01300
N 	N 	0.79080 0.92500 0.46080 -0.08400
N 	N 	0.78440 0.93940 0.54710 -0.09400
N 	N 	0.89460 0.96840 0.50070 -0.23300
C 	C 	0.31410 0.05300 0.36260 0.14400
C 	C 	0.30420 0.03940 0.27380 -0.19600
H 	H 	0.26790 0.06340 0.24280 0.08600
C 	C 	0.34880 0.98980 0.23120 0.07000
H 	H 	0.34200 0.98180 0.17120 0.00800
C 	C 	0.40170 0.95250 0.27350 -0.06400
C 	C 	0.41140 0.96640 0.36450 0.06900
H 	H 	0.44770 0.94200 0.39500 0.01200
C 	C 	0.36870 0.01460 0.40860 -0.19100
H 	H 	0.37550 0.02230 0.46870 0.09600
C 	C 	0.26800 0.10910 0.40870 -0.17300
H 	H 	0.29830 0.13790 0.44750 0.08700
H 	H 	0.24690 0.14130 0.36510 0.07700
C 	C 	0.15220 0.03560 0.56870 0.09600
H 	H 	0.14030 0.02160 0.62580 -0.02200
C 	C 	0.14360 0.05860 0.43460 0.08700
H 	H 	0.12630 0.06510 0.37750 -0.02400
N 	N 	0.20920 0.07500 0.46080 -0.07800
N 	N 	0.21560 0.06060 0.54710 -0.10100
N 	N 	0.10540 0.03160 0.50070 -0.24800
C 	C 	0.94700 0.31410 0.63740 0.03000
C 	C 	0.96060 0.30420 0.72620 -0.01700
H 	H 	0.93660 0.26790 0.75720 0.03800
C 	C 	0.01020 0.34880 0.76880 -0.11500
H 	H 	0.01820 0.34200 0.82880 0.06600
C 	C 	0.04750 0.40170 0.72650 0.06300
C 	C 	0.03360 0.41140 0.63550 -0.11500
H 	H 	0.05800 0.44770 0.60500 0.06400
C 	C 	0.98540 0.36870 0.59140 -0.01200
H 	H 	0.97770 0.37550 0.53130 0.04400
C 	C 	0.89090 0.26800 0.59130 -0.10600
H 	H 	0.86210 0.29830 0.55250 0.07000
H 	H 	0.85870 0.24690 0.63490 0.06200
C 	C 	0.96440 0.15220 0.43130 0.10000
H 	H 	0.97840 0.14030 0.37420 -0.01600
C 	C 	0.94140 0.14360 0.56540 0.09400
H 	H 	0.93490 0.12630 0.62250 -0.01600
N 	N 	0.92500 0.20920 0.53920 -0.08500
N 	N 	0.93940 0.21560 0.45290 -0.09800
N 	N 	0.96840 0.10540 0.49930 -0.24000
C 	C 	0.05300 0.68590 0.63740 0.14400
C 	C 	0.03940 0.69580 0.72620 -0.19100
H 	H 	0.06340 0.73210 0.75720 0.09200
C 	C 	0.98980 0.65120 0.76880 0.06600
H 	H 	0.98180 0.65800 0.82880 0.01600
C 	C 	0.95250 0.59830 0.72650 -0.05800
C 	C 	0.96640 0.58860 0.63550 0.06500
H 	H 	0.94200 0.55230 0.60500 0.01200
C 	C 	0.01460 0.63130 0.59140 -0.18800
H 	H 	0.02230 0.62450 0.53130 0.09400
C 	C 	0.10910 0.73200 0.59130 -0.17300
H 	H 	0.13790 0.70170 0.55250 0.08900
H 	H 	0.14130 0.75310 0.63490 0.08300
C 	C 	0.03560 0.84780 0.43130 0.09900
H 	H 	0.02160 0.85970 0.37420 -0.02000
C 	C 	0.05860 0.85640 0.56540 0.09000
H 	H 	0.06510 0.87370 0.62250 -0.01400
N 	N 	0.07500 0.79080 0.53920 -0.07700
N 	N 	0.06060 0.78440 0.45290 -0.10200
N 	N 	0.03160 0.89460 0.49930 -0.24000
C 	C 	0.18590 0.55300 0.86260 0.10700
C 	C 	0.19580 0.53940 0.77380 -0.13100
H 	H 	0.23210 0.56340 0.74280 0.07200
C 	C 	0.15120 0.48980 0.73120 0.00800
H 	H 	0.15800 0.48180 0.67120 0.02400
C 	C 	0.09830 0.45250 0.77350 -0.04100
C 	C 	0.08860 0.46640 0.86450 0.00500
H 	H 	0.05230 0.44200 0.89500 0.02500
C 	C 	0.13130 0.51460 0.90860 -0.12600
H 	H 	0.12450 0.52230 0.96870 0.08100
C 	C 	0.23200 0.60910 0.90870 -0.15100
H 	H 	0.20170 0.63790 0.94750 0.08700
H 	H 	0.25310 0.64130 0.86510 0.07700
C 	C 	0.34780 0.53560 0.06870 0.09400
H 	H 	0.35970 0.52160 0.12580 -0.01900
C 	C 	0.35640 0.55860 0.93460 0.12100
H 	H 	0.37370 0.56510 0.87750 -0.02400
N 	N 	0.29080 0.57500 0.96080 -0.07400
N 	N 	0.28440 0.56060 0.04710 -0.11400
N 	N 	0.39460 0.53160 0.00070 -0.26200
C 	C 	0.81410 0.44700 0.86260 0.08200
C 	C 	0.80420 0.46060 0.77380 -0.09000
H 	H 	0.76790 0.43660 0.74280 0.05900
C 	C 	0.84880 0.51020 0.73120 -0.04400
H 	H 	0.84200 0.51820 0.67120 0.04700
C 	C 	0.90170 0.54750 0.77350 0.03400
C 	C 	0.91140 0.53360 0.86450 -0.04100
H 	H 	0.94770 0.55800 0.89500 0.05300
C 	C 	0.86870 0.48540 0.90860 -0.08500
H 	H 	0.87550 0.47770 0.96870 0.07300
C 	C 	0.76800 0.39090 0.90870 -0.13600
H 	H 	0.79830 0.36210 0.94750 0.08500
H 	H 	0.74690 0.35870 0.86510 0.07200
C 	C 	0.65220 0.46440 0.06870 0.09400
H 	H 	0.64030 0.47840 0.12580 -0.01800
C 	C 	0.64360 0.44140 0.93460 0.12200
H 	H 	0.62630 0.43490 0.87750 -0.02400
N 	N 	0.70920 0.42500 0.96080 -0.07500
N 	N 	0.71560 0.43940 0.04710 -0.11100
N 	N 	0.60540 0.46840 0.00070 -0.26200
C 	C 	0.44700 0.18590 0.13740 0.09300
C 	C 	0.46060 0.19580 0.22620 -0.12100
H 	H 	0.43660 0.23210 0.25720 0.06700
C 	C 	0.51020 0.15120 0.26880 -0.00200
H 	H 	0.51820 0.15800 0.32880 0.02800
C 	C 	0.54750 0.09830 0.22650 -0.03400
C 	C 	0.53360 0.08860 0.13550 -0.00500
H 	H 	0.55800 0.05230 0.10500 0.02400
C 	C 	0.48540 0.13130 0.09140 -0.11800
H 	H 	0.47770 0.12450 0.03130 0.06700
C 	C 	0.39090 0.23200 0.09130 -0.14200
H 	H 	0.36210 0.20170 0.05250 0.07100
H 	H 	0.35870 0.25310 0.13490 0.06800
C 	C 	0.46440 0.34780 0.93130 0.10400
H 	H 	0.47840 0.35970 0.87420 -0.01600
C 	C 	0.44140 0.35640 0.06540 0.06200
H 	H 	0.43490 0.37370 0.12250 -0.01000
N 	N 	0.42500 0.29080 0.03920 -0.08700
N 	N 	0.43940 0.28440 0.95290 -0.08700
N 	N 	0.46840 0.39460 0.99930 -0.22100
C 	C 	0.55300 0.81410 0.13740 0.07300
C 	C 	0.53940 0.80420 0.22620 -0.08600
H 	H 	0.56340 0.76790 0.25720 0.05700
C 	C 	0.48980 0.84880 0.26880 -0.05000
H 	H 	0.48180 0.84200 0.32880 0.04900
C 	C 	0.45250 0.90170 0.22650 0.03700
C 	C 	0.46640 0.91140 0.13550 -0.04800
H 	H 	0.44200 0.94770 0.10500 0.04900
C 	C 	0.51460 0.86870 0.09140 -0.08200
H 	H 	0.52230 0.87550 0.03130 0.06100
C 	C 	0.60910 0.76800 0.09130 -0.13300
H 	H 	0.63790 0.79830 0.05250 0.07500
H 	H 	0.64130 0.74690 0.13490 0.06900
C 	C 	0.53560 0.65220 0.93130 0.10500
H 	H 	0.52160 0.64030 0.87420 -0.01400
C 	C 	0.55860 0.64360 0.06540 0.06300
H 	H 	0.56510 0.62630 0.12250 -0.00900
N 	N 	0.57500 0.70920 0.03920 -0.08800
N 	N 	0.56060 0.71560 0.95290 -0.08400
N 	N 	0.53160 0.60540 0.99930 -0.22100
Cu	Cu	0.00000 0.00000 0.50000 0.83300
Cu	Cu	0.50000 0.50000 -0.00000 0.83900
