data_crystal

_cell_length_a 7.64860
_cell_length_b 22.01900
_cell_length_c 6.15500
_cell_angle_alpha 90.00000
_cell_angle_beta  90.00000
_cell_angle_gamma 90.00000

_symmetry_space_group_name_	'P 1'
_symmetry_space_group_name_H-M	'P 1'

loop_
_symmetry_equiv_pos_as_xyz
  x,y,z

loop_
_atom_site_label
_atom_site_type_symbol
_atom_site_fract_x
_atom_site_fract_y
_atom_site_fract_z
_atom_site_charge
Ce	Ce	0.47938 0.85422 0.56072 2.14900
O 	O 	0.38470 0.96179 0.41850 -0.41300
O 	O 	0.60130 0.95719 0.68700 -0.42800
O 	O 	0.52740 0.84580 0.16490 -0.46000
O 	O 	0.68610 0.83676 0.86320 -0.44900
O 	O 	0.78780 0.86209 0.41660 -0.55300
H 	H 	0.85920 0.88530 0.47120 0.28600
O 	O 	0.84160 0.73682 0.21730 -0.51700
H 	H 	0.76350 0.74360 0.30540 0.26600
O 	O 	0.19270 0.83551 0.36780 -0.46000
O 	O 	0.08600 0.75043 0.50630 -0.48200
C 	C 	0.67010 0.84335 0.06530 0.36300
C 	C 	0.83790 0.84894 0.19910 0.00800
H 	H 	0.90820 0.88260 0.14240 0.04400
C 	C 	0.94540 0.79023 0.18980 0.02900
H 	H 	0.00350 0.78810 0.04810 0.03900
C 	C 	0.08670 0.79219 0.36780 0.34200
Ce	Ce	0.52062 0.14578 0.56072 2.14900
O 	O 	0.61530 0.03821 0.41850 -0.43800
O 	O 	0.39870 0.04281 0.68700 -0.46100
O 	O 	0.47260 0.15420 0.16490 -0.45700
O 	O 	0.31390 0.16324 0.86320 -0.45300
O 	O 	0.21220 0.13791 0.41660 -0.56500
H 	H 	0.14080 0.11470 0.47120 0.27300
O 	O 	0.15840 0.26318 0.21730 -0.50600
H 	H 	0.23650 0.25640 0.30540 0.25900
O 	O 	0.80730 0.16449 0.36780 -0.47100
O 	O 	0.91400 0.24957 0.50630 -0.48200
C 	C 	0.32990 0.15665 0.06530 0.34600
C 	C 	0.16210 0.15106 0.19910 0.05000
H 	H 	0.09180 0.11740 0.14240 0.01100
C 	C 	0.05460 0.20977 0.18980 -0.09900
H 	H 	0.99650 0.21190 0.04810 0.10600
C 	C 	0.91330 0.20781 0.36780 0.40900
Ce	Ce	0.02062 0.35422 0.43928 2.13400
O 	O 	0.11530 0.46179 0.58150 -0.44500
O 	O 	0.89870 0.45719 0.31300 -0.43500
O 	O 	0.97260 0.34580 0.83510 -0.44000
O 	O 	0.81390 0.33676 0.13680 -0.44200
O 	O 	0.71220 0.36209 0.58340 -0.55200
H 	H 	0.64080 0.38530 0.52880 0.27900
O 	O 	0.65840 0.23682 0.78270 -0.51500
H 	H 	0.73650 0.24360 0.69460 0.26500
O 	O 	0.30730 0.33551 0.63220 -0.47000
O 	O 	0.41400 0.25043 0.49370 -0.48400
C 	C 	0.82990 0.34335 0.93470 0.35300
C 	C 	0.66210 0.34894 0.80090 0.02200
H 	H 	0.59180 0.38260 0.85760 0.03100
C 	C 	0.55460 0.29023 0.81020 -0.00800
H 	H 	0.49650 0.28810 0.95190 0.05600
C 	C 	0.41330 0.29219 0.63220 0.36000
Ce	Ce	0.97938 0.64578 0.43928 2.15800
O 	O 	0.88470 0.53821 0.58150 -0.42000
O 	O 	0.10130 0.54281 0.31300 -0.46000
O 	O 	0.02740 0.65420 0.83510 -0.46700
O 	O 	0.18610 0.66324 0.13680 -0.45300
O 	O 	0.28780 0.63791 0.58340 -0.55900
H 	H 	0.35920 0.61470 0.52880 0.28000
O 	O 	0.34160 0.76318 0.78270 -0.51500
H 	H 	0.26350 0.75640 0.69460 0.26400
O 	O 	0.69270 0.66449 0.63220 -0.46000
O 	O 	0.58600 0.74957 0.49370 -0.48200
C 	C 	0.17010 0.65665 0.93470 0.35700
C 	C 	0.33790 0.65106 0.80090 0.02000
H 	H 	0.40820 0.61740 0.85760 0.03200
C 	C 	0.44540 0.70977 0.81020 -0.00700
H 	H 	0.50350 0.71190 0.95190 0.05700
C 	C 	0.58670 0.70781 0.63220 0.36000
S 	S 	0.50000 0.00000 0.55320 0.56600
S 	S 	-0.00000 0.50000 0.44680 0.58500
