data_crystal

_cell_length_a 21.96300
_cell_length_b 7.65770
_cell_length_c 6.16890
_cell_angle_alpha 90.00000
_cell_angle_beta  91.48000
_cell_angle_gamma 90.00000

_symmetry_space_group_name_	'P 1'
_symmetry_space_group_name_H-M	'P 1'

loop_
_symmetry_equiv_pos_as_xyz
  x,y,z

loop_
_atom_site_label
_atom_site_type_symbol
_atom_site_fract_x
_atom_site_fract_y
_atom_site_fract_z
_atom_site_charge
Ce	Ce	0.35468 0.74659 0.94994 2.19100
O 	O 	0.45610 0.63830 0.11420 -0.44500
O 	O 	0.46270 0.85580 0.85140 -0.40900
O 	O 	0.34400 0.79890 0.34450 -0.47600
O 	O 	0.34090 0.95550 0.64660 -0.45000
O 	O 	0.36230 0.05590 0.09720 -0.51200
H 	H 	0.39380 0.11290 0.06130 0.24500
O 	O 	0.23679 0.10920 0.28250 -0.47200
H 	H 	0.24510 0.02420 0.19860 0.26200
O 	O 	0.33530 0.46180 0.13920 -0.44500
O 	O 	0.24990 0.35450 0.99560 -0.42000
C 	C 	0.34440 0.93920 0.44530 0.32800
C 	C 	0.34960 0.10740 0.30930 0.05600
H 	H 	0.38320 0.17890 0.36750 0.03200
C 	C 	0.29030 0.21230 0.31380 -0.01500
H 	H 	0.28820 0.27020 0.45510 0.07300
C 	C 	0.29290 0.35430 0.13720 0.32100
O 	O 	0.38850 0.54780 0.64310 -0.79800
H 	H 	0.41620 0.49150 0.57580 0.36400
H 	H 	0.36670 0.61300 0.55800 0.31500
Ce	Ce	0.85468 0.24659 0.94994 2.19700
O 	O 	0.95610 0.13830 0.11420 -0.39600
O 	O 	0.96270 0.35580 0.85140 -0.36500
O 	O 	0.84400 0.29890 0.34450 -0.46900
O 	O 	0.84090 0.45550 0.64660 -0.44200
O 	O 	0.86230 0.55590 0.09720 -0.52100
H 	H 	0.89380 0.61290 0.06130 0.23800
O 	O 	0.73679 0.60920 0.28250 -0.47800
H 	H 	0.74510 0.52420 0.19860 0.24700
O 	O 	0.83530 0.96180 0.13920 -0.47100
O 	O 	0.74990 0.85450 0.99560 -0.44300
C 	C 	0.84440 0.43920 0.44530 0.36900
C 	C 	0.84960 0.60740 0.30930 0.01700
H 	H 	0.88320 0.67890 0.36750 0.03400
C 	C 	0.79030 0.71230 0.31380 -0.00900
H 	H 	0.78820 0.77020 0.45510 0.06000
C 	C 	0.79290 0.85430 0.13720 0.32400
O 	O 	0.88850 0.04780 0.64310 -0.72200
H 	H 	0.91620 0.99150 0.57580 0.30800
H 	H 	0.86670 0.11300 0.55800 0.29900
Ce	Ce	0.64532 0.74659 0.05006 2.15400
O 	O 	0.54390 0.63830 0.88580 -0.40200
O 	O 	0.53730 0.85580 0.14860 -0.44800
O 	O 	0.65600 0.79890 0.65550 -0.46700
O 	O 	0.65910 0.95550 0.35340 -0.46700
O 	O 	0.63770 0.05590 0.90280 -0.49300
H 	H 	0.60620 0.11290 0.93870 0.26300
O 	O 	0.76321 0.10920 0.71750 -0.45600
H 	H 	0.75490 0.02420 0.80140 0.26600
O 	O 	0.66470 0.46180 0.86080 -0.44300
O 	O 	0.75010 0.35450 0.00440 -0.51200
C 	C 	0.65560 0.93920 0.55470 0.33000
C 	C 	0.65040 0.10740 0.69070 0.06200
H 	H 	0.61680 0.17890 0.63250 0.02900
C 	C 	0.70970 0.21230 0.68620 -0.04000
H 	H 	0.71180 0.27020 0.54490 0.07700
C 	C 	0.70710 0.35430 0.86280 0.41700
O 	O 	0.61150 0.54780 0.35690 -0.81700
H 	H 	0.58380 0.49150 0.42420 0.36600
H 	H 	0.63330 0.61300 0.44200 0.32000
Ce	Ce	0.14532 0.24659 0.05006 2.16000
O 	O 	0.04390 0.13830 0.88580 -0.37900
O 	O 	0.03730 0.35580 0.14860 -0.42900
O 	O 	0.15600 0.29890 0.65550 -0.46100
O 	O 	0.15910 0.45550 0.35340 -0.46100
O 	O 	0.13770 0.55590 0.90280 -0.50200
H 	H 	0.10620 0.61290 0.93870 0.24900
O 	O 	0.26321 0.60920 0.71750 -0.46200
H 	H 	0.25490 0.52420 0.80140 0.25100
O 	O 	0.16470 0.96180 0.86080 -0.47100
O 	O 	0.25010 0.85450 0.00440 -0.53500
C 	C 	0.15560 0.43920 0.55470 0.36700
C 	C 	0.15040 0.60740 0.69070 0.02400
H 	H 	0.11680 0.67890 0.63250 0.02600
C 	C 	0.20970 0.71230 0.68620 -0.03500
H 	H 	0.21180 0.77020 0.54490 0.06400
C 	C 	0.20710 0.85430 0.86280 0.41900
O 	O 	0.11150 0.04780 0.35690 -0.74100
H 	H 	0.08380 0.99150 0.42420 0.30000
H 	H 	0.13330 0.11300 0.44200 0.30300
S 	S 	0.50000 0.74510 -0.00000 0.56500
S 	S 	-0.00000 0.24510 -0.00000 0.48700
