data_crystal

_cell_length_a 8.77500
_cell_length_b 8.77500
_cell_length_c 20.54600
_cell_angle_alpha 90.00000
_cell_angle_beta  90.00000
_cell_angle_gamma 120.00000

_symmetry_space_group_name_	'P 1'
_symmetry_space_group_name_H-M	'P 1'

loop_
_symmetry_equiv_pos_as_xyz
  x,y,z

loop_
_atom_site_label
_atom_site_type_symbol
_atom_site_fract_x
_atom_site_fract_y
_atom_site_fract_z
_atom_site_charge
Cd	Cd	-0.00000 0.00000 -0.00000 1.07000
Cd	Cd	-0.00000 0.00000 0.50000 1.09100
Cd	Cd	0.33333 0.66667 0.11476 1.14900
C 	C 	0.33333 0.66667 0.22200 -0.27500
Cd	Cd	0.66667 0.33333 0.61476 1.15300
C 	C 	0.66667 0.33333 0.72200 -0.27100
Cd	Cd	0.66667 0.33333 0.88524 1.15600
C 	C 	0.66667 0.33333 0.77800 -0.26800
Cd	Cd	0.33333 0.66667 0.38524 1.15300
C 	C 	0.33333 0.66667 0.27800 -0.27200
N 	N 	0.12770 0.25540 0.06060 -0.25600
C 	C 	0.19440 0.38880 0.08110 -0.33700
N 	N 	0.74460 0.87230 0.06060 -0.15500
C 	C 	0.61120 0.80560 0.08110 -0.25900
N 	N 	0.12770 0.87230 0.06060 -0.20000
C 	C 	0.19440 0.80560 0.08110 -0.29500
N 	N 	0.87230 0.74460 0.56060 -0.14500
C 	C 	0.80560 0.61120 0.58110 -0.24200
N 	N 	0.25540 0.12770 0.56060 -0.24500
C 	C 	0.38880 0.19440 0.58110 -0.32000
N 	N 	0.87230 0.12770 0.56060 -0.19500
C 	C 	0.80560 0.19440 0.58110 -0.28200
N 	N 	0.25540 0.12770 0.93940 -0.22900
C 	C 	0.38880 0.19440 0.91890 -0.30200
N 	N 	0.87230 0.74460 0.93940 -0.13100
C 	C 	0.80560 0.61120 0.91890 -0.22600
N 	N 	0.87230 0.12770 0.93940 -0.18000
C 	C 	0.80560 0.19440 0.91890 -0.26500
N 	N 	0.74460 0.87230 0.43940 -0.14500
C 	C 	0.61120 0.80560 0.41890 -0.24300
N 	N 	0.12770 0.25540 0.43940 -0.24600
C 	C 	0.19440 0.38880 0.41890 -0.32000
N 	N 	0.12770 0.87230 0.43940 -0.19000
C 	C 	0.19440 0.80560 0.41890 -0.27800
