data_crystal

_cell_length_a 21.34770
_cell_length_b 22.98620
_cell_length_c 24.29700
_cell_angle_alpha 90.00000
_cell_angle_beta  90.00000
_cell_angle_gamma 90.00000

_symmetry_space_group_name_	'P 1'
_symmetry_space_group_name_H-M	'P 1'

loop_
_symmetry_equiv_pos_as_xyz
  x,y,z

loop_
_atom_site_label
_atom_site_type_symbol
_atom_site_fract_x
_atom_site_fract_y
_atom_site_fract_z
_atom_site_charge
Zn	Zn	0.93796 0.99819 0.21204 1.17200
N 	N 	0.96110 0.06600 0.16610 -0.28700
N 	N 	0.99190 0.11960 0.09630 -0.13900
N 	N 	0.91910 0.06890 0.83640 -0.29100
N 	N 	0.88330 0.11850 0.90620 -0.12900
N 	N 	0.80540 0.23000 0.40560 -0.12100
N 	N 	0.75330 0.22940 0.48440 -0.28100
N 	N 	0.86350 0.02210 0.25570 -0.28700
N 	N 	0.77700 0.06870 0.27770 -0.11500
C 	C 	0.98410 0.06720 0.11460 0.09800
H 	H 	0.99360 0.03320 0.09390 -0.02900
C 	C 	0.97480 0.15970 0.13640 0.00200
H 	H 	0.97720 0.20100 0.13470 0.02000
C 	C 	0.95410 0.12640 0.17840 -0.01300
H 	H 	0.93710 0.14120 0.21170 0.00700
C 	C 	0.01670 0.13340 0.04100 0.05300
C 	C 	0.97030 0.11770 0.99420 -0.02800
C 	C 	0.91510 0.16110 0.99430 -0.00300
C 	C 	0.85880 0.13300 0.96380 0.00900
C 	C 	0.89290 0.06490 0.88430 0.09500
H 	H 	0.88200 0.02930 0.90170 -0.02700
C 	C 	0.90210 0.15460 0.87200 0.02300
H 	H 	0.90250 0.19560 0.87720 0.01500
C 	C 	0.92290 0.12530 0.82400 -0.00800
H 	H 	0.93660 0.14210 0.79040 -0.00200
C 	C 	0.75530 0.25020 0.43160 0.07000
H 	H 	0.72510 0.27540 0.41580 -0.01900
C 	C 	0.80800 0.19120 0.49020 -0.03600
H 	H 	0.81970 0.16780 0.52070 0.01600
C 	C 	0.83680 0.19750 0.44270 0.01900
H 	H 	0.87640 0.18040 0.43510 0.01900
C 	C 	0.81820 0.24150 0.34670 -0.04600
H 	H 	0.78940 0.27230 0.33350 0.03800
H 	H 	0.86160 0.25600 0.34270 0.03800
C 	C 	0.80980 0.18640 0.31060 -0.09200
H 	H 	0.81580 0.19650 0.27140 0.04700
H 	H 	0.84140 0.15680 0.32090 0.05600
C 	C 	0.74370 0.16190 0.31940 -0.09100
H 	H 	0.71260 0.19380 0.31690 0.04700
H 	H 	0.74060 0.14450 0.35650 0.05700
C 	C 	0.72930 0.11530 0.27530 -0.04700
H 	H 	0.68720 0.09860 0.28190 0.03900
H 	H 	0.72950 0.13340 0.23840 0.03800
C 	C 	0.82420 0.06200 0.24060 0.08500
H 	H 	0.82790 0.08400 0.20760 -0.02600
C 	C 	0.78580 0.02720 0.32040 -0.01600
H 	H 	0.76020 0.02020 0.35170 0.03100
C 	C 	0.84120 0.99930 0.30500 0.00600
H 	H 	0.86080 0.96900 0.32520 -0.00000
C 	C 	0.96590 0.15470 0.00100 -0.02200
C 	C 	0.90860 0.11350 0.00600 -0.00400
Zn	Zn	0.93796 0.49819 0.71204 1.17100
N 	N 	0.96110 0.56600 0.66610 -0.28900
N 	N 	0.99190 0.61960 0.59630 -0.14100
N 	N 	0.91910 0.56890 0.33640 -0.29200
N 	N 	0.88330 0.61850 0.40620 -0.12900
N 	N 	0.80540 0.73000 0.90560 -0.12100
N 	N 	0.75330 0.72940 0.98440 -0.28100
N 	N 	0.86350 0.52210 0.75570 -0.28700
N 	N 	0.77700 0.56870 0.77770 -0.11500
C 	C 	0.98410 0.56720 0.61460 0.09800
H 	H 	0.99360 0.53320 0.59390 -0.03000
C 	C 	0.97480 0.65970 0.63640 0.00200
H 	H 	0.97720 0.70100 0.63470 0.02000
C 	C 	0.95410 0.62640 0.67840 -0.01300
H 	H 	0.93710 0.64120 0.71170 0.00700
C 	C 	0.01670 0.63340 0.54100 0.05400
C 	C 	0.97030 0.61770 0.49420 -0.01900
C 	C 	0.91510 0.66110 0.49430 0.00500
C 	C 	0.85880 0.63300 0.46380 0.00800
C 	C 	0.89290 0.56490 0.38430 0.09500
H 	H 	0.88200 0.52930 0.40170 -0.02700
C 	C 	0.90210 0.65460 0.37200 0.02200
H 	H 	0.90250 0.69560 0.37720 0.01500
C 	C 	0.92290 0.62530 0.32400 -0.00800
H 	H 	0.93660 0.64210 0.29040 -0.00200
C 	C 	0.75530 0.75020 0.93160 0.07000
H 	H 	0.72510 0.77540 0.91580 -0.01900
C 	C 	0.80800 0.69120 0.99020 -0.03500
H 	H 	0.81970 0.66780 0.02070 0.01600
C 	C 	0.83680 0.69750 0.94270 0.01900
H 	H 	0.87640 0.68040 0.93510 0.01900
C 	C 	0.81820 0.74150 0.84670 -0.04600
H 	H 	0.78940 0.77230 0.83350 0.03800
H 	H 	0.86160 0.75600 0.84270 0.03800
C 	C 	0.80980 0.68640 0.81060 -0.09200
H 	H 	0.81580 0.69650 0.77140 0.04700
H 	H 	0.84140 0.65680 0.82090 0.05600
C 	C 	0.74370 0.66190 0.81940 -0.09100
H 	H 	0.71260 0.69380 0.81690 0.04700
H 	H 	0.74060 0.64450 0.85650 0.05700
C 	C 	0.72930 0.61530 0.77530 -0.04700
H 	H 	0.68720 0.59860 0.78190 0.03900
H 	H 	0.72950 0.63340 0.73840 0.03800
C 	C 	0.82420 0.56200 0.74060 0.08500
H 	H 	0.82790 0.58400 0.70760 -0.02600
C 	C 	0.78580 0.52720 0.82040 -0.01700
H 	H 	0.76020 0.52020 0.85170 0.03100
C 	C 	0.84120 0.49930 0.80500 0.00600
H 	H 	0.86080 0.46900 0.82520 -0.00000
C 	C 	0.96590 0.65470 0.50100 -0.03400
C 	C 	0.90860 0.61350 0.50600 -0.01000
Zn	Zn	0.43796 0.99819 0.71204 1.17500
N 	N 	0.46110 0.06600 0.66610 -0.28500
N 	N 	0.49190 0.11960 0.59630 -0.12600
N 	N 	0.41910 0.06890 0.33640 -0.29000
N 	N 	0.38330 0.11850 0.40620 -0.12900
N 	N 	0.30540 0.23000 0.90560 -0.12000
N 	N 	0.25330 0.22940 0.98440 -0.28100
N 	N 	0.36350 0.02210 0.75570 -0.28600
N 	N 	0.27700 0.06870 0.77770 -0.11500
C 	C 	0.48410 0.06720 0.61460 0.09900
H 	H 	0.49360 0.03320 0.59390 -0.02200
C 	C 	0.47480 0.15970 0.63640 0.00400
H 	H 	0.47720 0.20100 0.63470 0.02600
C 	C 	0.45410 0.12640 0.67840 -0.00900
H 	H 	0.43710 0.14120 0.71170 0.00800
C 	C 	0.51670 0.13340 0.54100 0.01300
C 	C 	0.47030 0.11770 0.49420 -0.02600
C 	C 	0.41510 0.16110 0.49430 -0.01900
C 	C 	0.35880 0.13300 0.46380 0.01400
C 	C 	0.39290 0.06490 0.38430 0.09700
H 	H 	0.38200 0.02930 0.40170 -0.02600
C 	C 	0.40210 0.15460 0.37200 0.02500
H 	H 	0.40250 0.19560 0.37720 0.01800
C 	C 	0.42290 0.12530 0.32400 -0.00500
H 	H 	0.43660 0.14210 0.29040 0.00300
C 	C 	0.25530 0.25020 0.93160 0.07000
H 	H 	0.22510 0.27540 0.91580 -0.01800
C 	C 	0.30800 0.19120 0.99020 -0.03500
H 	H 	0.31970 0.16780 0.02070 0.01800
C 	C 	0.33680 0.19750 0.94270 0.02000
H 	H 	0.37640 0.18040 0.93510 0.02100
C 	C 	0.31820 0.24150 0.84670 -0.04600
H 	H 	0.28940 0.27230 0.83350 0.03800
H 	H 	0.36160 0.25600 0.84270 0.03900
C 	C 	0.30980 0.18640 0.81060 -0.09300
H 	H 	0.31580 0.19650 0.77140 0.04800
H 	H 	0.34140 0.15680 0.82090 0.05700
C 	C 	0.24370 0.16190 0.81940 -0.09100
H 	H 	0.21260 0.19380 0.81690 0.04900
H 	H 	0.24060 0.14450 0.85650 0.05800
C 	C 	0.22930 0.11530 0.77530 -0.04700
H 	H 	0.18720 0.09860 0.78190 0.04000
H 	H 	0.22950 0.13340 0.73840 0.03900
C 	C 	0.32420 0.06200 0.74060 0.08500
H 	H 	0.32790 0.08400 0.70760 -0.02600
C 	C 	0.28580 0.02720 0.82040 -0.01700
H 	H 	0.26020 0.02020 0.85170 0.03200
C 	C 	0.34120 0.99930 0.80500 0.00700
H 	H 	0.36080 0.96900 0.82520 0.00200
C 	C 	0.46590 0.15470 0.50100 0.01200
C 	C 	0.40860 0.11350 0.50600 -0.00100
Zn	Zn	0.43796 0.49819 0.21204 1.17500
N 	N 	0.46110 0.56600 0.16610 -0.28500
N 	N 	0.49190 0.61960 0.09630 -0.12600
N 	N 	0.41910 0.56890 0.83640 -0.29000
N 	N 	0.38330 0.61850 0.90620 -0.12900
N 	N 	0.30540 0.73000 0.40560 -0.12000
N 	N 	0.25330 0.72940 0.48440 -0.28100
N 	N 	0.36350 0.52210 0.25570 -0.28600
N 	N 	0.27700 0.56870 0.27770 -0.11500
C 	C 	0.48410 0.56720 0.11460 0.09900
H 	H 	0.49360 0.53320 0.09390 -0.02200
C 	C 	0.47480 0.65970 0.13640 0.00400
H 	H 	0.47720 0.70100 0.13470 0.02600
C 	C 	0.45410 0.62640 0.17840 -0.00900
H 	H 	0.43710 0.64120 0.21170 0.00800
C 	C 	0.51670 0.63340 0.04100 0.01300
C 	C 	0.47030 0.61770 0.99420 -0.02300
C 	C 	0.41510 0.66110 0.99430 -0.01600
C 	C 	0.35880 0.63300 0.96380 0.01400
C 	C 	0.39290 0.56490 0.88430 0.09700
H 	H 	0.38200 0.52930 0.90170 -0.02600
C 	C 	0.40210 0.65460 0.87200 0.02500
H 	H 	0.40250 0.69560 0.87720 0.01800
C 	C 	0.42290 0.62530 0.82400 -0.00500
H 	H 	0.43660 0.64210 0.79040 0.00300
C 	C 	0.25530 0.75020 0.43160 0.07000
H 	H 	0.22510 0.77540 0.41580 -0.01800
C 	C 	0.30800 0.69120 0.49020 -0.03400
H 	H 	0.31970 0.66780 0.52070 0.01700
C 	C 	0.33680 0.69750 0.44270 0.02000
H 	H 	0.37640 0.68040 0.43510 0.02100
C 	C 	0.31820 0.74150 0.34670 -0.04600
H 	H 	0.28940 0.77230 0.33350 0.03800
H 	H 	0.36160 0.75600 0.34270 0.03900
C 	C 	0.30980 0.68640 0.31060 -0.09300
H 	H 	0.31580 0.69650 0.27140 0.04800
H 	H 	0.34140 0.65680 0.32090 0.05700
C 	C 	0.24370 0.66190 0.31940 -0.09100
H 	H 	0.21260 0.69380 0.31690 0.04900
H 	H 	0.24060 0.64450 0.35650 0.05800
C 	C 	0.22930 0.61530 0.27530 -0.04700
H 	H 	0.18720 0.59860 0.28190 0.04000
H 	H 	0.22950 0.63340 0.23840 0.03900
C 	C 	0.32420 0.56200 0.24060 0.08500
H 	H 	0.32790 0.58400 0.20760 -0.02600
C 	C 	0.28580 0.52720 0.32040 -0.01600
H 	H 	0.26020 0.52020 0.35170 0.03200
C 	C 	0.34120 0.49930 0.30500 0.00600
H 	H 	0.36080 0.46900 0.32520 0.00200
C 	C 	0.46590 0.65470 0.00100 0.00900
C 	C 	0.40860 0.61350 0.00600 -0.00300
Zn	Zn	0.93796 0.00181 0.78796 1.17100
N 	N 	0.96110 0.93400 0.83390 -0.28800
N 	N 	0.99190 0.88040 0.90370 -0.14000
N 	N 	0.91910 0.93110 0.16360 -0.29200
N 	N 	0.88330 0.88150 0.09380 -0.12900
N 	N 	0.80540 0.77000 0.59440 -0.12100
N 	N 	0.75330 0.77060 0.51560 -0.28100
N 	N 	0.86350 0.97790 0.74430 -0.28700
N 	N 	0.77700 0.93130 0.72230 -0.11500
C 	C 	0.98410 0.93280 0.88540 0.09800
H 	H 	0.99360 0.96680 0.90610 -0.02900
C 	C 	0.97480 0.84030 0.86360 0.00200
H 	H 	0.97720 0.79900 0.86530 0.02000
C 	C 	0.95410 0.87360 0.82160 -0.01300
H 	H 	0.93710 0.85880 0.78830 0.00700
C 	C 	0.01670 0.86660 0.95900 0.05300
C 	C 	0.97030 0.88230 0.00580 -0.02800
C 	C 	0.91510 0.83890 0.00570 -0.00300
C 	C 	0.85880 0.86700 0.03620 0.00900
C 	C 	0.89290 0.93510 0.11570 0.09500
H 	H 	0.88200 0.97070 0.09830 -0.02700
C 	C 	0.90210 0.84540 0.12800 0.02300
H 	H 	0.90250 0.80440 0.12280 0.01500
C 	C 	0.92290 0.87470 0.17600 -0.00800
H 	H 	0.93660 0.85790 0.20960 -0.00200
C 	C 	0.75530 0.74980 0.56840 0.07000
H 	H 	0.72510 0.72460 0.58420 -0.01900
C 	C 	0.80800 0.80880 0.50980 -0.03600
H 	H 	0.81970 0.83220 0.47930 0.01600
C 	C 	0.83680 0.80250 0.55730 0.01900
H 	H 	0.87640 0.81960 0.56490 0.01900
C 	C 	0.81820 0.75850 0.65330 -0.04600
H 	H 	0.78940 0.72770 0.66650 0.03800
H 	H 	0.86160 0.74400 0.65730 0.03800
C 	C 	0.80980 0.81360 0.68940 -0.09200
H 	H 	0.81580 0.80350 0.72860 0.04700
H 	H 	0.84140 0.84320 0.67910 0.05600
C 	C 	0.74370 0.83810 0.68060 -0.09100
H 	H 	0.71260 0.80620 0.68310 0.04700
H 	H 	0.74060 0.85550 0.64350 0.05700
C 	C 	0.72930 0.88470 0.72470 -0.04700
H 	H 	0.68720 0.90140 0.71810 0.03900
H 	H 	0.72950 0.86660 0.76160 0.03800
C 	C 	0.82420 0.93800 0.75940 0.08500
H 	H 	0.82790 0.91600 0.79240 -0.02600
C 	C 	0.78580 0.97280 0.67960 -0.01600
H 	H 	0.76020 0.97980 0.64830 0.03100
C 	C 	0.84120 0.00070 0.69500 0.00600
H 	H 	0.86080 0.03100 0.67480 -0.00000
C 	C 	0.96590 0.84530 0.99900 -0.02200
C 	C 	0.90860 0.88650 0.99400 -0.00400
Zn	Zn	0.93796 0.50181 0.28796 1.17100
N 	N 	0.96110 0.43400 0.33390 -0.28900
N 	N 	0.99190 0.38040 0.40370 -0.14100
N 	N 	0.91910 0.43110 0.66360 -0.29200
N 	N 	0.88330 0.38150 0.59380 -0.12900
N 	N 	0.80540 0.27000 0.09440 -0.12100
N 	N 	0.75330 0.27060 0.01560 -0.28100
N 	N 	0.86350 0.47790 0.24430 -0.28700
N 	N 	0.77700 0.43130 0.22230 -0.11500
C 	C 	0.98410 0.43280 0.38540 0.09800
H 	H 	0.99360 0.46680 0.40610 -0.03000
C 	C 	0.97480 0.34030 0.36360 0.00200
H 	H 	0.97720 0.29900 0.36530 0.02000
C 	C 	0.95410 0.37360 0.32160 -0.01300
H 	H 	0.93710 0.35880 0.28830 0.00700
C 	C 	0.01670 0.36660 0.45900 0.05400
C 	C 	0.97030 0.38230 0.50580 -0.01900
C 	C 	0.91510 0.33890 0.50570 0.00500
C 	C 	0.85880 0.36700 0.53620 0.00800
C 	C 	0.89290 0.43510 0.61570 0.09500
H 	H 	0.88200 0.47070 0.59830 -0.02700
C 	C 	0.90210 0.34540 0.62800 0.02200
H 	H 	0.90250 0.30440 0.62280 0.01500
C 	C 	0.92290 0.37470 0.67600 -0.00800
H 	H 	0.93660 0.35790 0.70960 -0.00200
C 	C 	0.75530 0.24980 0.06840 0.07000
H 	H 	0.72510 0.22460 0.08420 -0.01900
C 	C 	0.80800 0.30880 0.00980 -0.03500
H 	H 	0.81970 0.33220 0.97930 0.01600
C 	C 	0.83680 0.30250 0.05730 0.01900
H 	H 	0.87640 0.31960 0.06490 0.01900
C 	C 	0.81820 0.25850 0.15330 -0.04600
H 	H 	0.78940 0.22770 0.16650 0.03800
H 	H 	0.86160 0.24400 0.15730 0.03800
C 	C 	0.80980 0.31360 0.18940 -0.09200
H 	H 	0.81580 0.30350 0.22860 0.04700
H 	H 	0.84140 0.34320 0.17910 0.05600
C 	C 	0.74370 0.33810 0.18060 -0.09100
H 	H 	0.71260 0.30620 0.18310 0.04700
H 	H 	0.74060 0.35550 0.14350 0.05700
C 	C 	0.72930 0.38470 0.22470 -0.04700
H 	H 	0.68720 0.40140 0.21810 0.03900
H 	H 	0.72950 0.36660 0.26160 0.03800
C 	C 	0.82420 0.43800 0.25940 0.08500
H 	H 	0.82790 0.41600 0.29240 -0.02600
C 	C 	0.78580 0.47280 0.17960 -0.01700
H 	H 	0.76020 0.47980 0.14830 0.03100
C 	C 	0.84120 0.50070 0.19500 0.00600
H 	H 	0.86080 0.53100 0.17480 -0.00000
C 	C 	0.96590 0.34530 0.49900 -0.03400
C 	C 	0.90860 0.38650 0.49400 -0.01000
Zn	Zn	0.43796 0.00181 0.28796 1.17500
N 	N 	0.46110 0.93400 0.33390 -0.28500
N 	N 	0.49190 0.88040 0.40370 -0.12600
N 	N 	0.41910 0.93110 0.66360 -0.29000
N 	N 	0.38330 0.88150 0.59380 -0.12900
N 	N 	0.30540 0.77000 0.09440 -0.12000
N 	N 	0.25330 0.77060 0.01560 -0.28100
N 	N 	0.36350 0.97790 0.24430 -0.28600
N 	N 	0.27700 0.93130 0.22230 -0.11500
C 	C 	0.48410 0.93280 0.38540 0.09900
H 	H 	0.49360 0.96680 0.40610 -0.02200
C 	C 	0.47480 0.84030 0.36360 0.00400
H 	H 	0.47720 0.79900 0.36530 0.02600
C 	C 	0.45410 0.87360 0.32160 -0.00900
H 	H 	0.43710 0.85880 0.28830 0.00800
C 	C 	0.51670 0.86660 0.45900 0.01300
C 	C 	0.47030 0.88230 0.50580 -0.02600
C 	C 	0.41510 0.83890 0.50570 -0.01900
C 	C 	0.35880 0.86700 0.53620 0.01400
C 	C 	0.39290 0.93510 0.61570 0.09700
H 	H 	0.38200 0.97070 0.59830 -0.02600
C 	C 	0.40210 0.84540 0.62800 0.02500
H 	H 	0.40250 0.80440 0.62280 0.01800
C 	C 	0.42290 0.87470 0.67600 -0.00500
H 	H 	0.43660 0.85790 0.70960 0.00300
C 	C 	0.25530 0.74980 0.06840 0.07000
H 	H 	0.22510 0.72460 0.08420 -0.01800
C 	C 	0.30800 0.80880 0.00980 -0.03500
H 	H 	0.31970 0.83220 0.97930 0.01800
C 	C 	0.33680 0.80250 0.05730 0.02000
H 	H 	0.37640 0.81960 0.06490 0.02100
C 	C 	0.31820 0.75850 0.15330 -0.04600
H 	H 	0.28940 0.72770 0.16650 0.03800
H 	H 	0.36160 0.74400 0.15730 0.03900
C 	C 	0.30980 0.81360 0.18940 -0.09300
H 	H 	0.31580 0.80350 0.22860 0.04800
H 	H 	0.34140 0.84320 0.17910 0.05700
C 	C 	0.24370 0.83810 0.18060 -0.09100
H 	H 	0.21260 0.80620 0.18310 0.04900
H 	H 	0.24060 0.85550 0.14350 0.05800
C 	C 	0.22930 0.88470 0.22470 -0.04700
H 	H 	0.18720 0.90140 0.21810 0.04000
H 	H 	0.22950 0.86660 0.26160 0.03900
C 	C 	0.32420 0.93800 0.25940 0.08500
H 	H 	0.32790 0.91600 0.29240 -0.02600
C 	C 	0.28580 0.97280 0.17960 -0.01700
H 	H 	0.26020 0.97980 0.14830 0.03200
C 	C 	0.34120 0.00070 0.19500 0.00700
H 	H 	0.36080 0.03100 0.17480 0.00200
C 	C 	0.46590 0.84530 0.49900 0.01200
C 	C 	0.40860 0.88650 0.49400 -0.00100
Zn	Zn	0.43796 0.50181 0.78796 1.17500
N 	N 	0.46110 0.43400 0.83390 -0.28500
N 	N 	0.49190 0.38040 0.90370 -0.12600
N 	N 	0.41910 0.43110 0.16360 -0.29000
N 	N 	0.38330 0.38150 0.09380 -0.12900
N 	N 	0.30540 0.27000 0.59440 -0.12000
N 	N 	0.25330 0.27060 0.51560 -0.28100
N 	N 	0.36350 0.47790 0.74430 -0.28600
N 	N 	0.27700 0.43130 0.72230 -0.11500
C 	C 	0.48410 0.43280 0.88540 0.09900
H 	H 	0.49360 0.46680 0.90610 -0.02200
C 	C 	0.47480 0.34030 0.86360 0.00400
H 	H 	0.47720 0.29900 0.86530 0.02600
C 	C 	0.45410 0.37360 0.82160 -0.00900
H 	H 	0.43710 0.35880 0.78830 0.00800
C 	C 	0.51670 0.36660 0.95900 0.01300
C 	C 	0.47030 0.38230 0.00580 -0.02300
C 	C 	0.41510 0.33890 0.00570 -0.01600
C 	C 	0.35880 0.36700 0.03620 0.01400
C 	C 	0.39290 0.43510 0.11570 0.09700
H 	H 	0.38200 0.47070 0.09830 -0.02600
C 	C 	0.40210 0.34540 0.12800 0.02500
H 	H 	0.40250 0.30440 0.12280 0.01800
C 	C 	0.42290 0.37470 0.17600 -0.00500
H 	H 	0.43660 0.35790 0.20960 0.00300
C 	C 	0.25530 0.24980 0.56840 0.07000
H 	H 	0.22510 0.22460 0.58420 -0.01800
C 	C 	0.30800 0.30880 0.50980 -0.03400
H 	H 	0.31970 0.33220 0.47930 0.01700
C 	C 	0.33680 0.30250 0.55730 0.02000
H 	H 	0.37640 0.31960 0.56490 0.02100
C 	C 	0.31820 0.25850 0.65330 -0.04600
H 	H 	0.28940 0.22770 0.66650 0.03800
H 	H 	0.36160 0.24400 0.65730 0.03900
C 	C 	0.30980 0.31360 0.68940 -0.09300
H 	H 	0.31580 0.30350 0.72860 0.04800
H 	H 	0.34140 0.34320 0.67910 0.05700
C 	C 	0.24370 0.33810 0.68060 -0.09100
H 	H 	0.21260 0.30620 0.68310 0.04900
H 	H 	0.24060 0.35550 0.64350 0.05800
C 	C 	0.22930 0.38470 0.72470 -0.04700
H 	H 	0.18720 0.40140 0.71810 0.04000
H 	H 	0.22950 0.36660 0.76160 0.03900
C 	C 	0.32420 0.43800 0.75940 0.08500
H 	H 	0.32790 0.41600 0.79240 -0.02600
C 	C 	0.28580 0.47280 0.67960 -0.01600
H 	H 	0.26020 0.47980 0.64830 0.03200
C 	C 	0.34120 0.50070 0.69500 0.00600
H 	H 	0.36080 0.53100 0.67480 0.00200
C 	C 	0.46590 0.34530 0.99900 0.00900
C 	C 	0.40860 0.38650 0.99400 -0.00300
Zn	Zn	0.68796 0.74819 0.03796 1.17500
N 	N 	0.71110 0.81600 0.08390 -0.28500
N 	N 	0.74190 0.86960 0.15370 -0.12600
N 	N 	0.66910 0.81890 0.41360 -0.29000
N 	N 	0.63330 0.86850 0.34380 -0.12900
N 	N 	0.55540 0.98000 0.84440 -0.12000
N 	N 	0.50330 0.97940 0.76560 -0.28100
N 	N 	0.61350 0.77210 0.99430 -0.28500
N 	N 	0.52700 0.81870 0.97230 -0.11500
C 	C 	0.73410 0.81720 0.13540 0.09900
H 	H 	0.74360 0.78320 0.15610 -0.02300
C 	C 	0.72480 0.90970 0.11360 0.00400
H 	H 	0.72720 0.95100 0.11530 0.02600
C 	C 	0.70410 0.87640 0.07160 -0.00900
H 	H 	0.68710 0.89120 0.03830 0.00800
C 	C 	0.76670 0.88340 0.20900 0.01200
C 	C 	0.72030 0.86770 0.25580 -0.02800
C 	C 	0.66510 0.91110 0.25570 -0.02000
C 	C 	0.60880 0.88300 0.28620 0.01400
C 	C 	0.64290 0.81490 0.36570 0.09600
H 	H 	0.63200 0.77930 0.34830 -0.02600
C 	C 	0.65210 0.90460 0.37800 0.02500
H 	H 	0.65250 0.94560 0.37280 0.01800
C 	C 	0.67290 0.87530 0.42600 -0.00500
H 	H 	0.68660 0.89210 0.45960 0.00300
C 	C 	0.50530 0.00020 0.81840 0.07000
H 	H 	0.47510 0.02540 0.83420 -0.01900
C 	C 	0.55800 0.94120 0.75980 -0.03500
H 	H 	0.56970 0.91780 0.72930 0.01700
C 	C 	0.58680 0.94750 0.80730 0.02000
H 	H 	0.62640 0.93040 0.81490 0.02100
C 	C 	0.56820 0.99150 0.90330 -0.04400
H 	H 	0.53940 0.02230 0.91650 0.03700
H 	H 	0.61160 0.00600 0.90730 0.03800
C 	C 	0.55980 0.93640 0.93940 -0.09400
H 	H 	0.56580 0.94650 0.97860 0.04800
H 	H 	0.59140 0.90680 0.92910 0.05800
C 	C 	0.49370 0.91190 0.93060 -0.09000
H 	H 	0.46260 0.94380 0.93310 0.04800
H 	H 	0.49060 0.89450 0.89350 0.05700
C 	C 	0.47930 0.86530 0.97470 -0.04600
H 	H 	0.43720 0.84860 0.96810 0.03800
H 	H 	0.47950 0.88340 0.01160 0.03800
C 	C 	0.57420 0.81200 0.00940 0.08500
H 	H 	0.57790 0.83400 0.04240 -0.02600
C 	C 	0.53580 0.77720 0.92960 -0.01600
H 	H 	0.51020 0.77020 0.89830 0.03100
C 	C 	0.59120 0.74930 0.94500 0.00600
H 	H 	0.61080 0.71900 0.92480 0.00200
C 	C 	0.71590 0.90470 0.24900 0.01500
C 	C 	0.65860 0.86350 0.24400 -0.00000
Zn	Zn	0.68796 0.24819 0.53796 1.17500
N 	N 	0.71110 0.31600 0.58390 -0.28500
N 	N 	0.74190 0.36960 0.65370 -0.12600
N 	N 	0.66910 0.31890 0.91360 -0.29000
N 	N 	0.63330 0.36850 0.84380 -0.12900
N 	N 	0.55540 0.48000 0.34440 -0.12000
N 	N 	0.50330 0.47940 0.26560 -0.28100
N 	N 	0.61350 0.27210 0.49430 -0.28600
N 	N 	0.52700 0.31870 0.47230 -0.11500
C 	C 	0.73410 0.31720 0.63540 0.09900
H 	H 	0.74360 0.28320 0.65610 -0.02300
C 	C 	0.72480 0.40970 0.61360 0.00400
H 	H 	0.72720 0.45100 0.61530 0.02600
C 	C 	0.70410 0.37640 0.57160 -0.00900
H 	H 	0.68710 0.39120 0.53830 0.00800
C 	C 	0.76670 0.38340 0.70900 0.01200
C 	C 	0.72030 0.36770 0.75580 -0.02800
C 	C 	0.66510 0.41110 0.75570 -0.02000
C 	C 	0.60880 0.38300 0.78620 0.01400
C 	C 	0.64290 0.31490 0.86570 0.09600
H 	H 	0.63200 0.27930 0.84830 -0.02600
C 	C 	0.65210 0.40460 0.87800 0.02500
H 	H 	0.65250 0.44560 0.87280 0.01800
C 	C 	0.67290 0.37530 0.92600 -0.00500
H 	H 	0.68660 0.39210 0.95960 0.00300
C 	C 	0.50530 0.50020 0.31840 0.07000
H 	H 	0.47510 0.52540 0.33420 -0.01900
C 	C 	0.55800 0.44120 0.25980 -0.03500
H 	H 	0.56970 0.41780 0.22930 0.01700
C 	C 	0.58680 0.44750 0.30730 0.02000
H 	H 	0.62640 0.43040 0.31490 0.02100
C 	C 	0.56820 0.49150 0.40330 -0.04500
H 	H 	0.53940 0.52230 0.41650 0.03800
H 	H 	0.61160 0.50600 0.40730 0.03900
C 	C 	0.55980 0.43640 0.43940 -0.09300
H 	H 	0.56580 0.44650 0.47860 0.04800
H 	H 	0.59140 0.40680 0.42910 0.05700
C 	C 	0.49370 0.41190 0.43060 -0.09000
H 	H 	0.46260 0.44380 0.43310 0.04700
H 	H 	0.49060 0.39450 0.39350 0.05700
C 	C 	0.47930 0.36530 0.47470 -0.04700
H 	H 	0.43720 0.34860 0.46810 0.03900
H 	H 	0.47950 0.38340 0.51160 0.03800
C 	C 	0.57420 0.31200 0.50940 0.08500
H 	H 	0.57790 0.33400 0.54240 -0.02600
C 	C 	0.53580 0.27720 0.42960 -0.01600
H 	H 	0.51020 0.27020 0.39830 0.03100
C 	C 	0.59120 0.24930 0.44500 0.00600
H 	H 	0.61080 0.21900 0.42480 0.00200
C 	C 	0.71590 0.40470 0.74900 0.01500
C 	C 	0.65860 0.36350 0.74400 -0.00000
Zn	Zn	0.18796 0.74819 0.53796 1.17500
N 	N 	0.21110 0.81600 0.58390 -0.28500
N 	N 	0.24190 0.86960 0.65370 -0.12600
N 	N 	0.16910 0.81890 0.91360 -0.28900
N 	N 	0.13330 0.86850 0.84380 -0.12800
N 	N 	0.05540 0.98000 0.34440 -0.12400
N 	N 	0.00330 0.97940 0.26560 -0.27900
N 	N 	0.11350 0.77210 0.49430 -0.28500
N 	N 	0.02700 0.81870 0.47230 -0.10400
C 	C 	0.23410 0.81720 0.63540 0.10000
H 	H 	0.24360 0.78320 0.65610 -0.02200
C 	C 	0.22480 0.90970 0.61360 0.00400
H 	H 	0.22720 0.95100 0.61530 0.02600
C 	C 	0.20410 0.87640 0.57160 -0.00800
H 	H 	0.18710 0.89120 0.53830 0.00900
C 	C 	0.26670 0.88340 0.70900 0.01300
C 	C 	0.22030 0.86770 0.75580 -0.03000
C 	C 	0.16510 0.91110 0.75570 -0.02300
C 	C 	0.10880 0.88300 0.78620 0.02200
C 	C 	0.14290 0.81490 0.86570 0.09900
H 	H 	0.13200 0.77930 0.84830 -0.02400
C 	C 	0.15210 0.90460 0.87800 0.02700
H 	H 	0.15250 0.94560 0.87280 0.02000
C 	C 	0.17290 0.87530 0.92600 -0.00400
H 	H 	0.18660 0.89210 0.95960 0.00400
C 	C 	0.00530 0.00020 0.31840 0.11600
H 	H 	0.97510 0.02540 0.33420 -0.05000
C 	C 	0.05800 0.94120 0.25980 -0.03100
H 	H 	0.06970 0.91780 0.22930 0.02100
C 	C 	0.08680 0.94750 0.30730 0.02000
H 	H 	0.12640 0.93040 0.31490 0.02200
C 	C 	0.06820 0.99150 0.40330 -0.05400
H 	H 	0.03940 0.02230 0.41650 0.04800
H 	H 	0.11160 0.00600 0.40730 0.04300
C 	C 	0.05980 0.93640 0.43940 -0.05900
H 	H 	0.06580 0.94650 0.47860 0.04200
H 	H 	0.09140 0.90680 0.42910 0.05000
C 	C 	0.99370 0.91190 0.43060 -0.12000
H 	H 	0.96260 0.94380 0.43310 0.05000
H 	H 	0.99060 0.89450 0.39350 0.05600
C 	C 	0.97930 0.86530 0.47470 -0.05700
H 	H 	0.93720 0.84860 0.46810 0.03800
H 	H 	0.97950 0.88340 0.51160 0.03300
C 	C 	0.07420 0.81200 0.50940 0.08800
H 	H 	0.07790 0.83400 0.54240 -0.02200
C 	C 	0.03580 0.77720 0.42960 -0.01200
H 	H 	0.01020 0.77020 0.39830 0.03900
C 	C 	0.09120 0.74930 0.44500 0.00900
H 	H 	0.11080 0.71900 0.42480 0.00400
C 	C 	0.21590 0.90470 0.74900 0.01900
C 	C 	0.15860 0.86350 0.74400 0.00300
Zn	Zn	0.18796 0.24819 0.03796 1.17600
N 	N 	0.21110 0.31600 0.08390 -0.28500
N 	N 	0.24190 0.36960 0.15370 -0.12600
N 	N 	0.16910 0.31890 0.41360 -0.28900
N 	N 	0.13330 0.36850 0.34380 -0.12800
N 	N 	0.05540 0.48000 0.84440 -0.12400
N 	N 	0.00330 0.47940 0.76560 -0.27900
N 	N 	0.11350 0.27210 0.99430 -0.28500
N 	N 	0.02700 0.31870 0.97230 -0.10500
C 	C 	0.23410 0.31720 0.13540 0.10000
H 	H 	0.24360 0.28320 0.15610 -0.02200
C 	C 	0.22480 0.40970 0.11360 0.00400
H 	H 	0.22720 0.45100 0.11530 0.02600
C 	C 	0.20410 0.37640 0.07160 -0.00800
H 	H 	0.18710 0.39120 0.03830 0.00900
C 	C 	0.26670 0.38340 0.20900 0.01300
C 	C 	0.22030 0.36770 0.25580 -0.03000
C 	C 	0.16510 0.41110 0.25570 -0.02300
C 	C 	0.10880 0.38300 0.28620 0.02200
C 	C 	0.14290 0.31490 0.36570 0.09900
H 	H 	0.13200 0.27930 0.34830 -0.02400
C 	C 	0.15210 0.40460 0.37800 0.02700
H 	H 	0.15250 0.44560 0.37280 0.02000
C 	C 	0.17290 0.37530 0.42600 -0.00400
H 	H 	0.18660 0.39210 0.45960 0.00400
C 	C 	0.00530 0.50020 0.81840 0.11600
H 	H 	0.97510 0.52540 0.83420 -0.05000
C 	C 	0.05800 0.44120 0.75980 -0.03100
H 	H 	0.06970 0.41780 0.72930 0.02100
C 	C 	0.08680 0.44750 0.80730 0.02000
H 	H 	0.12640 0.43040 0.81490 0.02200
C 	C 	0.06820 0.49150 0.90330 -0.05400
H 	H 	0.03940 0.52230 0.91650 0.04800
H 	H 	0.11160 0.50600 0.90730 0.04200
C 	C 	0.05980 0.43640 0.93940 -0.05900
H 	H 	0.06580 0.44650 0.97860 0.04200
H 	H 	0.09140 0.40680 0.92910 0.05000
C 	C 	0.99370 0.41190 0.93060 -0.12000
H 	H 	0.96260 0.44380 0.93310 0.05000
H 	H 	0.99060 0.39450 0.89350 0.05600
C 	C 	0.97930 0.36530 0.97470 -0.05700
H 	H 	0.93720 0.34860 0.96810 0.03800
H 	H 	0.97950 0.38340 0.01160 0.03400
C 	C 	0.07420 0.31200 0.00940 0.08800
H 	H 	0.07790 0.33400 0.04240 -0.02200
C 	C 	0.03580 0.27720 0.92960 -0.01200
H 	H 	0.01020 0.27020 0.89830 0.03900
C 	C 	0.09120 0.24930 0.94500 0.00800
H 	H 	0.11080 0.21900 0.92480 0.00400
C 	C 	0.21590 0.40470 0.24900 0.01900
C 	C 	0.15860 0.36350 0.24400 0.00300
Zn	Zn	0.68796 0.75181 0.46204 1.17500
N 	N 	0.71110 0.68400 0.41610 -0.28500
N 	N 	0.74190 0.63040 0.34630 -0.12600
N 	N 	0.66910 0.68110 0.08640 -0.29000
N 	N 	0.63330 0.63150 0.15620 -0.12900
N 	N 	0.55540 0.52000 0.65560 -0.12000
N 	N 	0.50330 0.52060 0.73440 -0.28100
N 	N 	0.61350 0.72790 0.50570 -0.28600
N 	N 	0.52700 0.68130 0.52770 -0.11500
C 	C 	0.73410 0.68280 0.36460 0.09900
H 	H 	0.74360 0.71680 0.34390 -0.02300
C 	C 	0.72480 0.59030 0.38640 0.00400
H 	H 	0.72720 0.54900 0.38470 0.02600
C 	C 	0.70410 0.62360 0.42840 -0.00900
H 	H 	0.68710 0.60880 0.46170 0.00800
C 	C 	0.76670 0.61660 0.29100 0.01200
C 	C 	0.72030 0.63230 0.24420 -0.02800
C 	C 	0.66510 0.58890 0.24430 -0.02000
C 	C 	0.60880 0.61700 0.21380 0.01400
C 	C 	0.64290 0.68510 0.13430 0.09600
H 	H 	0.63200 0.72070 0.15170 -0.02600
C 	C 	0.65210 0.59540 0.12200 0.02500
H 	H 	0.65250 0.55440 0.12720 0.01800
C 	C 	0.67290 0.62470 0.07400 -0.00500
H 	H 	0.68660 0.60790 0.04040 0.00300
C 	C 	0.50530 0.49980 0.68160 0.07000
H 	H 	0.47510 0.47460 0.66580 -0.01900
C 	C 	0.55800 0.55880 0.74020 -0.03500
H 	H 	0.56970 0.58220 0.77070 0.01700
C 	C 	0.58680 0.55250 0.69270 0.02000
H 	H 	0.62640 0.56960 0.68510 0.02100
C 	C 	0.56820 0.50850 0.59670 -0.04500
H 	H 	0.53940 0.47770 0.58350 0.03800
H 	H 	0.61160 0.49400 0.59270 0.03900
C 	C 	0.55980 0.56360 0.56060 -0.09300
H 	H 	0.56580 0.55350 0.52140 0.04800
H 	H 	0.59140 0.59320 0.57090 0.05700
C 	C 	0.49370 0.58810 0.56940 -0.09000
H 	H 	0.46260 0.55620 0.56690 0.04700
H 	H 	0.49060 0.60550 0.60650 0.05700
C 	C 	0.47930 0.63470 0.52530 -0.04700
H 	H 	0.43720 0.65140 0.53190 0.03900
H 	H 	0.47950 0.61660 0.48840 0.03800
C 	C 	0.57420 0.68800 0.49060 0.08500
H 	H 	0.57790 0.66600 0.45760 -0.02600
C 	C 	0.53580 0.72280 0.57040 -0.01600
H 	H 	0.51020 0.72980 0.60170 0.03100
C 	C 	0.59120 0.75070 0.55500 0.00600
H 	H 	0.61080 0.78100 0.57520 0.00200
C 	C 	0.71590 0.59530 0.25100 0.01500
C 	C 	0.65860 0.63650 0.25600 -0.00000
Zn	Zn	0.68796 0.25181 0.96204 1.17500
N 	N 	0.71110 0.18400 0.91610 -0.28500
N 	N 	0.74190 0.13040 0.84630 -0.12600
N 	N 	0.66910 0.18110 0.58640 -0.29000
N 	N 	0.63330 0.13150 0.65620 -0.12900
N 	N 	0.55540 0.02000 0.15560 -0.12000
N 	N 	0.50330 0.02060 0.23440 -0.28100
N 	N 	0.61350 0.22790 0.00570 -0.28500
N 	N 	0.52700 0.18130 0.02770 -0.11500
C 	C 	0.73410 0.18280 0.86460 0.09900
H 	H 	0.74360 0.21680 0.84390 -0.02300
C 	C 	0.72480 0.09030 0.88640 0.00400
H 	H 	0.72720 0.04900 0.88470 0.02600
C 	C 	0.70410 0.12360 0.92840 -0.00900
H 	H 	0.68710 0.10880 0.96170 0.00800
C 	C 	0.76670 0.11660 0.79100 0.01200
C 	C 	0.72030 0.13230 0.74420 -0.02800
C 	C 	0.66510 0.08890 0.74430 -0.02000
C 	C 	0.60880 0.11700 0.71380 0.01400
C 	C 	0.64290 0.18510 0.63430 0.09600
H 	H 	0.63200 0.22070 0.65170 -0.02600
C 	C 	0.65210 0.09540 0.62200 0.02500
H 	H 	0.65250 0.05440 0.62720 0.01800
C 	C 	0.67290 0.12470 0.57400 -0.00500
H 	H 	0.68660 0.10790 0.54040 0.00300
C 	C 	0.50530 0.99980 0.18160 0.07000
H 	H 	0.47510 0.97460 0.16580 -0.01900
C 	C 	0.55800 0.05880 0.24020 -0.03500
H 	H 	0.56970 0.08220 0.27070 0.01700
C 	C 	0.58680 0.05250 0.19270 0.02000
H 	H 	0.62640 0.06960 0.18510 0.02100
C 	C 	0.56820 0.00850 0.09670 -0.04400
H 	H 	0.53940 0.97770 0.08350 0.03700
H 	H 	0.61160 0.99400 0.09270 0.03800
C 	C 	0.55980 0.06360 0.06060 -0.09400
H 	H 	0.56580 0.05350 0.02140 0.04800
H 	H 	0.59140 0.09320 0.07090 0.05800
C 	C 	0.49370 0.08810 0.06940 -0.09000
H 	H 	0.46260 0.05620 0.06690 0.04800
H 	H 	0.49060 0.10550 0.10650 0.05700
C 	C 	0.47930 0.13470 0.02530 -0.04600
H 	H 	0.43720 0.15140 0.03190 0.03800
H 	H 	0.47950 0.11660 0.98840 0.03800
C 	C 	0.57420 0.18800 0.99060 0.08500
H 	H 	0.57790 0.16600 0.95760 -0.02600
C 	C 	0.53580 0.22280 0.07040 -0.01600
H 	H 	0.51020 0.22980 0.10170 0.03100
C 	C 	0.59120 0.25070 0.05500 0.00600
H 	H 	0.61080 0.28100 0.07520 0.00200
C 	C 	0.71590 0.09530 0.75100 0.01500
C 	C 	0.65860 0.13650 0.75600 -0.00000
Zn	Zn	0.18796 0.75181 0.96204 1.17600
N 	N 	0.21110 0.68400 0.91610 -0.28500
N 	N 	0.24190 0.63040 0.84630 -0.12600
N 	N 	0.16910 0.68110 0.58640 -0.28900
N 	N 	0.13330 0.63150 0.65620 -0.12800
N 	N 	0.05540 0.52000 0.15560 -0.12400
N 	N 	0.00330 0.52060 0.23440 -0.27900
N 	N 	0.11350 0.72790 0.00570 -0.28500
N 	N 	0.02700 0.68130 0.02770 -0.10500
C 	C 	0.23410 0.68280 0.86460 0.10000
H 	H 	0.24360 0.71680 0.84390 -0.02200
C 	C 	0.22480 0.59030 0.88640 0.00400
H 	H 	0.22720 0.54900 0.88470 0.02600
C 	C 	0.20410 0.62360 0.92840 -0.00800
H 	H 	0.18710 0.60880 0.96170 0.00900
C 	C 	0.26670 0.61660 0.79100 0.01300
C 	C 	0.22030 0.63230 0.74420 -0.03000
C 	C 	0.16510 0.58890 0.74430 -0.02300
C 	C 	0.10880 0.61700 0.71380 0.02200
C 	C 	0.14290 0.68510 0.63430 0.09900
H 	H 	0.13200 0.72070 0.65170 -0.02400
C 	C 	0.15210 0.59540 0.62200 0.02700
H 	H 	0.15250 0.55440 0.62720 0.02000
C 	C 	0.17290 0.62470 0.57400 -0.00400
H 	H 	0.18660 0.60790 0.54040 0.00400
C 	C 	0.00530 0.49980 0.18160 0.11600
H 	H 	0.97510 0.47460 0.16580 -0.05000
C 	C 	0.05800 0.55880 0.24020 -0.03100
H 	H 	0.06970 0.58220 0.27070 0.02100
C 	C 	0.08680 0.55250 0.19270 0.02000
H 	H 	0.12640 0.56960 0.18510 0.02200
C 	C 	0.06820 0.50850 0.09670 -0.05400
H 	H 	0.03940 0.47770 0.08350 0.04800
H 	H 	0.11160 0.49400 0.09270 0.04200
C 	C 	0.05980 0.56360 0.06060 -0.05900
H 	H 	0.06580 0.55350 0.02140 0.04200
H 	H 	0.09140 0.59320 0.07090 0.05000
C 	C 	0.99370 0.58810 0.06940 -0.12000
H 	H 	0.96260 0.55620 0.06690 0.05000
H 	H 	0.99060 0.60550 0.10650 0.05600
C 	C 	0.97930 0.63470 0.02530 -0.05700
H 	H 	0.93720 0.65140 0.03190 0.03800
H 	H 	0.97950 0.61660 0.98840 0.03400
C 	C 	0.07420 0.68800 0.99060 0.08800
H 	H 	0.07790 0.66600 0.95760 -0.02200
C 	C 	0.03580 0.72280 0.07040 -0.01200
H 	H 	0.01020 0.72980 0.10170 0.03900
C 	C 	0.09120 0.75070 0.05500 0.00800
H 	H 	0.11080 0.78100 0.07520 0.00400
C 	C 	0.21590 0.59530 0.75100 0.01900
C 	C 	0.15860 0.63650 0.75600 0.00300
Zn	Zn	0.18796 0.25181 0.46204 1.17500
N 	N 	0.21110 0.18400 0.41610 -0.28500
N 	N 	0.24190 0.13040 0.34630 -0.12600
N 	N 	0.16910 0.18110 0.08640 -0.28900
N 	N 	0.13330 0.13150 0.15620 -0.12800
N 	N 	0.05540 0.02000 0.65560 -0.12400
N 	N 	0.00330 0.02060 0.73440 -0.27900
N 	N 	0.11350 0.22790 0.50570 -0.28500
N 	N 	0.02700 0.18130 0.52770 -0.10400
C 	C 	0.23410 0.18280 0.36460 0.10000
H 	H 	0.24360 0.21680 0.34390 -0.02200
C 	C 	0.22480 0.09030 0.38640 0.00400
H 	H 	0.22720 0.04900 0.38470 0.02600
C 	C 	0.20410 0.12360 0.42840 -0.00800
H 	H 	0.18710 0.10880 0.46170 0.00900
C 	C 	0.26670 0.11660 0.29100 0.01300
C 	C 	0.22030 0.13230 0.24420 -0.03000
C 	C 	0.16510 0.08890 0.24430 -0.02300
C 	C 	0.10880 0.11700 0.21380 0.02200
C 	C 	0.14290 0.18510 0.13430 0.09900
H 	H 	0.13200 0.22070 0.15170 -0.02400
C 	C 	0.15210 0.09540 0.12200 0.02700
H 	H 	0.15250 0.05440 0.12720 0.02000
C 	C 	0.17290 0.12470 0.07400 -0.00400
H 	H 	0.18660 0.10790 0.04040 0.00400
C 	C 	0.00530 0.99980 0.68160 0.11600
H 	H 	0.97510 0.97460 0.66580 -0.05000
C 	C 	0.05800 0.05880 0.74020 -0.03100
H 	H 	0.06970 0.08220 0.77070 0.02100
C 	C 	0.08680 0.05250 0.69270 0.02000
H 	H 	0.12640 0.06960 0.68510 0.02200
C 	C 	0.06820 0.00850 0.59670 -0.05400
H 	H 	0.03940 0.97770 0.58350 0.04800
H 	H 	0.11160 0.99400 0.59270 0.04300
C 	C 	0.05980 0.06360 0.56060 -0.05900
H 	H 	0.06580 0.05350 0.52140 0.04200
H 	H 	0.09140 0.09320 0.57090 0.05000
C 	C 	0.99370 0.08810 0.56940 -0.12000
H 	H 	0.96260 0.05620 0.56690 0.05000
H 	H 	0.99060 0.10550 0.60650 0.05600
C 	C 	0.97930 0.13470 0.52530 -0.05700
H 	H 	0.93720 0.15140 0.53190 0.03800
H 	H 	0.97950 0.11660 0.48840 0.03300
C 	C 	0.07420 0.18800 0.49060 0.08800
H 	H 	0.07790 0.16600 0.45760 -0.02200
C 	C 	0.03580 0.22280 0.57040 -0.01200
H 	H 	0.01020 0.22980 0.60170 0.03900
C 	C 	0.09120 0.25070 0.55500 0.00900
H 	H 	0.11080 0.28100 0.57520 0.00400
C 	C 	0.21590 0.09530 0.25100 0.01900
C 	C 	0.15860 0.13650 0.25600 0.00300
