data_crystal

_cell_length_a 21.23000
_cell_length_b 21.23000
_cell_length_c 6.02900
_cell_angle_alpha 90.00000
_cell_angle_beta  90.00000
_cell_angle_gamma 90.00000

_symmetry_space_group_name_	'P 1'
_symmetry_space_group_name_H-M	'P 1'

loop_
_symmetry_equiv_pos_as_xyz
  x,y,z

loop_
_atom_site_label
_atom_site_type_symbol
_atom_site_fract_x
_atom_site_fract_y
_atom_site_fract_z
_atom_site_charge
Cd	Cd	0.32981 0.76936 0.96341 1.18400
O 	O 	0.40020 0.85670 0.97490 -0.39200
O 	O 	0.40400 0.80090 0.65890 -0.39000
O 	O 	0.31280 0.76740 0.34220 -0.70400
H 	H 	0.34700 0.79700 0.34000 0.15800
N 	N 	0.63540 0.00090 0.49550 -0.11900
N 	N 	0.66320 0.99220 0.28650 -0.08700
N 	N 	0.70260 0.07990 0.46030 -0.22600
C 	C 	0.42490 0.84480 0.78300 0.30200
C 	C 	0.48210 0.88210 0.70700 -0.13000
C 	C 	0.51040 0.92240 0.84700 0.07500
H 	H 	0.49660 0.92370 0.99290 0.01600
C 	C 	0.56150 0.96410 0.78100 -0.17200
H 	H 	0.57760 0.99380 0.87980 0.10400
C 	C 	0.58560 0.95840 0.56700 0.16700
C 	C 	0.55390 0.91850 0.42700 -0.18500
H 	H 	0.56540 0.91720 0.27870 0.11100
C 	C 	0.50550 0.88020 0.49900 0.09400
H 	H 	0.48810 0.85170 0.39920 0.01400
C 	C 	0.65860 0.05050 0.59500 0.09300
H 	H 	0.64720 0.06400 0.73580 -0.00200
C 	C 	0.70290 0.04100 0.27400 0.07600
H 	H 	0.72850 0.04830 0.15100 0.00700
Cd	Cd	0.17019 0.73064 0.96341 1.18500
O 	O 	0.09980 0.64330 0.97490 -0.39100
O 	O 	0.09600 0.69910 0.65890 -0.38900
O 	O 	0.18720 0.73260 0.34220 -0.70300
H 	H 	0.15300 0.70300 0.34000 0.15800
N 	N 	0.86460 0.49910 0.49550 -0.11900
N 	N 	0.83680 0.50780 0.28650 -0.08700
N 	N 	0.79740 0.42010 0.46030 -0.22700
C 	C 	0.07510 0.65520 0.78300 0.30300
C 	C 	0.01790 0.61790 0.70700 -0.13200
C 	C 	0.98960 0.57760 0.84700 0.07800
H 	H 	0.00340 0.57630 0.99290 0.01400
C 	C 	0.93850 0.53590 0.78100 -0.17400
H 	H 	0.92240 0.50620 0.87980 0.10500
C 	C 	0.91440 0.54160 0.56700 0.16800
C 	C 	0.94610 0.58150 0.42700 -0.18600
H 	H 	0.93460 0.58280 0.27870 0.11100
C 	C 	0.99450 0.61980 0.49900 0.09500
H 	H 	0.01190 0.64830 0.39920 0.01400
C 	C 	0.84140 0.44950 0.59500 0.09300
H 	H 	0.85280 0.43600 0.73580 -0.00300
C 	C 	0.79710 0.45900 0.27400 0.07600
H 	H 	0.77150 0.45170 0.15100 0.00700
Cd	Cd	0.23064 0.82981 0.46341 1.18900
O 	O 	0.14330 0.90020 0.47490 -0.38500
O 	O 	0.19910 0.90400 0.15890 -0.38200
O 	O 	0.23260 0.81280 0.84220 -0.70800
H 	H 	0.20300 0.84700 0.84000 0.15500
N 	N 	0.99910 0.13540 0.99550 -0.10900
N 	N 	0.00780 0.16320 0.78650 -0.08700
N 	N 	0.92010 0.20260 0.96030 -0.21800
C 	C 	0.15520 0.92490 0.28300 0.29600
C 	C 	0.11790 0.98210 0.20700 -0.11200
C 	C 	0.07760 0.01040 0.34700 0.05900
H 	H 	0.07630 0.99660 0.49290 0.02300
C 	C 	0.03590 0.06150 0.28100 -0.15800
H 	H 	0.00620 0.07760 0.37980 0.09800
C 	C 	0.04160 0.08560 0.06700 0.15100
C 	C 	0.08150 0.05390 0.92700 -0.16600
H 	H 	0.08280 0.06540 0.77870 0.10400
C 	C 	0.11980 0.00550 0.99900 0.07400
H 	H 	0.14830 0.98810 0.89920 0.01800
C 	C 	0.94950 0.15860 0.09500 0.07500
H 	H 	0.93600 0.14720 0.23580 0.00100
C 	C 	0.95900 0.20290 0.77400 0.07800
H 	H 	0.95170 0.22850 0.65100 0.00900
Cd	Cd	0.26936 0.67019 0.46341 1.18900
O 	O 	0.35670 0.59980 0.47490 -0.38500
O 	O 	0.30090 0.59600 0.15890 -0.38300
O 	O 	0.26740 0.68720 0.84220 -0.70800
H 	H 	0.29700 0.65300 0.84000 0.15500
N 	N 	0.50090 0.36460 0.99550 -0.11100
N 	N 	0.49220 0.33680 0.78650 -0.08700
N 	N 	0.57990 0.29740 0.96030 -0.21900
C 	C 	0.34480 0.57510 0.28300 0.29700
C 	C 	0.38210 0.51790 0.20700 -0.11600
C 	C 	0.42240 0.48960 0.34700 0.06400
H 	H 	0.42370 0.50340 0.49290 0.02100
C 	C 	0.46410 0.43850 0.28100 -0.16100
H 	H 	0.49380 0.42240 0.37980 0.10000
C 	C 	0.45840 0.41440 0.06700 0.15400
C 	C 	0.41850 0.44610 0.92700 -0.16900
H 	H 	0.41720 0.43460 0.77870 0.10500
C 	C 	0.38020 0.49450 0.99900 0.07600
H 	H 	0.35170 0.51190 0.89920 0.01800
C 	C 	0.55050 0.34140 0.09500 0.07700
H 	H 	0.56400 0.35280 0.23580 0.00000
C 	C 	0.54100 0.29710 0.77400 0.07700
H 	H 	0.54830 0.27150 0.65100 0.00900
Cd	Cd	0.67019 0.23064 0.03659 1.18500
O 	O 	0.59980 0.14330 0.02510 -0.39100
O 	O 	0.59600 0.19910 0.34110 -0.38900
O 	O 	0.68720 0.23260 0.65780 -0.70300
H 	H 	0.65300 0.20300 0.66000 0.15800
N 	N 	0.36460 0.99910 0.50450 -0.11900
N 	N 	0.33680 0.00780 0.71350 -0.08700
N 	N 	0.29740 0.92010 0.53970 -0.22600
C 	C 	0.57510 0.15520 0.21700 0.30200
C 	C 	0.51790 0.11790 0.29300 -0.13000
C 	C 	0.48960 0.07760 0.15300 0.07500
H 	H 	0.50340 0.07630 0.00710 0.01600
C 	C 	0.43850 0.03590 0.21900 -0.17200
H 	H 	0.42240 0.00620 0.12020 0.10400
C 	C 	0.41440 0.04160 0.43300 0.16700
C 	C 	0.44610 0.08150 0.57300 -0.18500
H 	H 	0.43460 0.08280 0.72130 0.11100
C 	C 	0.49450 0.11980 0.50100 0.09400
H 	H 	0.51190 0.14830 0.60080 0.01400
C 	C 	0.34140 0.94950 0.40500 0.09300
H 	H 	0.35280 0.93600 0.26420 -0.00200
C 	C 	0.29710 0.95900 0.72600 0.07600
H 	H 	0.27150 0.95170 0.84900 0.00700
Cd	Cd	0.82981 0.26936 0.03659 1.18500
O 	O 	0.90020 0.35670 0.02510 -0.39100
O 	O 	0.90400 0.30090 0.34110 -0.38900
O 	O 	0.81280 0.26740 0.65780 -0.70300
H 	H 	0.84700 0.29700 0.66000 0.15800
N 	N 	0.13540 0.50090 0.50450 -0.11900
N 	N 	0.16320 0.49220 0.71350 -0.08700
N 	N 	0.20260 0.57990 0.53970 -0.22700
C 	C 	0.92490 0.34480 0.21700 0.30300
C 	C 	0.98210 0.38210 0.29300 -0.13200
C 	C 	0.01040 0.42240 0.15300 0.07800
H 	H 	0.99660 0.42370 0.00710 0.01400
C 	C 	0.06150 0.46410 0.21900 -0.17400
H 	H 	0.07760 0.49380 0.12020 0.10500
C 	C 	0.08560 0.45840 0.43300 0.16800
C 	C 	0.05390 0.41850 0.57300 -0.18600
H 	H 	0.06540 0.41720 0.72130 0.11100
C 	C 	0.00550 0.38020 0.50100 0.09500
H 	H 	0.98810 0.35170 0.60080 0.01400
C 	C 	0.15860 0.55050 0.40500 0.09300
H 	H 	0.14720 0.56400 0.26420 -0.00300
C 	C 	0.20290 0.54100 0.72600 0.07600
H 	H 	0.22850 0.54830 0.84900 0.00700
Cd	Cd	0.76936 0.17019 0.53659 1.18900
O 	O 	0.85670 0.09980 0.52510 -0.38500
O 	O 	0.80090 0.09600 0.84110 -0.38200
O 	O 	0.76740 0.18720 0.15780 -0.70800
H 	H 	0.79700 0.15300 0.16000 0.15500
N 	N 	0.00090 0.86460 0.00450 -0.10900
N 	N 	0.99220 0.83680 0.21350 -0.08700
N 	N 	0.07990 0.79740 0.03970 -0.21800
C 	C 	0.84480 0.07510 0.71700 0.29600
C 	C 	0.88210 0.01790 0.79300 -0.11200
C 	C 	0.92240 0.98960 0.65300 0.05900
H 	H 	0.92370 0.00340 0.50710 0.02300
C 	C 	0.96410 0.93850 0.71900 -0.15800
H 	H 	0.99380 0.92240 0.62020 0.09800
C 	C 	0.95840 0.91440 0.93300 0.15100
C 	C 	0.91850 0.94610 0.07300 -0.16600
H 	H 	0.91720 0.93460 0.22130 0.10400
C 	C 	0.88020 0.99450 0.00100 0.07400
H 	H 	0.85170 0.01190 0.10080 0.01800
C 	C 	0.05050 0.84140 0.90500 0.07500
H 	H 	0.06400 0.85280 0.76420 0.00100
C 	C 	0.04100 0.79710 0.22600 0.07800
H 	H 	0.04830 0.77150 0.34900 0.00900
Cd	Cd	0.73064 0.32981 0.53659 1.18900
O 	O 	0.64330 0.40020 0.52510 -0.38500
O 	O 	0.69910 0.40400 0.84110 -0.38300
O 	O 	0.73260 0.31280 0.15780 -0.70800
H 	H 	0.70300 0.34700 0.16000 0.15500
N 	N 	0.49910 0.63540 0.00450 -0.11100
N 	N 	0.50780 0.66320 0.21350 -0.08700
N 	N 	0.42010 0.70260 0.03970 -0.21900
C 	C 	0.65520 0.42490 0.71700 0.29700
C 	C 	0.61790 0.48210 0.79300 -0.11600
C 	C 	0.57760 0.51040 0.65300 0.06400
H 	H 	0.57630 0.49660 0.50710 0.02100
C 	C 	0.53590 0.56150 0.71900 -0.16100
H 	H 	0.50620 0.57760 0.62020 0.10000
C 	C 	0.54160 0.58560 0.93300 0.15400
C 	C 	0.58150 0.55390 0.07300 -0.16900
H 	H 	0.58280 0.56540 0.22130 0.10500
C 	C 	0.61980 0.50550 0.00100 0.07600
H 	H 	0.64830 0.48810 0.10080 0.01800
C 	C 	0.44950 0.65860 0.90500 0.07700
H 	H 	0.43600 0.64720 0.76420 0.00000
C 	C 	0.45900 0.70290 0.22600 0.07700
H 	H 	0.45170 0.72850 0.34900 0.00900
