data_crystal

_cell_length_a 31.65600
_cell_length_b 31.47600
_cell_length_c 21.71200
_cell_angle_alpha 90.00000
_cell_angle_beta  124.28200
_cell_angle_gamma 90.00000

_symmetry_space_group_name_	'P 1'
_symmetry_space_group_name_H-M	'P 1'

loop_
_symmetry_equiv_pos_as_xyz
  x,y,z

loop_
_atom_site_label
_atom_site_type_symbol
_atom_site_fract_x
_atom_site_fract_y
_atom_site_fract_z
_atom_site_charge
Zn	Zn	0.28599 0.56040 0.26195 1.21000
Zn	Zn	0.21824 0.49628 0.26198 1.19000
C 	C 	0.39123 0.66453 0.25820 -0.56400
C 	C 	0.40830 0.70028 0.30500 0.24600
H 	H 	0.39910 0.70360 0.33950 -0.07300
C 	C 	0.43870 0.73110 0.30160 -0.11400
H 	H 	0.44990 0.75470 0.33440 0.03300
N 	N 	0.45278 0.72856 0.25340 -0.20100
C 	C 	0.43720 0.69442 0.20930 -0.11300
H 	H 	0.44730 0.69190 0.17570 0.04300
C 	C 	0.40710 0.66238 0.20960 0.24100
H 	H 	0.39730 0.63890 0.17680 -0.06300
B 	B 	0.35610 0.62844 0.26060 1.48600
O 	O 	0.30670 0.64961 0.23410 -0.51200
N 	N 	0.27132 0.62598 0.24010 -0.18000
C 	C 	0.23610 0.64928 0.23390 0.05300
H 	H 	0.23760 0.67880 0.22610 0.02700
C 	C 	0.19340 0.63503 0.23740 -0.17400
C 	C 	0.18240 0.59131 0.23980 0.19000
C 	C 	0.13890 0.58250 0.24230 -0.19400
C 	C 	0.11040 0.61594 0.24360 0.11400
H 	H 	0.08180 0.60910 0.24530 -0.03300
C 	C 	0.12130 0.65849 0.24270 -0.25300
C 	C 	0.16290 0.66665 0.23910 0.12000
H 	H 	0.17130 0.69550 0.23770 -0.03300
C 	C 	0.12440 0.53936 0.24760 0.01200
H 	H 	0.09450 0.53640 0.24740 0.03500
N 	N 	0.14790 0.50500 0.25250 -0.16300
O 	O 	0.12350 0.46897 0.25710 -0.52300
B 	B 	0.14800 0.42830 0.26280 1.43900
O 	O 	0.35120 0.59439 0.21100 -0.52500
N 	N 	0.31780 0.56104 0.19750 -0.11600
C 	C 	0.31510 0.53396 0.15140 -0.00300
H 	H 	0.33450 0.53980 0.13130 0.22900
C 	C 	0.28510 0.49514 0.12740 0.00500
C 	C 	0.25370 0.48237 0.15230 0.22700
C 	C 	0.22570 0.44413 0.12270 -0.17600
C 	C 	0.22960 0.42000 0.07180 0.14000
H 	H 	0.21030 0.39460 0.05270 -0.09600
C 	C 	0.26070 0.43170 0.04800 -0.27200
C 	C 	0.28770 0.46960 0.07700 -0.04400
H 	H 	0.30910 0.47850 0.06160 0.32300
C 	C 	0.19100 0.42730 0.14190 0.07100
H 	H 	0.17230 0.40240 0.11660 0.01100
N 	N 	0.18400 0.44333 0.18960 -0.17800
O 	O 	0.14890 0.41916 0.19550 -0.50200
O 	O 	0.38325 0.61345 0.33880 -0.53300
N 	N 	0.36166 0.57782 0.35010 -0.21300
C 	C 	0.39290 0.55960 0.41210 0.42700
H 	H 	0.42650 0.57110 0.44200 -0.05000
C 	C 	0.38180 0.52270 0.44110 -1.62300
C 	C 	0.33290 0.50250 0.40320 1.18000
C 	C 	0.32810 0.46690 0.43940 0.74000
C 	C 	0.37000 0.45900 0.51440 -38.20600
H 	H 	0.36540 0.43710 0.54020 10.11200
C 	C 	0.41700 0.48000 0.55370 3.92700
C 	C 	0.46330 0.46860 0.63220 -1.26800
C 	C 	0.45320 0.42600 0.65750 -0.42300
H 	H 	0.44240 0.40450 0.61870 0.33000
H 	H 	0.42620 0.43000 0.66600 0.03300
H 	H 	0.48460 0.41660 0.70380 0.15900
C 	C 	0.51040 0.46320 0.63030 -0.59900
H 	H 	0.51450 0.48830 0.60750 -0.08800
H 	H 	0.50620 0.43790 0.60090 0.74100
H 	H 	0.54070 0.45980 0.68130 -0.07600
C 	C 	0.47490 0.50420 0.68780 0.57800
H 	H 	0.44660 0.50660 0.69400 -0.17100
H 	H 	0.47880 0.53110 0.66890 -0.34900
H 	H 	0.50650 0.49770 0.73590 -0.13500
C 	C 	0.42040 0.51420 0.51590 37.54900
H 	H 	0.44960 0.53210 0.54140 -12.58400
C 	C 	0.28010 0.44340 0.40740 -0.87000
H 	H 	0.28110 0.41920 0.43440 0.40000
N 	N 	0.23726 0.45182 0.34720 0.00500
O 	O 	0.19870 0.42304 0.33310 -0.53300
C 	C 	0.11210 0.39117 0.26080 -0.54000
C 	C 	0.13130 0.35624 0.30840 0.22400
H 	H 	0.16690 0.35430 0.34580 -0.04300
C 	C 	0.09880 0.32412 0.30180 -0.11100
H 	H 	0.11340 0.30040 0.33440 0.04200
N 	N 	0.04783 0.32476 0.25160 -0.20700
C 	C 	0.02880 0.35823 0.20620 -0.07900
H 	H 	0.99290 0.35960 0.17030 0.02000
C 	C 	0.05900 0.39141 0.20870 0.21000
H 	H 	0.04340 0.41440 0.17480 -0.03800
O 	O 	0.21095 0.56107 0.23920 -0.56200
C 	C 	0.08900 0.69320 0.24790 0.61100
C 	C 	0.10620 0.73710 0.24310 -0.86400
H 	H 	0.08420 0.75840 0.24450 0.23500
H 	H 	0.10400 0.73980 0.19630 0.25200
H 	H 	0.14170 0.74150 0.28530 0.24600
C 	C 	0.03290 0.68780 0.18320 -0.85700
H 	H 	0.02450 0.70820 0.14380 0.24700
H 	H 	0.01100 0.69290 0.20110 0.23700
H 	H 	0.02740 0.65890 0.16340 0.26200
C 	C 	0.09180 0.68750 0.31910 -0.84300
H 	H 	0.07310 0.66180 0.31560 0.24400
H 	H 	0.07640 0.71220 0.32680 0.22000
H 	H 	0.12760 0.68490 0.36120 0.23200
O 	O 	0.25094 0.50489 0.19990 -0.50100
O 	O 	0.29353 0.51790 0.34170 -0.83600
C 	C 	0.27240 0.39750 0.00570 1.40400
C 	C 	0.28590 0.41920 0.95840 0.09500
H 	H 	0.26370 0.44400 0.93450 2.18900
H 	H 	0.28120 0.39950 0.92000 -0.31500
H 	H 	0.32170 0.42840 0.98940 -0.04900
C 	C 	0.30270 0.35630 0.04830 -2.37000
H 	H 	0.30670 0.33830 0.01510 0.45700
H 	H 	0.28390 0.34070 0.06460 0.77900
H 	H 	0.33650 0.36410 0.09190 0.42200
C 	C 	0.21250 0.37860 0.93480 -1.75300
H 	H 	0.21640 0.35800 0.90440 -1.36500
H 	H 	0.19120 0.40230 0.90350 0.89000
H 	H 	0.19620 0.36460 0.95670 2.17100
N 	N 	0.43650 0.32410 0.47610 -0.08400
O 	O 	0.38590 0.33620 0.51940 0.01600
C 	C 	0.48270 0.33840 0.54450 -0.13900
H 	H 	0.49900 0.36060 0.53300 0.04600
H 	H 	0.50630 0.31440 0.56860 0.06700
H 	H 	0.47410 0.34990 0.57810 0.16000
C 	C 	0.43410 0.31140 0.40960 -0.43900
H 	H 	0.40170 0.32090 0.36510 0.18200
H 	H 	0.43650 0.28040 0.40860 0.12600
H 	H 	0.46260 0.32440 0.41050 0.12000
C 	C 	0.39010 0.32380 0.47120 0.07200
H 	H 	0.36050 0.31310 0.42690 0.00900
N 	N 	0.38800 0.42610 0.33500 -0.31400
C 	C 	0.39160 0.43590 0.27330 0.06900
H 	H 	0.35840 0.43080 0.22630 -0.00800
H 	H 	0.41760 0.41780 0.27540 0.04400
H 	H 	0.40110 0.46580 0.27600 -0.02300
C 	C 	0.33870 0.41120 0.31500 1.15500
H 	H 	0.32190 0.39570 0.26770 -0.53000
H 	H 	0.31760 0.43550 0.30970 -0.59400
H 	H 	0.34320 0.39220 0.35410 -0.72600
C 	C 	0.42940 0.42680 0.41050 1.28300
H 	H 	0.42130 0.42070 0.44550 -0.75700
O 	O 	0.47310 0.43410 0.43590 -0.08500
C 	C 	0.25930 0.41100 0.98280 -0.19200
C 	C 	0.23450 0.44240 0.91560 -5.56500
H 	H 	0.20060 0.45090 0.90270 1.75600
H 	H 	0.23110 0.42850 0.87270 1.43100
H 	H 	0.25610 0.46770 0.92920 0.68300
C 	C 	0.31460 0.40040 0.00980 -2.57100
H 	H 	0.31710 0.39900 0.96690 0.59800
H 	H 	0.32440 0.37300 0.03560 1.20900
H 	H 	0.33760 0.42260 0.04410 0.54800
C 	C 	0.23020 0.36920 0.95990 1.80700
H 	H 	0.23000 0.35690 0.91820 1.35600
H 	H 	0.19500 0.37430 0.94440 -2.06000
H 	H 	0.24690 0.34950 0.00210 -0.71000
C 	C 	0.37080 0.44010 0.48710 36.41600
H 	H 	0.36560 0.41200 0.49740 -12.48400
C 	C 	0.45710 0.40360 0.62910 -0.44700
H 	H 	0.43580 0.37870 0.60290 0.04000
H 	H 	0.43920 0.42230 0.64350 0.37400
H 	H 	0.48960 0.39450 0.67380 0.16100
C 	C 	0.51470 0.45450 0.62550 -0.12800
H 	H 	0.51590 0.46510 0.66890 0.61800
H 	H 	0.51380 0.47850 0.59610 0.27400
H 	H 	0.54510 0.43710 0.64240 0.06400
C 	C 	0.47810 0.39460 0.53850 0.94700
H 	H 	0.50460 0.40520 0.53220 -0.18300
H 	H 	0.44690 0.38870 0.48940 -0.41500
H 	H 	0.49000 0.36850 0.56810 -0.31700
C 	C 	0.41950 0.45500 0.51800 4.10500
C 	C 	0.46720 0.42770 0.57790 -1.58200
C 	C 	0.42450 0.49440 0.49280 -38.28000
H 	H 	0.45810 0.50370 0.51040 10.69200
N 	N 	0.26930 0.30870 0.54710 -0.16600
C 	C 	0.22590 0.30360 0.55190 -0.42500
H 	H 	0.23550 0.28560 0.59480 0.18900
H 	H 	0.19780 0.29020 0.50620 0.20200
H 	H 	0.21490 0.33150 0.55790 0.13700
C 	C 	0.27750 0.35170 0.53090 -0.08900
H 	H 	0.28950 0.35050 0.49800 0.13000
H 	H 	0.30320 0.36600 0.57740 0.03800
H 	H 	0.24530 0.36760 0.50620 0.07000
C 	C 	0.30470 0.27830 0.55890 -1.78800
H 	H 	0.32990 0.28800 0.55140 0.98900
O 	O 	0.30890 0.24200 0.57690 0.28500
N 	N 	0.38190 0.39640 0.31000 -0.01500
C 	C 	0.39220 0.35190 0.33300 -0.51000
H 	H 	0.36100 0.33850 0.32300 0.12500
H 	H 	0.41910 0.35030 0.38630 0.17100
H 	H 	0.40340 0.33710 0.30480 0.13200
C 	C 	0.32940 0.40890 0.25600 -0.42600
H 	H 	0.30650 0.38630 0.25170 0.45300
H 	H 	0.32400 0.41390 0.20790 0.16300
H 	H 	0.32210 0.43510 0.27330 0.12100
C 	C 	0.42010 0.42820 0.33700 -0.32800
H 	H 	0.40970 0.45670 0.32160 0.37300
O 	O 	0.46700 0.42040 0.38100 0.07100
N 	N 	0.29750 0.31370 0.55410 0.26000
C 	C 	0.26210 0.34830 0.53810 -0.26000
H 	H 	0.27850 0.37550 0.54200 0.09700
H 	H 	0.23130 0.34500 0.48760 0.11100
H 	H 	0.25270 0.34760 0.57410 0.12700
C 	C 	0.29760 0.28120 0.60280 2.15600
H 	H 	0.26980 0.26100 0.57260 -0.38900
H 	H 	0.33040 0.26610 0.62920 -0.45100
H 	H 	0.29280 0.29490 0.63890 -0.65100
C 	C 	0.32770 0.31170 0.52810 -0.43700
H 	H 	0.34900 0.28770 0.53910 -0.19200
O 	O 	0.32780 0.34040 0.49100 0.18300
Zn	Zn	0.78599 0.06040 0.26195 1.23300
Zn	Zn	0.71824 0.99628 0.26198 1.18800
C 	C 	0.89123 0.16453 0.25820 -0.56800
C 	C 	0.90830 0.20028 0.30500 0.25600
H 	H 	0.89910 0.20360 0.33950 -0.07700
C 	C 	0.93870 0.23110 0.30160 -0.11800
H 	H 	0.94990 0.25470 0.33440 0.03400
N 	N 	0.95278 0.22856 0.25340 -0.20300
C 	C 	0.93720 0.19442 0.20930 -0.11900
H 	H 	0.94730 0.19190 0.17570 0.04000
C 	C 	0.90710 0.16238 0.20960 0.24400
H 	H 	0.89730 0.13890 0.17680 -0.06700
B 	B 	0.85610 0.12844 0.26060 1.50300
O 	O 	0.80670 0.14961 0.23410 -0.52100
N 	N 	0.77132 0.12598 0.24010 -0.18000
C 	C 	0.73610 0.14928 0.23390 0.05800
H 	H 	0.73760 0.17880 0.22610 0.02600
C 	C 	0.69340 0.13503 0.23740 -0.17300
C 	C 	0.68240 0.09131 0.23980 0.20000
C 	C 	0.63890 0.08250 0.24230 -0.19100
C 	C 	0.61040 0.11594 0.24360 0.11100
H 	H 	0.58180 0.10910 0.24530 -0.03300
C 	C 	0.62130 0.15849 0.24270 -0.26600
C 	C 	0.66290 0.16665 0.23910 0.11500
H 	H 	0.67130 0.19550 0.23770 -0.03200
C 	C 	0.62440 0.03936 0.24760 0.02900
H 	H 	0.59450 0.03640 0.24740 0.03400
N 	N 	0.64790 0.00500 0.25250 -0.16300
O 	O 	0.62350 0.96897 0.25710 -0.51700
B 	B 	0.64800 0.92830 0.26280 1.43800
O 	O 	0.85120 0.09439 0.21100 -0.50500
N 	N 	0.81780 0.06104 0.19750 -0.09500
C 	C 	0.81510 0.03396 0.15140 0.04100
H 	H 	0.83450 0.03980 0.13130 0.23500
C 	C 	0.78510 0.99514 0.12740 0.00000
C 	C 	0.75370 0.98237 0.15230 0.25200
C 	C 	0.72570 0.94413 0.12270 -0.22200
C 	C 	0.72960 0.92000 0.07180 0.19800
H 	H 	0.71030 0.89460 0.05270 -0.11900
C 	C 	0.76070 0.93170 0.04800 -0.40000
C 	C 	0.78770 0.96960 0.07700 0.01900
H 	H 	0.80910 0.97850 0.06160 0.29000
C 	C 	0.69100 0.92730 0.14190 0.06800
H 	H 	0.67230 0.90240 0.11660 -0.00200
N 	N 	0.68400 0.94333 0.18960 -0.19200
O 	O 	0.64890 0.91916 0.19550 -0.51500
O 	O 	0.88325 0.11345 0.33880 -0.51900
N 	N 	0.86166 0.07782 0.35010 -0.25200
C 	C 	0.89290 0.05960 0.41210 0.87300
H 	H 	0.92650 0.07110 0.44200 -0.13000
C 	C 	0.88180 0.02270 0.44110 -3.22900
C 	C 	0.83290 0.00250 0.40320 2.25300
C 	C 	0.82810 0.96690 0.43940 1.68700
C 	C 	0.87000 0.95900 0.51440 -79.15400
H 	H 	0.86540 0.93710 0.54020 20.91600
C 	C 	0.91700 0.98000 0.55370 8.17600
C 	C 	0.96330 0.96860 0.63220 -2.66600
C 	C 	0.95320 0.92600 0.65750 -1.13500
H 	H 	0.94240 0.90450 0.61870 0.86200
H 	H 	0.92620 0.93000 0.66600 0.03700
H 	H 	0.98460 0.91660 0.70380 0.41200
C 	C 	0.01040 0.96320 0.63030 -0.71000
H 	H 	0.01450 0.98830 0.60750 -0.64200
H 	H 	0.00620 0.93790 0.60090 1.08400
H 	H 	0.04070 0.95980 0.68130 -0.17400
C 	C 	0.97490 0.00420 0.68780 1.74600
H 	H 	0.94660 0.00660 0.69400 -0.56200
H 	H 	0.97880 0.03110 0.66890 -0.87100
H 	H 	0.00650 0.99770 0.73590 -0.52500
C 	C 	0.92040 0.01420 0.51590 77.90400
H 	H 	0.94960 0.03210 0.54140 -26.12100
C 	C 	0.78010 0.94340 0.40740 -1.83600
H 	H 	0.78110 0.91920 0.43440 0.78000
N 	N 	0.73726 0.95182 0.34720 0.18600
O 	O 	0.69870 0.92304 0.33310 -0.54600
C 	C 	0.61210 0.89117 0.26080 -0.54300
C 	C 	0.63130 0.85624 0.30840 0.22800
H 	H 	0.66690 0.85430 0.34580 -0.04600
C 	C 	0.59880 0.82412 0.30180 -0.11500
H 	H 	0.61340 0.80040 0.33440 0.04400
N 	N 	0.54783 0.82476 0.25160 -0.20500
C 	C 	0.52880 0.85823 0.20620 -0.10300
H 	H 	0.49290 0.85960 0.17030 0.03100
C 	C 	0.55900 0.89141 0.20870 0.22100
H 	H 	0.54340 0.91440 0.17480 -0.04800
O 	O 	0.71095 0.06107 0.23920 -0.54800
C 	C 	0.58900 0.19320 0.24790 0.61800
C 	C 	0.60620 0.23710 0.24310 -0.86900
H 	H 	0.58420 0.25840 0.24450 0.23600
H 	H 	0.60400 0.23980 0.19630 0.25300
H 	H 	0.64170 0.24150 0.28530 0.24400
C 	C 	0.53290 0.18780 0.18320 -0.86300
H 	H 	0.52450 0.20820 0.14380 0.24900
H 	H 	0.51100 0.19290 0.20110 0.23800
H 	H 	0.52740 0.15890 0.16340 0.26300
C 	C 	0.59180 0.18750 0.31910 -0.86500
H 	H 	0.57310 0.16180 0.31560 0.25200
H 	H 	0.57640 0.21220 0.32680 0.23100
H 	H 	0.62760 0.18490 0.36120 0.24300
O 	O 	0.75094 0.00489 0.19990 -0.48600
O 	O 	0.79353 0.01790 0.34170 -1.07700
C 	C 	0.77240 0.89750 0.00570 0.85000
C 	C 	0.78590 0.91920 0.95840 1.33500
H 	H 	0.76370 0.94400 0.93450 1.86900
H 	H 	0.78120 0.89950 0.92000 -0.73600
H 	H 	0.82170 0.92840 0.98940 -0.29100
C 	C 	0.80270 0.85630 0.04830 -2.09800
H 	H 	0.80670 0.83830 0.01510 0.33300
H 	H 	0.78390 0.84070 0.06460 0.67900
H 	H 	0.83650 0.86410 0.09190 0.27400
C 	C 	0.71250 0.87860 0.93480 -1.35700
H 	H 	0.71640 0.85800 0.90440 -0.88800
H 	H 	0.69120 0.90230 0.90350 0.69900
H 	H 	0.69620 0.86460 0.95670 1.73100
N 	N 	0.93650 0.82410 0.47610 -0.17000
O 	O 	0.88590 0.83620 0.51940 0.22000
C 	C 	0.98270 0.83840 0.54450 0.33700
H 	H 	0.99900 0.86060 0.53300 -0.10100
H 	H 	0.00630 0.81440 0.56860 -0.08600
H 	H 	0.97410 0.84990 0.57810 0.21900
C 	C 	0.93410 0.81140 0.40960 -0.30200
H 	H 	0.90170 0.82090 0.36510 0.13200
H 	H 	0.93650 0.78040 0.40860 0.08600
H 	H 	0.96260 0.82440 0.41050 0.08100
C 	C 	0.89010 0.82380 0.47120 0.02900
H 	H 	0.86050 0.81310 0.42690 0.00800
N 	N 	0.88800 0.92610 0.33500 -0.14700
C 	C 	0.89160 0.93590 0.27330 3.51900
H 	H 	0.85840 0.93080 0.22630 -1.17300
H 	H 	0.91760 0.91780 0.27540 -0.53200
H 	H 	0.90110 0.96580 0.27600 -1.12500
C 	C 	0.83870 0.91120 0.31500 2.60900
H 	H 	0.82190 0.89570 0.26770 -1.39300
H 	H 	0.81760 0.93550 0.30970 -1.31900
H 	H 	0.84320 0.89220 0.35410 -1.62900
C 	C 	0.92940 0.92680 0.41050 3.64700
H 	H 	0.92130 0.92070 0.44550 -1.97700
O 	O 	0.97310 0.93410 0.43590 -0.48100
C 	C 	0.75930 0.91100 0.98280 0.59800
C 	C 	0.73450 0.94240 0.91560 -6.32900
H 	H 	0.70060 0.95090 0.90270 1.98700
H 	H 	0.73110 0.92850 0.87270 1.65800
H 	H 	0.75610 0.96770 0.92920 1.01200
C 	C 	0.81460 0.90040 0.00980 -4.08500
H 	H 	0.81710 0.89900 0.96690 0.96500
H 	H 	0.82440 0.87300 0.03560 1.71900
H 	H 	0.83760 0.92260 0.04410 1.01700
C 	C 	0.73020 0.86920 0.95990 1.18600
H 	H 	0.73000 0.85690 0.91820 0.95100
H 	H 	0.69500 0.87430 0.94440 -1.59300
H 	H 	0.74690 0.84950 0.00210 -0.46700
C 	C 	0.87080 0.94010 0.48710 75.48600
H 	H 	0.86560 0.91200 0.49740 -25.92000
C 	C 	0.95710 0.90360 0.62910 -1.17800
H 	H 	0.93580 0.87870 0.60290 0.04900
H 	H 	0.93920 0.92230 0.64350 0.97000
H 	H 	0.98960 0.89450 0.67380 0.41300
C 	C 	0.01470 0.95450 0.62550 0.18100
H 	H 	0.01590 0.96510 0.66890 0.90500
H 	H 	0.01380 0.97850 0.59610 0.77300
H 	H 	0.04510 0.93710 0.64240 0.02200
C 	C 	0.97810 0.89460 0.53850 2.79400
H 	H 	0.00460 0.90520 0.53220 -0.64000
H 	H 	0.94690 0.88870 0.48940 -1.13700
H 	H 	0.99000 0.86850 0.56810 -1.00600
C 	C 	0.91950 0.95500 0.51800 8.52600
C 	C 	0.96720 0.92770 0.57790 -3.26500
C 	C 	0.92450 0.99440 0.49280 -79.36700
H 	H 	0.95810 0.00370 0.51040 22.13600
N 	N 	0.76930 0.80870 0.54710 -0.15700
C 	C 	0.72590 0.80360 0.55190 -0.41900
H 	H 	0.73550 0.78560 0.59480 0.18700
H 	H 	0.69780 0.79020 0.50620 0.20100
H 	H 	0.71490 0.83150 0.55790 0.13700
C 	C 	0.77750 0.85170 0.53090 -0.11100
H 	H 	0.78950 0.85050 0.49800 0.14900
H 	H 	0.80320 0.86600 0.57740 0.03600
H 	H 	0.74530 0.86760 0.50620 0.08500
C 	C 	0.80470 0.77830 0.55890 -1.64900
H 	H 	0.82990 0.78800 0.55140 0.97400
O 	O 	0.80890 0.74200 0.57690 0.24300
N 	N 	0.88190 0.89640 0.31000 -0.02400
C 	C 	0.89220 0.85190 0.33300 -0.37800
H 	H 	0.86100 0.83850 0.32300 0.07300
H 	H 	0.91910 0.85030 0.38630 0.09000
H 	H 	0.90340 0.83710 0.30480 0.11000
C 	C 	0.82940 0.90890 0.25600 -0.95200
H 	H 	0.80650 0.88630 0.25170 1.15800
H 	H 	0.82400 0.91390 0.20790 0.58600
H 	H 	0.82210 0.93510 0.27330 0.18000
C 	C 	0.92010 0.92820 0.33700 -3.53200
H 	H 	0.90970 0.95670 0.32160 1.22800
O 	O 	0.96700 0.92040 0.38100 1.27100
N 	N 	0.79750 0.81370 0.55410 0.27000
C 	C 	0.76210 0.84830 0.53810 -0.26500
H 	H 	0.77850 0.87550 0.54200 0.12200
H 	H 	0.73130 0.84500 0.48760 0.11100
H 	H 	0.75270 0.84760 0.57410 0.13100
C 	C 	0.79760 0.78120 0.60280 1.92900
H 	H 	0.76980 0.76100 0.57260 -0.32700
H 	H 	0.83040 0.76610 0.62920 -0.39300
H 	H 	0.79280 0.79490 0.63890 -0.57800
C 	C 	0.82770 0.81170 0.52810 -0.58600
H 	H 	0.84900 0.78770 0.53910 -0.15200
O 	O 	0.82780 0.84040 0.49100 0.43800
Zn	Zn	0.71401 0.56040 0.23805 1.20800
Zn	Zn	0.78176 0.49628 0.23802 1.19000
C 	C 	0.60877 0.66453 0.24180 -0.56700
C 	C 	0.59170 0.70028 0.19500 0.24400
H 	H 	0.60090 0.70360 0.16050 -0.07700
C 	C 	0.56130 0.73110 0.19840 -0.11700
H 	H 	0.55010 0.75470 0.16560 0.03000
N 	N 	0.54722 0.72856 0.24660 -0.20200
C 	C 	0.56280 0.69442 0.29070 -0.11500
H 	H 	0.55270 0.69190 0.32430 0.04200
C 	C 	0.59290 0.66238 0.29040 0.24100
H 	H 	0.60270 0.63890 0.32320 -0.06500
B 	B 	0.64390 0.62844 0.23940 1.48400
O 	O 	0.69330 0.64961 0.26590 -0.51500
N 	N 	0.72868 0.62598 0.25990 -0.18200
C 	C 	0.76390 0.64928 0.26610 0.05200
H 	H 	0.76240 0.67880 0.27390 0.02300
C 	C 	0.80660 0.63503 0.26260 -0.17700
C 	C 	0.81760 0.59131 0.26020 0.19500
C 	C 	0.86110 0.58250 0.25770 -0.19300
C 	C 	0.88960 0.61594 0.25640 0.11900
H 	H 	0.91820 0.60910 0.25470 -0.03400
C 	C 	0.87870 0.65849 0.25730 -0.25500
C 	C 	0.83710 0.66665 0.26090 0.12500
H 	H 	0.82870 0.69550 0.26230 -0.03800
C 	C 	0.87560 0.53936 0.25240 0.01600
H 	H 	0.90550 0.53640 0.25260 0.03400
N 	N 	0.85210 0.50500 0.24750 -0.16300
O 	O 	0.87650 0.46897 0.24290 -0.52300
B 	B 	0.85200 0.42830 0.23720 1.44300
O 	O 	0.64880 0.59439 0.28900 -0.52600
N 	N 	0.68220 0.56104 0.30250 -0.11700
C 	C 	0.68490 0.53396 0.34860 -0.00300
H 	H 	0.66550 0.53980 0.36870 0.23200
C 	C 	0.71490 0.49514 0.37260 -0.00300
C 	C 	0.74630 0.48237 0.34770 0.23300
C 	C 	0.77430 0.44413 0.37730 -0.18700
C 	C 	0.77040 0.42000 0.42820 0.16500
H 	H 	0.78970 0.39460 0.44730 -0.10200
C 	C 	0.73930 0.43170 0.45200 -0.31600
C 	C 	0.71230 0.46960 0.42300 -0.02800
H 	H 	0.69090 0.47850 0.43840 0.31600
C 	C 	0.80900 0.42730 0.35810 0.07600
H 	H 	0.82770 0.40240 0.38340 0.00900
N 	N 	0.81600 0.44333 0.31040 -0.17900
O 	O 	0.85110 0.41916 0.30450 -0.50100
O 	O 	0.61675 0.61345 0.16120 -0.53500
N 	N 	0.63834 0.57782 0.14990 -0.21200
C 	C 	0.60710 0.55960 0.08790 0.40900
H 	H 	0.57350 0.57110 0.05800 -0.04800
C 	C 	0.61820 0.52270 0.05890 -1.55600
C 	C 	0.66710 0.50250 0.09680 1.14000
C 	C 	0.67190 0.46690 0.06060 0.70200
C 	C 	0.63000 0.45900 0.98560 -36.60200
H 	H 	0.63460 0.43710 0.95980 9.69000
C 	C 	0.58300 0.48000 0.94630 3.78900
C 	C 	0.53670 0.46860 0.86780 -1.22000
C 	C 	0.54680 0.42600 0.84250 -0.39600
H 	H 	0.55760 0.40450 0.88130 0.30700
H 	H 	0.57380 0.43000 0.83400 0.03400
H 	H 	0.51540 0.41660 0.79620 0.15000
C 	C 	0.48960 0.46320 0.86970 -0.59300
H 	H 	0.48550 0.48830 0.89250 -0.06400
H 	H 	0.49380 0.43790 0.89910 0.72400
H 	H 	0.45930 0.45980 0.81870 -0.07100
C 	C 	0.52510 0.50420 0.81220 0.53900
H 	H 	0.55340 0.50660 0.80600 -0.15500
H 	H 	0.52120 0.53110 0.83110 -0.32900
H 	H 	0.49350 0.49770 0.76410 -0.12100
C 	C 	0.57960 0.51420 0.98410 35.90900
H 	H 	0.55040 0.53210 0.95860 -12.03300
C 	C 	0.71990 0.44340 0.09260 -0.82800
H 	H 	0.71890 0.41920 0.06560 0.38300
N 	N 	0.76274 0.45182 0.15280 -0.00200
O 	O 	0.80130 0.42304 0.16690 -0.53300
C 	C 	0.88790 0.39117 0.23920 -0.54600
C 	C 	0.86870 0.35624 0.19160 0.22800
H 	H 	0.83310 0.35430 0.15420 -0.04500
C 	C 	0.90120 0.32412 0.19820 -0.11400
H 	H 	0.88660 0.30040 0.16560 0.04300
N 	N 	0.95217 0.32476 0.24840 -0.20500
C 	C 	0.97120 0.35823 0.29380 -0.10500
H 	H 	0.00710 0.35960 0.32970 0.03800
C 	C 	0.94100 0.39141 0.29130 0.22300
H 	H 	0.95660 0.41440 0.32520 -0.04300
O 	O 	0.78905 0.56107 0.26080 -0.56200
C 	C 	0.91100 0.69320 0.25210 0.61900
C 	C 	0.89380 0.73710 0.25690 -0.86700
H 	H 	0.91580 0.75840 0.25550 0.23800
H 	H 	0.89600 0.73980 0.30370 0.25400
H 	H 	0.85830 0.74150 0.21470 0.24000
C 	C 	0.96710 0.68780 0.31680 -0.87500
H 	H 	0.97550 0.70820 0.35620 0.25900
H 	H 	0.98900 0.69290 0.29890 0.24700
H 	H 	0.97260 0.65890 0.33660 0.27100
C 	C 	0.90820 0.68750 0.18090 -0.84800
H 	H 	0.92690 0.66180 0.18440 0.24600
H 	H 	0.92360 0.71220 0.17320 0.22200
H 	H 	0.87240 0.68490 0.13880 0.23000
O 	O 	0.74906 0.50489 0.30010 -0.50300
O 	O 	0.70647 0.51790 0.15830 -0.82300
C 	C 	0.72760 0.39750 0.49430 1.28100
C 	C 	0.71410 0.41920 0.54160 0.43000
H 	H 	0.73630 0.44400 0.56550 2.13100
H 	H 	0.71880 0.39950 0.58000 -0.43200
H 	H 	0.67830 0.42840 0.51060 -0.11400
C 	C 	0.69730 0.35630 0.45170 -2.33400
H 	H 	0.69330 0.33830 0.48490 0.43500
H 	H 	0.71610 0.34070 0.43540 0.76500
H 	H 	0.66350 0.36410 0.40810 0.38800
C 	C 	0.78750 0.37860 0.56520 -1.63200
H 	H 	0.78360 0.35800 0.59560 -1.21300
H 	H 	0.80880 0.40230 0.59650 0.83300
H 	H 	0.80380 0.36460 0.54330 2.03300
N 	N 	0.56350 0.32410 0.02390 -0.08000
O 	O 	0.61410 0.33620 0.98060 0.01000
C 	C 	0.51730 0.33840 0.95550 -0.15900
H 	H 	0.50100 0.36060 0.96700 0.05200
H 	H 	0.49370 0.31440 0.93140 0.07000
H 	H 	0.52590 0.34990 0.92190 0.15700
C 	C 	0.56590 0.31140 0.09040 -0.44400
H 	H 	0.59830 0.32090 0.13490 0.18500
H 	H 	0.56350 0.28040 0.09140 0.12800
H 	H 	0.53740 0.32440 0.08950 0.12200
C 	C 	0.60990 0.32380 0.02880 0.07200
H 	H 	0.63950 0.31310 0.07310 0.01000
N 	N 	0.61200 0.42610 0.16500 -0.32100
C 	C 	0.60840 0.43590 0.22670 -0.06800
H 	H 	0.64160 0.43080 0.27370 0.03800
H 	H 	0.58240 0.41780 0.22460 0.06700
H 	H 	0.59890 0.46580 0.22400 0.02100
C 	C 	0.66130 0.41120 0.18500 1.10000
H 	H 	0.67810 0.39570 0.23230 -0.49800
H 	H 	0.68240 0.43550 0.19030 -0.56700
H 	H 	0.65680 0.39220 0.14590 -0.69200
C 	C 	0.57060 0.42680 0.08950 1.18600
H 	H 	0.57870 0.42070 0.05450 -0.70800
O 	O 	0.52690 0.43410 0.06410 -0.06600
C 	C 	0.74070 0.41100 0.51720 0.02700
C 	C 	0.76550 0.44240 0.58440 -5.84400
H 	H 	0.79940 0.45090 0.59730 1.84300
H 	H 	0.76890 0.42850 0.62730 1.51100
H 	H 	0.74390 0.46770 0.57080 0.78000
C 	C 	0.68540 0.40040 0.49020 -3.02300
H 	H 	0.68290 0.39900 0.53310 0.70800
H 	H 	0.67560 0.37300 0.46440 1.36600
H 	H 	0.66240 0.42260 0.45590 0.68200
C 	C 	0.76980 0.36920 0.54010 1.60700
H 	H 	0.77000 0.35690 0.58180 1.23000
H 	H 	0.80500 0.37430 0.55560 -1.90700
H 	H 	0.75310 0.34950 0.49790 -0.63300
C 	C 	0.62920 0.44010 0.01290 34.89100
H 	H 	0.63440 0.41200 0.00260 -11.96200
C 	C 	0.54290 0.40360 0.87090 -0.41600
H 	H 	0.56420 0.37870 0.89710 0.04100
H 	H 	0.56080 0.42230 0.85650 0.35200
H 	H 	0.51040 0.39450 0.82620 0.15100
C 	C 	0.48530 0.45450 0.87450 -0.14000
H 	H 	0.48410 0.46510 0.83110 0.60700
H 	H 	0.48620 0.47850 0.90390 0.25400
H 	H 	0.45490 0.43710 0.85760 0.06700
C 	C 	0.52190 0.39460 0.96150 0.86800
H 	H 	0.49540 0.40520 0.96780 -0.16500
H 	H 	0.55310 0.38870 0.01060 -0.38500
H 	H 	0.51000 0.36850 0.93190 -0.28700
C 	C 	0.58050 0.45500 0.98200 3.90100
C 	C 	0.53280 0.42770 0.92210 -1.50400
C 	C 	0.57550 0.49440 0.00720 -36.61800
H 	H 	0.54190 0.50370 0.98960 10.23000
N 	N 	0.73070 0.30870 0.95290 -0.16800
C 	C 	0.77410 0.30360 0.94810 -0.43600
H 	H 	0.76450 0.28560 0.90520 0.19700
H 	H 	0.80220 0.29020 0.99380 0.21200
H 	H 	0.78510 0.33150 0.94210 0.14300
C 	C 	0.72250 0.35170 0.96910 -0.08400
H 	H 	0.71050 0.35050 0.00200 0.12500
H 	H 	0.69680 0.36600 0.92260 0.03800
H 	H 	0.75470 0.36760 0.99380 0.07600
C 	C 	0.69530 0.27830 0.94110 -1.82800
H 	H 	0.67010 0.28800 0.94860 1.00500
O 	O 	0.69110 0.24200 0.92310 0.30000
N 	N 	0.61810 0.39640 0.19000 -0.01500
C 	C 	0.60780 0.35190 0.16700 -0.51600
H 	H 	0.63900 0.33850 0.17700 0.12700
H 	H 	0.58090 0.35030 0.11370 0.17500
H 	H 	0.59660 0.33710 0.19520 0.13300
C 	C 	0.67060 0.40890 0.24400 -0.40700
H 	H 	0.69350 0.38630 0.24830 0.42800
H 	H 	0.67600 0.41390 0.29210 0.14900
H 	H 	0.67790 0.43510 0.22670 0.11900
C 	C 	0.57990 0.42820 0.16300 -0.20100
H 	H 	0.59030 0.45670 0.17840 0.34000
O 	O 	0.53300 0.42040 0.11900 0.02600
N 	N 	0.70250 0.31370 0.94590 0.26300
C 	C 	0.73790 0.34830 0.96190 -0.25200
H 	H 	0.72150 0.37550 0.95800 0.09200
H 	H 	0.76870 0.34500 0.01240 0.10000
H 	H 	0.74730 0.34760 0.92590 0.12500
C 	C 	0.70240 0.28120 0.89720 2.20700
H 	H 	0.73020 0.26100 0.92740 -0.39600
H 	H 	0.66960 0.26610 0.87080 -0.46400
H 	H 	0.70720 0.29490 0.86110 -0.66600
C 	C 	0.67230 0.31170 0.97190 -0.43000
H 	H 	0.65100 0.28770 0.96090 -0.20000
O 	O 	0.67220 0.34040 0.00900 0.17200
Zn	Zn	0.21401 0.06040 0.23805 1.20900
Zn	Zn	0.28176 0.99628 0.23802 1.18000
C 	C 	0.10877 0.16453 0.24180 -0.57400
C 	C 	0.09170 0.20028 0.19500 0.24800
H 	H 	0.10090 0.20360 0.16050 -0.07500
C 	C 	0.06130 0.23110 0.19840 -0.11800
H 	H 	0.05010 0.25470 0.16560 0.03500
N 	N 	0.04722 0.22856 0.24660 -0.19700
C 	C 	0.06280 0.19442 0.29070 -0.12400
H 	H 	0.05270 0.19190 0.32430 0.04300
C 	C 	0.09290 0.16238 0.29040 0.25900
H 	H 	0.10270 0.13890 0.32320 -0.09200
B 	B 	0.14390 0.12844 0.23940 1.49100
O 	O 	0.19330 0.14961 0.26590 -0.51700
N 	N 	0.22868 0.12598 0.25990 -0.18000
C 	C 	0.26390 0.14928 0.26610 0.05500
H 	H 	0.26240 0.17880 0.27390 0.02600
C 	C 	0.30660 0.13503 0.26260 -0.17100
C 	C 	0.31760 0.09131 0.26020 0.18400
C 	C 	0.36110 0.08250 0.25770 -0.19500
C 	C 	0.38960 0.11594 0.25640 0.11000
H 	H 	0.41820 0.10910 0.25470 -0.03300
C 	C 	0.37870 0.15849 0.25730 -0.25600
C 	C 	0.33710 0.16665 0.26090 0.11600
H 	H 	0.32870 0.19550 0.26230 -0.03200
C 	C 	0.37560 0.03936 0.25240 0.00600
H 	H 	0.40550 0.03640 0.25260 0.03700
N 	N 	0.35210 0.00500 0.24750 -0.15700
O 	O 	0.37650 0.96897 0.24290 -0.53500
B 	B 	0.35200 0.92830 0.23720 1.44200
O 	O 	0.14880 0.09439 0.28900 -0.53000
N 	N 	0.18220 0.06104 0.30250 -0.07700
C 	C 	0.18490 0.03396 0.34860 -0.14600
H 	H 	0.16550 0.03980 0.36870 0.48000
C 	C 	0.21490 0.99514 0.37260 0.28500
C 	C 	0.24630 0.98237 0.34770 0.07900
C 	C 	0.27430 0.94413 0.37730 -0.04800
C 	C 	0.27040 0.92000 0.42820 -0.05200
H 	H 	0.28970 0.89460 0.44730 0.00500
C 	C 	0.23930 0.93170 0.45200 0.03300
C 	C 	0.21230 0.96960 0.42300 -0.43100
H 	H 	0.19090 0.97850 0.43840 0.80100
C 	C 	0.30900 0.92730 0.35810 0.01500
H 	H 	0.32770 0.90240 0.38340 0.03300
N 	N 	0.31600 0.94333 0.31040 -0.16900
O 	O 	0.35110 0.91916 0.30450 -0.50300
O 	O 	0.11675 0.11345 0.16120 -0.53200
N 	N 	0.13834 0.07782 0.14990 -0.21300
C 	C 	0.10710 0.05960 0.08790 0.44100
H 	H 	0.07350 0.07110 0.05800 -0.04900
C 	C 	0.11820 0.02270 0.05890 -1.66500
C 	C 	0.16710 0.00250 0.09680 1.24500
C 	C 	0.17190 0.96690 0.06060 0.74300
C 	C 	0.13000 0.95900 0.98560 -39.78300
H 	H 	0.13460 0.93710 0.95980 10.52500
C 	C 	0.08300 0.98000 0.94630 4.04800
C 	C 	0.03670 0.96860 0.86780 -1.30500
C 	C 	0.04680 0.92600 0.84250 -0.45100
H 	H 	0.05760 0.90450 0.88130 0.34700
H 	H 	0.07380 0.93000 0.83400 0.04500
H 	H 	0.01540 0.91660 0.79620 0.15100
C 	C 	0.98960 0.96320 0.86970 -0.69500
H 	H 	0.98550 0.98830 0.89250 -0.06800
H 	H 	0.99380 0.93790 0.89910 0.83800
H 	H 	0.95930 0.95980 0.81870 -0.06500
C 	C 	0.02510 0.00420 0.81220 0.48800
H 	H 	0.05340 0.00660 0.80600 -0.07200
H 	H 	0.02120 0.03110 0.83110 -0.33400
H 	H 	0.99350 0.99770 0.76410 0.01000
C 	C 	0.07960 0.01420 0.98410 39.18400
H 	H 	0.05040 0.03210 0.95860 -13.14500
C 	C 	0.21990 0.94340 0.09260 -0.90900
H 	H 	0.21890 0.91920 0.06560 0.41300
N 	N 	0.26274 0.95182 0.15280 0.00300
O 	O 	0.30130 0.92304 0.16690 -0.53700
C 	C 	0.38790 0.89117 0.23920 -0.54700
C 	C 	0.36870 0.85624 0.19160 0.22800
H 	H 	0.33310 0.85430 0.15420 -0.04500
C 	C 	0.40120 0.82412 0.19820 -0.11500
H 	H 	0.38660 0.80040 0.16560 0.04400
N 	N 	0.45217 0.82476 0.24840 -0.20400
C 	C 	0.47120 0.85823 0.29380 -0.10300
H 	H 	0.50710 0.85960 0.32970 0.03400
C 	C 	0.44100 0.89141 0.29130 0.22200
H 	H 	0.45660 0.91440 0.32520 -0.04500
O 	O 	0.28905 0.06107 0.26080 -0.56200
C 	C 	0.41100 0.19320 0.25210 0.60900
C 	C 	0.39380 0.23710 0.25690 -0.85800
H 	H 	0.41580 0.25840 0.25550 0.23200
H 	H 	0.39600 0.23980 0.30370 0.25000
H 	H 	0.35830 0.24150 0.21470 0.24000
C 	C 	0.46710 0.18780 0.31680 -0.85700
H 	H 	0.47550 0.20820 0.35620 0.24800
H 	H 	0.48900 0.19290 0.29890 0.23700
H 	H 	0.47260 0.15890 0.33660 0.26200
C 	C 	0.40820 0.18750 0.18090 -0.84500
H 	H 	0.42690 0.16180 0.18440 0.24400
H 	H 	0.42360 0.21220 0.17320 0.22200
H 	H 	0.37240 0.18490 0.13880 0.23100
O 	O 	0.24906 0.00489 0.30010 -0.44700
O 	O 	0.20647 0.01790 0.15830 -0.85300
C 	C 	0.22760 0.89750 0.49430 0.08900
C 	C 	0.21410 0.91920 0.54160 2.02500
H 	H 	0.23630 0.94400 0.56550 0.86300
H 	H 	0.21880 0.89950 0.58000 -0.82300
H 	H 	0.17830 0.92840 0.51060 -0.70400
C 	C 	0.19730 0.85630 0.45170 -0.98000
H 	H 	0.19330 0.83830 0.48490 0.10600
H 	H 	0.21610 0.84070 0.43540 0.32100
H 	H 	0.16350 0.86410 0.40810 0.03600
C 	C 	0.28750 0.87860 0.56520 -0.66600
H 	H 	0.28360 0.85800 0.59560 -0.36600
H 	H 	0.30880 0.90230 0.59650 0.36800
H 	H 	0.30380 0.86460 0.54330 0.89700
N 	N 	0.06350 0.82410 0.02390 -0.05400
O 	O 	0.11410 0.83620 0.98060 0.01600
C 	C 	0.01730 0.83840 0.95550 -0.35100
H 	H 	0.00100 0.86060 0.96700 0.08400
H 	H 	0.99370 0.81440 0.93140 0.16100
H 	H 	0.02590 0.84990 0.92190 0.18500
C 	C 	0.06590 0.81140 0.09040 -0.46500
H 	H 	0.09830 0.82090 0.13490 0.19200
H 	H 	0.06350 0.78040 0.09140 0.13300
H 	H 	0.03740 0.82440 0.08950 0.12600
C 	C 	0.10990 0.82380 0.02880 0.07200
H 	H 	0.13950 0.81310 0.07310 0.01000
N 	N 	0.11200 0.92610 0.16500 -0.31600
C 	C 	0.10840 0.93590 0.22670 0.20300
H 	H 	0.14160 0.93080 0.27370 -0.05100
H 	H 	0.08240 0.91780 0.22460 0.01400
H 	H 	0.09890 0.96580 0.22400 -0.05800
C 	C 	0.16130 0.91120 0.18500 1.24000
H 	H 	0.17810 0.89570 0.23230 -0.57300
H 	H 	0.18240 0.93550 0.19030 -0.63400
H 	H 	0.15680 0.89220 0.14590 -0.77000
C 	C 	0.07060 0.92680 0.08950 1.37900
H 	H 	0.07870 0.92070 0.05450 -0.81500
O 	O 	0.02690 0.93410 0.06410 -0.12100
C 	C 	0.24070 0.91100 0.51720 0.57200
C 	C 	0.26550 0.94240 0.58440 -4.63300
H 	H 	0.29940 0.95090 0.59730 1.47200
H 	H 	0.26890 0.92850 0.62730 1.23900
H 	H 	0.24390 0.96770 0.57080 1.14600
C 	C 	0.18540 0.90040 0.49020 -2.89400
H 	H 	0.18290 0.89900 0.53310 0.48600
H 	H 	0.17560 0.87300 0.46440 1.13200
H 	H 	0.16240 0.92260 0.45590 0.63400
C 	C 	0.26980 0.86920 0.54010 0.51400
H 	H 	0.27000 0.85690 0.58180 0.42100
H 	H 	0.30500 0.87430 0.55560 -0.82400
H 	H 	0.25310 0.84950 0.49790 -0.18200
C 	C 	0.12920 0.94010 0.01290 37.93000
H 	H 	0.13440 0.91200 0.00260 -13.00200
C 	C 	0.04290 0.90360 0.87090 -0.46800
H 	H 	0.06420 0.87870 0.89710 0.03800
H 	H 	0.06080 0.92230 0.85650 0.39400
H 	H 	0.01040 0.89450 0.82620 0.15500
C 	C 	0.98530 0.95450 0.87450 -0.17200
H 	H 	0.98410 0.96510 0.83110 0.71000
H 	H 	0.98620 0.97850 0.90390 0.31100
H 	H 	0.95490 0.93710 0.85760 0.07700
C 	C 	0.02190 0.89460 0.96150 0.70600
H 	H 	0.99540 0.90520 0.96780 -0.08000
H 	H 	0.05310 0.88870 0.01060 -0.34000
H 	H 	0.01000 0.86850 0.93190 -0.21800
C 	C 	0.08050 0.95500 0.98200 4.30300
C 	C 	0.03280 0.92770 0.92210 -1.63600
C 	C 	0.07550 0.99440 0.00720 -39.96100
H 	H 	0.04190 0.00370 0.98960 11.14500
N 	N 	0.23070 0.80870 0.95290 -0.16500
C 	C 	0.27410 0.80360 0.94810 -0.42800
H 	H 	0.26450 0.78560 0.90520 0.19300
H 	H 	0.30220 0.79020 0.99380 0.20500
H 	H 	0.28510 0.83150 0.94210 0.13700
C 	C 	0.22250 0.85170 0.96910 -0.08800
H 	H 	0.21050 0.85050 0.00200 0.13200
H 	H 	0.19680 0.86600 0.92260 0.03700
H 	H 	0.25470 0.86760 0.99380 0.06900
C 	C 	0.19530 0.77830 0.94110 -1.78600
H 	H 	0.17010 0.78800 0.94860 0.99400
O 	O 	0.19110 0.74200 0.92310 0.28500
N 	N 	0.11810 0.89640 0.19000 -0.01300
C 	C 	0.10780 0.85190 0.16700 -0.51800
H 	H 	0.13900 0.83850 0.17700 0.12700
H 	H 	0.08090 0.85030 0.11370 0.17100
H 	H 	0.09660 0.83710 0.19520 0.13600
C 	C 	0.17060 0.90890 0.24400 -0.46600
H 	H 	0.19350 0.88630 0.24830 0.49700
H 	H 	0.17600 0.91390 0.29210 0.19400
H 	H 	0.17790 0.93510 0.22670 0.12600
C 	C 	0.07990 0.92820 0.16300 -0.44100
H 	H 	0.09030 0.95670 0.17840 0.39800
O 	O 	0.03300 0.92040 0.11900 0.10800
N 	N 	0.20250 0.81370 0.94590 0.26200
C 	C 	0.23790 0.84830 0.96190 -0.26200
H 	H 	0.22150 0.87550 0.95800 0.09600
H 	H 	0.26870 0.84500 0.01240 0.11100
H 	H 	0.24730 0.84760 0.92590 0.12600
C 	C 	0.20240 0.78120 0.89720 2.14300
H 	H 	0.23020 0.76100 0.92740 -0.38100
H 	H 	0.16960 0.76610 0.87080 -0.44800
H 	H 	0.20720 0.79490 0.86110 -0.64600
C 	C 	0.17230 0.81170 0.97190 -0.45700
H 	H 	0.15100 0.78770 0.96090 -0.19200
O 	O 	0.17220 0.84040 0.00900 0.20300
Zn	Zn	0.50000 0.77571 0.25000 1.14700
Zn	Zn	0.00000 0.27571 0.25000 1.15200
Zn	Zn	0.71401 0.43960 0.73805 1.20900
Zn	Zn	0.78176 0.50372 0.73802 1.19000
C 	C 	0.60877 0.33547 0.74180 -0.56500
C 	C 	0.59170 0.29972 0.69500 0.24500
H 	H 	0.60090 0.29640 0.66050 -0.07400
C 	C 	0.56130 0.26890 0.69840 -0.11500
H 	H 	0.55010 0.24530 0.66560 0.03200
N 	N 	0.54722 0.27144 0.74660 -0.20200
C 	C 	0.56280 0.30558 0.79070 -0.11400
H 	H 	0.55270 0.30810 0.82430 0.04200
C 	C 	0.59290 0.33762 0.79040 0.24000
H 	H 	0.60270 0.36110 0.82320 -0.06400
B 	B 	0.64390 0.37156 0.73940 1.48400
O 	O 	0.69330 0.35039 0.76590 -0.51300
N 	N 	0.72868 0.37402 0.75990 -0.18100
C 	C 	0.76390 0.35072 0.76610 0.05300
H 	H 	0.76240 0.32120 0.77390 0.02700
C 	C 	0.80660 0.36497 0.76260 -0.17500
C 	C 	0.81760 0.40869 0.76020 0.19100
C 	C 	0.86110 0.41750 0.75770 -0.19400
C 	C 	0.88960 0.38406 0.75640 0.11800
H 	H 	0.91820 0.39090 0.75470 -0.03200
C 	C 	0.87870 0.34151 0.75730 -0.26000
C 	C 	0.83710 0.33335 0.76090 0.12500
H 	H 	0.82870 0.30450 0.76230 -0.03500
C 	C 	0.87560 0.46064 0.75240 0.01300
H 	H 	0.90550 0.46360 0.75260 0.03700
N 	N 	0.85210 0.49500 0.74750 -0.16300
O 	O 	0.87650 0.53103 0.74290 -0.51900
B 	B 	0.85200 0.57170 0.73720 1.43300
O 	O 	0.64880 0.40561 0.78900 -0.52500
N 	N 	0.68220 0.43896 0.80250 -0.11600
C 	C 	0.68490 0.46604 0.84860 -0.00100
H 	H 	0.66550 0.46020 0.86870 0.22600
C 	C 	0.71490 0.50486 0.87260 0.00100
C 	C 	0.74630 0.51763 0.84770 0.22900
C 	C 	0.77430 0.55587 0.87730 -0.17700
C 	C 	0.77040 0.58000 0.92820 0.14300
H 	H 	0.78970 0.60540 0.94730 -0.09600
C 	C 	0.73930 0.56830 0.95200 -0.27600
C 	C 	0.71230 0.53040 0.92300 -0.03900
H 	H 	0.69090 0.52150 0.93840 0.31600
C 	C 	0.80900 0.57270 0.85810 0.07200
H 	H 	0.82770 0.59760 0.88340 0.01200
N 	N 	0.81600 0.55667 0.81040 -0.17800
O 	O 	0.85110 0.58084 0.80450 -0.49900
O 	O 	0.61675 0.38655 0.66120 -0.53300
N 	N 	0.63834 0.42218 0.64990 -0.21300
C 	C 	0.60710 0.44040 0.58790 0.42700
H 	H 	0.57350 0.42890 0.55800 -0.05000
C 	C 	0.61820 0.47730 0.55890 -1.62300
C 	C 	0.66710 0.49750 0.59680 1.18000
C 	C 	0.67190 0.53310 0.56060 0.74100
C 	C 	0.63000 0.54100 0.48560 -38.22100
H 	H 	0.63460 0.56290 0.45980 10.11500
C 	C 	0.58300 0.52000 0.44630 3.92800
C 	C 	0.53670 0.53140 0.36780 -1.26800
C 	C 	0.54680 0.57400 0.34250 -0.42300
H 	H 	0.55760 0.59550 0.38130 0.33100
H 	H 	0.57380 0.57000 0.33400 0.03300
H 	H 	0.51540 0.58340 0.29620 0.15900
C 	C 	0.48960 0.53680 0.36970 -0.59900
H 	H 	0.48550 0.51170 0.39250 -0.08800
H 	H 	0.49380 0.56210 0.39910 0.74100
H 	H 	0.45930 0.54020 0.31870 -0.07600
C 	C 	0.52510 0.49580 0.31220 0.58000
H 	H 	0.55340 0.49340 0.30600 -0.17100
H 	H 	0.52120 0.46890 0.33110 -0.34900
H 	H 	0.49350 0.50230 0.26410 -0.13500
C 	C 	0.57960 0.48580 0.48410 37.56300
H 	H 	0.55040 0.46790 0.45860 -12.58900
C 	C 	0.71990 0.55660 0.59260 -0.87000
H 	H 	0.71890 0.58080 0.56560 0.40000
N 	N 	0.76274 0.54818 0.65280 0.00500
O 	O 	0.80130 0.57696 0.66690 -0.53100
C 	C 	0.88790 0.60883 0.73920 -0.52500
C 	C 	0.86870 0.64376 0.69160 0.21500
H 	H 	0.83310 0.64570 0.65420 -0.04000
C 	C 	0.90120 0.67588 0.69820 -0.10400
H 	H 	0.88660 0.69960 0.66560 0.04200
N 	N 	0.95217 0.67524 0.74840 -0.21100
C 	C 	0.97120 0.64177 0.79380 -0.02300
H 	H 	0.00710 0.64040 0.82970 -0.01400
C 	C 	0.94100 0.60859 0.79130 0.18300
H 	H 	0.95660 0.58560 0.82520 -0.02300
O 	O 	0.78905 0.43893 0.76080 -0.56200
C 	C 	0.91100 0.30680 0.75210 0.63300
C 	C 	0.89380 0.26290 0.75690 -0.88500
H 	H 	0.91580 0.24160 0.75550 0.24300
H 	H 	0.89600 0.26020 0.80370 0.25900
H 	H 	0.85830 0.25850 0.71470 0.25200
C 	C 	0.96710 0.31220 0.81680 -0.88900
H 	H 	0.97550 0.29180 0.85620 0.26100
H 	H 	0.98900 0.30710 0.79890 0.25400
H 	H 	0.97260 0.34110 0.83660 0.27600
C 	C 	0.90820 0.31250 0.68090 -0.87100
H 	H 	0.92690 0.33820 0.68440 0.25600
H 	H 	0.92360 0.28780 0.67320 0.23300
H 	H 	0.87240 0.31510 0.63880 0.24100
O 	O 	0.74906 0.49511 0.80010 -0.50100
O 	O 	0.70647 0.48210 0.65830 -0.83600
C 	C 	0.72760 0.60250 0.99430 1.42600
C 	C 	0.71410 0.58080 0.04160 0.06400
H 	H 	0.73630 0.55600 0.06550 2.21200
H 	H 	0.71880 0.60050 0.08000 -0.30700
H 	H 	0.67830 0.57160 0.01060 -0.03900
C 	C 	0.69730 0.64370 0.95170 -2.39300
H 	H 	0.69330 0.66170 0.98490 0.46300
H 	H 	0.71610 0.65930 0.93540 0.78700
H 	H 	0.66350 0.63590 0.90810 0.42800
C 	C 	0.78750 0.62140 0.06520 -1.77000
H 	H 	0.78360 0.64200 0.09560 -1.38100
H 	H 	0.80880 0.59770 0.09650 0.89800
H 	H 	0.80380 0.63540 0.04330 2.19100
N 	N 	0.56350 0.67590 0.52390 -0.08400
O 	O 	0.61410 0.66380 0.48060 0.01700
C 	C 	0.51730 0.66160 0.45550 -0.13900
H 	H 	0.50100 0.63940 0.46700 0.04600
H 	H 	0.49370 0.68560 0.43140 0.06700
H 	H 	0.52590 0.65010 0.42190 0.16000
C 	C 	0.56590 0.68860 0.59040 -0.43900
H 	H 	0.59830 0.67910 0.63490 0.18200
H 	H 	0.56350 0.71960 0.59140 0.12600
H 	H 	0.53740 0.67560 0.58950 0.12000
C 	C 	0.60990 0.67620 0.52880 0.07200
H 	H 	0.63950 0.68690 0.57310 0.00900
N 	N 	0.61200 0.57390 0.66500 -0.31400
C 	C 	0.60840 0.56410 0.72670 0.07200
H 	H 	0.64160 0.56920 0.77370 -0.00900
H 	H 	0.58240 0.58220 0.72460 0.04300
H 	H 	0.59890 0.53420 0.72400 -0.02400
C 	C 	0.66130 0.58880 0.68500 1.15500
H 	H 	0.67810 0.60430 0.73230 -0.53100
H 	H 	0.68240 0.56450 0.69030 -0.59400
H 	H 	0.65680 0.60780 0.64590 -0.72700
C 	C 	0.57060 0.57320 0.58950 1.28400
H 	H 	0.57870 0.57930 0.55450 -0.75800
O 	O 	0.52690 0.56590 0.56410 -0.08500
C 	C 	0.74070 0.58900 0.01720 -0.20500
C 	C 	0.76550 0.55760 0.08440 -5.58300
H 	H 	0.79940 0.54910 0.09730 1.76200
H 	H 	0.76890 0.57150 0.12730 1.43500
H 	H 	0.74390 0.53230 0.07080 0.67600
C 	C 	0.68540 0.59960 0.99020 -2.56500
H 	H 	0.68290 0.60100 0.03310 0.59900
H 	H 	0.67560 0.62700 0.96440 1.21000
H 	H 	0.66240 0.57740 0.95590 0.54600
C 	C 	0.76980 0.63080 0.04010 1.82600
H 	H 	0.77000 0.64310 0.08180 1.37000
H 	H 	0.80500 0.62570 0.05560 -2.07900
H 	H 	0.75310 0.65050 0.99790 -0.71900
C 	C 	0.62920 0.55990 0.51290 36.43000
H 	H 	0.63440 0.58800 0.50260 -12.48900
C 	C 	0.54290 0.59640 0.37090 -0.44700
H 	H 	0.56420 0.62130 0.39710 0.04000
H 	H 	0.56080 0.57770 0.35650 0.37500
H 	H 	0.51040 0.60550 0.32620 0.16100
C 	C 	0.48530 0.54550 0.37450 -0.12800
H 	H 	0.48410 0.53490 0.33110 0.61800
H 	H 	0.48620 0.52150 0.40390 0.27400
H 	H 	0.45490 0.56290 0.35760 0.06400
C 	C 	0.52190 0.60540 0.46150 0.94800
H 	H 	0.49540 0.59480 0.46780 -0.18400
H 	H 	0.55310 0.61130 0.51060 -0.41600
H 	H 	0.51000 0.63150 0.43190 -0.31700
C 	C 	0.58050 0.54500 0.48200 4.10600
C 	C 	0.53280 0.57230 0.42210 -1.58200
C 	C 	0.57550 0.50560 0.50720 -38.29500
H 	H 	0.54190 0.49630 0.48960 10.69600
N 	N 	0.73070 0.69130 0.45290 -0.16600
C 	C 	0.77410 0.69640 0.44810 -0.42600
H 	H 	0.76450 0.71440 0.40520 0.18900
H 	H 	0.80220 0.70980 0.49380 0.20300
H 	H 	0.78510 0.66850 0.44210 0.13800
C 	C 	0.72250 0.64830 0.46910 -0.09000
H 	H 	0.71050 0.64950 0.50200 0.13100
H 	H 	0.69680 0.63400 0.42260 0.03800
H 	H 	0.75470 0.63240 0.49380 0.07100
C 	C 	0.69530 0.72170 0.44110 -1.78800
H 	H 	0.67010 0.71200 0.44860 0.98900
O 	O 	0.69110 0.75800 0.42310 0.28500
N 	N 	0.61810 0.60360 0.69000 -0.01500
C 	C 	0.60780 0.64810 0.66700 -0.51000
H 	H 	0.63900 0.66150 0.67700 0.12500
H 	H 	0.58090 0.64970 0.61370 0.17100
H 	H 	0.59660 0.66290 0.69520 0.13200
C 	C 	0.67060 0.59110 0.74400 -0.42600
H 	H 	0.69350 0.61370 0.74830 0.45400
H 	H 	0.67600 0.58610 0.79210 0.16300
H 	H 	0.67790 0.56490 0.72670 0.12100
C 	C 	0.57990 0.57180 0.66300 -0.33000
H 	H 	0.59030 0.54330 0.67840 0.37400
O 	O 	0.53300 0.57960 0.61900 0.07200
N 	N 	0.70250 0.68630 0.44590 0.26000
C 	C 	0.73790 0.65170 0.46190 -0.26000
H 	H 	0.72150 0.62450 0.45800 0.09700
H 	H 	0.76870 0.65500 0.51240 0.11100
H 	H 	0.74730 0.65240 0.42590 0.12700
C 	C 	0.70240 0.71880 0.39720 2.15600
H 	H 	0.73020 0.73900 0.42740 -0.38900
H 	H 	0.66960 0.73390 0.37080 -0.45100
H 	H 	0.70720 0.70510 0.36110 -0.65100
C 	C 	0.67230 0.68830 0.47190 -0.43700
H 	H 	0.65100 0.71230 0.46090 -0.19200
O 	O 	0.67220 0.65960 0.50900 0.18300
Zn	Zn	0.21401 0.93960 0.73805 1.23400
Zn	Zn	0.28176 0.00372 0.73802 1.18800
C 	C 	0.10877 0.83547 0.74180 -0.57000
C 	C 	0.09170 0.79972 0.69500 0.25700
H 	H 	0.10090 0.79640 0.66050 -0.07800
C 	C 	0.06130 0.76890 0.69840 -0.11900
H 	H 	0.05010 0.74530 0.66560 0.03100
N 	N 	0.04722 0.77144 0.74660 -0.20600
C 	C 	0.06280 0.80558 0.79070 -0.12100
H 	H 	0.05270 0.80810 0.82430 0.03600
C 	C 	0.09290 0.83762 0.79040 0.24300
H 	H 	0.10270 0.86110 0.82320 -0.06700
B 	B 	0.14390 0.87156 0.73940 1.50400
O 	O 	0.19330 0.85039 0.76590 -0.52100
N 	N 	0.22868 0.87402 0.75990 -0.18000
C 	C 	0.26390 0.85072 0.76610 0.05800
H 	H 	0.26240 0.82120 0.77390 0.02500
C 	C 	0.30660 0.86497 0.76260 -0.17300
C 	C 	0.31760 0.90869 0.76020 0.20000
C 	C 	0.36110 0.91750 0.75770 -0.19100
C 	C 	0.38960 0.88406 0.75640 0.11100
H 	H 	0.41820 0.89090 0.75470 -0.03300
C 	C 	0.37870 0.84151 0.75730 -0.26700
C 	C 	0.33710 0.83335 0.76090 0.11500
H 	H 	0.32870 0.80450 0.76230 -0.03200
C 	C 	0.37560 0.96064 0.75240 0.02900
H 	H 	0.40550 0.96360 0.75260 0.03400
N 	N 	0.35210 0.99500 0.74750 -0.16300
O 	O 	0.37650 0.03103 0.74290 -0.51700
B 	B 	0.35200 0.07170 0.73720 1.43800
O 	O 	0.14880 0.90561 0.78900 -0.50600
N 	N 	0.18220 0.93896 0.80250 -0.09400
C 	C 	0.18490 0.96604 0.84860 0.03800
H 	H 	0.16550 0.96020 0.86870 0.23800
C 	C 	0.21490 0.00486 0.87260 0.00500
C 	C 	0.24630 0.01763 0.84770 0.25000
C 	C 	0.27430 0.05587 0.87730 -0.22000
C 	C 	0.27040 0.08000 0.92820 0.19400
H 	H 	0.28970 0.10540 0.94730 -0.11700
C 	C 	0.23930 0.06830 0.95200 -0.39300
C 	C 	0.21230 0.03040 0.92300 0.01300
H 	H 	0.19090 0.02150 0.93840 0.29600
C 	C 	0.30900 0.07270 0.85810 0.06700
H 	H 	0.32770 0.09760 0.88340 -0.00100
N 	N 	0.31600 0.05667 0.81040 -0.19200
O 	O 	0.35110 0.08084 0.80450 -0.51500
O 	O 	0.11675 0.88655 0.66120 -0.52000
N 	N 	0.13834 0.92218 0.64990 -0.25300
C 	C 	0.10710 0.94040 0.58790 0.88000
H 	H 	0.07350 0.92890 0.55800 -0.13300
C 	C 	0.11820 0.97730 0.55890 -3.25100
C 	C 	0.16710 0.99750 0.59680 2.26700
C 	C 	0.17190 0.03310 0.56060 1.69700
C 	C 	0.13000 0.04100 0.48560 -79.64200
H 	H 	0.13460 0.06290 0.45980 21.04400
C 	C 	0.08300 0.02000 0.44630 8.22500
C 	C 	0.03670 0.03140 0.36780 -2.68000
C 	C 	0.04680 0.07400 0.34250 -1.14100
H 	H 	0.05760 0.09550 0.38130 0.86600
H 	H 	0.07380 0.07000 0.33400 0.03700
H 	H 	0.01540 0.08340 0.29620 0.40600
C 	C 	0.98960 0.03680 0.36970 -0.73500
H 	H 	0.98550 0.01170 0.39250 -0.63700
H 	H 	0.99380 0.06210 0.39910 1.11600
H 	H 	0.95930 0.04020 0.31870 -0.18000
C 	C 	0.02510 0.99580 0.31220 1.67500
H 	H 	0.05340 0.99340 0.30600 -0.53800
H 	H 	0.02120 0.96890 0.33110 -0.86100
H 	H 	0.99350 0.00230 0.26410 -0.47400
C 	C 	0.07960 0.98580 0.48410 78.38500
H 	H 	0.05040 0.96790 0.45860 -26.28800
C 	C 	0.21990 0.05660 0.59260 -1.84700
H 	H 	0.21890 0.08080 0.56560 0.78500
N 	N 	0.26274 0.04818 0.65280 0.18800
O 	O 	0.30130 0.07696 0.66690 -0.54600
C 	C 	0.38790 0.10883 0.73920 -0.54300
C 	C 	0.36870 0.14376 0.69160 0.22800
H 	H 	0.33310 0.14570 0.65420 -0.04600
C 	C 	0.40120 0.17588 0.69820 -0.11400
H 	H 	0.38660 0.19960 0.66560 0.04400
N 	N 	0.45217 0.17524 0.74840 -0.20500
C 	C 	0.47120 0.14177 0.79380 -0.10300
H 	H 	0.50710 0.14040 0.82970 0.03100
C 	C 	0.44100 0.10859 0.79130 0.22100
H 	H 	0.45660 0.08560 0.82520 -0.04800
O 	O 	0.28905 0.93893 0.76080 -0.54800
C 	C 	0.41100 0.80680 0.75210 0.61900
C 	C 	0.39380 0.76290 0.75690 -0.87000
H 	H 	0.41580 0.74160 0.75550 0.23600
H 	H 	0.39600 0.76020 0.80370 0.25300
H 	H 	0.35830 0.75850 0.71470 0.24400
C 	C 	0.46710 0.81220 0.81680 -0.86300
H 	H 	0.47550 0.79180 0.85620 0.24900
H 	H 	0.48900 0.80710 0.79890 0.23900
H 	H 	0.47260 0.84110 0.83660 0.26300
C 	C 	0.40820 0.81250 0.68090 -0.86600
H 	H 	0.42690 0.83820 0.68440 0.25200
H 	H 	0.42360 0.78780 0.67320 0.23100
H 	H 	0.37240 0.81510 0.63880 0.24300
O 	O 	0.24906 0.99511 0.80010 -0.48500
O 	O 	0.20647 0.98210 0.65830 -1.08000
C 	C 	0.22760 0.10250 0.99430 0.83000
C 	C 	0.21410 0.08080 0.04160 1.35800
H 	H 	0.23630 0.05600 0.06550 1.84600
H 	H 	0.21880 0.10050 0.08000 -0.74100
H 	H 	0.17830 0.07160 0.01060 -0.29900
C 	C 	0.19730 0.14370 0.95170 -2.07100
H 	H 	0.19330 0.16170 0.98490 0.32600
H 	H 	0.21610 0.15930 0.93540 0.67000
H 	H 	0.16350 0.13590 0.90810 0.26700
C 	C 	0.28750 0.12140 0.06520 -1.34100
H 	H 	0.28360 0.14200 0.09560 -0.87500
H 	H 	0.30880 0.09770 0.09650 0.69100
H 	H 	0.30380 0.13540 0.04330 1.71200
N 	N 	0.06350 0.17590 0.52390 -0.15900
O 	O 	0.11410 0.16380 0.48060 0.22500
C 	C 	0.01730 0.16160 0.45550 0.24300
H 	H 	0.00100 0.13940 0.46700 -0.08500
H 	H 	0.99370 0.18560 0.43140 -0.04100
H 	H 	0.02590 0.15010 0.42190 0.23000
C 	C 	0.06590 0.18860 0.59040 -0.30900
H 	H 	0.09830 0.17910 0.63490 0.13400
H 	H 	0.06350 0.21960 0.59140 0.08600
H 	H 	0.03740 0.17560 0.58950 0.07800
C 	C 	0.10990 0.17620 0.52880 0.02200
H 	H 	0.13950 0.18690 0.57310 0.01000
N 	N 	0.11200 0.07390 0.66500 -0.14600
C 	C 	0.10840 0.06410 0.72670 3.57700
H 	H 	0.14160 0.06920 0.77370 -1.19300
H 	H 	0.08240 0.08220 0.72460 -0.54500
H 	H 	0.09890 0.03420 0.72400 -1.14400
C 	C 	0.16130 0.08880 0.68500 2.63100
H 	H 	0.17810 0.10430 0.73230 -1.40600
H 	H 	0.18240 0.06450 0.69030 -1.32900
H 	H 	0.15680 0.10780 0.64590 -1.64200
C 	C 	0.07060 0.07320 0.58950 3.68900
H 	H 	0.07870 0.07930 0.55450 -2.00000
O 	O 	0.02690 0.06590 0.56410 -0.50500
C 	C 	0.24070 0.08900 0.01720 0.60500
C 	C 	0.26550 0.05760 0.08440 -6.29800
H 	H 	0.29940 0.04910 0.09730 1.97700
H 	H 	0.26890 0.07150 0.12730 1.65000
H 	H 	0.24390 0.03230 0.07080 1.01500
C 	C 	0.18540 0.09960 0.99020 -4.07600
H 	H 	0.18290 0.10100 0.03310 0.96000
H 	H 	0.17560 0.12700 0.96440 1.71100
H 	H 	0.16240 0.07740 0.95590 1.01400
C 	C 	0.26980 0.13080 0.04010 1.16900
H 	H 	0.27000 0.14310 0.08180 0.93800
H 	H 	0.30500 0.12570 0.05560 -1.57500
H 	H 	0.25310 0.15050 0.99790 -0.46000
C 	C 	0.12920 0.05990 0.51290 75.95500
H 	H 	0.13440 0.08800 0.50260 -26.08100
C 	C 	0.04290 0.09640 0.37090 -1.18300
H 	H 	0.06420 0.12130 0.39710 0.04800
H 	H 	0.06080 0.07770 0.35650 0.97500
H 	H 	0.01040 0.10550 0.32620 0.40800
C 	C 	0.98530 0.04550 0.37450 0.17200
H 	H 	0.98410 0.03490 0.33110 0.93500
H 	H 	0.98620 0.02150 0.40390 0.78200
H 	H 	0.95490 0.06290 0.35760 0.02400
C 	C 	0.02190 0.10540 0.46150 2.69400
H 	H 	0.99540 0.09480 0.46780 -0.59500
H 	H 	0.05310 0.11130 0.51060 -1.10700
H 	H 	0.01000 0.13150 0.43190 -0.96500
C 	C 	0.08050 0.04500 0.48200 8.57400
C 	C 	0.03280 0.07230 0.42210 -3.28000
C 	C 	0.07550 0.00560 0.50720 -79.85100
H 	H 	0.04190 0.99630 0.48960 22.26400
N 	N 	0.23070 0.19130 0.45290 -0.15700
C 	C 	0.27410 0.19640 0.44810 -0.41900
H 	H 	0.26450 0.21440 0.40520 0.18700
H 	H 	0.30220 0.20980 0.49380 0.20100
H 	H 	0.28510 0.16850 0.44210 0.13700
C 	C 	0.22250 0.14830 0.46910 -0.11200
H 	H 	0.21050 0.14950 0.50200 0.14900
H 	H 	0.19680 0.13400 0.42260 0.03600
H 	H 	0.25470 0.13240 0.49380 0.08500
C 	C 	0.19530 0.22170 0.44110 -1.64500
H 	H 	0.17010 0.21200 0.44860 0.97200
O 	O 	0.19110 0.25800 0.42310 0.24200
N 	N 	0.11810 0.10360 0.69000 -0.02500
C 	C 	0.10780 0.14810 0.66700 -0.37800
H 	H 	0.13900 0.16150 0.67700 0.07200
H 	H 	0.08090 0.14970 0.61370 0.08800
H 	H 	0.09660 0.16290 0.69520 0.10900
C 	C 	0.17060 0.09110 0.74400 -0.96000
H 	H 	0.19350 0.11370 0.74830 1.16900
H 	H 	0.17600 0.08610 0.79210 0.59300
H 	H 	0.17790 0.06490 0.72670 0.18100
C 	C 	0.07990 0.07180 0.66300 -3.57800
H 	H 	0.09030 0.04330 0.67840 1.23800
O 	O 	0.03300 0.07960 0.61900 1.27800
N 	N 	0.20250 0.18630 0.44590 0.27000
C 	C 	0.23790 0.15170 0.46190 -0.26500
H 	H 	0.22150 0.12450 0.45800 0.12200
H 	H 	0.26870 0.15500 0.51240 0.11100
H 	H 	0.24730 0.15240 0.42590 0.13100
C 	C 	0.20240 0.21880 0.39720 1.92400
H 	H 	0.23020 0.23900 0.42740 -0.32600
H 	H 	0.16960 0.23390 0.37080 -0.39200
H 	H 	0.20720 0.20510 0.36110 -0.57600
C 	C 	0.17230 0.18830 0.47190 -0.58700
H 	H 	0.15100 0.21230 0.46090 -0.15200
O 	O 	0.17220 0.15960 0.50900 0.44000
Zn	Zn	0.28599 0.43960 0.76195 1.20800
Zn	Zn	0.21824 0.50372 0.76198 1.19000
C 	C 	0.39123 0.33547 0.75820 -0.56700
C 	C 	0.40830 0.29972 0.80500 0.24400
H 	H 	0.39910 0.29640 0.83950 -0.07700
C 	C 	0.43870 0.26890 0.80160 -0.11700
H 	H 	0.44990 0.24530 0.83440 0.03000
N 	N 	0.45278 0.27144 0.75340 -0.20200
C 	C 	0.43720 0.30558 0.70930 -0.11500
H 	H 	0.44730 0.30810 0.67570 0.04200
C 	C 	0.40710 0.33762 0.70960 0.24200
H 	H 	0.39730 0.36110 0.67680 -0.06500
B 	B 	0.35610 0.37156 0.76060 1.48500
O 	O 	0.30670 0.35039 0.73410 -0.51600
N 	N 	0.27132 0.37402 0.74010 -0.18200
C 	C 	0.23610 0.35072 0.73390 0.05100
H 	H 	0.23760 0.32120 0.72610 0.02300
C 	C 	0.19340 0.36497 0.73740 -0.17500
C 	C 	0.18240 0.40869 0.73980 0.19300
C 	C 	0.13890 0.41750 0.74230 -0.19300
C 	C 	0.11040 0.38406 0.74360 0.11500
H 	H 	0.08180 0.39090 0.74530 -0.03500
C 	C 	0.12130 0.34151 0.74270 -0.24700
C 	C 	0.16290 0.33335 0.73910 0.12000
H 	H 	0.17130 0.30450 0.73770 -0.03600
C 	C 	0.12440 0.46064 0.74760 0.01500
H 	H 	0.09450 0.46360 0.74740 0.03100
N 	N 	0.14790 0.49500 0.75250 -0.16300
O 	O 	0.12350 0.53103 0.75710 -0.52700
B 	B 	0.14800 0.57170 0.76280 1.44900
O 	O 	0.35120 0.40561 0.71100 -0.52600
N 	N 	0.31780 0.43896 0.69750 -0.11600
C 	C 	0.31510 0.46604 0.65140 -0.00300
H 	H 	0.33450 0.46020 0.63130 0.23200
C 	C 	0.28510 0.50486 0.62740 -0.00200
C 	C 	0.25370 0.51763 0.65230 0.23300
C 	C 	0.22570 0.55587 0.62270 -0.18800
C 	C 	0.22960 0.58000 0.57180 0.16400
H 	H 	0.21030 0.60540 0.55270 -0.10300
C 	C 	0.26070 0.56830 0.54800 -0.31600
C 	C 	0.28770 0.53040 0.57700 -0.02800
H 	H 	0.30910 0.52150 0.56160 0.31600
C 	C 	0.19100 0.57270 0.64190 0.07600
H 	H 	0.17230 0.59760 0.61660 0.00800
N 	N 	0.18400 0.55667 0.68960 -0.17900
O 	O 	0.14890 0.58084 0.69550 -0.50500
O 	O 	0.38325 0.38655 0.83880 -0.53500
N 	N 	0.36166 0.42218 0.85010 -0.21200
C 	C 	0.39290 0.44040 0.91210 0.41600
H 	H 	0.42650 0.42890 0.94200 -0.05000
C 	C 	0.38180 0.47730 0.94110 -1.57900
C 	C 	0.33290 0.49750 0.90320 1.15500
C 	C 	0.32810 0.53310 0.93940 0.71500
C 	C 	0.37000 0.54100 0.01440 -37.16300
H 	H 	0.36540 0.56290 0.04020 9.83800
C 	C 	0.41700 0.52000 0.05370 3.84500
C 	C 	0.46330 0.53140 0.13220 -1.24000
C 	C 	0.45320 0.57400 0.15750 -0.40600
H 	H 	0.44240 0.59550 0.11870 0.31400
H 	H 	0.42620 0.57000 0.16600 0.03400
H 	H 	0.48460 0.58340 0.20380 0.15300
C 	C 	0.51040 0.53680 0.13030 -0.59000
H 	H 	0.51450 0.51170 0.10750 -0.07500
H 	H 	0.50620 0.56210 0.10090 0.72600
H 	H 	0.54070 0.54020 0.18130 -0.07500
C 	C 	0.47490 0.49580 0.18780 0.55600
H 	H 	0.44660 0.49340 0.19400 -0.16000
H 	H 	0.47880 0.46890 0.16890 -0.33700
H 	H 	0.50650 0.50230 0.23590 -0.12700
C 	C 	0.42040 0.48580 0.01590 36.46900
H 	H 	0.44960 0.46790 0.04140 -12.22200
C 	C 	0.28010 0.55660 0.90740 -0.84100
H 	H 	0.28110 0.58080 0.93440 0.38800
N 	N 	0.23726 0.54818 0.84720 0.00100
O 	O 	0.19870 0.57696 0.83310 -0.53500
C 	C 	0.11210 0.60883 0.76080 -0.56100
C 	C 	0.13130 0.64376 0.80840 0.23800
H 	H 	0.16690 0.64570 0.84580 -0.04800
C 	C 	0.09880 0.67588 0.80180 -0.12100
H 	H 	0.11340 0.69960 0.83440 0.04400
N 	N 	0.04783 0.67524 0.75160 -0.19700
C 	C 	0.02880 0.64177 0.70620 -0.16100
H 	H 	0.99290 0.64040 0.67030 0.07400
C 	C 	0.05900 0.60859 0.70870 0.25100
H 	H 	0.04340 0.58560 0.67480 -0.05900
O 	O 	0.21095 0.43893 0.73920 -0.56200
C 	C 	0.08900 0.30680 0.74790 0.59700
C 	C 	0.10620 0.26290 0.74310 -0.84500
H 	H 	0.08420 0.24160 0.74450 0.23000
H 	H 	0.10400 0.26020 0.69630 0.24700
H 	H 	0.14170 0.25850 0.78530 0.23400
C 	C 	0.03290 0.31220 0.68320 -0.84300
H 	H 	0.02450 0.29180 0.64380 0.24400
H 	H 	0.01100 0.30710 0.70110 0.22900
H 	H 	0.02740 0.34110 0.66340 0.25700
C 	C 	0.09180 0.31250 0.81910 -0.82100
H 	H 	0.07310 0.33820 0.81560 0.23400
H 	H 	0.07640 0.28780 0.82680 0.21000
H 	H 	0.12760 0.31510 0.86120 0.22200
O 	O 	0.25094 0.49511 0.69990 -0.50300
O 	O 	0.29353 0.48210 0.84170 -0.82600
C 	C 	0.27240 0.60250 0.50570 1.27800
C 	C 	0.28590 0.58080 0.45840 0.43000
H 	H 	0.26370 0.55600 0.43450 2.12800
H 	H 	0.28120 0.60050 0.42000 -0.43100
H 	H 	0.32170 0.57160 0.48940 -0.11400
C 	C 	0.30270 0.64370 0.54830 -2.33100
H 	H 	0.30670 0.66170 0.51510 0.43400
H 	H 	0.28390 0.65930 0.56460 0.76400
H 	H 	0.33650 0.63590 0.59190 0.38700
C 	C 	0.21250 0.62140 0.43480 -1.63100
H 	H 	0.21640 0.64200 0.40440 -1.21200
H 	H 	0.19120 0.59770 0.40350 0.83200
H 	H 	0.19620 0.63540 0.45670 2.03100
N 	N 	0.43650 0.67590 0.97610 -0.08000
O 	O 	0.38590 0.66380 0.01940 0.01200
C 	C 	0.48270 0.66160 0.04450 -0.15500
H 	H 	0.49900 0.63940 0.03300 0.05000
H 	H 	0.50630 0.68560 0.06860 0.06900
H 	H 	0.47410 0.65010 0.07810 0.15800
C 	C 	0.43410 0.68860 0.90960 -0.44300
H 	H 	0.40170 0.67910 0.86510 0.18400
H 	H 	0.43650 0.71960 0.90860 0.12700
H 	H 	0.46260 0.67560 0.91050 0.12100
C 	C 	0.39010 0.67620 0.97120 0.07200
H 	H 	0.36050 0.68690 0.92690 0.00900
N 	N 	0.38800 0.57390 0.83500 -0.32000
C 	C 	0.39160 0.56410 0.77330 -0.02400
H 	H 	0.35840 0.56920 0.72630 0.02300
H 	H 	0.41760 0.58220 0.77540 0.05900
H 	H 	0.40110 0.53420 0.77600 0.00700
C 	C 	0.33870 0.58880 0.81500 1.12200
H 	H 	0.32190 0.60430 0.76770 -0.50900
H 	H 	0.31760 0.56450 0.80970 -0.57700
H 	H 	0.34320 0.60780 0.85410 -0.70500
C 	C 	0.42940 0.57320 0.91050 1.22100
H 	H 	0.42130 0.57930 0.94550 -0.72500
O 	O 	0.47310 0.56590 0.93590 -0.07600
C 	C 	0.25930 0.58900 0.48280 0.02700
C 	C 	0.23450 0.55760 0.41560 -5.83600
H 	H 	0.20060 0.54910 0.40270 1.84000
H 	H 	0.23110 0.57150 0.37270 1.50900
H 	H 	0.25610 0.53230 0.42920 0.77900
C 	C 	0.31460 0.59960 0.50980 -3.01900
H 	H 	0.31710 0.60100 0.46690 0.70700
H 	H 	0.32440 0.62700 0.53560 1.36500
H 	H 	0.33760 0.57740 0.54410 0.68100
C 	C 	0.23020 0.63080 0.45990 1.60700
H 	H 	0.23000 0.64310 0.41820 1.22900
H 	H 	0.19500 0.62570 0.44440 -1.90600
H 	H 	0.24690 0.65050 0.50210 -0.63200
C 	C 	0.37080 0.55990 0.98710 35.42600
H 	H 	0.36560 0.58800 0.99740 -12.14500
C 	C 	0.45710 0.59640 0.12910 -0.42600
H 	H 	0.43580 0.62130 0.10290 0.04100
H 	H 	0.43920 0.57770 0.14350 0.36100
H 	H 	0.48960 0.60550 0.17380 0.15500
C 	C 	0.51470 0.54550 0.12550 -0.13200
H 	H 	0.51590 0.53490 0.16890 0.60900
H 	H 	0.51380 0.52150 0.09610 0.25800
H 	H 	0.54510 0.56290 0.14240 0.06400
C 	C 	0.47810 0.60540 0.03850 0.89200
H 	H 	0.50460 0.59480 0.03220 -0.17100
H 	H 	0.44690 0.61130 0.98940 -0.39400
H 	H 	0.49000 0.63150 0.06810 -0.29600
C 	C 	0.41950 0.54500 0.01800 3.96400
C 	C 	0.46720 0.57230 0.07790 -1.52800
C 	C 	0.42450 0.50560 0.99280 -37.18600
H 	H 	0.45810 0.49630 0.01040 10.38800
N 	N 	0.26930 0.69130 0.04710 -0.16800
C 	C 	0.22590 0.69640 0.05190 -0.43400
H 	H 	0.23550 0.71440 0.09480 0.19600
H 	H 	0.19780 0.70980 0.00620 0.21100
H 	H 	0.21490 0.66850 0.05790 0.14200
C 	C 	0.27750 0.64830 0.03090 -0.08400
H 	H 	0.28950 0.64950 0.99800 0.12500
H 	H 	0.30320 0.63400 0.07740 0.03800
H 	H 	0.24530 0.63240 0.00620 0.07600
C 	C 	0.30470 0.72170 0.05890 -1.82500
H 	H 	0.32990 0.71200 0.05140 1.00500
O 	O 	0.30890 0.75800 0.07690 0.29900
N 	N 	0.38190 0.60360 0.81000 -0.01500
C 	C 	0.39220 0.64810 0.83300 -0.51400
H 	H 	0.36100 0.66150 0.82300 0.12600
H 	H 	0.41910 0.64970 0.88630 0.17400
H 	H 	0.40340 0.66290 0.80480 0.13300
C 	C 	0.32940 0.59110 0.75600 -0.41500
H 	H 	0.30650 0.61370 0.75170 0.43700
H 	H 	0.32400 0.58610 0.70790 0.15500
H 	H 	0.32210 0.56490 0.77330 0.12000
C 	C 	0.42010 0.57180 0.83700 -0.24000
H 	H 	0.40970 0.54330 0.82160 0.35000
O 	O 	0.46700 0.57960 0.88100 0.03600
N 	N 	0.29750 0.68630 0.05410 0.26300
C 	C 	0.26210 0.65170 0.03810 -0.25200
H 	H 	0.27850 0.62450 0.04200 0.09300
H 	H 	0.23130 0.65500 0.98760 0.10000
H 	H 	0.25270 0.65240 0.07410 0.12500
C 	C 	0.29760 0.71880 0.10280 2.20200
H 	H 	0.26980 0.73900 0.07260 -0.39500
H 	H 	0.33040 0.73390 0.12920 -0.46200
H 	H 	0.29280 0.70510 0.13890 -0.66400
C 	C 	0.32770 0.68830 0.02810 -0.43300
H 	H 	0.34900 0.71230 0.03910 -0.19900
O 	O 	0.32780 0.65960 0.99100 0.17600
Zn	Zn	0.78599 0.93960 0.76195 1.20900
Zn	Zn	0.71824 0.00372 0.76198 1.18000
C 	C 	0.89123 0.83547 0.75820 -0.57200
C 	C 	0.90830 0.79972 0.80500 0.24800
H 	H 	0.89910 0.79640 0.83950 -0.07300
C 	C 	0.93870 0.76890 0.80160 -0.11600
H 	H 	0.94990 0.74530 0.83440 0.03900
N 	N 	0.95278 0.77144 0.75340 -0.19100
C 	C 	0.93720 0.80558 0.70930 -0.12100
H 	H 	0.94730 0.80810 0.67570 0.04800
C 	C 	0.90710 0.83762 0.70960 0.26100
H 	H 	0.89730 0.86110 0.67680 -0.09100
B 	B 	0.85610 0.87156 0.76060 1.49100
O 	O 	0.80670 0.85039 0.73410 -0.51700
N 	N 	0.77132 0.87402 0.74010 -0.18000
C 	C 	0.73610 0.85072 0.73390 0.05500
H 	H 	0.73760 0.82120 0.72610 0.02600
C 	C 	0.69340 0.86497 0.73740 -0.17100
C 	C 	0.68240 0.90869 0.73980 0.18400
C 	C 	0.63890 0.91750 0.74230 -0.19500
C 	C 	0.61040 0.88406 0.74360 0.11000
H 	H 	0.58180 0.89090 0.74530 -0.03300
C 	C 	0.62130 0.84151 0.74270 -0.25600
C 	C 	0.66290 0.83335 0.73910 0.11600
H 	H 	0.67130 0.80450 0.73770 -0.03200
C 	C 	0.62440 0.96064 0.74760 0.00600
H 	H 	0.59450 0.96360 0.74740 0.03700
N 	N 	0.64790 0.99500 0.75250 -0.15700
O 	O 	0.62350 0.03103 0.75710 -0.53500
B 	B 	0.64800 0.07170 0.76280 1.44200
O 	O 	0.85120 0.90561 0.71100 -0.53000
N 	N 	0.81780 0.93896 0.69750 -0.07800
C 	C 	0.81510 0.96604 0.65140 -0.14400
H 	H 	0.83450 0.96020 0.63130 0.47700
C 	C 	0.78510 0.00486 0.62740 0.28100
C 	C 	0.75370 0.01763 0.65230 0.08100
C 	C 	0.72570 0.05587 0.62270 -0.05000
C 	C 	0.72960 0.08000 0.57180 -0.04800
H 	H 	0.71030 0.10540 0.55270 0.00300
C 	C 	0.76070 0.06830 0.54800 0.02700
C 	C 	0.78770 0.03040 0.57700 -0.42500
H 	H 	0.80910 0.02150 0.56160 0.79500
C 	C 	0.69100 0.07270 0.64190 0.01600
H 	H 	0.67230 0.09760 0.61660 0.03300
N 	N 	0.68400 0.05667 0.68960 -0.16900
O 	O 	0.64890 0.08084 0.69550 -0.50300
O 	O 	0.88325 0.88655 0.83880 -0.53100
N 	N 	0.86166 0.92218 0.85010 -0.21200
C 	C 	0.89290 0.94040 0.91210 0.43500
H 	H 	0.92650 0.92890 0.94200 -0.04600
C 	C 	0.88180 0.97730 0.94110 -1.64300
C 	C 	0.83290 0.99750 0.90320 1.23000
C 	C 	0.82810 0.03310 0.93940 0.73300
C 	C 	0.87000 0.04100 0.01440 -39.29500
H 	H 	0.86540 0.06290 0.04020 10.39700
C 	C 	0.91700 0.02000 0.05370 4.00000
C 	C 	0.96330 0.03140 0.13220 -1.29100
C 	C 	0.95320 0.07400 0.15750 -0.44500
H 	H 	0.94240 0.09550 0.11870 0.34300
H 	H 	0.92620 0.07000 0.16600 0.04600
H 	H 	0.98460 0.08340 0.20380 0.15700
C 	C 	0.01040 0.03680 0.13030 -0.66900
H 	H 	0.01450 0.01170 0.10750 -0.07200
H 	H 	0.00620 0.06210 0.10090 0.80800
H 	H 	0.04070 0.04020 0.18130 -0.06000
C 	C 	0.97490 0.99580 0.18780 0.55800
H 	H 	0.94660 0.99340 0.19400 -0.09500
H 	H 	0.97880 0.96890 0.16890 -0.34300
H 	H 	0.00650 0.00230 0.23590 -0.04000
C 	C 	0.92040 0.98580 0.01590 38.70100
H 	H 	0.94960 0.96790 0.04140 -12.97600
C 	C 	0.78010 0.05660 0.90740 -0.89800
H 	H 	0.78110 0.08080 0.93440 0.40900
N 	N 	0.73726 0.04818 0.84720 0.00100
O 	O 	0.69870 0.07696 0.83310 -0.53700
C 	C 	0.61210 0.10883 0.76080 -0.54700
C 	C 	0.63130 0.14376 0.80840 0.22800
H 	H 	0.66690 0.14570 0.84580 -0.04500
C 	C 	0.59880 0.17588 0.80180 -0.11500
H 	H 	0.61340 0.19960 0.83440 0.04400
N 	N 	0.54783 0.17524 0.75160 -0.20400
C 	C 	0.52880 0.14177 0.70620 -0.10300
H 	H 	0.49290 0.14040 0.67030 0.03400
C 	C 	0.55900 0.10859 0.70870 0.22200
H 	H 	0.54340 0.08560 0.67480 -0.04500
O 	O 	0.71095 0.93893 0.73920 -0.56200
C 	C 	0.58900 0.80680 0.74790 0.60900
C 	C 	0.60620 0.76290 0.74310 -0.85800
H 	H 	0.58420 0.74160 0.74450 0.23200
H 	H 	0.60400 0.76020 0.69630 0.25000
H 	H 	0.64170 0.75850 0.78530 0.23900
C 	C 	0.53290 0.81220 0.68320 -0.85700
H 	H 	0.52450 0.79180 0.64380 0.24800
H 	H 	0.51100 0.80710 0.70110 0.23700
H 	H 	0.52740 0.84110 0.66340 0.26200
C 	C 	0.59180 0.81250 0.81910 -0.84500
H 	H 	0.57310 0.83820 0.81560 0.24400
H 	H 	0.57640 0.78780 0.82680 0.22200
H 	H 	0.62760 0.81510 0.86120 0.23000
O 	O 	0.75094 0.99511 0.69990 -0.44800
O 	O 	0.79353 0.98210 0.84170 -0.85000
C 	C 	0.77240 0.10250 0.50570 0.11200
C 	C 	0.78590 0.08080 0.45840 1.99800
H 	H 	0.76370 0.05600 0.43450 0.88900
H 	H 	0.78120 0.10050 0.42000 -0.81600
H 	H 	0.82170 0.07160 0.48940 -0.69500
C 	C 	0.80270 0.14370 0.54830 -1.00900
H 	H 	0.80670 0.16170 0.51510 0.11300
H 	H 	0.78390 0.15930 0.56460 0.33000
H 	H 	0.83650 0.13590 0.59190 0.04400
C 	C 	0.71250 0.12140 0.43480 -0.68400
H 	H 	0.71640 0.14200 0.40440 -0.38200
H 	H 	0.69120 0.09770 0.40350 0.37700
H 	H 	0.69620 0.13540 0.45670 0.91900
N 	N 	0.93650 0.17590 0.97610 -0.06500
O 	O 	0.88590 0.16380 0.01940 0.01200
C 	C 	0.98270 0.16160 0.04450 -0.25800
H 	H 	0.99900 0.13940 0.03300 0.06800
H 	H 	0.00630 0.18560 0.06860 0.11700
H 	H 	0.97410 0.15010 0.07810 0.17400
C 	C 	0.93410 0.18860 0.90960 -0.45800
H 	H 	0.90170 0.17910 0.86510 0.19000
H 	H 	0.93650 0.21960 0.90860 0.13400
H 	H 	0.96260 0.17560 0.91050 0.12800
C 	C 	0.89010 0.17620 0.97120 0.07800
H 	H 	0.86050 0.18690 0.92690 0.00800
N 	N 	0.88800 0.07390 0.83500 -0.31700
C 	C 	0.89160 0.06410 0.77330 0.14500
H 	H 	0.85840 0.06920 0.72630 -0.03100
H 	H 	0.91760 0.08220 0.77540 0.02700
H 	H 	0.90110 0.03420 0.77600 -0.03900
C 	C 	0.83870 0.08880 0.81500 1.21800
H 	H 	0.82190 0.10430 0.76770 -0.56000
H 	H 	0.81760 0.06450 0.80970 -0.62400
H 	H 	0.84320 0.10780 0.85410 -0.75800
C 	C 	0.92940 0.07320 0.91050 1.33800
H 	H 	0.92130 0.07930 0.94550 -0.79200
O 	O 	0.97310 0.06590 0.93590 -0.09700
C 	C 	0.75930 0.08900 0.48280 0.56300
C 	C 	0.73450 0.05760 0.41560 -4.66400
H 	H 	0.70060 0.04910 0.40270 1.48200
H 	H 	0.73110 0.07150 0.37270 1.24600
H 	H 	0.75610 0.03230 0.42920 1.14200
C 	C 	0.81460 0.09960 0.50980 -2.90000
H 	H 	0.81710 0.10100 0.46690 0.49100
H 	H 	0.82440 0.12700 0.53560 1.13800
H 	H 	0.83760 0.07740 0.54410 0.63600
C 	C 	0.73020 0.13080 0.45990 0.53400
H 	H 	0.73000 0.14310 0.41820 0.43600
H 	H 	0.69500 0.12570 0.44440 -0.84400
H 	H 	0.74690 0.15050 0.50210 -0.19000
C 	C 	0.87080 0.05990 0.98710 37.46000
H 	H 	0.86560 0.08800 0.99740 -12.84100
C 	C 	0.95710 0.09640 0.12910 -0.46200
H 	H 	0.93580 0.12130 0.10290 0.03900
H 	H 	0.93920 0.07770 0.14350 0.38900
H 	H 	0.98960 0.10550 0.17380 0.16000
C 	C 	0.01470 0.04550 0.12550 -0.16300
H 	H 	0.01590 0.03490 0.16890 0.68000
H 	H 	0.01380 0.02150 0.09610 0.30200
H 	H 	0.04510 0.06290 0.14240 0.07500
C 	C 	0.97810 0.10540 0.03850 0.80500
H 	H 	0.00460 0.09480 0.03220 -0.12400
H 	H 	0.94690 0.11130 0.98940 -0.37000
H 	H 	0.99000 0.13150 0.06810 -0.25800
C 	C 	0.91950 0.04500 0.01800 4.25500
C 	C 	0.96720 0.07230 0.07790 -1.62100
C 	C 	0.92450 0.00560 0.99280 -39.47500
H 	H 	0.95810 0.99630 0.01040 11.01700
N 	N 	0.76930 0.19130 0.04710 -0.16600
C 	C 	0.72590 0.19640 0.05190 -0.42800
H 	H 	0.73550 0.21440 0.09480 0.19300
H 	H 	0.69780 0.20980 0.00620 0.20500
H 	H 	0.71490 0.16850 0.05790 0.13700
C 	C 	0.77750 0.14830 0.03090 -0.08800
H 	H 	0.78950 0.14950 0.99800 0.13100
H 	H 	0.80320 0.13400 0.07740 0.03700
H 	H 	0.74530 0.13240 0.00620 0.06900
C 	C 	0.80470 0.22170 0.05890 -1.78900
H 	H 	0.82990 0.21200 0.05140 0.99500
O 	O 	0.80890 0.25800 0.07690 0.28600
N 	N 	0.88190 0.10360 0.81000 -0.01200
C 	C 	0.89220 0.14810 0.83300 -0.51800
H 	H 	0.86100 0.16150 0.82300 0.12800
H 	H 	0.91910 0.14970 0.88630 0.17300
H 	H 	0.90340 0.16290 0.80480 0.13700
C 	C 	0.82940 0.09110 0.75600 -0.45900
H 	H 	0.80650 0.11370 0.75170 0.48600
H 	H 	0.82400 0.08610 0.70790 0.18700
H 	H 	0.82210 0.06490 0.77330 0.12600
C 	C 	0.92010 0.07180 0.83700 -0.39400
H 	H 	0.90970 0.04330 0.82160 0.38700
O 	O 	0.96700 0.07960 0.88100 0.10000
N 	N 	0.79750 0.18630 0.05410 0.26200
C 	C 	0.76210 0.15170 0.03810 -0.26200
H 	H 	0.77850 0.12450 0.04200 0.09600
H 	H 	0.73130 0.15500 0.98760 0.11100
H 	H 	0.75270 0.15240 0.07410 0.12600
C 	C 	0.79760 0.21880 0.10280 2.14800
H 	H 	0.76980 0.23900 0.07260 -0.38200
H 	H 	0.83040 0.23390 0.12920 -0.44900
H 	H 	0.79280 0.20510 0.13890 -0.64700
C 	C 	0.82770 0.18830 0.02810 -0.45600
H 	H 	0.84900 0.21230 0.03910 -0.19200
O 	O 	0.82780 0.15960 0.99100 0.20000
Zn	Zn	0.50000 0.22429 0.75000 1.14700
Zn	Zn	0.00000 0.72429 0.75000 1.13900
