data_crystal

_cell_length_a 18.69800
_cell_length_b 18.69800
_cell_length_c 9.39500
_cell_angle_alpha 90.00000
_cell_angle_beta  90.00000
_cell_angle_gamma 90.00000

_symmetry_space_group_name_	'P 1'
_symmetry_space_group_name_H-M	'P 1'

loop_
_symmetry_equiv_pos_as_xyz
  x,y,z

loop_
_atom_site_label
_atom_site_type_symbol
_atom_site_fract_x
_atom_site_fract_y
_atom_site_fract_z
_atom_site_charge
P 	P 	0.56608 0.33397 0.09110 0.80400
P 	P 	0.45084 0.16591 0.83930 0.79000
P 	P 	0.56561 0.05626 0.33650 0.80900
Al	Al	0.45454 0.33454 0.84120 2.39700
Al	Al	0.56429 0.44771 0.33430 2.39800
Al	Al	0.56381 0.16629 0.08440 2.39900
O 	O 	0.48580 0.15820 0.98780 -0.83400
O 	O 	0.37760 0.12730 0.84110 -0.76300
O 	O 	0.43810 0.24570 0.80500 -0.76500
O 	O 	0.49670 0.34270 0.00390 -0.83100
O 	O 	0.55690 0.37100 0.23570 -0.78600
O 	O 	0.63060 0.36610 0.01060 -0.81800
O 	O 	0.58290 0.25450 0.11980 -0.76100
O 	O 	0.50000 0.13460 0.72320 -0.81100
O 	O 	0.49480 0.01510 0.32320 -0.81000
O 	O 	0.57830 0.07930 0.49160 -0.74700
O 	O 	0.62910 0.01050 0.28730 -0.79000
O 	O 	0.55940 0.12490 0.24660 -0.77700
P 	P 	0.93392 0.16603 0.09110 0.76000
P 	P 	0.04916 0.33409 0.83930 0.78800
P 	P 	0.93439 0.44374 0.33650 0.77200
Al	Al	0.04546 0.16546 0.84120 2.39900
Al	Al	0.93571 0.05229 0.33430 2.39600
Al	Al	0.93619 0.33371 0.08440 2.39700
O 	O 	0.01420 0.34180 0.98780 -0.81500
O 	O 	0.12240 0.37270 0.84110 -0.76700
O 	O 	0.06190 0.25430 0.80500 -0.75100
O 	O 	0.00330 0.15730 0.00390 -0.77200
O 	O 	0.94310 0.12900 0.23570 -0.79700
O 	O 	0.86940 0.13390 0.01060 -0.81100
O 	O 	0.91710 0.24550 0.11980 -0.77200
O 	O 	-0.00000 0.36540 0.72320 -0.79000
O 	O 	0.00520 0.48490 0.32320 -0.79700
O 	O 	0.92170 0.42070 0.49160 -0.76700
O 	O 	0.87090 0.48950 0.28730 -0.81900
O 	O 	0.94060 0.37510 0.24660 -0.79800
P 	P 	0.16603 0.56608 0.09110 0.80400
P 	P 	0.33409 0.45084 0.83930 0.78800
P 	P 	0.44374 0.56561 0.33650 0.80900
Al	Al	0.16546 0.45454 0.84120 2.39700
Al	Al	0.05229 0.56429 0.33430 2.39800
Al	Al	0.33371 0.56381 0.08440 2.39900
O 	O 	0.34180 0.48580 0.98780 -0.83700
O 	O 	0.37270 0.37760 0.84110 -0.77000
O 	O 	0.25430 0.43810 0.80500 -0.76500
O 	O 	0.15730 0.49670 0.00390 -0.82500
O 	O 	0.12900 0.55690 0.23570 -0.78200
O 	O 	0.13390 0.63060 0.01060 -0.80900
O 	O 	0.24550 0.58290 0.11980 -0.76200
O 	O 	0.36540 0.50000 0.72320 -0.81900
O 	O 	0.48490 0.49480 0.32320 -0.83900
O 	O 	0.42070 0.57830 0.49160 -0.75800
O 	O 	0.48950 0.62910 0.28730 -0.81700
O 	O 	0.37510 0.55940 0.24660 -0.78200
P 	P 	0.33397 0.93392 0.09110 0.76200
P 	P 	0.16591 0.04916 0.83930 0.78900
P 	P 	0.05626 0.93439 0.33650 0.76700
Al	Al	0.33454 0.04546 0.84120 2.39900
Al	Al	0.44771 0.93571 0.33430 2.39600
Al	Al	0.16629 0.93619 0.08440 2.39700
O 	O 	0.15820 0.01420 0.98780 -0.81100
O 	O 	0.12730 0.12240 0.84110 -0.75900
O 	O 	0.24570 0.06190 0.80500 -0.75200
O 	O 	0.34270 0.00330 0.00390 -0.78000
O 	O 	0.37100 0.94310 0.23570 -0.80000
O 	O 	0.36610 0.86940 0.01060 -0.81900
O 	O 	0.25450 0.91710 0.11980 -0.77200
O 	O 	0.13460 0.00000 0.72320 -0.78000
O 	O 	0.01510 0.00520 0.32320 -0.76100
O 	O 	0.07930 0.92170 0.49160 -0.75900
O 	O 	0.01050 0.87090 0.28730 -0.79400
O 	O 	0.12490 0.94060 0.24660 -0.79300
P 	P 	0.43392 0.66603 0.90890 0.80300
P 	P 	0.54916 0.83409 0.16070 0.78700
P 	P 	0.43439 0.94374 0.66350 0.80800
Al	Al	0.54546 0.66546 0.15880 2.39700
Al	Al	0.43571 0.55229 0.66570 2.39800
Al	Al	0.43619 0.83371 0.91560 2.39900
O 	O 	0.51420 0.84180 0.01220 -0.84100
O 	O 	0.62240 0.87270 0.15890 -0.78200
O 	O 	0.56190 0.75430 0.19500 -0.76700
O 	O 	0.50330 0.65730 0.99610 -0.83500
O 	O 	0.44310 0.62900 0.76430 -0.78800
O 	O 	0.36940 0.63390 0.98940 -0.82100
O 	O 	0.41710 0.74550 0.88020 -0.76500
O 	O 	0.50000 0.86540 0.27680 -0.83000
O 	O 	0.50520 0.98490 0.67680 -0.86700
O 	O 	0.42170 0.92070 0.50840 -0.76900
O 	O 	0.37090 0.98950 0.71270 -0.84500
O 	O 	0.44060 0.87510 0.75340 -0.78900
P 	P 	0.06608 0.83397 0.90890 0.82600
P 	P 	0.95084 0.66591 0.16070 0.75400
P 	P 	0.06561 0.55626 0.66350 0.84100
Al	Al	0.95454 0.83454 0.15880 2.39500
Al	Al	0.06429 0.94771 0.66570 2.39700
Al	Al	0.06381 0.66629 0.91560 2.40000
O 	O 	0.98580 0.65820 0.01220 -0.86100
O 	O 	0.87760 0.62730 0.15890 -0.77500
O 	O 	0.93810 0.74570 0.19500 -0.78000
O 	O 	0.99670 0.84270 0.99610 -0.86800
O 	O 	0.05690 0.87100 0.76430 -0.78700
O 	O 	0.13060 0.86610 0.98940 -0.83000
O 	O 	0.08290 0.75450 0.88020 -0.75800
O 	O 	-0.00000 0.63460 0.27680 -0.78000
O 	O 	0.99480 0.51510 0.67680 -0.88300
O 	O 	0.07830 0.57930 0.50840 -0.75400
O 	O 	0.12910 0.51050 0.71270 -0.81700
O 	O 	0.05940 0.62490 0.75340 -0.77500
P 	P 	0.83397 0.43392 0.90890 0.80200
P 	P 	0.66591 0.54916 0.16070 0.78800
P 	P 	0.55626 0.43439 0.66350 0.80800
Al	Al	0.83454 0.54546 0.15880 2.39700
Al	Al	0.94771 0.43571 0.66570 2.39600
Al	Al	0.66629 0.43619 0.91560 2.39900
O 	O 	0.65820 0.51420 0.01220 -0.83600
O 	O 	0.62730 0.62240 0.15890 -0.77200
O 	O 	0.74570 0.56190 0.19500 -0.76800
O 	O 	0.84270 0.50330 0.99610 -0.83800
O 	O 	0.87100 0.44310 0.76430 -0.79600
O 	O 	0.86610 0.36940 0.98940 -0.82800
O 	O 	0.75450 0.41710 0.88020 -0.76500
O 	O 	0.63460 0.50000 0.27680 -0.82000
O 	O 	0.51510 0.50520 0.67680 -0.84000
O 	O 	0.57930 0.42170 0.50840 -0.75800
O 	O 	0.51050 0.37090 0.71270 -0.81700
O 	O 	0.62490 0.44060 0.75340 -0.78500
P 	P 	0.66603 0.06608 0.90890 0.83000
P 	P 	0.83409 0.95084 0.16070 0.75600
P 	P 	0.94374 0.06561 0.66350 0.83300
Al	Al	0.66546 0.95454 0.15880 2.39500
Al	Al	0.55229 0.06429 0.66570 2.40000
Al	Al	0.83371 0.06381 0.91560 2.40000
O 	O 	0.84180 0.98580 0.01220 -0.86400
O 	O 	0.87270 0.87760 0.15890 -0.78500
O 	O 	0.75430 0.93810 0.19500 -0.77900
O 	O 	0.65730 0.99670 0.99610 -0.86800
O 	O 	0.62900 0.05690 0.76430 -0.77600
O 	O 	0.63390 0.13060 0.98940 -0.82100
O 	O 	0.74550 0.08290 0.88020 -0.75900
O 	O 	0.86540 0.00000 0.27680 -0.79300
O 	O 	0.98490 0.99480 0.67680 -0.90000
O 	O 	0.92070 0.07830 0.50840 -0.76700
O 	O 	0.98950 0.12910 0.71270 -0.84700
O 	O 	0.87510 0.05940 0.75340 -0.78000
