data_crystal

_cell_length_a 18.74100
_cell_length_b 18.74100
_cell_length_c 9.41400
_cell_angle_alpha 90.00000
_cell_angle_beta  90.00000
_cell_angle_gamma 90.00000

_symmetry_space_group_name_	'P 1'
_symmetry_space_group_name_H-M	'P 1'

loop_
_symmetry_equiv_pos_as_xyz
  x,y,z

loop_
_atom_site_label
_atom_site_type_symbol
_atom_site_fract_x
_atom_site_fract_y
_atom_site_fract_z
_atom_site_charge
P 	P 	0.56500 0.05240 0.33410 0.61900
P 	P 	0.66590 0.06410 0.91600 0.61700
P 	P 	0.45450 0.16530 0.84280 0.59800
Al	Al	0.56590 0.16605 0.09250 2.42400
Al	Al	0.66653 0.95050 0.15980 2.42200
Al	Al	0.44392 0.93480 0.33630 2.42500
O 	O 	0.65880 0.98730 0.01070 -0.77900
O 	O 	0.49580 0.15720 0.00700 -0.78100
O 	O 	0.62480 0.05810 0.75130 -0.74700
O 	O 	0.37250 0.12230 0.84130 -0.74400
O 	O 	0.43810 0.25390 0.80510 -0.73600
O 	O 	0.75410 0.08120 0.87960 -0.73500
O 	O 	0.51000 0.12910 0.71300 -0.76900
O 	O 	0.63050 0.13440 0.01170 -0.77600
O 	O 	0.48490 0.00570 0.32550 -0.78600
O 	O 	0.57920 0.07760 0.51060 -0.73800
O 	O 	0.55770 0.12820 0.23720 -0.74900
O 	O 	0.63500 0.00020 0.27810 -0.76100
P 	P 	0.93500 0.44760 0.33410 0.61600
P 	P 	0.83410 0.43590 0.91600 0.62300
P 	P 	0.04550 0.33470 0.84280 0.59400
Al	Al	0.93410 0.33395 0.09250 2.42200
Al	Al	0.83347 0.54950 0.15980 2.42100
Al	Al	0.05608 0.56520 0.33630 2.42400
O 	O 	0.84120 0.51270 0.01070 -0.77900
O 	O 	0.00420 0.34280 0.00700 -0.77500
O 	O 	0.87520 0.44190 0.75130 -0.74500
O 	O 	0.12750 0.37770 0.84130 -0.74400
O 	O 	0.06190 0.24610 0.80510 -0.73600
O 	O 	0.74590 0.41880 0.87960 -0.73300
O 	O 	0.99000 0.37090 0.71300 -0.76700
O 	O 	0.86950 0.36560 0.01170 -0.78200
O 	O 	0.01510 0.49430 0.32550 -0.78600
O 	O 	0.92080 0.42240 0.51060 -0.73700
O 	O 	0.94230 0.37180 0.23720 -0.75200
O 	O 	0.86500 0.49980 0.27810 -0.76200
P 	P 	0.44760 0.56500 0.33410 0.61700
P 	P 	0.43590 0.66590 0.91600 0.62000
P 	P 	0.33470 0.45450 0.84280 0.59900
Al	Al	0.33395 0.56590 0.09250 2.42300
Al	Al	0.54950 0.66653 0.15980 2.42100
Al	Al	0.56520 0.44392 0.33630 2.42400
O 	O 	0.51270 0.65880 0.01070 -0.77700
O 	O 	0.34280 0.49580 0.00700 -0.78300
O 	O 	0.44190 0.62480 0.75130 -0.74600
O 	O 	0.37770 0.37250 0.84130 -0.74400
O 	O 	0.24610 0.43810 0.80510 -0.73600
O 	O 	0.41880 0.75410 0.87960 -0.73300
O 	O 	0.37090 0.51000 0.71300 -0.76800
O 	O 	0.36560 0.63050 0.01170 -0.77900
O 	O 	0.49430 0.48490 0.32550 -0.78800
O 	O 	0.42240 0.57920 0.51060 -0.73700
O 	O 	0.37180 0.55770 0.23720 -0.75000
O 	O 	0.49980 0.63500 0.27810 -0.76200
P 	P 	0.05240 0.93500 0.33410 0.61200
P 	P 	0.06410 0.83410 0.91600 0.61800
P 	P 	0.16530 0.04550 0.84280 0.59400
Al	Al	0.16605 0.93410 0.09250 2.42200
Al	Al	0.95050 0.83347 0.15980 2.42100
Al	Al	0.93480 0.05608 0.33630 2.42400
O 	O 	0.98730 0.84120 0.01070 -0.78000
O 	O 	0.15720 0.00420 0.00700 -0.77200
O 	O 	0.05810 0.87520 0.75130 -0.74800
O 	O 	0.12230 0.12750 0.84130 -0.74400
O 	O 	0.25390 0.06190 0.80510 -0.73700
O 	O 	0.08120 0.74590 0.87960 -0.73400
O 	O 	0.12910 0.99000 0.71300 -0.76900
O 	O 	0.13440 0.86950 0.01170 -0.77900
O 	O 	0.00570 0.01510 0.32550 -0.77900
O 	O 	0.07760 0.92080 0.51060 -0.73900
O 	O 	0.12820 0.94230 0.23720 -0.75200
O 	O 	0.00020 0.86500 0.27810 -0.76200
P 	P 	0.43500 0.94760 0.66590 0.61800
P 	P 	0.33410 0.93590 0.08400 0.61600
P 	P 	0.54550 0.83470 0.15720 0.59700
Al	Al	0.43410 0.83395 0.90750 2.42300
Al	Al	0.33347 0.04950 0.84020 2.42100
Al	Al	0.55608 0.06520 0.66370 2.42400
O 	O 	0.34120 0.01270 0.98930 -0.77900
O 	O 	0.50420 0.84280 0.99300 -0.78100
O 	O 	0.37520 0.94190 0.24870 -0.74700
O 	O 	0.62750 0.87770 0.15870 -0.74400
O 	O 	0.56190 0.74610 0.19490 -0.73600
O 	O 	0.24590 0.91880 0.12040 -0.73500
O 	O 	0.49000 0.87090 0.28700 -0.76900
O 	O 	0.36950 0.86560 0.98830 -0.77600
O 	O 	0.51510 0.99430 0.67450 -0.78600
O 	O 	0.42080 0.92240 0.48940 -0.73800
O 	O 	0.44230 0.87180 0.76280 -0.74900
O 	O 	0.36500 0.99980 0.72190 -0.76100
P 	P 	0.06500 0.55240 0.66590 0.61600
P 	P 	0.16590 0.56410 0.08400 0.62300
P 	P 	0.95450 0.66530 0.15720 0.59400
Al	Al	0.06590 0.66605 0.90750 2.42200
Al	Al	0.16653 0.45050 0.84020 2.42100
Al	Al	0.94392 0.43480 0.66370 2.42400
O 	O 	0.15880 0.48730 0.98930 -0.77900
O 	O 	0.99580 0.65720 0.99300 -0.77500
O 	O 	0.12480 0.55810 0.24870 -0.74500
O 	O 	0.87250 0.62230 0.15870 -0.74400
O 	O 	0.93810 0.75390 0.19490 -0.73600
O 	O 	0.25410 0.58120 0.12040 -0.73300
O 	O 	0.01000 0.62910 0.28700 -0.76700
O 	O 	0.13050 0.63440 0.98830 -0.78200
O 	O 	0.98490 0.50570 0.67450 -0.78600
O 	O 	0.07920 0.57760 0.48940 -0.73700
O 	O 	0.05770 0.62820 0.76280 -0.75200
O 	O 	0.13500 0.50020 0.72190 -0.76200
P 	P 	0.55240 0.43500 0.66590 0.61700
P 	P 	0.56410 0.33410 0.08400 0.62000
P 	P 	0.66530 0.54550 0.15720 0.59900
Al	Al	0.66605 0.43410 0.90750 2.42300
Al	Al	0.45050 0.33347 0.84020 2.42100
Al	Al	0.43480 0.55608 0.66370 2.42400
O 	O 	0.48730 0.34120 0.98930 -0.77700
O 	O 	0.65720 0.50420 0.99300 -0.78300
O 	O 	0.55810 0.37520 0.24870 -0.74600
O 	O 	0.62230 0.62750 0.15870 -0.74400
O 	O 	0.75390 0.56190 0.19490 -0.73600
O 	O 	0.58120 0.24590 0.12040 -0.73300
O 	O 	0.62910 0.49000 0.28700 -0.76800
O 	O 	0.63440 0.36950 0.98830 -0.77900
O 	O 	0.50570 0.51510 0.67450 -0.78800
O 	O 	0.57760 0.42080 0.48940 -0.73700
O 	O 	0.62820 0.44230 0.76280 -0.75000
O 	O 	0.50020 0.36500 0.72190 -0.76200
P 	P 	0.94760 0.06500 0.66590 0.61200
P 	P 	0.93590 0.16590 0.08400 0.61800
P 	P 	0.83470 0.95450 0.15720 0.59400
Al	Al	0.83395 0.06590 0.90750 2.42200
Al	Al	0.04950 0.16653 0.84020 2.42100
Al	Al	0.06520 0.94392 0.66370 2.42400
O 	O 	0.01270 0.15880 0.98930 -0.78000
O 	O 	0.84280 0.99580 0.99300 -0.77200
O 	O 	0.94190 0.12480 0.24870 -0.74800
O 	O 	0.87770 0.87250 0.15870 -0.74400
O 	O 	0.74610 0.93810 0.19490 -0.73700
O 	O 	0.91880 0.25410 0.12040 -0.73400
O 	O 	0.87090 0.01000 0.28700 -0.76900
O 	O 	0.86560 0.13050 0.98830 -0.77900
O 	O 	0.99430 0.98490 0.67450 -0.77900
O 	O 	0.92240 0.07920 0.48940 -0.73900
O 	O 	0.87180 0.05770 0.76280 -0.75200
O 	O 	0.99980 0.13500 0.72190 -0.76200
