data_crystal

_cell_length_a 25.33000
_cell_length_b 25.33000
_cell_length_c 33.46700
_cell_angle_alpha 90.00000
_cell_angle_beta  90.00000
_cell_angle_gamma 90.00000

_symmetry_space_group_name_	'P 1'
_symmetry_space_group_name_H-M	'P 1'

loop_
_symmetry_equiv_pos_as_xyz
  x,y,z

loop_
_atom_site_label
_atom_site_type_symbol
_atom_site_fract_x
_atom_site_fract_y
_atom_site_fract_z
_atom_site_charge
Co	Co	0.23217 0.86167 0.34777 1.13200
Zn	Zn	0.26909 0.76182 0.28855 1.23600
Zn	Zn	0.23572 0.76889 0.46161 1.23900
Co	Co	0.76576 0.65437 0.46501 1.08900
O 	O 	0.19974 0.82959 0.39902 -0.47400
O 	O 	0.17387 0.75504 0.42600 -0.41800
O 	O 	0.20961 0.78554 0.32316 -0.53700
O 	O 	0.15768 0.77700 0.26950 -0.29900
O 	O 	0.81120 0.75360 0.22990 -0.42300
O 	O 	0.79150 0.83250 0.25550 -0.31000
O 	O 	0.79924 0.72874 0.45662 -0.49100
O 	O 	0.83213 0.77630 0.50647 -0.47700
O 	O 	0.32137 0.75539 0.33140 -0.46000
O 	O 	0.30621 0.83298 0.36180 -0.44800
O 	O 	0.30198 0.76831 0.43244 -0.46400
O 	O 	0.35229 0.80371 0.48036 -0.47900
O 	O 	0.70168 0.77250 0.50914 -0.46800
O 	O 	0.69874 0.68950 0.48822 -0.49200
O 	O 	0.67830 0.78553 0.24629 -0.48000
O 	O 	0.61286 0.75400 0.20728 -0.51100
C 	C 	0.11960 0.78800 0.37490 -0.08100
C 	C 	0.11760 0.78540 0.33287 -0.06200
C 	C 	0.06790 0.78540 0.31452 -0.04000
H 	H 	0.06620 0.78480 0.28620 0.05600
C 	C 	0.02050 0.78630 0.33606 -0.00600
C 	C 	0.02260 0.78600 0.37770 -0.03500
C 	C 	0.07250 0.78850 0.39602 -0.01200
H 	H 	0.07410 0.79070 0.42430 0.04000
C 	C 	0.16810 0.79160 0.40025 0.34500
C 	C 	0.16330 0.78330 0.30598 0.29300
C 	C 	0.97020 0.78900 0.31280 0.04600
C 	C 	0.95990 0.75210 0.28270 -0.09900
H 	H 	0.98550 0.72620 0.27570 0.06300
C 	C 	0.91080 0.75420 0.26290 0.01500
H 	H 	0.90300 0.72880 0.24290 0.04200
C 	C 	0.87430 0.79210 0.27200 -0.07800
C 	C 	0.88410 0.82930 0.30080 0.01100
H 	H 	0.85850 0.85560 0.30660 0.03900
C 	C 	0.93350 0.82800 0.32220 -0.09300
H 	H 	0.94090 0.85330 0.34230 0.06200
C 	C 	0.82090 0.79220 0.25130 0.30300
C 	C 	0.97510 0.77980 0.40253 0.08400
C 	C 	0.93950 0.73840 0.39320 -0.14200
H 	H 	0.94640 0.71580 0.37120 0.07900
C 	C 	0.89480 0.73100 0.41600 0.07600
H 	H 	0.87090 0.70340 0.40980 -0.01600
C 	C 	0.88490 0.76410 0.44817 -0.15400
C 	C 	0.92040 0.80310 0.45860 0.06900
H 	H 	0.91460 0.82370 0.48190 0.01600
C 	C 	0.96500 0.81220 0.43490 -0.14200
H 	H 	0.98820 0.84050 0.44100 0.07300
C 	C 	0.83460 0.75550 0.47250 0.40300
C 	C 	0.38290 0.78620 0.37702 -0.05100
C 	C 	0.39130 0.78650 0.41786 -0.07100
C 	C 	0.44190 0.78340 0.43274 -0.01200
H 	H 	0.44700 0.78470 0.46080 0.01700
C 	C 	0.48530 0.77860 0.40825 -0.03100
C 	C 	0.47930 0.77700 0.36620 -0.01700
C 	C 	0.42760 0.78240 0.35140 -0.02800
H 	H 	0.42230 0.78360 0.32330 0.04900
C 	C 	0.33206 0.79130 0.35573 0.38700
C 	C 	0.34494 0.78670 0.44575 0.37500
C 	C 	0.53800 0.76800 0.42755 0.08400
C 	C 	0.56730 0.72380 0.41850 -0.15700
H 	H 	0.55570 0.70010 0.39830 0.08100
C 	C 	0.61310 0.71410 0.43879 0.08800
H 	H 	0.63280 0.68320 0.43270 -0.01800
C 	C 	0.63150 0.74810 0.46795 -0.17200
C 	C 	0.60360 0.79370 0.47610 0.07900
H 	H 	0.61710 0.81830 0.49490 0.01700
C 	C 	0.55620 0.80360 0.45710 -0.14900
H 	H 	0.53600 0.83400 0.46370 0.07400
C 	C 	0.68190 0.73580 0.48933 0.41700
C 	C 	0.52180 0.77390 0.33646 0.07900
C 	C 	0.51200 0.74270 0.30320 -0.13700
H 	H 	0.48020 0.72290 0.30160 0.08000
C 	C 	0.54860 0.74020 0.27201 0.06600
H 	H 	0.54240 0.71780 0.24970 0.01000
C 	C 	0.59440 0.77100 0.27397 -0.14800
C 	C 	0.60380 0.80240 0.30820 0.06500
H 	H 	0.63520 0.82270 0.31000 0.02300
C 	C 	0.56760 0.80370 0.33880 -0.13400
H 	H 	0.57410 0.82500 0.36170 0.07900
C 	C 	0.63150 0.77080 0.23943 0.42000
Zn	Zn	0.63833 0.73217 0.15223 1.19500
Co	Co	0.73217 0.36167 0.84777 1.13100
Zn	Zn	0.76909 0.26182 0.78855 1.23500
Zn	Zn	0.73572 0.26889 0.96161 1.23800
Co	Co	0.26576 0.15437 0.96501 1.08800
O 	O 	0.69974 0.32959 0.89902 -0.47400
O 	O 	0.67387 0.25504 0.92600 -0.41800
O 	O 	0.70961 0.28554 0.82316 -0.53700
O 	O 	0.65768 0.27700 0.76950 -0.29900
O 	O 	0.31120 0.25360 0.72990 -0.42300
O 	O 	0.29150 0.33250 0.75550 -0.31000
O 	O 	0.29924 0.22874 0.95662 -0.49100
O 	O 	0.33213 0.27630 0.00647 -0.47700
O 	O 	0.82137 0.25539 0.83140 -0.46000
O 	O 	0.80621 0.33298 0.86180 -0.44800
O 	O 	0.80198 0.26831 0.93244 -0.46400
O 	O 	0.85229 0.30371 0.98036 -0.47900
O 	O 	0.20168 0.27250 0.00914 -0.46800
O 	O 	0.19874 0.18950 0.98822 -0.49200
O 	O 	0.17830 0.28553 0.74629 -0.48000
O 	O 	0.11286 0.25400 0.70728 -0.51100
C 	C 	0.61960 0.28800 0.87490 -0.08100
C 	C 	0.61760 0.28540 0.83287 -0.06200
C 	C 	0.56790 0.28540 0.81452 -0.04000
H 	H 	0.56620 0.28480 0.78620 0.05600
C 	C 	0.52050 0.28630 0.83606 -0.00600
C 	C 	0.52260 0.28600 0.87770 -0.03500
C 	C 	0.57250 0.28850 0.89602 -0.01200
H 	H 	0.57410 0.29070 0.92430 0.04000
C 	C 	0.66810 0.29160 0.90025 0.34500
C 	C 	0.66330 0.28330 0.80598 0.29300
C 	C 	0.47020 0.28900 0.81280 0.04600
C 	C 	0.45990 0.25210 0.78270 -0.09900
H 	H 	0.48550 0.22620 0.77570 0.06300
C 	C 	0.41080 0.25420 0.76290 0.01500
H 	H 	0.40300 0.22880 0.74290 0.04200
C 	C 	0.37430 0.29210 0.77200 -0.07800
C 	C 	0.38410 0.32930 0.80080 0.01100
H 	H 	0.35850 0.35560 0.80660 0.03900
C 	C 	0.43350 0.32800 0.82220 -0.09300
H 	H 	0.44090 0.35330 0.84230 0.06200
C 	C 	0.32090 0.29220 0.75130 0.30300
C 	C 	0.47510 0.27980 0.90253 0.08400
C 	C 	0.43950 0.23840 0.89320 -0.14200
H 	H 	0.44640 0.21580 0.87120 0.07900
C 	C 	0.39480 0.23100 0.91600 0.07600
H 	H 	0.37090 0.20340 0.90980 -0.01700
C 	C 	0.38490 0.26410 0.94817 -0.15500
C 	C 	0.42040 0.30310 0.95860 0.06900
H 	H 	0.41460 0.32370 0.98190 0.01600
C 	C 	0.46500 0.31220 0.93490 -0.14200
H 	H 	0.48820 0.34050 0.94100 0.07300
C 	C 	0.33460 0.25550 0.97250 0.40300
C 	C 	0.88290 0.28620 0.87702 -0.05100
C 	C 	0.89130 0.28650 0.91786 -0.07100
C 	C 	0.94190 0.28340 0.93274 -0.01200
H 	H 	0.94700 0.28470 0.96080 0.01700
C 	C 	0.98530 0.27860 0.90825 -0.03100
C 	C 	0.97930 0.27700 0.86620 -0.01700
C 	C 	0.92760 0.28240 0.85140 -0.02800
H 	H 	0.92230 0.28360 0.82330 0.04900
C 	C 	0.83206 0.29130 0.85573 0.38700
C 	C 	0.84494 0.28670 0.94575 0.37500
C 	C 	0.03800 0.26800 0.92755 0.08400
C 	C 	0.06730 0.22380 0.91850 -0.15700
H 	H 	0.05570 0.20010 0.89830 0.08100
C 	C 	0.11310 0.21410 0.93879 0.08800
H 	H 	0.13280 0.18320 0.93270 -0.01800
C 	C 	0.13150 0.24810 0.96795 -0.17200
C 	C 	0.10360 0.29370 0.97610 0.07900
H 	H 	0.11710 0.31830 0.99490 0.01700
C 	C 	0.05620 0.30360 0.95710 -0.14900
H 	H 	0.03600 0.33400 0.96370 0.07400
C 	C 	0.18190 0.23580 0.98933 0.41700
C 	C 	0.02180 0.27390 0.83646 0.07900
C 	C 	0.01200 0.24270 0.80320 -0.13700
H 	H 	0.98020 0.22290 0.80160 0.08000
C 	C 	0.04860 0.24020 0.77201 0.06600
H 	H 	0.04240 0.21780 0.74970 0.01000
C 	C 	0.09440 0.27100 0.77397 -0.14800
C 	C 	0.10380 0.30240 0.80820 0.06500
H 	H 	0.13520 0.32270 0.81000 0.02300
C 	C 	0.06760 0.30370 0.83880 -0.13400
H 	H 	0.07410 0.32500 0.86170 0.07900
C 	C 	0.13150 0.27080 0.73943 0.42000
Zn	Zn	0.13833 0.23217 0.65223 1.19500
Co	Co	0.76783 0.13833 0.34777 1.13100
Zn	Zn	0.73091 0.23818 0.28855 1.23500
Zn	Zn	0.76428 0.23111 0.46161 1.23800
Co	Co	0.23424 0.34563 0.46501 1.08800
O 	O 	0.80026 0.17041 0.39902 -0.47400
O 	O 	0.82613 0.24496 0.42600 -0.41800
O 	O 	0.79039 0.21446 0.32316 -0.53700
O 	O 	0.84232 0.22300 0.26950 -0.29900
O 	O 	0.18880 0.24640 0.22990 -0.42300
O 	O 	0.20850 0.16750 0.25550 -0.31000
O 	O 	0.20076 0.27126 0.45662 -0.49100
O 	O 	0.16787 0.22370 0.50647 -0.47700
O 	O 	0.67863 0.24461 0.33140 -0.46000
O 	O 	0.69379 0.16702 0.36180 -0.44800
O 	O 	0.69802 0.23169 0.43244 -0.46400
O 	O 	0.64771 0.19629 0.48036 -0.47900
O 	O 	0.29832 0.22750 0.50914 -0.46800
O 	O 	0.30126 0.31050 0.48822 -0.49200
O 	O 	0.32170 0.21447 0.24629 -0.48000
O 	O 	0.38714 0.24600 0.20728 -0.51100
C 	C 	0.88040 0.21200 0.37490 -0.08100
C 	C 	0.88240 0.21460 0.33287 -0.06200
C 	C 	0.93210 0.21460 0.31452 -0.04000
H 	H 	0.93380 0.21520 0.28620 0.05600
C 	C 	0.97950 0.21370 0.33606 -0.00600
C 	C 	0.97740 0.21400 0.37770 -0.03500
C 	C 	0.92750 0.21150 0.39602 -0.01200
H 	H 	0.92590 0.20930 0.42430 0.04000
C 	C 	0.83190 0.20840 0.40025 0.34500
C 	C 	0.83670 0.21670 0.30598 0.29300
C 	C 	0.02980 0.21100 0.31280 0.04600
C 	C 	0.04010 0.24790 0.28270 -0.09900
H 	H 	0.01450 0.27380 0.27570 0.06300
C 	C 	0.08920 0.24580 0.26290 0.01500
H 	H 	0.09700 0.27120 0.24290 0.04200
C 	C 	0.12570 0.20790 0.27200 -0.07800
C 	C 	0.11590 0.17070 0.30080 0.01100
H 	H 	0.14150 0.14440 0.30660 0.03900
C 	C 	0.06650 0.17200 0.32220 -0.09300
H 	H 	0.05910 0.14670 0.34230 0.06200
C 	C 	0.17910 0.20780 0.25130 0.30300
C 	C 	0.02490 0.22020 0.40253 0.08400
C 	C 	0.06050 0.26160 0.39320 -0.14200
H 	H 	0.05360 0.28420 0.37120 0.07900
C 	C 	0.10520 0.26900 0.41600 0.07600
H 	H 	0.12910 0.29660 0.40980 -0.01600
C 	C 	0.11510 0.23590 0.44817 -0.15400
C 	C 	0.07960 0.19690 0.45860 0.06900
H 	H 	0.08540 0.17630 0.48190 0.01600
C 	C 	0.03500 0.18780 0.43490 -0.14200
H 	H 	0.01180 0.15950 0.44100 0.07300
C 	C 	0.16540 0.24450 0.47250 0.40300
C 	C 	0.61710 0.21380 0.37702 -0.05100
C 	C 	0.60870 0.21350 0.41786 -0.07100
C 	C 	0.55810 0.21660 0.43274 -0.01200
H 	H 	0.55300 0.21530 0.46080 0.01700
C 	C 	0.51470 0.22140 0.40825 -0.03100
C 	C 	0.52070 0.22300 0.36620 -0.01700
C 	C 	0.57240 0.21760 0.35140 -0.02800
H 	H 	0.57770 0.21640 0.32330 0.04900
C 	C 	0.66794 0.20870 0.35573 0.38700
C 	C 	0.65506 0.21330 0.44575 0.37500
C 	C 	0.46200 0.23200 0.42755 0.08400
C 	C 	0.43270 0.27620 0.41850 -0.15700
H 	H 	0.44430 0.29990 0.39830 0.08100
C 	C 	0.38690 0.28590 0.43879 0.08800
H 	H 	0.36720 0.31680 0.43270 -0.01800
C 	C 	0.36850 0.25190 0.46795 -0.17200
C 	C 	0.39640 0.20630 0.47610 0.07900
H 	H 	0.38290 0.18170 0.49490 0.01700
C 	C 	0.44380 0.19640 0.45710 -0.14900
H 	H 	0.46400 0.16600 0.46370 0.07400
C 	C 	0.31810 0.26420 0.48933 0.41700
C 	C 	0.47820 0.22610 0.33646 0.07900
C 	C 	0.48800 0.25730 0.30320 -0.13700
H 	H 	0.51980 0.27710 0.30160 0.08000
C 	C 	0.45140 0.25980 0.27201 0.06600
H 	H 	0.45760 0.28220 0.24970 0.01000
C 	C 	0.40560 0.22900 0.27397 -0.14800
C 	C 	0.39620 0.19760 0.30820 0.06500
H 	H 	0.36480 0.17730 0.31000 0.02300
C 	C 	0.43240 0.19630 0.33880 -0.13400
H 	H 	0.42590 0.17500 0.36170 0.07900
C 	C 	0.36850 0.22920 0.23943 0.42000
Zn	Zn	0.36167 0.26783 0.15223 1.19500
Co	Co	0.26783 0.63833 0.84777 1.13100
Zn	Zn	0.23091 0.73818 0.78855 1.23500
Zn	Zn	0.26428 0.73111 0.96161 1.23800
Co	Co	0.73424 0.84563 0.96501 1.08800
O 	O 	0.30026 0.67041 0.89902 -0.47400
O 	O 	0.32613 0.74496 0.92600 -0.41800
O 	O 	0.29039 0.71446 0.82316 -0.53700
O 	O 	0.34232 0.72300 0.76950 -0.29900
O 	O 	0.68880 0.74640 0.72990 -0.42300
O 	O 	0.70850 0.66750 0.75550 -0.31000
O 	O 	0.70076 0.77126 0.95662 -0.49100
O 	O 	0.66787 0.72370 0.00647 -0.47700
O 	O 	0.17863 0.74461 0.83140 -0.46000
O 	O 	0.19379 0.66702 0.86180 -0.44800
O 	O 	0.19802 0.73169 0.93244 -0.46400
O 	O 	0.14771 0.69629 0.98036 -0.47900
O 	O 	0.79832 0.72750 0.00914 -0.46800
O 	O 	0.80126 0.81050 0.98822 -0.49200
O 	O 	0.82170 0.71447 0.74629 -0.48000
O 	O 	0.88714 0.74600 0.70728 -0.51100
C 	C 	0.38040 0.71200 0.87490 -0.08100
C 	C 	0.38240 0.71460 0.83287 -0.06200
C 	C 	0.43210 0.71460 0.81452 -0.04000
H 	H 	0.43380 0.71520 0.78620 0.05600
C 	C 	0.47950 0.71370 0.83606 -0.00600
C 	C 	0.47740 0.71400 0.87770 -0.03500
C 	C 	0.42750 0.71150 0.89602 -0.01200
H 	H 	0.42590 0.70930 0.92430 0.04000
C 	C 	0.33190 0.70840 0.90025 0.34500
C 	C 	0.33670 0.71670 0.80598 0.29300
C 	C 	0.52980 0.71100 0.81280 0.04600
C 	C 	0.54010 0.74790 0.78270 -0.09900
H 	H 	0.51450 0.77380 0.77570 0.06300
C 	C 	0.58920 0.74580 0.76290 0.01500
H 	H 	0.59700 0.77120 0.74290 0.04200
C 	C 	0.62570 0.70790 0.77200 -0.07800
C 	C 	0.61590 0.67070 0.80080 0.01100
H 	H 	0.64150 0.64440 0.80660 0.03900
C 	C 	0.56650 0.67200 0.82220 -0.09300
H 	H 	0.55910 0.64670 0.84230 0.06200
C 	C 	0.67910 0.70780 0.75130 0.30300
C 	C 	0.52490 0.72020 0.90253 0.08400
C 	C 	0.56050 0.76160 0.89320 -0.14200
H 	H 	0.55360 0.78420 0.87120 0.07900
C 	C 	0.60520 0.76900 0.91600 0.07600
H 	H 	0.62910 0.79660 0.90980 -0.01700
C 	C 	0.61510 0.73590 0.94817 -0.15500
C 	C 	0.57960 0.69690 0.95860 0.06900
H 	H 	0.58540 0.67630 0.98190 0.01600
C 	C 	0.53500 0.68780 0.93490 -0.14200
H 	H 	0.51180 0.65950 0.94100 0.07300
C 	C 	0.66540 0.74450 0.97250 0.40300
C 	C 	0.11710 0.71380 0.87702 -0.05100
C 	C 	0.10870 0.71350 0.91786 -0.07100
C 	C 	0.05810 0.71660 0.93274 -0.01200
H 	H 	0.05300 0.71530 0.96080 0.01700
C 	C 	0.01470 0.72140 0.90825 -0.03100
C 	C 	0.02070 0.72300 0.86620 -0.01700
C 	C 	0.07240 0.71760 0.85140 -0.02800
H 	H 	0.07770 0.71640 0.82330 0.04900
C 	C 	0.16794 0.70870 0.85573 0.38700
C 	C 	0.15506 0.71330 0.94575 0.37500
C 	C 	0.96200 0.73200 0.92755 0.08400
C 	C 	0.93270 0.77620 0.91850 -0.15700
H 	H 	0.94430 0.79990 0.89830 0.08100
C 	C 	0.88690 0.78590 0.93879 0.08800
H 	H 	0.86720 0.81680 0.93270 -0.01800
C 	C 	0.86850 0.75190 0.96795 -0.17200
C 	C 	0.89640 0.70630 0.97610 0.07900
H 	H 	0.88290 0.68170 0.99490 0.01700
C 	C 	0.94380 0.69640 0.95710 -0.14900
H 	H 	0.96400 0.66600 0.96370 0.07400
C 	C 	0.81810 0.76420 0.98933 0.41700
C 	C 	0.97820 0.72610 0.83646 0.07900
C 	C 	0.98800 0.75730 0.80320 -0.13700
H 	H 	0.01980 0.77710 0.80160 0.08000
C 	C 	0.95140 0.75980 0.77201 0.06600
H 	H 	0.95760 0.78220 0.74970 0.01000
C 	C 	0.90560 0.72900 0.77397 -0.14800
C 	C 	0.89620 0.69760 0.80820 0.06500
H 	H 	0.86480 0.67730 0.81000 0.02300
C 	C 	0.93240 0.69630 0.83880 -0.13400
H 	H 	0.92590 0.67500 0.86170 0.07900
C 	C 	0.86850 0.72920 0.73943 0.42000
Zn	Zn	0.86167 0.76783 0.65223 1.19500
Zn	Zn	0.76182 0.73091 0.71145 1.23500
Zn	Zn	0.76889 0.76428 0.53839 1.23800
Co	Co	0.65437 0.23424 0.53499 1.08800
O 	O 	0.82959 0.80026 0.60098 -0.49100
O 	O 	0.75504 0.82613 0.57400 -0.41900
O 	O 	0.78554 0.79039 0.67684 -0.55000
O 	O 	0.77700 0.84232 0.73050 -0.30000
O 	O 	0.75360 0.18880 0.77010 -0.42300
O 	O 	0.83250 0.20850 0.74450 -0.31100
O 	O 	0.72874 0.20076 0.54338 -0.49100
O 	O 	0.77630 0.16787 0.49353 -0.47700
O 	O 	0.75539 0.67863 0.66860 -0.46200
O 	O 	0.83298 0.69379 0.63820 -0.46500
O 	O 	0.76831 0.69802 0.56756 -0.46400
O 	O 	0.80371 0.64771 0.51964 -0.47900
O 	O 	0.77250 0.29832 0.49086 -0.46800
O 	O 	0.68950 0.30126 0.51178 -0.49200
O 	O 	0.78553 0.32170 0.75371 -0.47700
O 	O 	0.75400 0.38714 0.79272 -0.49200
C 	C 	0.78800 0.88040 0.62510 -0.08400
C 	C 	0.78540 0.88240 0.66713 -0.06300
C 	C 	0.78540 0.93210 0.68548 -0.04000
H 	H 	0.78480 0.93380 0.71380 0.05600
C 	C 	0.78630 0.97950 0.66394 -0.00600
C 	C 	0.78600 0.97740 0.62230 -0.03600
C 	C 	0.78850 0.92750 0.60398 -0.01000
H 	H 	0.79070 0.92590 0.57570 0.04000
C 	C 	0.79160 0.83190 0.59975 0.35100
C 	C 	0.78330 0.83670 0.69402 0.29400
C 	C 	0.78900 0.02980 0.68720 0.04600
C 	C 	0.75210 0.04010 0.71730 -0.09900
H 	H 	0.72620 0.01450 0.72430 0.06300
C 	C 	0.75420 0.08920 0.73710 0.01500
H 	H 	0.72880 0.09700 0.75710 0.04100
C 	C 	0.79210 0.12570 0.72800 -0.07800
C 	C 	0.82930 0.11590 0.69920 0.01100
H 	H 	0.85560 0.14150 0.69340 0.03900
C 	C 	0.82800 0.06650 0.67780 -0.09300
H 	H 	0.85330 0.05910 0.65770 0.06200
C 	C 	0.79220 0.17910 0.74870 0.30300
C 	C 	0.77980 0.02490 0.59747 0.08500
C 	C 	0.73840 0.06050 0.60680 -0.14200
H 	H 	0.71580 0.05360 0.62880 0.07900
C 	C 	0.73100 0.10520 0.58400 0.07600
H 	H 	0.70340 0.12910 0.59020 -0.01600
C 	C 	0.76410 0.11510 0.55183 -0.15400
C 	C 	0.80310 0.07960 0.54140 0.06900
H 	H 	0.82370 0.08540 0.51810 0.01600
C 	C 	0.81220 0.03500 0.56510 -0.14200
H 	H 	0.84050 0.01180 0.55900 0.07300
C 	C 	0.75550 0.16540 0.52750 0.40300
C 	C 	0.78620 0.61710 0.62298 -0.05300
C 	C 	0.78650 0.60870 0.58214 -0.07000
C 	C 	0.78340 0.55810 0.56726 -0.01200
H 	H 	0.78470 0.55300 0.53920 0.01700
C 	C 	0.77860 0.51470 0.59175 -0.03000
C 	C 	0.77700 0.52070 0.63380 -0.01800
C 	C 	0.78240 0.57240 0.64860 -0.02700
H 	H 	0.78360 0.57770 0.67670 0.04900
C 	C 	0.79130 0.66794 0.64427 0.39400
C 	C 	0.78670 0.65506 0.55425 0.37400
C 	C 	0.76800 0.46200 0.57245 0.08400
C 	C 	0.72380 0.43270 0.58150 -0.15700
H 	H 	0.70010 0.44430 0.60170 0.08100
C 	C 	0.71410 0.38690 0.56121 0.08800
H 	H 	0.68320 0.36720 0.56730 -0.01800
C 	C 	0.74810 0.36850 0.53205 -0.17200
C 	C 	0.79370 0.39640 0.52390 0.07900
H 	H 	0.81830 0.38290 0.50510 0.01700
C 	C 	0.80360 0.44380 0.54290 -0.14900
H 	H 	0.83400 0.46400 0.53630 0.07400
C 	C 	0.73580 0.31810 0.51067 0.41700
C 	C 	0.77390 0.47820 0.66354 0.07800
C 	C 	0.74270 0.48800 0.69680 -0.13500
H 	H 	0.72290 0.51980 0.69840 0.08000
C 	C 	0.74020 0.45140 0.72799 0.06400
H 	H 	0.71780 0.45760 0.75030 0.01100
C 	C 	0.77100 0.40560 0.72603 -0.14400
C 	C 	0.80240 0.39620 0.69180 0.06200
H 	H 	0.82270 0.36480 0.69000 0.02400
C 	C 	0.80370 0.43240 0.66120 -0.13200
H 	H 	0.82500 0.42590 0.63830 0.07800
C 	C 	0.77080 0.36850 0.76057 0.41100
Zn	Zn	0.26182 0.23091 0.21145 1.23500
Zn	Zn	0.26889 0.26428 0.03839 1.23800
Co	Co	0.15437 0.73424 0.03499 1.08800
O 	O 	0.32959 0.30026 0.10098 -0.49100
O 	O 	0.25504 0.32613 0.07400 -0.41900
O 	O 	0.28554 0.29039 0.17684 -0.55000
O 	O 	0.27700 0.34232 0.23050 -0.30000
O 	O 	0.25360 0.68880 0.27010 -0.42300
O 	O 	0.33250 0.70850 0.24450 -0.31100
O 	O 	0.22874 0.70076 0.04338 -0.49100
O 	O 	0.27630 0.66787 0.99353 -0.47700
O 	O 	0.25539 0.17863 0.16860 -0.46200
O 	O 	0.33298 0.19379 0.13820 -0.46500
O 	O 	0.26831 0.19802 0.06756 -0.46400
O 	O 	0.30371 0.14771 0.01964 -0.47900
O 	O 	0.27250 0.79832 0.99086 -0.46800
O 	O 	0.18950 0.80126 0.01178 -0.49200
O 	O 	0.28553 0.82170 0.25371 -0.47700
O 	O 	0.25400 0.88714 0.29272 -0.49200
C 	C 	0.28800 0.38040 0.12510 -0.08400
C 	C 	0.28540 0.38240 0.16713 -0.06300
C 	C 	0.28540 0.43210 0.18548 -0.04000
H 	H 	0.28480 0.43380 0.21380 0.05600
C 	C 	0.28630 0.47950 0.16394 -0.00600
C 	C 	0.28600 0.47740 0.12230 -0.03600
C 	C 	0.28850 0.42750 0.10398 -0.01000
H 	H 	0.29070 0.42590 0.07570 0.04000
C 	C 	0.29160 0.33190 0.09975 0.35100
C 	C 	0.28330 0.33670 0.19402 0.29400
C 	C 	0.28900 0.52980 0.18720 0.04600
C 	C 	0.25210 0.54010 0.21730 -0.09900
H 	H 	0.22620 0.51450 0.22430 0.06300
C 	C 	0.25420 0.58920 0.23710 0.01500
H 	H 	0.22880 0.59700 0.25710 0.04100
C 	C 	0.29210 0.62570 0.22800 -0.07800
C 	C 	0.32930 0.61590 0.19920 0.01100
H 	H 	0.35560 0.64150 0.19340 0.03900
C 	C 	0.32800 0.56650 0.17780 -0.09300
H 	H 	0.35330 0.55910 0.15770 0.06200
C 	C 	0.29220 0.67910 0.24870 0.30300
C 	C 	0.27980 0.52490 0.09747 0.08500
C 	C 	0.23840 0.56050 0.10680 -0.14200
H 	H 	0.21580 0.55360 0.12880 0.07900
C 	C 	0.23100 0.60520 0.08400 0.07600
H 	H 	0.20340 0.62910 0.09020 -0.01600
C 	C 	0.26410 0.61510 0.05183 -0.15400
C 	C 	0.30310 0.57960 0.04140 0.06900
H 	H 	0.32370 0.58540 0.01810 0.01600
C 	C 	0.31220 0.53500 0.06510 -0.14200
H 	H 	0.34050 0.51180 0.05900 0.07300
C 	C 	0.25550 0.66540 0.02750 0.40300
C 	C 	0.28620 0.11710 0.12298 -0.05300
C 	C 	0.28650 0.10870 0.08214 -0.07000
C 	C 	0.28340 0.05810 0.06726 -0.01200
H 	H 	0.28470 0.05300 0.03920 0.01700
C 	C 	0.27860 0.01470 0.09175 -0.03000
C 	C 	0.27700 0.02070 0.13380 -0.01800
C 	C 	0.28240 0.07240 0.14860 -0.02700
H 	H 	0.28360 0.07770 0.17670 0.04900
C 	C 	0.29130 0.16794 0.14427 0.39400
C 	C 	0.28670 0.15506 0.05425 0.37400
C 	C 	0.26800 0.96200 0.07245 0.08400
C 	C 	0.22380 0.93270 0.08150 -0.15700
H 	H 	0.20010 0.94430 0.10170 0.08100
C 	C 	0.21410 0.88690 0.06121 0.08800
H 	H 	0.18320 0.86720 0.06730 -0.01800
C 	C 	0.24810 0.86850 0.03205 -0.17200
C 	C 	0.29370 0.89640 0.02390 0.07900
H 	H 	0.31830 0.88290 0.00510 0.01700
C 	C 	0.30360 0.94380 0.04290 -0.14900
H 	H 	0.33400 0.96400 0.03630 0.07400
C 	C 	0.23580 0.81810 0.01067 0.41700
C 	C 	0.27390 0.97820 0.16354 0.07800
C 	C 	0.24270 0.98800 0.19680 -0.13500
H 	H 	0.22290 0.01980 0.19840 0.08000
C 	C 	0.24020 0.95140 0.22799 0.06400
H 	H 	0.21780 0.95760 0.25030 0.01100
C 	C 	0.27100 0.90560 0.22603 -0.14400
C 	C 	0.30240 0.89620 0.19180 0.06200
H 	H 	0.32270 0.86480 0.19000 0.02400
C 	C 	0.30370 0.93240 0.16120 -0.13200
H 	H 	0.32500 0.92590 0.13830 0.07800
C 	C 	0.27080 0.86850 0.26057 0.41100
Zn	Zn	0.23818 0.26909 0.71145 1.23500
Zn	Zn	0.23111 0.23572 0.53839 1.23800
Co	Co	0.34563 0.76576 0.53499 1.08800
O 	O 	0.17041 0.19974 0.60098 -0.49100
O 	O 	0.24496 0.17387 0.57400 -0.41900
O 	O 	0.21446 0.20961 0.67684 -0.55000
O 	O 	0.22300 0.15768 0.73050 -0.30000
O 	O 	0.24640 0.81120 0.77010 -0.42300
O 	O 	0.16750 0.79150 0.74450 -0.31100
O 	O 	0.27126 0.79924 0.54338 -0.49100
O 	O 	0.22370 0.83213 0.49353 -0.47700
O 	O 	0.24461 0.32137 0.66860 -0.46200
O 	O 	0.16702 0.30621 0.63820 -0.46500
O 	O 	0.23169 0.30198 0.56756 -0.46400
O 	O 	0.19629 0.35229 0.51964 -0.47900
O 	O 	0.22750 0.70168 0.49086 -0.46800
O 	O 	0.31050 0.69874 0.51178 -0.49200
O 	O 	0.21447 0.67830 0.75371 -0.47700
O 	O 	0.24600 0.61286 0.79272 -0.49200
C 	C 	0.21200 0.11960 0.62510 -0.08400
C 	C 	0.21460 0.11760 0.66713 -0.06300
C 	C 	0.21460 0.06790 0.68548 -0.04000
H 	H 	0.21520 0.06620 0.71380 0.05600
C 	C 	0.21370 0.02050 0.66394 -0.00600
C 	C 	0.21400 0.02260 0.62230 -0.03600
C 	C 	0.21150 0.07250 0.60398 -0.01000
H 	H 	0.20930 0.07410 0.57570 0.04000
C 	C 	0.20840 0.16810 0.59975 0.35100
C 	C 	0.21670 0.16330 0.69402 0.29400
C 	C 	0.21100 0.97020 0.68720 0.04600
C 	C 	0.24790 0.95990 0.71730 -0.09900
H 	H 	0.27380 0.98550 0.72430 0.06300
C 	C 	0.24580 0.91080 0.73710 0.01500
H 	H 	0.27120 0.90300 0.75710 0.04100
C 	C 	0.20790 0.87430 0.72800 -0.07800
C 	C 	0.17070 0.88410 0.69920 0.01100
H 	H 	0.14440 0.85850 0.69340 0.03900
C 	C 	0.17200 0.93350 0.67780 -0.09300
H 	H 	0.14670 0.94090 0.65770 0.06200
C 	C 	0.20780 0.82090 0.74870 0.30300
C 	C 	0.22020 0.97510 0.59747 0.08500
C 	C 	0.26160 0.93950 0.60680 -0.14200
H 	H 	0.28420 0.94640 0.62880 0.07900
C 	C 	0.26900 0.89480 0.58400 0.07600
H 	H 	0.29660 0.87090 0.59020 -0.01600
C 	C 	0.23590 0.88490 0.55183 -0.15400
C 	C 	0.19690 0.92040 0.54140 0.06900
H 	H 	0.17630 0.91460 0.51810 0.01600
C 	C 	0.18780 0.96500 0.56510 -0.14200
H 	H 	0.15950 0.98820 0.55900 0.07300
C 	C 	0.24450 0.83460 0.52750 0.40300
C 	C 	0.21380 0.38290 0.62298 -0.05300
C 	C 	0.21350 0.39130 0.58214 -0.07000
C 	C 	0.21660 0.44190 0.56726 -0.01200
H 	H 	0.21530 0.44700 0.53920 0.01700
C 	C 	0.22140 0.48530 0.59175 -0.03000
C 	C 	0.22300 0.47930 0.63380 -0.01800
C 	C 	0.21760 0.42760 0.64860 -0.02700
H 	H 	0.21640 0.42230 0.67670 0.04900
C 	C 	0.20870 0.33206 0.64427 0.39400
C 	C 	0.21330 0.34494 0.55425 0.37400
C 	C 	0.23200 0.53800 0.57245 0.08400
C 	C 	0.27620 0.56730 0.58150 -0.15700
H 	H 	0.29990 0.55570 0.60170 0.08100
C 	C 	0.28590 0.61310 0.56121 0.08800
H 	H 	0.31680 0.63280 0.56730 -0.01800
C 	C 	0.25190 0.63150 0.53205 -0.17200
C 	C 	0.20630 0.60360 0.52390 0.07900
H 	H 	0.18170 0.61710 0.50510 0.01700
C 	C 	0.19640 0.55620 0.54290 -0.14900
H 	H 	0.16600 0.53600 0.53630 0.07400
C 	C 	0.26420 0.68190 0.51067 0.41700
C 	C 	0.22610 0.52180 0.66354 0.07800
C 	C 	0.25730 0.51200 0.69680 -0.13500
H 	H 	0.27710 0.48020 0.69840 0.08000
C 	C 	0.25980 0.54860 0.72799 0.06400
H 	H 	0.28220 0.54240 0.75030 0.01100
C 	C 	0.22900 0.59440 0.72603 -0.14400
C 	C 	0.19760 0.60380 0.69180 0.06200
H 	H 	0.17730 0.63520 0.69000 0.02400
C 	C 	0.19630 0.56760 0.66120 -0.13200
H 	H 	0.17500 0.57410 0.63830 0.07800
C 	C 	0.22920 0.63150 0.76057 0.41100
Zn	Zn	0.73818 0.76909 0.21145 1.23500
Zn	Zn	0.73111 0.73572 0.03839 1.23800
Co	Co	0.84563 0.26576 0.03499 1.08800
O 	O 	0.67041 0.69974 0.10098 -0.49100
O 	O 	0.74496 0.67387 0.07400 -0.41900
O 	O 	0.71446 0.70961 0.17684 -0.55000
O 	O 	0.72300 0.65768 0.23050 -0.30000
O 	O 	0.74640 0.31120 0.27010 -0.42300
O 	O 	0.66750 0.29150 0.24450 -0.31100
O 	O 	0.77126 0.29924 0.04338 -0.49100
O 	O 	0.72370 0.33213 0.99353 -0.47700
O 	O 	0.74461 0.82137 0.16860 -0.46200
O 	O 	0.66702 0.80621 0.13820 -0.46500
O 	O 	0.73169 0.80198 0.06756 -0.46400
O 	O 	0.69629 0.85229 0.01964 -0.47900
O 	O 	0.72750 0.20168 0.99086 -0.46800
O 	O 	0.81050 0.19874 0.01178 -0.49200
O 	O 	0.71447 0.17830 0.25371 -0.47700
O 	O 	0.74600 0.11286 0.29272 -0.49200
C 	C 	0.71200 0.61960 0.12510 -0.08400
C 	C 	0.71460 0.61760 0.16713 -0.06300
C 	C 	0.71460 0.56790 0.18548 -0.04000
H 	H 	0.71520 0.56620 0.21380 0.05600
C 	C 	0.71370 0.52050 0.16394 -0.00600
C 	C 	0.71400 0.52260 0.12230 -0.03600
C 	C 	0.71150 0.57250 0.10398 -0.01000
H 	H 	0.70930 0.57410 0.07570 0.04000
C 	C 	0.70840 0.66810 0.09975 0.35100
C 	C 	0.71670 0.66330 0.19402 0.29400
C 	C 	0.71100 0.47020 0.18720 0.04600
C 	C 	0.74790 0.45990 0.21730 -0.09900
H 	H 	0.77380 0.48550 0.22430 0.06300
C 	C 	0.74580 0.41080 0.23710 0.01500
H 	H 	0.77120 0.40300 0.25710 0.04100
C 	C 	0.70790 0.37430 0.22800 -0.07800
C 	C 	0.67070 0.38410 0.19920 0.01100
H 	H 	0.64440 0.35850 0.19340 0.03900
C 	C 	0.67200 0.43350 0.17780 -0.09300
H 	H 	0.64670 0.44090 0.15770 0.06200
C 	C 	0.70780 0.32090 0.24870 0.30300
C 	C 	0.72020 0.47510 0.09747 0.08500
C 	C 	0.76160 0.43950 0.10680 -0.14200
H 	H 	0.78420 0.44640 0.12880 0.07900
C 	C 	0.76900 0.39480 0.08400 0.07600
H 	H 	0.79660 0.37090 0.09020 -0.01600
C 	C 	0.73590 0.38490 0.05183 -0.15400
C 	C 	0.69690 0.42040 0.04140 0.06900
H 	H 	0.67630 0.41460 0.01810 0.01600
C 	C 	0.68780 0.46500 0.06510 -0.14200
H 	H 	0.65950 0.48820 0.05900 0.07300
C 	C 	0.74450 0.33460 0.02750 0.40300
C 	C 	0.71380 0.88290 0.12298 -0.05300
C 	C 	0.71350 0.89130 0.08214 -0.07000
C 	C 	0.71660 0.94190 0.06726 -0.01200
H 	H 	0.71530 0.94700 0.03920 0.01700
C 	C 	0.72140 0.98530 0.09175 -0.03000
C 	C 	0.72300 0.97930 0.13380 -0.01800
C 	C 	0.71760 0.92760 0.14860 -0.02700
H 	H 	0.71640 0.92230 0.17670 0.04900
C 	C 	0.70870 0.83206 0.14427 0.39400
C 	C 	0.71330 0.84494 0.05425 0.37400
C 	C 	0.73200 0.03800 0.07245 0.08400
C 	C 	0.77620 0.06730 0.08150 -0.15700
H 	H 	0.79990 0.05570 0.10170 0.08100
C 	C 	0.78590 0.11310 0.06121 0.08800
H 	H 	0.81680 0.13280 0.06730 -0.01800
C 	C 	0.75190 0.13150 0.03205 -0.17200
C 	C 	0.70630 0.10360 0.02390 0.07900
H 	H 	0.68170 0.11710 0.00510 0.01700
C 	C 	0.69640 0.05620 0.04290 -0.14900
H 	H 	0.66600 0.03600 0.03630 0.07400
C 	C 	0.76420 0.18190 0.01067 0.41700
C 	C 	0.72610 0.02180 0.16354 0.07800
C 	C 	0.75730 0.01200 0.19680 -0.13500
H 	H 	0.77710 0.98020 0.19840 0.08000
C 	C 	0.75980 0.04860 0.22799 0.06400
H 	H 	0.78220 0.04240 0.25030 0.01100
C 	C 	0.72900 0.09440 0.22603 -0.14400
C 	C 	0.69760 0.10380 0.19180 0.06200
H 	H 	0.67730 0.13520 0.19000 0.02400
C 	C 	0.69630 0.06760 0.16120 -0.13200
H 	H 	0.67500 0.07410 0.13830 0.07800
C 	C 	0.72920 0.13150 0.26057 0.41100
