data_crystal

_cell_length_a 24.50020
_cell_length_b 24.50020
_cell_length_c 24.50020
_cell_angle_alpha 93.87260
_cell_angle_beta  117.79000
_cell_angle_gamma 117.79000

_symmetry_space_group_name_	'P 1'
_symmetry_space_group_name_H-M	'P 1'

loop_
_symmetry_equiv_pos_as_xyz
  x,y,z

loop_
_atom_site_label
_atom_site_type_symbol
_atom_site_fract_x
_atom_site_fract_y
_atom_site_fract_z
_atom_site_charge
Zn	Zn	0.00626 0.23190 0.69850 1.24100
Zn	Zn	0.46660 0.77436 0.76810 1.24200
Zn	Zn	0.99374 0.69224 0.22564 1.24000
Zn	Zn	0.50867 0.98152 0.95063 1.23700
Zn	Zn	0.96911 0.52715 0.01848 1.23800
Zn	Zn	0.49133 0.44196 0.47285 1.23800
Zn	Zn	0.03089 0.04937 0.55804 1.23600
Zn	Zn	0.53340 0.30150 0.30776 1.24100
Ni	Ni	0.37278 0.88568 0.79170 1.07000
Ni	Ni	0.62722 0.41892 0.51290 1.07000
Ni	Ni	0.42312 0.11891 0.23397 1.02700
Ni	Ni	0.88494 0.76603 0.18915 1.02800
Ni	Ni	0.09398 0.20830 0.58108 1.06900
Ni	Ni	0.11506 0.30421 0.88109 1.02700
Ni	Ni	0.57688 0.81085 0.69579 1.02800
Ni	Ni	0.90602 0.48710 0.11432 1.06900
H 	H 	0.79590 0.19730 0.28480 0.06200
H 	H 	0.66390 0.98690 0.75500 0.03400
H 	H 	0.19820 0.88690 0.32190 0.02600
H 	H 	0.28310 0.78200 0.92930 0.05700
H 	H 	0.00250 0.55320 0.83710 0.04200
H 	H 	0.20410 0.48890 0.40140 0.06400
H 	H 	0.28390 0.44930 0.44680 0.03800
H 	H 	0.60340 0.53930 0.78790 0.07700
H 	H 	0.26000 0.96520 0.79380 0.02900
H 	H 	0.81260 0.32560 0.86880 0.02900
H 	H 	0.95270 0.20120 0.88710 -0.01100
H 	H 	0.17140 0.20620 0.46620 0.01500
H 	H 	0.86420 0.21410 0.49890 0.04200
H 	H 	0.36760 0.51460 0.34100 0.04000
H 	H 	0.83050 0.28100 0.43270 0.07400
H 	H 	0.23190 0.24500 0.90890 0.01800
H 	H 	0.04730 0.93440 0.24850 -0.01100
H 	H 	0.20120 0.10120 0.74620 0.05100
H 	H 	0.80180 0.12370 0.68870 0.01900
H 	H 	0.43500 0.31130 0.11310 0.02600
H 	H 	0.23620 0.21610 0.41610 0.07700
H 	H 	0.82860 0.29480 0.03480 0.02300
H 	H 	0.09230 0.43390 0.69360 0.01800
H 	H 	0.75140 0.21210 0.81550 0.07600
H 	H 	0.33670 0.65400 0.42450 0.07900
H 	H 	0.16750 0.46110 0.88540 -0.01500
H 	H 	0.77050 0.68270 0.34600 0.07900
H 	H 	0.54320 0.48700 0.67440 0.02700
H 	H 	0.13580 0.63470 0.34990 0.04300
H 	H 	0.66330 0.08780 0.31730 0.07800
H 	H 	0.25970 0.65840 0.56610 0.01800
H 	H 	0.91250 0.71520 0.51110 0.06400
H 	H 	0.17360 0.65900 0.02660 0.05900
H 	H 	0.26020 0.70970 0.99710 0.05800
H 	H 	0.74860 0.70210 0.84490 0.08000
H 	H 	0.63240 0.97340 0.14700 0.05400
H 	H 	0.71610 0.16290 0.16540 0.04200
H 	H 	0.22950 0.57550 0.91220 0.07800
H 	H 	0.76380 0.17990 0.97990 0.07400
H 	H 	0.79880 0.54500 0.90000 0.04700
H 	H 	0.80000 0.58390 0.82010 0.07800
H 	H 	0.14280 0.04650 0.29790 0.08300
H 	H 	0.33610 0.09110 0.32300 0.01900
H 	H 	0.62940 0.62870 0.92350 0.07100
H 	H 	0.24860 0.06410 0.46070 0.07500
H 	H 	0.31410 0.11290 0.06560 -0.01200
H 	H 	0.28480 0.65010 0.78590 0.04200
H 	H 	0.71520 0.50110 0.36530 0.04300
H 	H 	0.25140 0.09630 0.95350 0.08000
H 	H 	0.68590 0.75150 0.79880 -0.01000
H 	H 	0.64500 0.10000 0.89880 0.04600
H 	H 	0.71690 0.64620 0.49890 0.05700
H 	H 	0.84830 0.56730 0.39780 0.07300
H 	H 	0.14730 0.50110 0.21800 0.05700
H 	H 	0.35500 0.25380 0.45500 0.05200
H 	H 	0.16950 0.60220 0.45050 0.07400
H 	H 	0.37060 0.29410 0.99930 0.05700
H 	H 	0.08750 0.59860 0.80270 0.06100
H 	H 	0.20000 0.02010 0.78390 0.07000
H 	H 	0.42430 0.70640 0.53890 -0.01400
H 	H 	0.82640 0.85300 0.48540 0.04100
H 	H 	0.45680 0.13120 0.94380 0.02900
H 	H 	0.15170 0.54950 0.71900 0.07400
H 	H 	0.73980 0.73690 0.44950 0.06600
H 	H 	0.85720 0.15510 0.90370 0.08000
H 	H 	0.57570 0.11460 0.28210 -0.01500
H 	H 	0.99750 0.83460 0.55070 0.03900
H 	H 	0.39660 0.18450 0.93590 0.07300
H 	H 	0.74000 0.53380 0.70520 0.01500
H 	H 	0.29480 0.00070 0.37130 0.05600
H 	H 	0.85270 0.07070 0.35380 0.05600
H 	H 	0.56500 0.67810 0.87630 0.02000
H 	H 	0.76810 0.67700 0.01310 0.03300
H 	H 	0.90770 0.60130 0.34160 0.01800
H 	H 	0.74030 0.30640 0.39870 0.01800
H 	H 	0.70520 0.07650 0.70590 0.07100
H 	H 	0.71260 0.00290 0.26310 0.06000
H 	H 	0.18740 0.05620 0.51300 0.02600
H 	H 	0.28740 0.55050 0.29030 0.06700
H 	H 	0.83250 0.71790 0.29360 -0.01400
C 	C 	0.05460 0.58410 0.86910 0.00400
C 	C 	0.28360 0.75491 0.90011 -0.04200
C 	C 	0.70950 0.07760 0.81610 -0.01800
C 	C 	0.33950 0.12449 0.34919 -0.01300
C 	C 	0.87710 0.56517 0.02307 0.40200
C 	C 	0.35100 0.22070 0.42790 -0.03000
C 	C 	0.24380 0.62160 0.42660 0.08300
C 	C 	0.08070 0.36300 0.77130 0.39100
C 	C 	0.18800 0.17810 0.46590 0.05800
C 	C 	0.82300 0.63195 0.02615 -0.04900
C 	C 	0.76610 0.22870 0.85960 -0.12200
C 	C 	0.77530 0.65081 0.99031 -0.04100
C 	C 	0.64100 0.65430 0.89830 -0.14100
C 	C 	0.36910 0.14040 0.90650 -0.11600
C 	C 	0.40110 0.23994 0.40784 -0.04900
C 	C 	0.11320 0.89970 0.27890 -0.16300
C 	C 	0.18960 0.59160 0.35400 -0.03200
C 	C 	0.15450 0.01450 0.30240 -0.16100
C 	C 	0.59890 0.00674 0.83884 -0.07400
C 	C 	0.81320 0.12950 0.73230 0.07100
C 	C 	0.59540 0.50680 0.70400 0.05600
C 	C 	0.13180 0.23155 0.79055 0.38200
C 	C 	0.41720 0.22270 0.17190 0.41900
C 	C 	0.23760 0.64600 0.83560 -0.03400
C 	C 	0.86140 0.39270 0.98970 0.38700
C 	C 	0.25430 0.14180 0.84570 -0.01100
C 	C 	0.39720 0.26770 0.08090 0.05900
C 	C 	0.59170 0.22870 0.30940 0.39100
C 	C 	0.71500 0.13090 0.18550 0.00800
C 	C 	0.60280 0.68370 0.87050 0.07000
C 	C 	0.39420 0.19105 0.36805 -0.07400
C 	C 	0.66710 0.50477 0.41267 -0.07500
C 	C 	0.04060 0.60986 0.23106 0.33700
C 	C 	0.83210 0.59216 0.99326 -0.07000
C 	C 	0.25210 0.04250 0.81640 -0.11400
C 	C 	0.75600 0.10170 0.74270 -0.14100
C 	C 	0.71210 0.69760 0.85210 -0.15000
C 	C 	0.40460 0.10860 0.91140 0.04400
C 	C 	0.91810 0.85170 0.52080 -0.08500
C 	C 	0.97300 0.92710 0.54230 0.32800
C 	C 	0.77890 0.24710 0.40200 -0.13900
C 	C 	0.44100 0.20945 0.34125 0.38200
C 	C 	0.15490 0.53180 0.75290 -0.13900
C 	C 	0.81860 0.71670 0.47670 0.05100
C 	C 	0.76240 0.59800 0.40840 -0.03200
C 	C 	0.90790 0.16233 0.49523 -0.07700
C 	C 	0.38480 0.45770 0.43070 0.33200
C 	C 	0.10520 0.61160 0.84820 -0.08700
C 	C 	0.76340 0.15180 0.25700 -0.08900
C 	C 	0.84510 0.59800 0.37690 -0.13800
C 	C 	0.62750 0.14830 0.31200 0.07200
C 	C 	0.28790 0.14000 0.98550 -0.15900
C 	C 	0.94540 0.81450 0.52950 0.01700
C 	C 	0.35900 0.25730 0.01330 -0.11100
C 	C 	0.79280 0.57210 0.92310 -0.01800
C 	C 	0.76000 0.10190 0.28330 0.04400
C 	C 	0.37920 0.21350 0.10030 -0.16200
C 	C 	0.33090 0.47920 0.39730 -0.08700
C 	C 	0.09730 0.54817 0.21527 -0.05800
C 	C 	0.24000 0.52330 0.34190 0.05200
C 	C 	0.90270 0.11797 0.45087 -0.05900
C 	C 	0.80920 0.12340 0.35760 -0.00500
C 	C 	0.17700 0.20315 0.80895 -0.07500
C 	C 	0.22610 0.18360 0.43570 -0.12800
C 	C 	0.88680 0.16570 0.78650 -0.16700
C 	C 	0.14520 0.52869 0.24509 -0.04000
C 	C 	0.82500 0.32020 0.95640 -0.12600
C 	C 	0.84550 0.14790 0.86000 -0.15100
C 	C 	0.16790 0.16116 0.76006 -0.04900
C 	C 	0.90220 0.17530 0.84990 0.08100
C 	C 	0.79940 0.66700 0.34620 -0.13900
C 	C 	0.71640 0.61651 0.47131 -0.04000
C 	C 	0.71220 0.53410 0.72210 0.05900
C 	C 	0.28780 0.00990 0.82190 0.03100
C 	C 	0.29610 0.15430 0.40860 -0.01400
C 	C 	0.34870 0.68360 0.56250 -0.14900
C 	C 	0.89480 0.74300 0.50640 -0.09600
C 	C 	0.18680 0.91910 0.31630 0.06000
C 	C 	0.77330 0.11080 0.80750 0.07900
C 	C 	0.33290 0.78473 0.88203 -0.05900
C 	C 	0.20720 0.13030 0.77930 -0.03200
C 	C 	0.09210 0.58733 0.25443 -0.07600
C 	C 	0.23390 0.09350 0.46260 -0.12500
C 	C 	0.67920 0.13240 0.33300 -0.14000
C 	C 	0.74570 0.59140 0.88750 -0.02200
C 	C 	0.63090 0.53740 0.77130 -0.12700
C 	C 	0.24400 0.98670 0.34570 -0.11000
C 	C 	0.79140 0.75560 0.46900 -0.10500
C 	C 	0.33350 0.50880 0.35230 0.02300
C 	C 	0.69670 0.66250 0.88920 0.07900
C 	C 	0.81200 0.27790 0.99010 0.04400
C 	C 	0.76580 0.64240 0.45160 -0.00800
C 	C 	0.72520 0.26240 0.38100 0.06600
C 	C 	0.77390 0.20960 0.95750 -0.12100
C 	C 	0.22670 0.03420 0.33750 0.07000
C 	C 	0.65130 0.21380 0.33490 -0.14900
C 	C 	0.27480 0.65580 0.53720 0.06600
C 	C 	0.19500 0.57340 0.81720 0.08400
C 	C 	0.75100 0.18549 0.89229 0.07000
C 	C 	0.66650 0.01880 0.17530 -0.00300
C 	C 	0.32080 0.65380 0.45320 -0.13900
C 	C 	0.91930 0.69060 0.28230 0.39100
C 	C 	0.61520 0.04590 0.07290 0.31600
C 	C 	0.23660 0.49360 0.38840 -0.09700
C 	C 	0.29050 0.10660 0.36810 -0.02700
C 	C 	0.17500 0.13140 0.49520 -0.13400
C 	C 	0.80280 0.29600 0.89140 0.05000
C 	C 	0.75620 0.18280 0.37780 0.08400
C 	C 	0.05350 0.52390 0.14140 0.29900
C 	C 	0.84350 0.82470 0.49120 0.02100
C 	C 	0.32540 0.15010 0.05230 0.08900
C 	C 	0.63620 0.50480 0.67980 -0.13400
C 	C 	0.87890 0.66510 0.31640 -0.14900
C 	C 	0.28490 0.67690 0.81580 -0.01400
C 	C 	0.86110 0.18420 0.46910 -0.01400
C 	C 	0.09780 0.94770 0.27310 0.09200
C 	C 	0.70680 0.56551 0.81451 0.07500
C 	C 	0.24900 0.14129 0.43449 0.07100
C 	C 	0.37250 0.68450 0.52080 0.07200
C 	C 	0.05080 0.82810 0.24530 0.42400
C 	C 	0.40300 0.01030 0.87170 0.38100
C 	C 	0.40830 0.71770 0.63700 0.39100
C 	C 	0.86820 0.65875 0.09975 0.37400
C 	C 	0.22470 0.21501 0.87551 -0.01200
C 	C 	0.62120 0.43074 0.39014 0.33400
C 	C 	0.70390 0.11250 0.85820 -0.02200
C 	C 	0.37880 0.76894 0.80954 0.33400
C 	C 	0.23420 0.68580 0.87660 -0.00400
C 	C 	0.38250 0.85860 0.91210 0.30000
C 	C 	0.62080 0.72110 0.83430 -0.16500
C 	C 	0.22110 0.62310 0.46820 -0.13800
C 	C 	0.60580 0.97385 0.79685 -0.04700
C 	C 	0.12290 0.14597 0.68807 0.39100
C 	C 	0.71340 0.03580 0.24440 -0.09200
C 	C 	0.88140 0.61900 0.34420 0.06600
C 	C 	0.18140 0.65810 0.89810 0.04100
C 	C 	0.19720 0.08860 0.49320 0.05400
C 	C 	0.85480 0.09989 0.38349 -0.04200
C 	C 	0.02700 0.56930 0.95410 0.30700
C 	C 	0.58280 0.75470 0.80550 0.41900
C 	C 	0.08190 0.60270 0.93360 -0.06800
C 	C 	0.66910 0.06640 0.14830 -0.07300
C 	C 	0.94920 0.19450 0.77730 0.42400
C 	C 	0.29320 0.10771 0.85871 0.06200
C 	C 	0.66050 0.00969 0.78499 -0.04400
C 	C 	0.73850 0.63190 0.92240 -0.01800
C 	C 	0.19080 0.54840 0.31420 -0.00700
C 	C 	0.28500 0.47050 0.41590 0.01800
C 	C 	0.13860 0.12830 0.53130 0.39600
C 	C 	0.59700 0.46870 0.60730 0.39600
C 	C 	0.55900 0.90025 0.76845 0.37300
C 	C 	0.71510 0.53090 0.39200 -0.01500
C 	C 	0.30330 0.19250 0.96580 0.07000
C 	C 	0.20060 0.54680 0.86760 -0.14000
C 	C 	0.94650 0.08790 0.47040 0.30000
C 	C 	0.54210 0.97693 0.85403 0.40400
C 	C 	0.83630 0.68800 0.31550 0.07200
C 	C 	0.66710 0.54913 0.45183 -0.05900
C 	C 	0.28660 0.53100 0.32240 -0.10600
C 	C 	0.74790 0.56430 0.79040 -0.12900
C 	C 	0.61750 0.52960 0.47610 0.30000
C 	C 	0.81040 0.16440 0.40200 -0.03400
C 	C 	0.12110 0.43750 0.78620 -0.15000
C 	C 	0.36380 0.04360 0.86860 -0.12100
C 	C 	0.13890 0.60800 0.32310 -0.01400
C 	C 	0.16370 0.47920 0.85170 0.07200
C 	C 	0.33290 0.74557 0.83767 -0.07700
C 	C 	0.20860 0.67760 0.96420 -0.08800
C 	C 	0.80500 0.62220 0.37840 0.08300
C 	C 	0.95940 0.19046 0.56926 0.33600
C 	C 	0.64900 0.07690 0.86970 -0.01800
C 	C 	0.45790 0.31193 0.43483 0.39100
C 	C 	0.15650 0.64770 0.98120 -0.01200
C 	C 	0.67460 0.72690 0.82470 0.08000
C 	C 	0.11860 0.46280 0.73760 0.06700
C 	C 	0.26150 0.18390 0.89340 -0.02900
O 	O 	0.93513 0.04574 0.42847 -0.30200
O 	O 	0.54828 0.87290 0.71494 -0.46100
O 	O 	0.52891 0.18640 0.25811 -0.48100
O 	O 	0.61727 0.57153 0.50666 -0.30100
O 	O 	0.38273 0.88939 0.95426 -0.30100
O 	O 	0.52582 0.33155 0.47081 -0.43800
O 	O 	0.38874 0.17534 0.18808 -0.47700
O 	O 	0.00425 0.53769 0.11234 -0.53100
O 	O 	0.56716 0.99150 0.91354 -0.46600
O 	O 	0.86074 0.52919 0.05501 -0.44000
O 	O 	0.07796 0.08646 0.65362 -0.46600
O 	O 	0.93239 0.19478 0.72099 -0.46900
O 	O 	0.01274 0.21340 0.82466 -0.48200
O 	O 	0.41990 0.74852 0.81870 -0.41700
O 	O 	0.53375 0.86968 0.79795 -0.46900
O 	O 	0.84204 0.67538 0.12710 -0.46100
O 	O 	0.46442 0.03158 0.92580 -0.47300
O 	O 	0.04050 0.95180 0.57570 -0.31900
O 	O 	0.92204 0.57566 0.00850 -0.46400
O 	O 	0.61010 0.28407 0.34057 -0.47000
O 	O 	0.92982 0.18130 0.60120 -0.41700
O 	O 	0.36793 0.96163 0.82016 -0.46400
O 	O 	0.92829 0.74189 0.27080 -0.48100
O 	O 	0.52621 0.73761 0.80522 -0.46900
O 	O 	0.47418 0.94499 0.80573 -0.44000
O 	O 	0.06761 0.78860 0.26239 -0.46700
O 	O 	0.96950 0.56957 0.19787 -0.45600
O 	O 	0.63207 0.45223 0.59370 -0.47200
O 	O 	0.89422 0.43284 0.96842 -0.47200
O 	O 	0.03050 0.22837 0.60007 -0.45500
O 	O 	0.56640 0.98600 0.04200 -0.42100
O 	O 	0.62830 0.39993 0.43043 -0.45400
O 	O 	0.62390 0.08870 0.04820 -0.32000
O 	O 	0.05650 0.32603 0.71593 -0.47100
O 	O 	0.38990 0.73047 0.67397 -0.47000
O 	O 	0.57465 0.46656 0.46231 -0.53400
O 	O 	0.07173 0.20205 0.73580 -0.47200
O 	O 	0.43284 0.34638 0.42434 -0.46300
O 	O 	0.15796 0.28506 0.83334 -0.46500
O 	O 	0.07018 0.67138 0.25148 -0.41500
O 	O 	0.94350 0.65943 0.26953 -0.47100
O 	O 	0.92827 0.66407 0.13032 -0.46900
O 	O 	0.99575 0.10809 0.53344 -0.53300
O 	O 	0.13926 0.19427 0.66845 -0.43900
O 	O 	0.07171 0.34251 0.81360 -0.48200
O 	O 	0.37170 0.80213 0.77163 -0.45300
O 	O 	0.58010 0.39880 0.32862 -0.41600
O 	O 	0.47379 0.27901 0.21140 -0.46800
O 	O 	0.85853 0.40630 0.03837 -0.46700
O 	O 	0.45172 0.16666 0.32462 -0.46500
O 	O 	0.37610 0.42430 0.46480 -0.32600
O 	O 	0.05600 0.58040 0.01400 -0.42000
O 	O 	0.46625 0.26420 0.33593 -0.47100
O 	O 	0.14147 0.17984 0.54777 -0.47300
O 	O 	0.06487 0.49334 0.11061 -0.29800
O 	O 	0.43360 0.47560 0.41960 -0.43500
O 	O 	0.47109 0.72920 0.65749 -0.48100
O 	O 	0.10578 0.07420 0.53862 -0.47400
O 	O 	0.94400 0.95800 0.52440 -0.43100
O 	O 	0.98726 0.81192 0.20066 -0.48000
O 	O 	0.95950 0.53520 0.91130 -0.31900
O 	O 	0.42535 0.88766 0.89191 -0.53400
O 	O 	0.61126 0.79934 0.78660 -0.47700
O 	O 	0.53558 0.46138 0.56716 -0.47200
