data_crystal

_cell_length_a 32.36600
_cell_length_b 32.36600
_cell_length_c 32.36600
_cell_angle_alpha 90.00000
_cell_angle_beta  90.00000
_cell_angle_gamma 90.00000

_symmetry_space_group_name_	'P 1'
_symmetry_space_group_name_H-M	'P 1'

loop_
_symmetry_equiv_pos_as_xyz
  x,y,z

loop_
_atom_site_label
_atom_site_type_symbol
_atom_site_fract_x
_atom_site_fract_y
_atom_site_fract_z
_atom_site_charge
Zn	Zn	0.28530 0.28530 0.28530 1.19100
Zn	Zn	0.34927 0.34927 0.34927 1.18500
Zn	Zn	0.71470 0.71470 0.28530 1.19100
Zn	Zn	0.65073 0.65073 0.34927 1.18500
Zn	Zn	0.71470 0.28530 0.71470 1.19200
Zn	Zn	0.65073 0.34927 0.65073 1.18600
Zn	Zn	0.28530 0.71470 0.71470 1.19200
Zn	Zn	0.34927 0.65073 0.65073 1.18600
Zn	Zn	0.28530 0.28530 0.71470 1.19200
Zn	Zn	0.34927 0.34927 0.65073 1.18600
Zn	Zn	0.71470 0.71470 0.71470 1.19200
Zn	Zn	0.65073 0.65073 0.65073 1.18600
Zn	Zn	0.28530 0.71470 0.28530 1.19200
Zn	Zn	0.34927 0.65073 0.34927 1.18600
Zn	Zn	0.71470 0.28530 0.28530 1.19200
Zn	Zn	0.65073 0.34927 0.34927 1.18600
Zn	Zn	0.50000 0.13890 0.50000 1.22100
Zn	Zn	0.50000 0.23010 0.50000 1.20300
Zn	Zn	0.50000 0.86110 0.50000 1.22100
Zn	Zn	0.50000 0.76990 0.50000 1.20300
Zn	Zn	0.50000 0.50000 0.13890 1.22100
Zn	Zn	0.50000 0.50000 0.23010 1.20300
Zn	Zn	0.50000 0.50000 0.86110 1.22100
Zn	Zn	0.50000 0.50000 0.76990 1.20300
Zn	Zn	0.13890 0.50000 0.50000 1.22100
Zn	Zn	0.23010 0.50000 0.50000 1.20300
Zn	Zn	0.86110 0.50000 0.50000 1.22100
Zn	Zn	0.76990 0.50000 0.50000 1.20300
O 	O 	0.32030 0.25290 0.32030 -0.53900
O 	O 	0.36260 0.29250 0.36260 -0.53400
O 	O 	0.45880 0.14910 0.45880 -0.48100
O 	O 	0.45740 0.21990 0.45740 -0.47500
C 	C 	0.36670 0.22180 0.36670 -0.12600
C 	C 	0.39710 0.22230 0.39710 0.05600
H 	H 	0.40700 0.24740 0.40700 0.02200
C 	C 	0.41260 0.18540 0.41260 -0.11000
C 	C 	0.39780 0.14790 0.39780 -0.00600
H 	H 	0.40810 0.12320 0.40810 0.04500
C 	C 	0.36740 0.14740 0.36740 -0.01900
C 	C 	0.35190 0.18430 0.35190 -0.00000
H 	H 	0.33160 0.18400 0.33160 0.03400
C 	C 	0.34780 0.25930 0.34780 0.40500
C 	C 	0.44500 0.18380 0.44500 0.36400
C 	C 	0.35200 0.10870 0.35200 0.01300
C 	C 	0.34080 0.07570 0.34080 -0.07400
C 	C 	0.32590 0.03670 0.32590 0.12500
C 	C 	0.29550 0.03730 0.29550 -0.17200
H 	H 	0.28550 0.06230 0.28550 0.08400
O 	O 	0.67970 0.74710 0.32030 -0.53900
O 	O 	0.63740 0.70750 0.36260 -0.53400
O 	O 	0.54120 0.85090 0.45880 -0.48100
O 	O 	0.54260 0.78010 0.45740 -0.47500
C 	C 	0.63330 0.77820 0.36670 -0.12600
C 	C 	0.60290 0.77770 0.39710 0.05600
H 	H 	0.59300 0.75260 0.40700 0.02200
C 	C 	0.58740 0.81460 0.41260 -0.11000
C 	C 	0.60220 0.85210 0.39780 -0.00600
H 	H 	0.59190 0.87680 0.40810 0.04500
C 	C 	0.63260 0.85260 0.36740 -0.01900
C 	C 	0.64810 0.81570 0.35190 -0.00000
H 	H 	0.66840 0.81600 0.33160 0.03400
C 	C 	0.65220 0.74070 0.34780 0.40500
C 	C 	0.55500 0.81620 0.44500 0.36400
C 	C 	0.64800 0.89130 0.35200 0.01300
C 	C 	0.65920 0.92430 0.34080 -0.07400
C 	C 	0.67410 0.96330 0.32590 0.12400
C 	C 	0.70450 0.96270 0.29550 -0.17200
H 	H 	0.71450 0.93770 0.28550 0.08400
O 	O 	0.67970 0.25290 0.67970 -0.53900
O 	O 	0.63740 0.29250 0.63740 -0.53400
O 	O 	0.54120 0.14910 0.54120 -0.48100
O 	O 	0.54260 0.21990 0.54260 -0.47500
C 	C 	0.63330 0.22180 0.63330 -0.12600
C 	C 	0.60290 0.22230 0.60290 0.05600
H 	H 	0.59300 0.24740 0.59300 0.02200
C 	C 	0.58740 0.18540 0.58740 -0.11000
C 	C 	0.60220 0.14790 0.60220 -0.00600
H 	H 	0.59190 0.12320 0.59190 0.04500
C 	C 	0.63260 0.14740 0.63260 -0.01900
C 	C 	0.64810 0.18430 0.64810 -0.00000
H 	H 	0.66840 0.18400 0.66840 0.03400
C 	C 	0.65220 0.25930 0.65220 0.40500
C 	C 	0.55500 0.18380 0.55500 0.36400
C 	C 	0.64800 0.10870 0.64800 0.01300
C 	C 	0.65920 0.07570 0.65920 -0.07400
C 	C 	0.67410 0.03670 0.67410 0.12500
C 	C 	0.70450 0.03730 0.70450 -0.17200
H 	H 	0.71450 0.06230 0.71450 0.08400
O 	O 	0.32030 0.74710 0.67970 -0.53900
O 	O 	0.36260 0.70750 0.63740 -0.53400
O 	O 	0.45880 0.85090 0.54120 -0.48100
O 	O 	0.45740 0.78010 0.54260 -0.47500
C 	C 	0.36670 0.77820 0.63330 -0.12600
C 	C 	0.39710 0.77770 0.60290 0.05600
H 	H 	0.40700 0.75260 0.59300 0.02200
C 	C 	0.41260 0.81460 0.58740 -0.11000
C 	C 	0.39780 0.85210 0.60220 -0.00600
H 	H 	0.40810 0.87680 0.59190 0.04500
C 	C 	0.36740 0.85260 0.63260 -0.01900
C 	C 	0.35190 0.81570 0.64810 -0.00000
H 	H 	0.33160 0.81600 0.66840 0.03400
C 	C 	0.34780 0.74070 0.65220 0.40500
C 	C 	0.44500 0.81620 0.55500 0.36400
C 	C 	0.35200 0.89130 0.64800 0.01300
C 	C 	0.34080 0.92430 0.65920 -0.07400
C 	C 	0.32590 0.96330 0.67410 0.12400
C 	C 	0.29550 0.96270 0.70450 -0.17200
H 	H 	0.28550 0.93770 0.71450 0.08400
O 	O 	0.32030 0.32030 0.25290 -0.53900
O 	O 	0.36260 0.36260 0.29250 -0.53400
O 	O 	0.45880 0.45880 0.14910 -0.48100
O 	O 	0.45740 0.45740 0.21990 -0.47500
C 	C 	0.36670 0.36670 0.22180 -0.12600
C 	C 	0.39710 0.39710 0.22230 0.05600
H 	H 	0.40700 0.40700 0.24740 0.02200
C 	C 	0.41260 0.41260 0.18540 -0.11000
C 	C 	0.39780 0.39780 0.14790 -0.00600
H 	H 	0.40810 0.40810 0.12320 0.04500
C 	C 	0.36740 0.36740 0.14740 -0.01900
C 	C 	0.35190 0.35190 0.18430 -0.00000
H 	H 	0.33160 0.33160 0.18400 0.03400
C 	C 	0.34780 0.34780 0.25930 0.40500
C 	C 	0.44500 0.44500 0.18380 0.36400
C 	C 	0.35200 0.35200 0.10870 0.01300
C 	C 	0.34080 0.34080 0.07570 -0.07400
C 	C 	0.32590 0.32590 0.03670 0.12500
C 	C 	0.29550 0.29550 0.03730 -0.17200
H 	H 	0.28550 0.28550 0.06230 0.08400
O 	O 	0.32030 0.67970 0.74710 -0.53900
O 	O 	0.36260 0.63740 0.70750 -0.53400
O 	O 	0.45880 0.54120 0.85090 -0.48100
O 	O 	0.45740 0.54260 0.78010 -0.47500
C 	C 	0.36670 0.63330 0.77820 -0.12600
C 	C 	0.39710 0.60290 0.77770 0.05600
H 	H 	0.40700 0.59300 0.75260 0.02200
C 	C 	0.41260 0.58740 0.81460 -0.11000
C 	C 	0.39780 0.60220 0.85210 -0.00600
H 	H 	0.40810 0.59190 0.87680 0.04500
C 	C 	0.36740 0.63260 0.85260 -0.01900
C 	C 	0.35190 0.64810 0.81570 -0.00000
H 	H 	0.33160 0.66840 0.81600 0.03400
C 	C 	0.34780 0.65220 0.74070 0.40500
C 	C 	0.44500 0.55500 0.81620 0.36400
C 	C 	0.35200 0.64800 0.89130 0.01300
C 	C 	0.34080 0.65920 0.92430 -0.07400
C 	C 	0.32590 0.67410 0.96330 0.12400
C 	C 	0.29550 0.70450 0.96270 -0.17200
H 	H 	0.28550 0.71450 0.93770 0.08400
O 	O 	0.67970 0.67970 0.25290 -0.53900
O 	O 	0.63740 0.63740 0.29250 -0.53400
O 	O 	0.54120 0.54120 0.14910 -0.48100
O 	O 	0.54260 0.54260 0.21990 -0.47500
C 	C 	0.63330 0.63330 0.22180 -0.12600
C 	C 	0.60290 0.60290 0.22230 0.05600
H 	H 	0.59300 0.59300 0.24740 0.02200
C 	C 	0.58740 0.58740 0.18540 -0.11000
C 	C 	0.60220 0.60220 0.14790 -0.00600
H 	H 	0.59190 0.59190 0.12320 0.04500
C 	C 	0.63260 0.63260 0.14740 -0.01900
C 	C 	0.64810 0.64810 0.18430 -0.00000
H 	H 	0.66840 0.66840 0.18400 0.03400
C 	C 	0.65220 0.65220 0.25930 0.40500
C 	C 	0.55500 0.55500 0.18380 0.36400
C 	C 	0.64800 0.64800 0.10870 0.01300
C 	C 	0.65920 0.65920 0.07570 -0.07400
C 	C 	0.67410 0.67410 0.03670 0.12500
C 	C 	0.70450 0.70450 0.03730 -0.17200
H 	H 	0.71450 0.71450 0.06230 0.08400
O 	O 	0.67970 0.32030 0.74710 -0.53900
O 	O 	0.63740 0.36260 0.70750 -0.53400
O 	O 	0.54120 0.45880 0.85090 -0.48100
O 	O 	0.54260 0.45740 0.78010 -0.47500
C 	C 	0.63330 0.36670 0.77820 -0.12600
C 	C 	0.60290 0.39710 0.77770 0.05600
H 	H 	0.59300 0.40700 0.75260 0.02200
C 	C 	0.58740 0.41260 0.81460 -0.11000
C 	C 	0.60220 0.39780 0.85210 -0.00600
H 	H 	0.59190 0.40810 0.87680 0.04500
C 	C 	0.63260 0.36740 0.85260 -0.01900
C 	C 	0.64810 0.35190 0.81570 -0.00000
H 	H 	0.66840 0.33160 0.81600 0.03400
C 	C 	0.65220 0.34780 0.74070 0.40500
C 	C 	0.55500 0.44500 0.81620 0.36400
C 	C 	0.64800 0.35200 0.89130 0.01300
C 	C 	0.65920 0.34080 0.92430 -0.07400
C 	C 	0.67410 0.32590 0.96330 0.12400
C 	C 	0.70450 0.29550 0.96270 -0.17200
H 	H 	0.71450 0.28550 0.93770 0.08400
O 	O 	0.25290 0.32030 0.32030 -0.53900
O 	O 	0.29250 0.36260 0.36260 -0.53400
O 	O 	0.14910 0.45880 0.45880 -0.48100
O 	O 	0.21990 0.45740 0.45740 -0.47500
C 	C 	0.22180 0.36670 0.36670 -0.12600
C 	C 	0.22230 0.39710 0.39710 0.05600
H 	H 	0.24740 0.40700 0.40700 0.02200
C 	C 	0.18540 0.41260 0.41260 -0.11000
C 	C 	0.14790 0.39780 0.39780 -0.00600
H 	H 	0.12320 0.40810 0.40810 0.04500
C 	C 	0.14740 0.36740 0.36740 -0.01900
C 	C 	0.18430 0.35190 0.35190 -0.00000
H 	H 	0.18400 0.33160 0.33160 0.03400
C 	C 	0.25930 0.34780 0.34780 0.40500
C 	C 	0.18380 0.44500 0.44500 0.36400
C 	C 	0.10870 0.35200 0.35200 0.01300
C 	C 	0.07570 0.34080 0.34080 -0.07400
C 	C 	0.03670 0.32590 0.32590 0.12500
C 	C 	0.03730 0.29550 0.29550 -0.17200
H 	H 	0.06230 0.28550 0.28550 0.08400
O 	O 	0.74710 0.32030 0.67970 -0.53900
O 	O 	0.70750 0.36260 0.63740 -0.53400
O 	O 	0.85090 0.45880 0.54120 -0.48100
O 	O 	0.78010 0.45740 0.54260 -0.47500
C 	C 	0.77820 0.36670 0.63330 -0.12600
C 	C 	0.77770 0.39710 0.60290 0.05600
H 	H 	0.75260 0.40700 0.59300 0.02200
C 	C 	0.81460 0.41260 0.58740 -0.11000
C 	C 	0.85210 0.39780 0.60220 -0.00600
H 	H 	0.87680 0.40810 0.59190 0.04500
C 	C 	0.85260 0.36740 0.63260 -0.01900
C 	C 	0.81570 0.35190 0.64810 -0.00000
H 	H 	0.81600 0.33160 0.66840 0.03400
C 	C 	0.74070 0.34780 0.65220 0.40500
C 	C 	0.81620 0.44500 0.55500 0.36400
C 	C 	0.89130 0.35200 0.64800 0.01300
C 	C 	0.92430 0.34080 0.65920 -0.07400
C 	C 	0.96330 0.32590 0.67410 0.12400
C 	C 	0.96270 0.29550 0.70450 -0.17200
H 	H 	0.93770 0.28550 0.71450 0.08400
O 	O 	0.25290 0.67970 0.67970 -0.53900
O 	O 	0.29250 0.63740 0.63740 -0.53400
O 	O 	0.14910 0.54120 0.54120 -0.48100
O 	O 	0.21990 0.54260 0.54260 -0.47500
C 	C 	0.22180 0.63330 0.63330 -0.12600
C 	C 	0.22230 0.60290 0.60290 0.05600
H 	H 	0.24740 0.59300 0.59300 0.02200
C 	C 	0.18540 0.58740 0.58740 -0.11000
C 	C 	0.14790 0.60220 0.60220 -0.00600
H 	H 	0.12320 0.59190 0.59190 0.04500
C 	C 	0.14740 0.63260 0.63260 -0.01900
C 	C 	0.18430 0.64810 0.64810 -0.00000
H 	H 	0.18400 0.66840 0.66840 0.03400
C 	C 	0.25930 0.65220 0.65220 0.40500
C 	C 	0.18380 0.55500 0.55500 0.36400
C 	C 	0.10870 0.64800 0.64800 0.01300
C 	C 	0.07570 0.65920 0.65920 -0.07400
C 	C 	0.03670 0.67410 0.67410 0.12500
C 	C 	0.03730 0.70450 0.70450 -0.17200
H 	H 	0.06230 0.71450 0.71450 0.08400
O 	O 	0.74710 0.67970 0.32030 -0.53900
O 	O 	0.70750 0.63740 0.36260 -0.53400
O 	O 	0.85090 0.54120 0.45880 -0.48100
O 	O 	0.78010 0.54260 0.45740 -0.47500
C 	C 	0.77820 0.63330 0.36670 -0.12600
C 	C 	0.77770 0.60290 0.39710 0.05600
H 	H 	0.75260 0.59300 0.40700 0.02200
C 	C 	0.81460 0.58740 0.41260 -0.11000
C 	C 	0.85210 0.60220 0.39780 -0.00600
H 	H 	0.87680 0.59190 0.40810 0.04500
C 	C 	0.85260 0.63260 0.36740 -0.01900
C 	C 	0.81570 0.64810 0.35190 -0.00000
H 	H 	0.81600 0.66840 0.33160 0.03400
C 	C 	0.74070 0.65220 0.34780 0.40500
C 	C 	0.81620 0.55500 0.44500 0.36400
C 	C 	0.89130 0.64800 0.35200 0.01300
C 	C 	0.92430 0.65920 0.34080 -0.07400
C 	C 	0.96330 0.67410 0.32590 0.12400
C 	C 	0.96270 0.70450 0.29550 -0.17200
H 	H 	0.93770 0.71450 0.28550 0.08400
O 	O 	0.25290 0.32030 0.67970 -0.53900
O 	O 	0.29250 0.36260 0.63740 -0.53400
O 	O 	0.14910 0.45880 0.54120 -0.48100
O 	O 	0.21990 0.45740 0.54260 -0.47500
C 	C 	0.22180 0.36670 0.63330 -0.12600
C 	C 	0.22230 0.39710 0.60290 0.05600
H 	H 	0.24740 0.40700 0.59300 0.02200
C 	C 	0.18540 0.41260 0.58740 -0.11000
C 	C 	0.14790 0.39780 0.60220 -0.00600
H 	H 	0.12320 0.40810 0.59190 0.04500
C 	C 	0.14740 0.36740 0.63260 -0.01900
C 	C 	0.18430 0.35190 0.64810 -0.00000
H 	H 	0.18400 0.33160 0.66840 0.03400
C 	C 	0.25930 0.34780 0.65220 0.40500
C 	C 	0.18380 0.44500 0.55500 0.36400
C 	C 	0.10870 0.35200 0.64800 0.01300
C 	C 	0.07570 0.34080 0.65920 -0.07400
C 	C 	0.03670 0.32590 0.67410 0.12500
C 	C 	0.03730 0.29550 0.70450 -0.17200
H 	H 	0.06230 0.28550 0.71450 0.08400
O 	O 	0.74710 0.67970 0.67970 -0.53900
O 	O 	0.70750 0.63740 0.63740 -0.53400
O 	O 	0.85090 0.54120 0.54120 -0.48100
O 	O 	0.78010 0.54260 0.54260 -0.47500
C 	C 	0.77820 0.63330 0.63330 -0.12600
C 	C 	0.77770 0.60290 0.60290 0.05600
H 	H 	0.75260 0.59300 0.59300 0.02200
C 	C 	0.81460 0.58740 0.58740 -0.11000
C 	C 	0.85210 0.60220 0.60220 -0.00600
H 	H 	0.87680 0.59190 0.59190 0.04500
C 	C 	0.85260 0.63260 0.63260 -0.01900
C 	C 	0.81570 0.64810 0.64810 -0.00000
H 	H 	0.81600 0.66840 0.66840 0.03400
C 	C 	0.74070 0.65220 0.65220 0.40500
C 	C 	0.81620 0.55500 0.55500 0.36400
C 	C 	0.89130 0.64800 0.64800 0.01300
C 	C 	0.92430 0.65920 0.65920 -0.07400
C 	C 	0.96330 0.67410 0.67410 0.12400
C 	C 	0.96270 0.70450 0.70450 -0.17200
H 	H 	0.93770 0.71450 0.71450 0.08400
O 	O 	0.25290 0.67970 0.32030 -0.53900
O 	O 	0.29250 0.63740 0.36260 -0.53400
O 	O 	0.14910 0.54120 0.45880 -0.48100
O 	O 	0.21990 0.54260 0.45740 -0.47500
C 	C 	0.22180 0.63330 0.36670 -0.12600
C 	C 	0.22230 0.60290 0.39710 0.05600
H 	H 	0.24740 0.59300 0.40700 0.02200
C 	C 	0.18540 0.58740 0.41260 -0.11000
C 	C 	0.14790 0.60220 0.39780 -0.00600
H 	H 	0.12320 0.59190 0.40810 0.04500
C 	C 	0.14740 0.63260 0.36740 -0.01900
C 	C 	0.18430 0.64810 0.35190 -0.00000
H 	H 	0.18400 0.66840 0.33160 0.03400
C 	C 	0.25930 0.65220 0.34780 0.40500
C 	C 	0.18380 0.55500 0.44500 0.36400
C 	C 	0.10870 0.64800 0.35200 0.01300
C 	C 	0.07570 0.65920 0.34080 -0.07400
C 	C 	0.03670 0.67410 0.32590 0.12500
C 	C 	0.03730 0.70450 0.29550 -0.17200
H 	H 	0.06230 0.71450 0.28550 0.08400
O 	O 	0.74710 0.32030 0.32030 -0.53900
O 	O 	0.70750 0.36260 0.36260 -0.53400
O 	O 	0.85090 0.45880 0.45880 -0.48100
O 	O 	0.78010 0.45740 0.45740 -0.47500
C 	C 	0.77820 0.36670 0.36670 -0.12600
C 	C 	0.77770 0.39710 0.39710 0.05600
H 	H 	0.75260 0.40700 0.40700 0.02200
C 	C 	0.81460 0.41260 0.41260 -0.11000
C 	C 	0.85210 0.39780 0.39780 -0.00600
H 	H 	0.87680 0.40810 0.40810 0.04500
C 	C 	0.85260 0.36740 0.36740 -0.01900
C 	C 	0.81570 0.35190 0.35190 -0.00000
H 	H 	0.81600 0.33160 0.33160 0.03400
C 	C 	0.74070 0.34780 0.34780 0.40500
C 	C 	0.81620 0.44500 0.44500 0.36400
C 	C 	0.89130 0.35200 0.35200 0.01300
C 	C 	0.92430 0.34080 0.34080 -0.07400
C 	C 	0.96330 0.32590 0.32590 0.12400
C 	C 	0.96270 0.29550 0.29550 -0.17200
H 	H 	0.93770 0.28550 0.28550 0.08400
O 	O 	0.32030 0.32030 0.74710 -0.53900
O 	O 	0.36260 0.36260 0.70750 -0.53400
O 	O 	0.45880 0.45880 0.85090 -0.48100
O 	O 	0.45740 0.45740 0.78010 -0.47500
C 	C 	0.36670 0.36670 0.77820 -0.12600
C 	C 	0.39710 0.39710 0.77770 0.05600
H 	H 	0.40700 0.40700 0.75260 0.02200
C 	C 	0.41260 0.41260 0.81460 -0.11000
C 	C 	0.39780 0.39780 0.85210 -0.00600
H 	H 	0.40810 0.40810 0.87680 0.04500
C 	C 	0.36740 0.36740 0.85260 -0.01900
C 	C 	0.35190 0.35190 0.81570 -0.00000
H 	H 	0.33160 0.33160 0.81600 0.03400
C 	C 	0.34780 0.34780 0.74070 0.40500
C 	C 	0.44500 0.44500 0.81620 0.36400
C 	C 	0.35200 0.35200 0.89130 0.01300
C 	C 	0.34080 0.34080 0.92430 -0.07400
C 	C 	0.32590 0.32590 0.96330 0.12400
C 	C 	0.29550 0.29550 0.96270 -0.17200
H 	H 	0.28550 0.28550 0.93770 0.08400
O 	O 	0.67970 0.32030 0.25290 -0.53900
O 	O 	0.63740 0.36260 0.29250 -0.53400
O 	O 	0.54120 0.45880 0.14910 -0.48100
O 	O 	0.54260 0.45740 0.21990 -0.47500
C 	C 	0.63330 0.36670 0.22180 -0.12600
C 	C 	0.60290 0.39710 0.22230 0.05600
H 	H 	0.59300 0.40700 0.24740 0.02200
C 	C 	0.58740 0.41260 0.18540 -0.11000
C 	C 	0.60220 0.39780 0.14790 -0.00600
H 	H 	0.59190 0.40810 0.12320 0.04500
C 	C 	0.63260 0.36740 0.14740 -0.01900
C 	C 	0.64810 0.35190 0.18430 -0.00000
H 	H 	0.66840 0.33160 0.18400 0.03400
C 	C 	0.65220 0.34780 0.25930 0.40500
C 	C 	0.55500 0.44500 0.18380 0.36400
C 	C 	0.64800 0.35200 0.10870 0.01300
C 	C 	0.65920 0.34080 0.07570 -0.07400
C 	C 	0.67410 0.32590 0.03670 0.12500
C 	C 	0.70450 0.29550 0.03730 -0.17200
H 	H 	0.71450 0.28550 0.06230 0.08400
O 	O 	0.67970 0.67970 0.74710 -0.53900
O 	O 	0.63740 0.63740 0.70750 -0.53400
O 	O 	0.54120 0.54120 0.85090 -0.48100
O 	O 	0.54260 0.54260 0.78010 -0.47500
C 	C 	0.63330 0.63330 0.77820 -0.12600
C 	C 	0.60290 0.60290 0.77770 0.05600
H 	H 	0.59300 0.59300 0.75260 0.02200
C 	C 	0.58740 0.58740 0.81460 -0.11000
C 	C 	0.60220 0.60220 0.85210 -0.00600
H 	H 	0.59190 0.59190 0.87680 0.04500
C 	C 	0.63260 0.63260 0.85260 -0.01900
C 	C 	0.64810 0.64810 0.81570 -0.00000
H 	H 	0.66840 0.66840 0.81600 0.03400
C 	C 	0.65220 0.65220 0.74070 0.40500
C 	C 	0.55500 0.55500 0.81620 0.36400
C 	C 	0.64800 0.64800 0.89130 0.01300
C 	C 	0.65920 0.65920 0.92430 -0.07400
C 	C 	0.67410 0.67410 0.96330 0.12400
C 	C 	0.70450 0.70450 0.96270 -0.17200
H 	H 	0.71450 0.71450 0.93770 0.08400
O 	O 	0.32030 0.67970 0.25290 -0.53900
O 	O 	0.36260 0.63740 0.29250 -0.53400
O 	O 	0.45880 0.54120 0.14910 -0.48100
O 	O 	0.45740 0.54260 0.21990 -0.47500
C 	C 	0.36670 0.63330 0.22180 -0.12600
C 	C 	0.39710 0.60290 0.22230 0.05600
H 	H 	0.40700 0.59300 0.24740 0.02200
C 	C 	0.41260 0.58740 0.18540 -0.11000
C 	C 	0.39780 0.60220 0.14790 -0.00600
H 	H 	0.40810 0.59190 0.12320 0.04500
C 	C 	0.36740 0.63260 0.14740 -0.01900
C 	C 	0.35190 0.64810 0.18430 -0.00000
H 	H 	0.33160 0.66840 0.18400 0.03400
C 	C 	0.34780 0.65220 0.25930 0.40500
C 	C 	0.44500 0.55500 0.18380 0.36400
C 	C 	0.35200 0.64800 0.10870 0.01300
C 	C 	0.34080 0.65920 0.07570 -0.07400
C 	C 	0.32590 0.67410 0.03670 0.12500
C 	C 	0.29550 0.70450 0.03730 -0.17200
H 	H 	0.28550 0.71450 0.06230 0.08400
O 	O 	0.32030 0.25290 0.67970 -0.53900
O 	O 	0.36260 0.29250 0.63740 -0.53400
O 	O 	0.45880 0.14910 0.54120 -0.48100
O 	O 	0.45740 0.21990 0.54260 -0.47500
C 	C 	0.36670 0.22180 0.63330 -0.12600
C 	C 	0.39710 0.22230 0.60290 0.05600
H 	H 	0.40700 0.24740 0.59300 0.02200
C 	C 	0.41260 0.18540 0.58740 -0.11000
C 	C 	0.39780 0.14790 0.60220 -0.00600
H 	H 	0.40810 0.12320 0.59190 0.04500
C 	C 	0.36740 0.14740 0.63260 -0.01900
C 	C 	0.35190 0.18430 0.64810 -0.00000
H 	H 	0.33160 0.18400 0.66840 0.03400
C 	C 	0.34780 0.25930 0.65220 0.40500
C 	C 	0.44500 0.18380 0.55500 0.36400
C 	C 	0.35200 0.10870 0.64800 0.01300
C 	C 	0.34080 0.07570 0.65920 -0.07400
C 	C 	0.32590 0.03670 0.67410 0.12500
C 	C 	0.29550 0.03730 0.70450 -0.17200
H 	H 	0.28550 0.06230 0.71450 0.08400
O 	O 	0.32030 0.74710 0.32030 -0.53900
O 	O 	0.36260 0.70750 0.36260 -0.53400
O 	O 	0.45880 0.85090 0.45880 -0.48100
O 	O 	0.45740 0.78010 0.45740 -0.47500
C 	C 	0.36670 0.77820 0.36670 -0.12600
C 	C 	0.39710 0.77770 0.39710 0.05600
H 	H 	0.40700 0.75260 0.40700 0.02200
C 	C 	0.41260 0.81460 0.41260 -0.11000
C 	C 	0.39780 0.85210 0.39780 -0.00600
H 	H 	0.40810 0.87680 0.40810 0.04500
C 	C 	0.36740 0.85260 0.36740 -0.01900
C 	C 	0.35190 0.81570 0.35190 -0.00000
H 	H 	0.33160 0.81600 0.33160 0.03400
C 	C 	0.34780 0.74070 0.34780 0.40500
C 	C 	0.44500 0.81620 0.44500 0.36400
C 	C 	0.35200 0.89130 0.35200 0.01300
C 	C 	0.34080 0.92430 0.34080 -0.07400
C 	C 	0.32590 0.96330 0.32590 0.12400
C 	C 	0.29550 0.96270 0.29550 -0.17200
H 	H 	0.28550 0.93770 0.28550 0.08400
O 	O 	0.67970 0.25290 0.32030 -0.53900
O 	O 	0.63740 0.29250 0.36260 -0.53400
O 	O 	0.54120 0.14910 0.45880 -0.48100
O 	O 	0.54260 0.21990 0.45740 -0.47500
C 	C 	0.63330 0.22180 0.36670 -0.12600
C 	C 	0.60290 0.22230 0.39710 0.05600
H 	H 	0.59300 0.24740 0.40700 0.02200
C 	C 	0.58740 0.18540 0.41260 -0.11000
C 	C 	0.60220 0.14790 0.39780 -0.00600
H 	H 	0.59190 0.12320 0.40810 0.04500
C 	C 	0.63260 0.14740 0.36740 -0.01900
C 	C 	0.64810 0.18430 0.35190 -0.00000
H 	H 	0.66840 0.18400 0.33160 0.03400
C 	C 	0.65220 0.25930 0.34780 0.40500
C 	C 	0.55500 0.18380 0.44500 0.36400
C 	C 	0.64800 0.10870 0.35200 0.01300
C 	C 	0.65920 0.07570 0.34080 -0.07400
C 	C 	0.67410 0.03670 0.32590 0.12500
C 	C 	0.70450 0.03730 0.29550 -0.17200
H 	H 	0.71450 0.06230 0.28550 0.08400
O 	O 	0.67970 0.74710 0.67970 -0.53900
O 	O 	0.63740 0.70750 0.63740 -0.53400
O 	O 	0.54120 0.85090 0.54120 -0.48100
O 	O 	0.54260 0.78010 0.54260 -0.47500
C 	C 	0.63330 0.77820 0.63330 -0.12600
C 	C 	0.60290 0.77770 0.60290 0.05600
H 	H 	0.59300 0.75260 0.59300 0.02200
C 	C 	0.58740 0.81460 0.58740 -0.11000
C 	C 	0.60220 0.85210 0.60220 -0.00600
H 	H 	0.59190 0.87680 0.59190 0.04500
C 	C 	0.63260 0.85260 0.63260 -0.01900
C 	C 	0.64810 0.81570 0.64810 -0.00000
H 	H 	0.66840 0.81600 0.66840 0.03400
C 	C 	0.65220 0.74070 0.65220 0.40500
C 	C 	0.55500 0.81620 0.55500 0.36400
C 	C 	0.64800 0.89130 0.64800 0.01300
C 	C 	0.65920 0.92430 0.65920 -0.07400
C 	C 	0.67410 0.96330 0.67410 0.12400
C 	C 	0.70450 0.96270 0.70450 -0.17200
H 	H 	0.71450 0.93770 0.71450 0.08400
C 	C 	0.34150 0.00000 0.34150 -0.19200
H 	H 	0.36180 -0.00000 0.36180 0.10000
C 	C 	0.28020 0.00000 0.28020 0.07800
H 	H 	0.25980 -0.00000 0.25980 -0.00600
C 	C 	0.65850 0.00000 0.34150 -0.19200
H 	H 	0.63820 -0.00000 0.36180 0.10000
C 	C 	0.71980 0.00000 0.28020 0.07800
H 	H 	0.74020 -0.00000 0.25980 -0.00600
C 	C 	0.65850 -0.00000 0.65850 -0.19200
H 	H 	0.63820 -0.00000 0.63820 0.10000
C 	C 	0.71980 -0.00000 0.71980 0.07800
H 	H 	0.74020 -0.00000 0.74020 -0.00600
C 	C 	0.34150 -0.00000 0.65850 -0.19200
H 	H 	0.36180 -0.00000 0.63820 0.10000
C 	C 	0.28020 -0.00000 0.71980 0.07800
H 	H 	0.25980 -0.00000 0.74020 -0.00600
C 	C 	0.34150 0.34150 -0.00000 -0.19200
H 	H 	0.36180 0.36180 -0.00000 0.10000
C 	C 	0.28020 0.28020 -0.00000 0.07800
H 	H 	0.25980 0.25980 -0.00000 -0.00600
C 	C 	0.34150 0.65850 -0.00000 -0.19200
H 	H 	0.36180 0.63820 -0.00000 0.10000
C 	C 	0.28020 0.71980 -0.00000 0.07800
H 	H 	0.25980 0.74020 -0.00000 -0.00600
C 	C 	0.65850 0.65850 -0.00000 -0.19200
H 	H 	0.63820 0.63820 -0.00000 0.10000
C 	C 	0.71980 0.71980 -0.00000 0.07800
H 	H 	0.74020 0.74020 -0.00000 -0.00600
C 	C 	0.65850 0.34150 -0.00000 -0.19200
H 	H 	0.63820 0.36180 -0.00000 0.10000
C 	C 	0.71980 0.28020 -0.00000 0.07800
H 	H 	0.74020 0.25980 -0.00000 -0.00600
C 	C 	0.00000 0.34150 0.34150 -0.19200
H 	H 	-0.00000 0.36180 0.36180 0.10000
C 	C 	0.00000 0.28020 0.28020 0.07800
H 	H 	-0.00000 0.25980 0.25980 -0.00600
C 	C 	-0.00000 0.34150 0.65850 -0.19200
H 	H 	-0.00000 0.36180 0.63820 0.10000
C 	C 	-0.00000 0.28020 0.71980 0.07800
H 	H 	-0.00000 0.25980 0.74020 -0.00600
C 	C 	0.00000 0.65850 0.65850 -0.19200
H 	H 	0.00000 0.63820 0.63820 0.10000
C 	C 	-0.00000 0.71980 0.71980 0.07800
H 	H 	0.00000 0.74020 0.74020 -0.00600
C 	C 	-0.00000 0.65850 0.34150 -0.19200
H 	H 	-0.00000 0.63820 0.36180 0.10000
C 	C 	-0.00000 0.71980 0.28020 0.07800
H 	H 	-0.00000 0.74020 0.25980 -0.00600
