data_crystal

_cell_length_a 31.10200
_cell_length_b 31.10200
_cell_length_c 31.10200
_cell_angle_alpha 90.00000
_cell_angle_beta  90.00000
_cell_angle_gamma 90.00000

_symmetry_space_group_name_	'P 1'
_symmetry_space_group_name_H-M	'P 1'

loop_
_symmetry_equiv_pos_as_xyz
  x,y,z

loop_
_atom_site_label
_atom_site_type_symbol
_atom_site_fract_x
_atom_site_fract_y
_atom_site_fract_z
_atom_site_charge
O 	O 	0.45720 0.45810 0.14030 -0.48700
O 	O 	0.45620 0.45690 0.21130 -0.49600
O 	O 	0.35810 0.35850 0.28580 -0.53300
O 	O 	0.31510 0.31780 0.24730 -0.52200
O 	O 	0.32180 0.27670 0.10380 -0.21500
N 	N 	0.38540 0.31010 0.10340 -0.21400
H 	H 	0.41010 0.30610 0.09010 0.11400
C 	C 	0.41910 0.40340 0.17180 -0.15300
C 	C 	0.39570 0.39690 0.20930 0.08800
H 	H 	0.39690 0.41750 0.23190 0.01100
C 	C 	0.37050 0.36030 0.21390 -0.16800
C 	C 	0.36870 0.33020 0.18090 -0.01300
H 	H 	0.35140 0.30520 0.18400 0.04900
C 	C 	0.39210 0.33670 0.14340 0.05200
C 	C 	0.41730 0.37330 0.13890 -0.00700
H 	H 	0.43340 0.37770 0.11330 0.03800
C 	C 	0.44470 0.44050 0.17580 0.41700
C 	C 	0.34700 0.34480 0.24880 0.43300
C 	C 	0.35400 0.29090 0.08200 0.19700
C 	C 	0.36190 0.27350 0.03880 -0.05400
C 	C 	0.37300 0.23040 0.03870 -0.01800
H 	H 	0.37670 0.21560 0.06510 0.04100
O 	O 	0.54280 0.54190 0.14030 -0.48700
O 	O 	0.54380 0.54310 0.21130 -0.49600
O 	O 	0.64190 0.64150 0.28580 -0.53300
O 	O 	0.68490 0.68220 0.24730 -0.52200
O 	O 	0.67820 0.72330 0.10380 -0.21400
N 	N 	0.61460 0.68990 0.10340 -0.21300
H 	H 	0.58990 0.69390 0.09010 0.11500
C 	C 	0.58090 0.59660 0.17180 -0.15200
C 	C 	0.60430 0.60310 0.20930 0.08900
H 	H 	0.60310 0.58250 0.23190 0.01200
C 	C 	0.62950 0.63970 0.21390 -0.16700
C 	C 	0.63130 0.66980 0.18090 -0.01200
H 	H 	0.64860 0.69480 0.18400 0.05000
C 	C 	0.60790 0.66330 0.14340 0.05300
C 	C 	0.58270 0.62670 0.13890 -0.00600
H 	H 	0.56660 0.62230 0.11330 0.03900
C 	C 	0.55530 0.55950 0.17580 0.41800
C 	C 	0.65300 0.65520 0.24880 0.43400
C 	C 	0.64600 0.70910 0.08200 0.19800
C 	C 	0.63810 0.72650 0.03880 -0.05300
C 	C 	0.62700 0.76960 0.03870 -0.01700
H 	H 	0.62330 0.78440 0.06510 0.04200
O 	O 	0.54280 0.45810 0.85970 -0.48600
O 	O 	0.54380 0.45690 0.78870 -0.49500
O 	O 	0.64190 0.35850 0.71420 -0.53200
O 	O 	0.68490 0.31780 0.75270 -0.52100
O 	O 	0.67820 0.27670 0.89620 -0.21400
N 	N 	0.61460 0.31010 0.89660 -0.21300
H 	H 	0.58990 0.30610 0.90990 0.11600
C 	C 	0.58090 0.40340 0.82820 -0.15200
C 	C 	0.60430 0.39690 0.79070 0.08900
H 	H 	0.60310 0.41750 0.76810 0.01200
C 	C 	0.62950 0.36030 0.78610 -0.16700
C 	C 	0.63130 0.33020 0.81910 -0.01200
H 	H 	0.64860 0.30520 0.81600 0.05000
C 	C 	0.60790 0.33670 0.85660 0.05400
C 	C 	0.58270 0.37330 0.86110 -0.00600
H 	H 	0.56660 0.37770 0.88670 0.03900
C 	C 	0.55530 0.44050 0.82420 0.41800
C 	C 	0.65300 0.34480 0.75120 0.43400
C 	C 	0.64600 0.29090 0.91800 0.19800
C 	C 	0.63810 0.27350 0.96120 -0.05300
C 	C 	0.62700 0.23040 0.96130 -0.01700
H 	H 	0.62330 0.21560 0.93490 0.04200
O 	O 	0.45720 0.54190 0.85970 -0.48600
O 	O 	0.45620 0.54310 0.78870 -0.49500
O 	O 	0.35810 0.64150 0.71420 -0.53200
O 	O 	0.31510 0.68220 0.75270 -0.52100
O 	O 	0.32180 0.72330 0.89620 -0.21400
N 	N 	0.38540 0.68990 0.89660 -0.21300
H 	H 	0.41010 0.69390 0.90990 0.11600
C 	C 	0.41910 0.59660 0.82820 -0.15200
C 	C 	0.39570 0.60310 0.79070 0.08900
H 	H 	0.39690 0.58250 0.76810 0.01200
C 	C 	0.37050 0.63970 0.78610 -0.16700
C 	C 	0.36870 0.66980 0.81910 -0.01200
H 	H 	0.35140 0.69480 0.81600 0.05000
C 	C 	0.39210 0.66330 0.85660 0.05400
C 	C 	0.41730 0.62670 0.86110 -0.00600
H 	H 	0.43340 0.62230 0.88670 0.03900
C 	C 	0.44470 0.55950 0.82420 0.41800
C 	C 	0.34700 0.65520 0.75120 0.43400
C 	C 	0.35400 0.70910 0.91800 0.19800
C 	C 	0.36190 0.72650 0.96120 -0.05300
C 	C 	0.37300 0.76960 0.96130 -0.01700
H 	H 	0.37670 0.78440 0.93490 0.04200
O 	O 	0.14030 0.45720 0.45810 -0.48600
O 	O 	0.21130 0.45620 0.45690 -0.49500
O 	O 	0.28580 0.35810 0.35850 -0.53200
O 	O 	0.24730 0.31510 0.31780 -0.52100
O 	O 	0.10380 0.32180 0.27670 -0.21400
N 	N 	0.10340 0.38540 0.31010 -0.21300
H 	H 	0.09010 0.41010 0.30610 0.11500
C 	C 	0.17180 0.41910 0.40340 -0.15200
C 	C 	0.20930 0.39570 0.39690 0.08900
H 	H 	0.23190 0.39690 0.41750 0.01200
C 	C 	0.21390 0.37050 0.36030 -0.16700
C 	C 	0.18090 0.36870 0.33020 -0.01200
H 	H 	0.18400 0.35140 0.30520 0.05000
C 	C 	0.14340 0.39210 0.33670 0.05300
C 	C 	0.13890 0.41730 0.37330 -0.00600
H 	H 	0.11330 0.43340 0.37770 0.03900
C 	C 	0.17580 0.44470 0.44050 0.41800
C 	C 	0.24880 0.34700 0.34480 0.43400
C 	C 	0.08200 0.35400 0.29090 0.19800
C 	C 	0.03880 0.36190 0.27350 -0.05300
C 	C 	0.03870 0.37300 0.23040 -0.01700
H 	H 	0.06510 0.37670 0.21560 0.04200
O 	O 	0.14030 0.54280 0.54190 -0.48600
O 	O 	0.21130 0.54380 0.54310 -0.49500
O 	O 	0.28580 0.64190 0.64150 -0.53200
O 	O 	0.24730 0.68490 0.68220 -0.52100
O 	O 	0.10380 0.67820 0.72330 -0.21400
N 	N 	0.10340 0.61460 0.68990 -0.21300
H 	H 	0.09010 0.58990 0.69390 0.11500
C 	C 	0.17180 0.58090 0.59660 -0.15200
C 	C 	0.20930 0.60430 0.60310 0.08900
H 	H 	0.23190 0.60310 0.58250 0.01200
C 	C 	0.21390 0.62950 0.63970 -0.16700
C 	C 	0.18090 0.63130 0.66980 -0.01200
H 	H 	0.18400 0.64860 0.69480 0.05000
C 	C 	0.14340 0.60790 0.66330 0.05300
C 	C 	0.13890 0.58270 0.62670 -0.00600
H 	H 	0.11330 0.56660 0.62230 0.03900
C 	C 	0.17580 0.55530 0.55950 0.41800
C 	C 	0.24880 0.65300 0.65520 0.43400
C 	C 	0.08200 0.64600 0.70910 0.19800
C 	C 	0.03880 0.63810 0.72650 -0.05300
C 	C 	0.03870 0.62700 0.76960 -0.01700
H 	H 	0.06510 0.62330 0.78440 0.04200
O 	O 	0.85970 0.54280 0.45810 -0.48600
O 	O 	0.78870 0.54380 0.45690 -0.49500
O 	O 	0.71420 0.64190 0.35850 -0.53200
O 	O 	0.75270 0.68490 0.31780 -0.52100
O 	O 	0.89620 0.67820 0.27670 -0.21400
N 	N 	0.89660 0.61460 0.31010 -0.21300
H 	H 	0.90990 0.58990 0.30610 0.11600
C 	C 	0.82820 0.58090 0.40340 -0.15200
C 	C 	0.79070 0.60430 0.39690 0.08900
H 	H 	0.76810 0.60310 0.41750 0.01200
C 	C 	0.78610 0.62950 0.36030 -0.16700
C 	C 	0.81910 0.63130 0.33020 -0.01200
H 	H 	0.81600 0.64860 0.30520 0.05000
C 	C 	0.85660 0.60790 0.33670 0.05400
C 	C 	0.86110 0.58270 0.37330 -0.00600
H 	H 	0.88670 0.56660 0.37770 0.03900
C 	C 	0.82420 0.55530 0.44050 0.41800
C 	C 	0.75120 0.65300 0.34480 0.43400
C 	C 	0.91800 0.64600 0.29090 0.19800
C 	C 	0.96120 0.63810 0.27350 -0.05300
C 	C 	0.96130 0.62700 0.23040 -0.01700
H 	H 	0.93490 0.62330 0.21560 0.04200
O 	O 	0.85970 0.45720 0.54190 -0.48600
O 	O 	0.78870 0.45620 0.54310 -0.49500
O 	O 	0.71420 0.35810 0.64150 -0.53200
O 	O 	0.75270 0.31510 0.68220 -0.52100
O 	O 	0.89620 0.32180 0.72330 -0.21400
N 	N 	0.89660 0.38540 0.68990 -0.21300
H 	H 	0.90990 0.41010 0.69390 0.11600
C 	C 	0.82820 0.41910 0.59660 -0.15200
C 	C 	0.79070 0.39570 0.60310 0.08900
H 	H 	0.76810 0.39690 0.58250 0.01200
C 	C 	0.78610 0.37050 0.63970 -0.16700
C 	C 	0.81910 0.36870 0.66980 -0.01200
H 	H 	0.81600 0.35140 0.69480 0.05000
C 	C 	0.85660 0.39210 0.66330 0.05400
C 	C 	0.86110 0.41730 0.62670 -0.00600
H 	H 	0.88670 0.43340 0.62230 0.03900
C 	C 	0.82420 0.44470 0.55950 0.41800
C 	C 	0.75120 0.34700 0.65520 0.43400
C 	C 	0.91800 0.35400 0.70910 0.19800
C 	C 	0.96120 0.36190 0.72650 -0.05300
C 	C 	0.96130 0.37300 0.76960 -0.01700
H 	H 	0.93490 0.37670 0.78440 0.04200
O 	O 	0.45810 0.14030 0.45720 -0.48600
O 	O 	0.45690 0.21130 0.45620 -0.49500
O 	O 	0.35850 0.28580 0.35810 -0.53200
O 	O 	0.31780 0.24730 0.31510 -0.52100
O 	O 	0.27670 0.10380 0.32180 -0.21400
N 	N 	0.31010 0.10340 0.38540 -0.21300
H 	H 	0.30610 0.09010 0.41010 0.11500
C 	C 	0.40340 0.17180 0.41910 -0.15200
C 	C 	0.39690 0.20930 0.39570 0.08900
H 	H 	0.41750 0.23190 0.39690 0.01200
C 	C 	0.36030 0.21390 0.37050 -0.16700
C 	C 	0.33020 0.18090 0.36870 -0.01200
H 	H 	0.30520 0.18400 0.35140 0.05000
C 	C 	0.33670 0.14340 0.39210 0.05300
C 	C 	0.37330 0.13890 0.41730 -0.00600
H 	H 	0.37770 0.11330 0.43340 0.03900
C 	C 	0.44050 0.17580 0.44470 0.41800
C 	C 	0.34480 0.24880 0.34700 0.43400
C 	C 	0.29090 0.08200 0.35400 0.19800
C 	C 	0.27350 0.03880 0.36190 -0.05300
C 	C 	0.23040 0.03870 0.37300 -0.01700
H 	H 	0.21560 0.06510 0.37670 0.04200
O 	O 	0.54190 0.14030 0.54280 -0.48600
O 	O 	0.54310 0.21130 0.54380 -0.49500
O 	O 	0.64150 0.28580 0.64190 -0.53200
O 	O 	0.68220 0.24730 0.68490 -0.52100
O 	O 	0.72330 0.10380 0.67820 -0.21400
N 	N 	0.68990 0.10340 0.61460 -0.21300
H 	H 	0.69390 0.09010 0.58990 0.11500
C 	C 	0.59660 0.17180 0.58090 -0.15200
C 	C 	0.60310 0.20930 0.60430 0.08900
H 	H 	0.58250 0.23190 0.60310 0.01200
C 	C 	0.63970 0.21390 0.62950 -0.16700
C 	C 	0.66980 0.18090 0.63130 -0.01200
H 	H 	0.69480 0.18400 0.64860 0.05000
C 	C 	0.66330 0.14340 0.60790 0.05300
C 	C 	0.62670 0.13890 0.58270 -0.00600
H 	H 	0.62230 0.11330 0.56660 0.03900
C 	C 	0.55950 0.17580 0.55530 0.41800
C 	C 	0.65520 0.24880 0.65300 0.43400
C 	C 	0.70910 0.08200 0.64600 0.19800
C 	C 	0.72650 0.03880 0.63810 -0.05300
C 	C 	0.76960 0.03870 0.62700 -0.01700
H 	H 	0.78440 0.06510 0.62330 0.04200
O 	O 	0.45810 0.85970 0.54280 -0.48600
O 	O 	0.45690 0.78870 0.54380 -0.49500
O 	O 	0.35850 0.71420 0.64190 -0.53200
O 	O 	0.31780 0.75270 0.68490 -0.52100
O 	O 	0.27670 0.89620 0.67820 -0.21400
N 	N 	0.31010 0.89660 0.61460 -0.21300
H 	H 	0.30610 0.90990 0.58990 0.11600
C 	C 	0.40340 0.82820 0.58090 -0.15200
C 	C 	0.39690 0.79070 0.60430 0.08900
H 	H 	0.41750 0.76810 0.60310 0.01200
C 	C 	0.36030 0.78610 0.62950 -0.16700
C 	C 	0.33020 0.81910 0.63130 -0.01200
H 	H 	0.30520 0.81600 0.64860 0.05000
C 	C 	0.33670 0.85660 0.60790 0.05400
C 	C 	0.37330 0.86110 0.58270 -0.00600
H 	H 	0.37770 0.88670 0.56660 0.03900
C 	C 	0.44050 0.82420 0.55530 0.41800
C 	C 	0.34480 0.75120 0.65300 0.43400
C 	C 	0.29090 0.91800 0.64600 0.19800
C 	C 	0.27350 0.96120 0.63810 -0.05300
C 	C 	0.23040 0.96130 0.62700 -0.01700
H 	H 	0.21560 0.93490 0.62330 0.04200
O 	O 	0.54190 0.85970 0.45720 -0.48600
O 	O 	0.54310 0.78870 0.45620 -0.49500
O 	O 	0.64150 0.71420 0.35810 -0.53200
O 	O 	0.68220 0.75270 0.31510 -0.52100
O 	O 	0.72330 0.89620 0.32180 -0.21400
N 	N 	0.68990 0.89660 0.38540 -0.21300
H 	H 	0.69390 0.90990 0.41010 0.11600
C 	C 	0.59660 0.82820 0.41910 -0.15200
C 	C 	0.60310 0.79070 0.39570 0.08900
H 	H 	0.58250 0.76810 0.39690 0.01200
C 	C 	0.63970 0.78610 0.37050 -0.16700
C 	C 	0.66980 0.81910 0.36870 -0.01200
H 	H 	0.69480 0.81600 0.35140 0.05000
C 	C 	0.66330 0.85660 0.39210 0.05400
C 	C 	0.62670 0.86110 0.41730 -0.00600
H 	H 	0.62230 0.88670 0.43340 0.03900
C 	C 	0.55950 0.82420 0.44470 0.41800
C 	C 	0.65520 0.75120 0.34700 0.43400
C 	C 	0.70910 0.91800 0.35400 0.19800
C 	C 	0.72650 0.96120 0.36190 -0.05300
C 	C 	0.76960 0.96130 0.37300 -0.01700
H 	H 	0.78440 0.93490 0.37670 0.04200
O 	O 	0.54280 0.54190 0.85970 -0.48600
O 	O 	0.54380 0.54310 0.78870 -0.49500
O 	O 	0.64190 0.64150 0.71420 -0.53200
O 	O 	0.68490 0.68220 0.75270 -0.52100
O 	O 	0.67820 0.72330 0.89620 -0.21400
N 	N 	0.61460 0.68990 0.89660 -0.21300
H 	H 	0.58990 0.69390 0.90990 0.11600
C 	C 	0.58090 0.59660 0.82820 -0.15200
C 	C 	0.60430 0.60310 0.79070 0.08900
H 	H 	0.60310 0.58250 0.76810 0.01200
C 	C 	0.62950 0.63970 0.78610 -0.16700
C 	C 	0.63130 0.66980 0.81910 -0.01200
H 	H 	0.64860 0.69480 0.81600 0.05000
C 	C 	0.60790 0.66330 0.85660 0.05400
C 	C 	0.58270 0.62670 0.86110 -0.00600
H 	H 	0.56660 0.62230 0.88670 0.03900
C 	C 	0.55530 0.55950 0.82420 0.41800
C 	C 	0.65300 0.65520 0.75120 0.43400
C 	C 	0.64600 0.70910 0.91800 0.19800
C 	C 	0.63810 0.72650 0.96120 -0.05200
C 	C 	0.62700 0.76960 0.96130 -0.01700
H 	H 	0.62330 0.78440 0.93490 0.04200
O 	O 	0.45720 0.45810 0.85970 -0.48600
O 	O 	0.45620 0.45690 0.78870 -0.49500
O 	O 	0.35810 0.35850 0.71420 -0.53200
O 	O 	0.31510 0.31780 0.75270 -0.52100
O 	O 	0.32180 0.27670 0.89620 -0.21400
N 	N 	0.38540 0.31010 0.89660 -0.21300
H 	H 	0.41010 0.30610 0.90990 0.11600
C 	C 	0.41910 0.40340 0.82820 -0.15200
C 	C 	0.39570 0.39690 0.79070 0.08900
H 	H 	0.39690 0.41750 0.76810 0.01200
C 	C 	0.37050 0.36030 0.78610 -0.16700
C 	C 	0.36870 0.33020 0.81910 -0.01200
H 	H 	0.35140 0.30520 0.81600 0.05000
C 	C 	0.39210 0.33670 0.85660 0.05300
C 	C 	0.41730 0.37330 0.86110 -0.00600
H 	H 	0.43340 0.37770 0.88670 0.03900
C 	C 	0.44470 0.44050 0.82420 0.41800
C 	C 	0.34700 0.34480 0.75120 0.43400
C 	C 	0.35400 0.29090 0.91800 0.19800
C 	C 	0.36190 0.27350 0.96120 -0.05300
C 	C 	0.37300 0.23040 0.96130 -0.01700
H 	H 	0.37670 0.21560 0.93490 0.04200
O 	O 	0.45720 0.54190 0.14030 -0.48600
O 	O 	0.45620 0.54310 0.21130 -0.49500
O 	O 	0.35810 0.64150 0.28580 -0.53200
O 	O 	0.31510 0.68220 0.24730 -0.52100
O 	O 	0.32180 0.72330 0.10380 -0.21400
N 	N 	0.38540 0.68990 0.10340 -0.21300
H 	H 	0.41010 0.69390 0.09010 0.11500
C 	C 	0.41910 0.59660 0.17180 -0.15200
C 	C 	0.39570 0.60310 0.20930 0.08900
H 	H 	0.39690 0.58250 0.23190 0.01200
C 	C 	0.37050 0.63970 0.21390 -0.16700
C 	C 	0.36870 0.66980 0.18090 -0.01200
H 	H 	0.35140 0.69480 0.18400 0.05000
C 	C 	0.39210 0.66330 0.14340 0.05300
C 	C 	0.41730 0.62670 0.13890 -0.00600
H 	H 	0.43340 0.62230 0.11330 0.03900
C 	C 	0.44470 0.55950 0.17580 0.41800
C 	C 	0.34700 0.65520 0.24880 0.43400
C 	C 	0.35400 0.70910 0.08200 0.19800
C 	C 	0.36190 0.72650 0.03880 -0.05300
C 	C 	0.37300 0.76960 0.03870 -0.01700
H 	H 	0.37670 0.78440 0.06510 0.04200
O 	O 	0.54280 0.45810 0.14030 -0.48600
O 	O 	0.54380 0.45690 0.21130 -0.49500
O 	O 	0.64190 0.35850 0.28580 -0.53200
O 	O 	0.68490 0.31780 0.24730 -0.52100
O 	O 	0.67820 0.27670 0.10380 -0.21400
N 	N 	0.61460 0.31010 0.10340 -0.21300
H 	H 	0.58990 0.30610 0.09010 0.11500
C 	C 	0.58090 0.40340 0.17180 -0.15200
C 	C 	0.60430 0.39690 0.20930 0.08900
H 	H 	0.60310 0.41750 0.23190 0.01200
C 	C 	0.62950 0.36030 0.21390 -0.16700
C 	C 	0.63130 0.33020 0.18090 -0.01200
H 	H 	0.64860 0.30520 0.18400 0.05000
C 	C 	0.60790 0.33670 0.14340 0.05300
C 	C 	0.58270 0.37330 0.13890 -0.00600
H 	H 	0.56660 0.37770 0.11330 0.03900
C 	C 	0.55530 0.44050 0.17580 0.41800
C 	C 	0.65300 0.34480 0.24880 0.43400
C 	C 	0.64600 0.29090 0.08200 0.19800
C 	C 	0.63810 0.27350 0.03880 -0.05300
C 	C 	0.62700 0.23040 0.03870 -0.01800
H 	H 	0.62330 0.21560 0.06510 0.04200
O 	O 	0.85970 0.54280 0.54190 -0.48600
O 	O 	0.78870 0.54380 0.54310 -0.49500
O 	O 	0.71420 0.64190 0.64150 -0.53200
O 	O 	0.75270 0.68490 0.68220 -0.52100
O 	O 	0.89620 0.67820 0.72330 -0.21400
N 	N 	0.89660 0.61460 0.68990 -0.21300
H 	H 	0.90990 0.58990 0.69390 0.11600
C 	C 	0.82820 0.58090 0.59660 -0.15200
C 	C 	0.79070 0.60430 0.60310 0.08900
H 	H 	0.76810 0.60310 0.58250 0.01200
C 	C 	0.78610 0.62950 0.63970 -0.16700
C 	C 	0.81910 0.63130 0.66980 -0.01200
H 	H 	0.81600 0.64860 0.69480 0.05000
C 	C 	0.85660 0.60790 0.66330 0.05400
C 	C 	0.86110 0.58270 0.62670 -0.00600
H 	H 	0.88670 0.56660 0.62230 0.03900
C 	C 	0.82420 0.55530 0.55950 0.41800
C 	C 	0.75120 0.65300 0.65520 0.43400
C 	C 	0.91800 0.64600 0.70910 0.19800
C 	C 	0.96120 0.63810 0.72650 -0.05200
C 	C 	0.96130 0.62700 0.76960 -0.01700
H 	H 	0.93490 0.62330 0.78440 0.04200
O 	O 	0.85970 0.45720 0.45810 -0.48600
O 	O 	0.78870 0.45620 0.45690 -0.49500
O 	O 	0.71420 0.35810 0.35850 -0.53200
O 	O 	0.75270 0.31510 0.31780 -0.52100
O 	O 	0.89620 0.32180 0.27670 -0.21400
N 	N 	0.89660 0.38540 0.31010 -0.21300
H 	H 	0.90990 0.41010 0.30610 0.11600
C 	C 	0.82820 0.41910 0.40340 -0.15200
C 	C 	0.79070 0.39570 0.39690 0.08900
H 	H 	0.76810 0.39690 0.41750 0.01200
C 	C 	0.78610 0.37050 0.36030 -0.16700
C 	C 	0.81910 0.36870 0.33020 -0.01200
H 	H 	0.81600 0.35140 0.30520 0.05000
C 	C 	0.85660 0.39210 0.33670 0.05300
C 	C 	0.86110 0.41730 0.37330 -0.00600
H 	H 	0.88670 0.43340 0.37770 0.03900
C 	C 	0.82420 0.44470 0.44050 0.41800
C 	C 	0.75120 0.34700 0.34480 0.43400
C 	C 	0.91800 0.35400 0.29090 0.19800
C 	C 	0.96120 0.36190 0.27350 -0.05300
C 	C 	0.96130 0.37300 0.23040 -0.01700
H 	H 	0.93490 0.37670 0.21560 0.04200
O 	O 	0.14030 0.45720 0.54190 -0.48600
O 	O 	0.21130 0.45620 0.54310 -0.49500
O 	O 	0.28580 0.35810 0.64150 -0.53200
O 	O 	0.24730 0.31510 0.68220 -0.52100
O 	O 	0.10380 0.32180 0.72330 -0.21400
N 	N 	0.10340 0.38540 0.68990 -0.21300
H 	H 	0.09010 0.41010 0.69390 0.11500
C 	C 	0.17180 0.41910 0.59660 -0.15200
C 	C 	0.20930 0.39570 0.60310 0.08900
H 	H 	0.23190 0.39690 0.58250 0.01200
C 	C 	0.21390 0.37050 0.63970 -0.16700
C 	C 	0.18090 0.36870 0.66980 -0.01200
H 	H 	0.18400 0.35140 0.69480 0.05000
C 	C 	0.14340 0.39210 0.66330 0.05300
C 	C 	0.13890 0.41730 0.62670 -0.00600
H 	H 	0.11330 0.43340 0.62230 0.03900
C 	C 	0.17580 0.44470 0.55950 0.41800
C 	C 	0.24880 0.34700 0.65520 0.43400
C 	C 	0.08200 0.35400 0.70910 0.19800
C 	C 	0.03880 0.36190 0.72650 -0.05300
C 	C 	0.03870 0.37300 0.76960 -0.01700
H 	H 	0.06510 0.37670 0.78440 0.04200
O 	O 	0.14030 0.54280 0.45810 -0.48600
O 	O 	0.21130 0.54380 0.45690 -0.49500
O 	O 	0.28580 0.64190 0.35850 -0.53200
O 	O 	0.24730 0.68490 0.31780 -0.52100
O 	O 	0.10380 0.67820 0.27670 -0.21400
N 	N 	0.10340 0.61460 0.31010 -0.21300
H 	H 	0.09010 0.58990 0.30610 0.11500
C 	C 	0.17180 0.58090 0.40340 -0.15200
C 	C 	0.20930 0.60430 0.39690 0.08900
H 	H 	0.23190 0.60310 0.41750 0.01200
C 	C 	0.21390 0.62950 0.36030 -0.16700
C 	C 	0.18090 0.63130 0.33020 -0.01200
H 	H 	0.18400 0.64860 0.30520 0.05000
C 	C 	0.14340 0.60790 0.33670 0.05300
C 	C 	0.13890 0.58270 0.37330 -0.00600
H 	H 	0.11330 0.56660 0.37770 0.03900
C 	C 	0.17580 0.55530 0.44050 0.41800
C 	C 	0.24880 0.65300 0.34480 0.43400
C 	C 	0.08200 0.64600 0.29090 0.19800
C 	C 	0.03880 0.63810 0.27350 -0.05300
C 	C 	0.03870 0.62700 0.23040 -0.01800
H 	H 	0.06510 0.62330 0.21560 0.04200
O 	O 	0.54190 0.85970 0.54280 -0.48600
O 	O 	0.54310 0.78870 0.54380 -0.49500
O 	O 	0.64150 0.71420 0.64190 -0.53200
O 	O 	0.68220 0.75270 0.68490 -0.52100
O 	O 	0.72330 0.89620 0.67820 -0.21400
N 	N 	0.68990 0.89660 0.61460 -0.21300
H 	H 	0.69390 0.90990 0.58990 0.11600
C 	C 	0.59660 0.82820 0.58090 -0.15200
C 	C 	0.60310 0.79070 0.60430 0.08900
H 	H 	0.58250 0.76810 0.60310 0.01200
C 	C 	0.63970 0.78610 0.62950 -0.16700
C 	C 	0.66980 0.81910 0.63130 -0.01200
H 	H 	0.69480 0.81600 0.64860 0.05000
C 	C 	0.66330 0.85660 0.60790 0.05400
C 	C 	0.62670 0.86110 0.58270 -0.00600
H 	H 	0.62230 0.88670 0.56660 0.03900
C 	C 	0.55950 0.82420 0.55530 0.41800
C 	C 	0.65520 0.75120 0.65300 0.43400
C 	C 	0.70910 0.91800 0.64600 0.19800
C 	C 	0.72650 0.96120 0.63810 -0.05200
C 	C 	0.76960 0.96130 0.62700 -0.01700
H 	H 	0.78440 0.93490 0.62330 0.04200
O 	O 	0.45810 0.85970 0.45720 -0.48600
O 	O 	0.45690 0.78870 0.45620 -0.49500
O 	O 	0.35850 0.71420 0.35810 -0.53200
O 	O 	0.31780 0.75270 0.31510 -0.52100
O 	O 	0.27670 0.89620 0.32180 -0.21400
N 	N 	0.31010 0.89660 0.38540 -0.21300
H 	H 	0.30610 0.90990 0.41010 0.11600
C 	C 	0.40340 0.82820 0.41910 -0.15200
C 	C 	0.39690 0.79070 0.39570 0.08900
H 	H 	0.41750 0.76810 0.39690 0.01200
C 	C 	0.36030 0.78610 0.37050 -0.16700
C 	C 	0.33020 0.81910 0.36870 -0.01200
H 	H 	0.30520 0.81600 0.35140 0.05000
C 	C 	0.33670 0.85660 0.39210 0.05300
C 	C 	0.37330 0.86110 0.41730 -0.00600
H 	H 	0.37770 0.88670 0.43340 0.03900
C 	C 	0.44050 0.82420 0.44470 0.41800
C 	C 	0.34480 0.75120 0.34700 0.43400
C 	C 	0.29090 0.91800 0.35400 0.19800
C 	C 	0.27350 0.96120 0.36190 -0.05300
C 	C 	0.23040 0.96130 0.37300 -0.01700
H 	H 	0.21560 0.93490 0.37670 0.04200
O 	O 	0.54190 0.14030 0.45720 -0.48600
O 	O 	0.54310 0.21130 0.45620 -0.49500
O 	O 	0.64150 0.28580 0.35810 -0.53200
O 	O 	0.68220 0.24730 0.31510 -0.52100
O 	O 	0.72330 0.10380 0.32180 -0.21400
N 	N 	0.68990 0.10340 0.38540 -0.21300
H 	H 	0.69390 0.09010 0.41010 0.11500
C 	C 	0.59660 0.17180 0.41910 -0.15200
C 	C 	0.60310 0.20930 0.39570 0.08900
H 	H 	0.58250 0.23190 0.39690 0.01200
C 	C 	0.63970 0.21390 0.37050 -0.16700
C 	C 	0.66980 0.18090 0.36870 -0.01200
H 	H 	0.69480 0.18400 0.35140 0.05000
C 	C 	0.66330 0.14340 0.39210 0.05300
C 	C 	0.62670 0.13890 0.41730 -0.00600
H 	H 	0.62230 0.11330 0.43340 0.03900
C 	C 	0.55950 0.17580 0.44470 0.41800
C 	C 	0.65520 0.24880 0.34700 0.43400
C 	C 	0.70910 0.08200 0.35400 0.19800
C 	C 	0.72650 0.03880 0.36190 -0.05300
C 	C 	0.76960 0.03870 0.37300 -0.01700
H 	H 	0.78440 0.06510 0.37670 0.04200
O 	O 	0.45810 0.14030 0.54280 -0.48600
O 	O 	0.45690 0.21130 0.54380 -0.49500
O 	O 	0.35850 0.28580 0.64190 -0.53200
O 	O 	0.31780 0.24730 0.68490 -0.52100
O 	O 	0.27670 0.10380 0.67820 -0.21400
N 	N 	0.31010 0.10340 0.61460 -0.21300
H 	H 	0.30610 0.09010 0.58990 0.11500
C 	C 	0.40340 0.17180 0.58090 -0.15200
C 	C 	0.39690 0.20930 0.60430 0.08900
H 	H 	0.41750 0.23190 0.60310 0.01200
C 	C 	0.36030 0.21390 0.62950 -0.16700
C 	C 	0.33020 0.18090 0.63130 -0.01200
H 	H 	0.30520 0.18400 0.64860 0.05000
C 	C 	0.33670 0.14340 0.60790 0.05300
C 	C 	0.37330 0.13890 0.58270 -0.00600
H 	H 	0.37770 0.11330 0.56660 0.03900
C 	C 	0.44050 0.17580 0.55530 0.41800
C 	C 	0.34480 0.24880 0.65300 0.43400
C 	C 	0.29090 0.08200 0.64600 0.19800
C 	C 	0.27350 0.03880 0.63810 -0.05300
C 	C 	0.23040 0.03870 0.62700 -0.01800
H 	H 	0.21560 0.06510 0.62330 0.04200
Zn	Zn	0.50000 0.50000 0.12743 1.22700
Zn	Zn	0.50000 0.50000 0.22334 1.21600
Zn	Zn	0.50000 0.50000 0.87257 1.22700
Zn	Zn	0.50000 0.50000 0.77666 1.21600
Zn	Zn	0.12743 0.50000 0.50000 1.22700
Zn	Zn	0.22334 0.50000 0.50000 1.21600
Zn	Zn	0.87257 0.50000 0.50000 1.22700
Zn	Zn	0.77666 0.50000 0.50000 1.21600
Zn	Zn	0.50000 0.12743 0.50000 1.22700
Zn	Zn	0.50000 0.22334 0.50000 1.21600
Zn	Zn	0.50000 0.87257 0.50000 1.22700
Zn	Zn	0.50000 0.77666 0.50000 1.21600
Zn	Zn	0.34329 0.34329 0.34329 1.19800
Zn	Zn	0.27804 0.27804 0.27804 1.19200
Zn	Zn	0.65671 0.65671 0.34329 1.19800
Zn	Zn	0.72196 0.72196 0.27804 1.19300
Zn	Zn	0.65671 0.34329 0.65671 1.19800
Zn	Zn	0.72196 0.27804 0.72196 1.19300
Zn	Zn	0.34329 0.65671 0.65671 1.19800
Zn	Zn	0.27804 0.72196 0.72196 1.19300
Zn	Zn	0.65671 0.65671 0.65671 1.19800
Zn	Zn	0.72196 0.72196 0.72196 1.19300
Zn	Zn	0.34329 0.34329 0.65671 1.19800
Zn	Zn	0.27804 0.27804 0.72196 1.19300
Zn	Zn	0.34329 0.65671 0.34329 1.19800
Zn	Zn	0.27804 0.72196 0.27804 1.19300
Zn	Zn	0.65671 0.34329 0.34329 1.19800
Zn	Zn	0.72196 0.27804 0.27804 1.19300
C 	C 	0.35680 0.29550 -0.00000 -0.01300
H 	H 	0.34990 0.32530 -0.00000 0.03800
C 	C 	0.37880 0.20870 -0.00000 -0.05200
H 	H 	0.38670 0.17910 -0.00000 0.04800
C 	C 	0.64320 0.70450 -0.00000 -0.01300
H 	H 	0.65010 0.67470 -0.00000 0.03800
C 	C 	0.62120 0.79130 -0.00000 -0.05200
H 	H 	0.61330 0.82090 -0.00000 0.04800
C 	C 	0.64320 0.29550 -0.00000 -0.01300
H 	H 	0.65010 0.32530 -0.00000 0.03800
C 	C 	0.62120 0.20870 -0.00000 -0.05200
H 	H 	0.61330 0.17910 -0.00000 0.04800
C 	C 	0.35680 0.70450 -0.00000 -0.01300
H 	H 	0.34990 0.67470 -0.00000 0.03800
C 	C 	0.37880 0.79130 -0.00000 -0.05200
H 	H 	0.38670 0.82090 -0.00000 0.04800
C 	C 	0.00000 0.35680 0.29550 -0.01300
H 	H 	0.00000 0.34990 0.32530 0.03800
C 	C 	0.00000 0.37880 0.20870 -0.05200
H 	H 	0.00000 0.38670 0.17910 0.04800
C 	C 	0.00000 0.64320 0.70450 -0.01300
H 	H 	0.00000 0.65010 0.67470 0.03800
C 	C 	0.00000 0.62120 0.79130 -0.05200
H 	H 	-0.00000 0.61330 0.82090 0.04800
C 	C 	0.00000 0.64320 0.29550 -0.01300
H 	H 	0.00000 0.65010 0.32530 0.03800
C 	C 	0.00000 0.62120 0.20870 -0.05200
H 	H 	0.00000 0.61330 0.17910 0.04800
C 	C 	0.00000 0.35680 0.70450 -0.01300
H 	H 	0.00000 0.34990 0.67470 0.03800
C 	C 	0.00000 0.37880 0.79130 -0.05200
H 	H 	0.00000 0.38670 0.82090 0.04800
C 	C 	0.29550 0.00000 0.35680 -0.01300
H 	H 	0.32530 0.00000 0.34990 0.03800
C 	C 	0.20870 0.00000 0.37880 -0.05200
H 	H 	0.17910 0.00000 0.38670 0.04800
C 	C 	0.70450 0.00000 0.64320 -0.01300
H 	H 	0.67470 0.00000 0.65010 0.03800
C 	C 	0.79130 0.00000 0.62120 -0.05200
H 	H 	0.82090 0.00000 0.61330 0.04800
C 	C 	0.29550 0.00000 0.64320 -0.01300
H 	H 	0.32530 0.00000 0.65010 0.03800
C 	C 	0.20870 0.00000 0.62120 -0.05200
H 	H 	0.17910 0.00000 0.61330 0.04800
C 	C 	0.70450 0.00000 0.35680 -0.01300
H 	H 	0.67470 0.00000 0.34990 0.03800
C 	C 	0.79130 0.00000 0.37880 -0.05200
H 	H 	0.82090 0.00000 0.38670 0.04800
