data_crystal

_cell_length_a 36.10200
_cell_length_b 36.10200
_cell_length_c 9.93000
_cell_angle_alpha 90.00000
_cell_angle_beta  90.00000
_cell_angle_gamma 90.00000

_symmetry_space_group_name_	'P 1'
_symmetry_space_group_name_H-M	'P 1'

loop_
_symmetry_equiv_pos_as_xyz
  x,y,z

loop_
_atom_site_label
_atom_site_type_symbol
_atom_site_fract_x
_atom_site_fract_y
_atom_site_fract_z
_atom_site_charge
N 	N 	0.94733 0.46218 0.05670 -0.15700
N 	N 	0.94721 0.45093 0.19090 -0.38000
C 	C 	0.91861 0.44525 0.00350 0.10100
H 	H 	0.91200 0.44740 0.91330 -0.01000
C 	C 	0.91833 0.42875 0.20920 0.17500
H 	H 	0.91200 0.41780 0.29080 -0.03900
N 	N 	0.89948 0.42423 0.09390 -0.24100
N 	N 	0.02780 0.46246 0.10760 -0.20200
N 	N 	0.01507 0.44934 0.22920 -0.37200
C 	C 	0.05906 0.44545 0.08700 0.10900
H 	H 	0.07380 0.44970 0.01180 -0.02200
C 	C 	0.03989 0.42449 0.27270 0.17700
H 	H 	0.03790 0.41130 0.35290 -0.04500
N 	N 	0.06808 0.42116 0.18490 -0.24200
N 	N 	0.98848 0.52545 0.17850 -0.19200
N 	N 	0.97929 0.50520 0.29120 -0.37500
C 	C 	0.98490 0.56017 0.21980 0.10300
H 	H 	0.98950 0.58040 0.16410 -0.00700
C 	C 	0.97025 0.52877 0.38920 0.18400
H 	H 	0.96230 0.52160 0.47430 -0.04900
N 	N 	0.97402 0.56394 0.35020 -0.15400
B 	B 	0.97770 0.46249 0.28890 1.50900
H 	H 	0.97350 0.45230 0.37910 -0.55500
Mn	Mn	0.86414 0.37165 0.07845 1.31700
N 	N 	0.87460 0.36931 0.88160 -0.25000
C 	C 	0.90623 0.36215 0.82670 0.07000
H 	H 	0.90810 0.36280 0.73330 0.01100
C 	C 	0.93893 0.35309 0.90460 -0.16200
C 	C 	0.97280 0.35110 0.83590 0.09000
H 	H 	0.97350 0.35470 0.74320 0.00300
C 	C 	0.00520 0.34390 0.90470 -0.18100
H 	H 	0.02750 0.34270 0.85850 0.09800
C 	C 	0.00450 0.33860 0.03820 0.11100
H 	H 	0.02660 0.33440 0.08370 0.00100
C 	C 	0.97160 0.33920 0.11010 -0.23900
H 	H 	0.97180 0.33480 0.20240 0.12600
C 	C 	0.93872 0.34638 0.04470 0.24600
O 	O 	0.90745 0.34547 0.12040 -0.44000
N 	N 	0.82098 0.40082 0.01460 -0.25800
C 	C 	0.79459 0.41333 0.09040 0.06900
H 	H 	0.77650 0.42780 0.04960 0.00500
C 	C 	0.79104 0.40658 0.23360 -0.17800
C 	C 	0.75790 0.41780 0.29790 0.09100
H 	H 	0.74040 0.43110 0.24920 -0.00500
C 	C 	0.75110 0.40960 0.43120 -0.19400
H 	H 	0.72910 0.41730 0.47110 0.09600
C 	C 	0.77680 0.39000 0.50590 0.14200
H 	H 	0.77180 0.38400 0.59520 -0.02700
C 	C 	0.80960 0.37950 0.44740 -0.27000
H 	H 	0.82700 0.36680 0.49880 0.13400
C 	C 	0.81771 0.38748 0.31290 0.27300
O 	O 	0.84966 0.37578 0.26140 -0.44500
C 	C 	0.84233 0.37977 0.79810 -0.08700
H 	H 	0.82600 0.35870 0.78640 0.04800
H 	H 	0.85050 0.38800 0.70990 0.05600
C 	C 	0.82247 0.41044 0.86960 -0.07800
H 	H 	0.83560 0.43360 0.85700 0.04800
H 	H 	0.79760 0.41320 0.83390 0.05300
N 	N 	0.44733 0.96218 0.55670 -0.15900
N 	N 	0.44721 0.95093 0.69090 -0.38000
C 	C 	0.41861 0.94525 0.50350 0.11300
H 	H 	0.41200 0.94740 0.41330 -0.01800
C 	C 	0.41833 0.92875 0.70920 0.17400
H 	H 	0.41200 0.91780 0.79080 -0.04000
N 	N 	0.39948 0.92423 0.59390 -0.24300
N 	N 	0.52780 0.96246 0.60760 -0.19900
N 	N 	0.51507 0.94934 0.72920 -0.36900
C 	C 	0.55906 0.94545 0.58700 0.11000
H 	H 	0.57380 0.94970 0.51180 -0.01900
C 	C 	0.53989 0.92449 0.77270 0.17800
H 	H 	0.53790 0.91130 0.85290 -0.04300
N 	N 	0.56808 0.92116 0.68490 -0.24200
N 	N 	0.48848 0.02545 0.67850 -0.19300
N 	N 	0.47929 0.00520 0.79120 -0.37800
C 	C 	0.48490 0.06017 0.71980 0.10300
H 	H 	0.48950 0.08040 0.66410 -0.00700
C 	C 	0.47025 0.02877 0.88920 0.18300
H 	H 	0.46230 0.02160 0.97430 -0.05000
N 	N 	0.47402 0.06394 0.85020 -0.15500
B 	B 	0.47770 0.96249 0.78890 1.51000
H 	H 	0.47350 0.95230 0.87910 -0.55500
Mn	Mn	0.36414 0.87165 0.57845 1.31800
N 	N 	0.37460 0.86931 0.38160 -0.25400
C 	C 	0.40623 0.86215 0.32670 0.07600
H 	H 	0.40810 0.86280 0.23330 0.00700
C 	C 	0.43893 0.85309 0.40460 -0.18000
C 	C 	0.47280 0.85110 0.33590 0.10200
H 	H 	0.47350 0.85470 0.24320 -0.00400
C 	C 	0.50520 0.84390 0.40470 -0.20700
H 	H 	0.52750 0.84270 0.35850 0.10600
C 	C 	0.50450 0.83860 0.53820 0.14900
H 	H 	0.52660 0.83440 0.58370 -0.01100
C 	C 	0.47160 0.83920 0.61010 -0.26900
H 	H 	0.47180 0.83480 0.70240 0.13500
C 	C 	0.43872 0.84638 0.54470 0.26500
O 	O 	0.40745 0.84547 0.62040 -0.44400
N 	N 	0.32098 0.90082 0.51460 -0.25300
C 	C 	0.29459 0.91333 0.59040 0.06100
H 	H 	0.27650 0.92780 0.54960 0.01000
C 	C 	0.29104 0.90658 0.73360 -0.16200
C 	C 	0.25790 0.91780 0.79790 0.06700
H 	H 	0.24040 0.93110 0.74920 0.00400
C 	C 	0.25110 0.90960 0.93120 -0.15500
H 	H 	0.22910 0.91730 0.97110 0.08500
C 	C 	0.27680 0.89000 0.00590 0.09500
H 	H 	0.27180 0.88400 0.09520 -0.01300
C 	C 	0.30960 0.87950 0.94740 -0.23500
H 	H 	0.32700 0.86680 0.99880 0.12400
C 	C 	0.31771 0.88748 0.81290 0.25600
O 	O 	0.34966 0.87578 0.76140 -0.44000
C 	C 	0.34233 0.87977 0.29810 -0.08300
H 	H 	0.32600 0.85870 0.28640 0.04600
H 	H 	0.35050 0.88800 0.20990 0.05400
C 	C 	0.32247 0.91044 0.36960 -0.08500
H 	H 	0.33560 0.93360 0.35700 0.05000
H 	H 	0.29760 0.91320 0.33390 0.05400
N 	N 	0.55267 0.53782 0.55670 -0.16000
N 	N 	0.55279 0.54907 0.69090 -0.37900
C 	C 	0.58139 0.55475 0.50350 0.11200
H 	H 	0.58800 0.55260 0.41330 -0.01900
C 	C 	0.58167 0.57125 0.70920 0.17300
H 	H 	0.58800 0.58220 0.79080 -0.04000
N 	N 	0.60052 0.57577 0.59390 -0.24300
N 	N 	0.47220 0.53754 0.60760 -0.20000
N 	N 	0.48493 0.55066 0.72920 -0.36800
C 	C 	0.44094 0.55455 0.58700 0.10900
H 	H 	0.42620 0.55030 0.51180 -0.02000
C 	C 	0.46011 0.57551 0.77270 0.17700
H 	H 	0.46210 0.58870 0.85290 -0.04200
N 	N 	0.43192 0.57884 0.68490 -0.24200
N 	N 	0.51152 0.47455 0.67850 -0.19200
N 	N 	0.52071 0.49480 0.79120 -0.37400
C 	C 	0.51510 0.43983 0.71980 0.10300
H 	H 	0.51050 0.41960 0.66410 -0.00700
C 	C 	0.52975 0.47123 0.88920 0.18300
H 	H 	0.53770 0.47840 0.97430 -0.04900
N 	N 	0.52598 0.43606 0.85020 -0.15400
B 	B 	0.52230 0.53751 0.78890 1.50000
H 	H 	0.52650 0.54770 0.87910 -0.55200
Mn	Mn	0.63586 0.62835 0.57845 1.31800
N 	N 	0.62540 0.63069 0.38160 -0.25400
C 	C 	0.59377 0.63785 0.32670 0.07600
H 	H 	0.59190 0.63720 0.23330 0.00700
C 	C 	0.56107 0.64691 0.40460 -0.18000
C 	C 	0.52720 0.64890 0.33590 0.10200
H 	H 	0.52650 0.64530 0.24320 -0.00400
C 	C 	0.49480 0.65610 0.40470 -0.20700
H 	H 	0.47250 0.65730 0.35850 0.10600
C 	C 	0.49550 0.66140 0.53820 0.14900
H 	H 	0.47340 0.66560 0.58370 -0.01100
C 	C 	0.52840 0.66080 0.61010 -0.26900
H 	H 	0.52820 0.66520 0.70240 0.13500
C 	C 	0.56128 0.65362 0.54470 0.26500
O 	O 	0.59255 0.65453 0.62040 -0.44400
N 	N 	0.67902 0.59918 0.51460 -0.25400
C 	C 	0.70541 0.58667 0.59040 0.06100
H 	H 	0.72350 0.57220 0.54960 0.01000
C 	C 	0.70896 0.59342 0.73360 -0.16300
C 	C 	0.74210 0.58220 0.79790 0.06700
H 	H 	0.75960 0.56890 0.74920 0.00400
C 	C 	0.74890 0.59040 0.93120 -0.15600
H 	H 	0.77090 0.58270 0.97110 0.08500
C 	C 	0.72320 0.61000 0.00590 0.09500
H 	H 	0.72820 0.61600 0.09520 -0.01300
C 	C 	0.69040 0.62050 0.94740 -0.23500
H 	H 	0.67300 0.63320 0.99880 0.12400
C 	C 	0.68229 0.61252 0.81290 0.25600
O 	O 	0.65034 0.62422 0.76140 -0.44100
C 	C 	0.65767 0.62023 0.29810 -0.08400
H 	H 	0.67400 0.64130 0.28640 0.04600
H 	H 	0.64950 0.61200 0.20990 0.05300
C 	C 	0.67753 0.58956 0.36960 -0.08500
H 	H 	0.66440 0.56640 0.35700 0.04800
H 	H 	0.70240 0.58680 0.33390 0.05400
N 	N 	0.05267 0.03782 0.05670 -0.16100
N 	N 	0.05279 0.04907 0.19090 -0.37800
C 	C 	0.08139 0.05475 0.00350 0.09800
H 	H 	0.08800 0.05260 0.91330 -0.01200
C 	C 	0.08167 0.07125 0.20920 0.17100
H 	H 	0.08800 0.08220 0.29080 -0.04000
N 	N 	0.10052 0.07577 0.09390 -0.24200
N 	N 	0.97220 0.03754 0.10760 -0.20000
N 	N 	0.98493 0.05066 0.22920 -0.36300
C 	C 	0.94094 0.05455 0.08700 0.10900
H 	H 	0.92620 0.05030 0.01180 -0.02200
C 	C 	0.96011 0.07551 0.27270 0.17600
H 	H 	0.96210 0.08870 0.35290 -0.04200
N 	N 	0.93192 0.07884 0.18490 -0.24200
N 	N 	0.01152 0.97455 0.17850 -0.19300
N 	N 	0.02071 0.99480 0.29120 -0.36900
C 	C 	0.01510 0.93983 0.21980 0.10100
H 	H 	0.01050 0.91960 0.16410 -0.01000
C 	C 	0.02975 0.97123 0.38920 0.18100
H 	H 	0.03770 0.97840 0.47430 -0.04900
N 	N 	0.02598 0.93606 0.35020 -0.15500
B 	B 	0.02230 0.03751 0.28890 1.48000
H 	H 	0.02650 0.04770 0.37910 -0.54900
Mn	Mn	0.13586 0.12835 0.07845 1.31700
N 	N 	0.12540 0.13069 0.88160 -0.25000
C 	C 	0.09377 0.13785 0.82670 0.06800
H 	H 	0.09190 0.13720 0.73330 0.01100
C 	C 	0.06107 0.14691 0.90460 -0.16000
C 	C 	0.02720 0.14890 0.83590 0.07300
H 	H 	0.02650 0.14530 0.74320 0.00500
C 	C 	0.99480 0.15610 0.90470 -0.17000
H 	H 	0.97250 0.15730 0.85850 0.09600
C 	C 	0.99550 0.16140 0.03820 0.12700
H 	H 	0.97340 0.16560 0.08370 -0.00300
C 	C 	0.02840 0.16080 0.11010 -0.25800
H 	H 	0.02820 0.16520 0.20240 0.12900
C 	C 	0.06128 0.15362 0.04470 0.24900
O 	O 	0.09255 0.15453 0.12040 -0.44100
N 	N 	0.17902 0.09918 0.01460 -0.25800
C 	C 	0.20541 0.08667 0.09040 0.06900
H 	H 	0.22350 0.07220 0.04960 0.00500
C 	C 	0.20896 0.09342 0.23360 -0.17900
C 	C 	0.24210 0.08220 0.29790 0.09100
H 	H 	0.25960 0.06890 0.24920 -0.00600
C 	C 	0.24890 0.09040 0.43120 -0.19500
H 	H 	0.27090 0.08270 0.47110 0.09600
C 	C 	0.22320 0.11000 0.50590 0.14100
H 	H 	0.22820 0.11600 0.59520 -0.02700
C 	C 	0.19040 0.12050 0.44740 -0.27100
H 	H 	0.17300 0.13320 0.49880 0.13400
C 	C 	0.18229 0.11252 0.31290 0.27300
O 	O 	0.15034 0.12422 0.26140 -0.44500
C 	C 	0.15767 0.12023 0.79810 -0.08700
H 	H 	0.17400 0.14130 0.78640 0.04900
H 	H 	0.14950 0.11200 0.70990 0.05500
C 	C 	0.17753 0.08956 0.86960 -0.07700
H 	H 	0.16440 0.06640 0.85700 0.04600
H 	H 	0.20240 0.08680 0.83390 0.05200
N 	N 	0.28782 0.19733 0.30670 -0.16000
N 	N 	0.29907 0.19721 0.44090 -0.37900
C 	C 	0.30475 0.16861 0.25350 0.11200
H 	H 	0.30260 0.16200 0.16330 -0.01900
C 	C 	0.32125 0.16833 0.45920 0.17300
H 	H 	0.33220 0.16200 0.54080 -0.04000
N 	N 	0.32577 0.14948 0.34390 -0.24300
N 	N 	0.28754 0.27780 0.35760 -0.20000
N 	N 	0.30066 0.26507 0.47920 -0.36800
C 	C 	0.30455 0.30906 0.33700 0.10900
H 	H 	0.30030 0.32380 0.26180 -0.02000
C 	C 	0.32551 0.28989 0.52270 0.17700
H 	H 	0.33870 0.28790 0.60290 -0.04300
N 	N 	0.32884 0.31808 0.43490 -0.24200
N 	N 	0.22455 0.23848 0.42850 -0.19200
N 	N 	0.24480 0.22929 0.54120 -0.37400
C 	C 	0.18983 0.23490 0.46980 0.10300
H 	H 	0.16960 0.23950 0.41410 -0.00700
C 	C 	0.22123 0.22025 0.63920 0.18300
H 	H 	0.22840 0.21230 0.72430 -0.05000
N 	N 	0.18606 0.22402 0.60020 -0.15500
B 	B 	0.28751 0.22770 0.53890 1.50000
H 	H 	0.29770 0.22350 0.62910 -0.55300
Mn	Mn	0.37835 0.11414 0.32845 1.31800
N 	N 	0.38069 0.12460 0.13160 -0.25200
C 	C 	0.38785 0.15623 0.07670 0.06900
H 	H 	0.38720 0.15810 0.98330 0.01200
C 	C 	0.39691 0.18893 0.15460 -0.17300
C 	C 	0.39890 0.22280 0.08590 0.09300
H 	H 	0.39530 0.22350 0.99320 0.00100
C 	C 	0.40610 0.25520 0.15470 -0.19900
H 	H 	0.40730 0.27750 0.10850 0.10400
C 	C 	0.41140 0.25450 0.28820 0.14300
H 	H 	0.41560 0.27660 0.33370 -0.00900
C 	C 	0.41080 0.22160 0.36010 -0.26500
H 	H 	0.41520 0.22180 0.45240 0.13300
C 	C 	0.40362 0.18872 0.29470 0.26100
O 	O 	0.40453 0.15745 0.37040 -0.44300
N 	N 	0.34918 0.07098 0.26460 -0.25600
C 	C 	0.33667 0.04459 0.34040 0.06700
H 	H 	0.32220 0.02650 0.29960 0.00600
C 	C 	0.34342 0.04104 0.48360 -0.17700
C 	C 	0.33220 0.00790 0.54790 0.08500
H 	H 	0.31890 0.99040 0.49920 0.00100
C 	C 	0.34040 0.00110 0.68120 -0.20400
H 	H 	0.33270 0.97910 0.72110 0.10400
C 	C 	0.36000 0.02680 0.75590 0.14700
H 	H 	0.36600 0.02180 0.84520 -0.03000
C 	C 	0.37050 0.05960 0.69740 -0.27300
H 	H 	0.38320 0.07700 0.74880 0.13500
C 	C 	0.36252 0.06771 0.56290 0.27300
O 	O 	0.37422 0.09966 0.51140 -0.44500
C 	C 	0.37023 0.09233 0.04810 -0.09400
H 	H 	0.39130 0.07600 0.03640 0.04800
H 	H 	0.36200 0.10050 0.95990 0.06000
C 	C 	0.33956 0.07247 0.11960 -0.07900
H 	H 	0.31640 0.08560 0.10700 0.04600
H 	H 	0.33680 0.04760 0.08390 0.05000
N 	N 	0.78782 0.69733 0.80670 -0.16000
N 	N 	0.79907 0.69721 0.94090 -0.37500
C 	C 	0.80475 0.66861 0.75350 0.11200
H 	H 	0.80260 0.66200 0.66330 -0.01900
C 	C 	0.82125 0.66833 0.95920 0.18700
H 	H 	0.83220 0.66200 0.04080 -0.05000
N 	N 	0.82577 0.64948 0.84390 -0.24400
N 	N 	0.78754 0.77780 0.85760 -0.20000
N 	N 	0.80066 0.76507 0.97920 -0.35600
C 	C 	0.80455 0.80906 0.83700 0.11000
H 	H 	0.80030 0.82380 0.76180 -0.02000
C 	C 	0.82551 0.78989 0.02270 0.15900
H 	H 	0.83870 0.78790 0.10290 -0.03900
N 	N 	0.82884 0.81808 0.93490 -0.23500
N 	N 	0.72455 0.73848 0.92850 -0.19100
N 	N 	0.74480 0.72929 0.04120 -0.37400
C 	C 	0.68983 0.73490 0.96980 0.11100
H 	H 	0.66960 0.73950 0.91410 -0.00900
C 	C 	0.72123 0.72025 0.13920 0.18000
H 	H 	0.72840 0.71230 0.22430 -0.04900
N 	N 	0.68606 0.72402 0.10020 -0.15900
B 	B 	0.78751 0.72770 0.03890 1.47500
H 	H 	0.79770 0.72350 0.12910 -0.54600
Mn	Mn	0.87835 0.61414 0.82845 1.31900
N 	N 	0.88069 0.62460 0.63160 -0.25400
C 	C 	0.88785 0.65623 0.57670 0.07600
H 	H 	0.88720 0.65810 0.48330 0.00800
C 	C 	0.89691 0.68893 0.65460 -0.17900
C 	C 	0.89890 0.72280 0.58590 0.10300
H 	H 	0.89530 0.72350 0.49320 -0.00300
C 	C 	0.90610 0.75520 0.65470 -0.20600
H 	H 	0.90730 0.77750 0.60850 0.10700
C 	C 	0.91140 0.75450 0.78820 0.15000
H 	H 	0.91560 0.77660 0.83370 -0.01000
C 	C 	0.91080 0.72160 0.86010 -0.26900
H 	H 	0.91520 0.72180 0.95240 0.13700
C 	C 	0.90362 0.68872 0.79470 0.26500
O 	O 	0.90453 0.65745 0.87040 -0.44100
N 	N 	0.84918 0.57098 0.76460 -0.25100
C 	C 	0.83667 0.54459 0.84040 0.05400
H 	H 	0.82220 0.52650 0.79960 0.01300
C 	C 	0.84342 0.54104 0.98360 -0.14300
C 	C 	0.83220 0.50790 0.04790 0.04400
H 	H 	0.81890 0.49040 0.99920 0.01600
C 	C 	0.84040 0.50110 0.18120 -0.15900
H 	H 	0.83270 0.47910 0.22110 0.08300
C 	C 	0.86000 0.52680 0.25590 0.11200
H 	H 	0.86600 0.52180 0.34520 -0.01700
C 	C 	0.87050 0.55960 0.19740 -0.24600
H 	H 	0.88320 0.57700 0.24880 0.12500
C 	C 	0.86252 0.56771 0.06290 0.24800
O 	O 	0.87422 0.59966 0.01140 -0.44400
C 	C 	0.87023 0.59233 0.54810 -0.08400
H 	H 	0.89130 0.57600 0.53640 0.04700
H 	H 	0.86200 0.60050 0.45990 0.05500
C 	C 	0.83956 0.57247 0.61960 -0.08500
H 	H 	0.81640 0.58560 0.60700 0.04900
H 	H 	0.83680 0.54760 0.58390 0.05400
N 	N 	0.21218 0.80267 0.80670 -0.16000
N 	N 	0.20093 0.80279 0.94090 -0.37500
C 	C 	0.19525 0.83139 0.75350 0.11200
H 	H 	0.19740 0.83800 0.66330 -0.01900
C 	C 	0.17875 0.83167 0.95920 0.18700
H 	H 	0.16780 0.83800 0.04080 -0.05100
N 	N 	0.17423 0.85052 0.84390 -0.24400
N 	N 	0.21246 0.72220 0.85760 -0.20000
N 	N 	0.19934 0.73493 0.97920 -0.35600
C 	C 	0.19545 0.69094 0.83700 0.11000
H 	H 	0.19970 0.67620 0.76180 -0.02000
C 	C 	0.17449 0.71011 0.02270 0.15800
H 	H 	0.16130 0.71210 0.10290 -0.03900
N 	N 	0.17116 0.68192 0.93490 -0.23500
N 	N 	0.27545 0.76152 0.92850 -0.19100
N 	N 	0.25520 0.77071 0.04120 -0.37400
C 	C 	0.31017 0.76510 0.96980 0.11100
H 	H 	0.33040 0.76050 0.91410 -0.00900
C 	C 	0.27877 0.77975 0.13920 0.18000
H 	H 	0.27160 0.78770 0.22430 -0.04900
N 	N 	0.31394 0.77598 0.10020 -0.15900
B 	B 	0.21249 0.77230 0.03890 1.47500
H 	H 	0.20230 0.77650 0.12910 -0.54600
Mn	Mn	0.12165 0.88586 0.82845 1.31900
N 	N 	0.11931 0.87540 0.63160 -0.25400
C 	C 	0.11215 0.84377 0.57670 0.07600
H 	H 	0.11280 0.84190 0.48330 0.00800
C 	C 	0.10309 0.81107 0.65460 -0.17900
C 	C 	0.10110 0.77720 0.58590 0.10200
H 	H 	0.10470 0.77650 0.49320 -0.00400
C 	C 	0.09390 0.74480 0.65470 -0.20600
H 	H 	0.09270 0.72250 0.60850 0.10600
C 	C 	0.08860 0.74550 0.78820 0.14900
H 	H 	0.08440 0.72340 0.83370 -0.01000
C 	C 	0.08920 0.77840 0.86010 -0.26900
H 	H 	0.08480 0.77820 0.95240 0.13700
C 	C 	0.09638 0.81128 0.79470 0.26500
O 	O 	0.09547 0.84255 0.87040 -0.44200
N 	N 	0.15082 0.92902 0.76460 -0.25100
C 	C 	0.16333 0.95541 0.84040 0.05500
H 	H 	0.17780 0.97350 0.79960 0.01400
C 	C 	0.15658 0.95896 0.98360 -0.14300
C 	C 	0.16780 0.99210 0.04790 0.04900
H 	H 	0.18110 0.00960 0.99920 0.01000
C 	C 	0.15960 0.99890 0.18120 -0.14700
H 	H 	0.16730 0.02090 0.22110 0.07500
C 	C 	0.14000 0.97320 0.25590 0.10600
H 	H 	0.13400 0.97820 0.34520 -0.01400
C 	C 	0.12950 0.94040 0.19740 -0.24200
H 	H 	0.11680 0.92300 0.24880 0.12400
C 	C 	0.13748 0.93229 0.06290 0.24600
O 	O 	0.12578 0.90034 0.01140 -0.44400
C 	C 	0.12977 0.90767 0.54810 -0.08400
H 	H 	0.10870 0.92400 0.53640 0.04700
H 	H 	0.13800 0.89950 0.45990 0.05500
C 	C 	0.16044 0.92753 0.61960 -0.08500
H 	H 	0.18360 0.91440 0.60700 0.04900
H 	H 	0.16320 0.95240 0.58390 0.05500
N 	N 	0.71218 0.30267 0.30670 -0.16000
N 	N 	0.70093 0.30279 0.44090 -0.37900
C 	C 	0.69525 0.33139 0.25350 0.11200
H 	H 	0.69740 0.33800 0.16330 -0.01900
C 	C 	0.67875 0.33167 0.45920 0.17300
H 	H 	0.66780 0.33800 0.54080 -0.04000
N 	N 	0.67423 0.35052 0.34390 -0.24300
N 	N 	0.71246 0.22220 0.35760 -0.20000
N 	N 	0.69934 0.23493 0.47920 -0.36800
C 	C 	0.69545 0.19094 0.33700 0.10900
H 	H 	0.69970 0.17620 0.26180 -0.02000
C 	C 	0.67449 0.21011 0.52270 0.17700
H 	H 	0.66130 0.21210 0.60290 -0.04300
N 	N 	0.67116 0.18192 0.43490 -0.24200
N 	N 	0.77545 0.26152 0.42850 -0.19200
N 	N 	0.75520 0.27071 0.54120 -0.37400
C 	C 	0.81017 0.26510 0.46980 0.10300
H 	H 	0.83040 0.26050 0.41410 -0.00700
C 	C 	0.77877 0.27975 0.63920 0.18300
H 	H 	0.77160 0.28770 0.72430 -0.05000
N 	N 	0.81394 0.27598 0.60020 -0.15500
B 	B 	0.71249 0.27230 0.53890 1.50000
H 	H 	0.70230 0.27650 0.62910 -0.55300
Mn	Mn	0.62165 0.38586 0.32845 1.31800
N 	N 	0.61931 0.37540 0.13160 -0.25200
C 	C 	0.61215 0.34377 0.07670 0.06900
H 	H 	0.61280 0.34190 0.98330 0.01200
C 	C 	0.60309 0.31107 0.15460 -0.17400
C 	C 	0.60110 0.27720 0.08590 0.09400
H 	H 	0.60470 0.27650 0.99320 0.00100
C 	C 	0.59390 0.24480 0.15470 -0.19900
H 	H 	0.59270 0.22250 0.10850 0.10400
C 	C 	0.58860 0.24550 0.28820 0.14300
H 	H 	0.58440 0.22340 0.33370 -0.00900
C 	C 	0.58920 0.27840 0.36010 -0.26500
H 	H 	0.58480 0.27820 0.45240 0.13300
C 	C 	0.59638 0.31128 0.29470 0.26100
O 	O 	0.59547 0.34255 0.37040 -0.44300
N 	N 	0.65082 0.42902 0.26460 -0.25600
C 	C 	0.66333 0.45541 0.34040 0.06800
H 	H 	0.67780 0.47350 0.29960 0.00700
C 	C 	0.65658 0.45896 0.48360 -0.17800
C 	C 	0.66780 0.49210 0.54790 0.09100
H 	H 	0.68110 0.50960 0.49920 -0.00500
C 	C 	0.65960 0.49890 0.68120 -0.19400
H 	H 	0.66730 0.52090 0.72110 0.09600
C 	C 	0.64000 0.47320 0.75590 0.14100
H 	H 	0.63400 0.47820 0.84520 -0.02600
C 	C 	0.62950 0.44040 0.69740 -0.27000
H 	H 	0.61680 0.42300 0.74880 0.13400
C 	C 	0.63748 0.43229 0.56290 0.27200
O 	O 	0.62578 0.40034 0.51140 -0.44500
C 	C 	0.62977 0.40767 0.04810 -0.09300
H 	H 	0.60870 0.42400 0.03640 0.04900
H 	H 	0.63800 0.39950 0.95990 0.05900
C 	C 	0.66044 0.42753 0.11960 -0.07900
H 	H 	0.68360 0.41440 0.10700 0.04600
H 	H 	0.66320 0.45240 0.08390 0.05100
N 	N 	0.05267 0.53782 0.94330 -0.16100
N 	N 	0.05279 0.54907 0.80910 -0.37900
C 	C 	0.08139 0.55475 0.99650 0.12600
H 	H 	0.08800 0.55260 0.08670 -0.02800
C 	C 	0.08167 0.57125 0.79080 0.17200
H 	H 	0.08800 0.58220 0.70920 -0.04000
N 	N 	0.10052 0.57577 0.90610 -0.24400
N 	N 	0.97220 0.53754 0.89240 -0.19700
N 	N 	0.98493 0.55066 0.77080 -0.36400
C 	C 	0.94094 0.55455 0.91300 0.11000
H 	H 	0.92620 0.55030 0.98820 -0.01700
C 	C 	0.96011 0.57551 0.72730 0.17700
H 	H 	0.96210 0.58870 0.64710 -0.04200
N 	N 	0.93192 0.57884 0.81510 -0.24100
N 	N 	0.01152 0.47455 0.82150 -0.19200
N 	N 	0.02071 0.49480 0.70880 -0.37400
C 	C 	0.01510 0.43983 0.78020 0.10200
H 	H 	0.01050 0.41960 0.83590 -0.00700
C 	C 	0.02975 0.47123 0.61080 0.18200
H 	H 	0.03770 0.47840 0.52570 -0.05100
N 	N 	0.02598 0.43606 0.64980 -0.15500
B 	B 	0.02230 0.53751 0.71110 1.49300
H 	H 	0.02650 0.54770 0.62090 -0.55200
Mn	Mn	0.13586 0.62835 0.92155 1.31900
N 	N 	0.12540 0.63069 0.11840 -0.25900
C 	C 	0.09377 0.63785 0.17330 0.08600
H 	H 	0.09190 0.63720 0.26670 0.00400
C 	C 	0.06107 0.64691 0.09540 -0.20700
C 	C 	0.02720 0.64890 0.16410 0.12600
H 	H 	0.02650 0.64530 0.25680 -0.01300
C 	C 	0.99480 0.65610 0.09530 -0.24800
H 	H 	0.97250 0.65730 0.14150 0.12000
C 	C 	0.99550 0.66140 0.96180 0.20400
H 	H 	0.97340 0.66560 0.91630 -0.02800
C 	C 	0.02840 0.66080 0.88990 -0.31000
H 	H 	0.02820 0.66520 0.79760 0.14800
C 	C 	0.06128 0.65362 0.95530 0.29400
O 	O 	0.09255 0.65453 0.87960 -0.44900
N 	N 	0.17902 0.59918 0.98540 -0.25100
C 	C 	0.20541 0.58667 0.90960 0.06800
H 	H 	0.22350 0.57220 0.95040 0.01000
C 	C 	0.20896 0.59342 0.76640 -0.17700
C 	C 	0.24210 0.58220 0.70210 0.09100
H 	H 	0.25960 0.56890 0.75080 -0.00400
C 	C 	0.24890 0.59040 0.56880 -0.19300
H 	H 	0.27090 0.58270 0.52890 0.09500
C 	C 	0.22320 0.61000 0.49410 0.14100
H 	H 	0.22820 0.61600 0.40480 -0.02800
C 	C 	0.19040 0.62050 0.55260 -0.27000
H 	H 	0.17300 0.63320 0.50120 0.13400
C 	C 	0.18229 0.61252 0.68710 0.27200
O 	O 	0.15034 0.62422 0.73860 -0.44500
C 	C 	0.15767 0.62023 0.20190 -0.08100
H 	H 	0.17400 0.64130 0.21360 0.04500
H 	H 	0.14950 0.61200 0.29010 0.05300
C 	C 	0.17753 0.58956 0.13040 -0.09200
H 	H 	0.16440 0.56640 0.14300 0.05000
H 	H 	0.20240 0.58680 0.16610 0.05500
N 	N 	0.55267 0.03782 0.44330 -0.16100
N 	N 	0.55279 0.04907 0.30910 -0.37900
C 	C 	0.58139 0.05475 0.49650 0.11100
H 	H 	0.58800 0.05260 0.58670 -0.01900
C 	C 	0.58167 0.07125 0.29080 0.17200
H 	H 	0.58800 0.08220 0.20920 -0.04100
N 	N 	0.60052 0.07577 0.40610 -0.24300
N 	N 	0.47220 0.03754 0.39240 -0.20100
N 	N 	0.48493 0.05066 0.27080 -0.36700
C 	C 	0.44094 0.05455 0.41300 0.10900
H 	H 	0.42620 0.05030 0.48820 -0.02000
C 	C 	0.46011 0.07551 0.22730 0.17600
H 	H 	0.46210 0.08870 0.14710 -0.04400
N 	N 	0.43192 0.07884 0.31510 -0.24200
N 	N 	0.51152 0.97455 0.32150 -0.19100
N 	N 	0.52071 0.99480 0.20880 -0.37000
C 	C 	0.51510 0.93983 0.28020 0.10200
H 	H 	0.51050 0.91960 0.33590 -0.00700
C 	C 	0.52975 0.97123 0.11080 0.18200
H 	H 	0.53770 0.97840 0.02570 -0.05000
N 	N 	0.52598 0.93606 0.14980 -0.15600
B 	B 	0.52230 0.03751 0.21110 1.49000
H 	H 	0.52650 0.04770 0.12090 -0.55200
Mn	Mn	0.63586 0.12835 0.42155 1.31800
N 	N 	0.62540 0.13069 0.61840 -0.25400
C 	C 	0.59377 0.13785 0.67330 0.07600
H 	H 	0.59190 0.13720 0.76670 0.00900
C 	C 	0.56107 0.14691 0.59540 -0.17800
C 	C 	0.52720 0.14890 0.66410 0.10100
H 	H 	0.52650 0.14530 0.75680 -0.00300
C 	C 	0.49480 0.15610 0.59530 -0.20500
H 	H 	0.47250 0.15730 0.64150 0.10700
C 	C 	0.49550 0.16140 0.46180 0.14800
H 	H 	0.47340 0.16560 0.41630 -0.01000
C 	C 	0.52840 0.16080 0.38990 -0.26900
H 	H 	0.52820 0.16520 0.29760 0.13400
C 	C 	0.56128 0.15362 0.45530 0.26400
O 	O 	0.59255 0.15453 0.37960 -0.44400
N 	N 	0.67902 0.09918 0.48540 -0.25600
C 	C 	0.70541 0.08667 0.40960 0.07100
H 	H 	0.72350 0.07220 0.45040 0.00600
C 	C 	0.70896 0.09342 0.26640 -0.18500
C 	C 	0.74210 0.08220 0.20210 0.10100
H 	H 	0.75960 0.06890 0.25080 -0.00900
C 	C 	0.74890 0.09040 0.06880 -0.21100
H 	H 	0.77090 0.08270 0.02890 0.10000
C 	C 	0.72320 0.11000 0.99410 0.16200
H 	H 	0.72820 0.11600 0.90480 -0.03400
C 	C 	0.69040 0.12050 0.05260 -0.28600
H 	H 	0.67300 0.13320 0.00120 0.13800
C 	C 	0.68229 0.11252 0.18710 0.27900
O 	O 	0.65034 0.12422 0.23860 -0.44700
C 	C 	0.65767 0.12023 0.70190 -0.08500
H 	H 	0.67400 0.14130 0.71360 0.04800
H 	H 	0.64950 0.11200 0.79010 0.05500
C 	C 	0.67753 0.08956 0.63040 -0.08300
H 	H 	0.66440 0.06640 0.64300 0.04800
H 	H 	0.70240 0.08680 0.66610 0.05400
N 	N 	0.44733 0.46218 0.44330 -0.16000
N 	N 	0.44721 0.45093 0.30910 -0.38000
C 	C 	0.41861 0.44525 0.49650 0.11200
H 	H 	0.41200 0.44740 0.58670 -0.01900
C 	C 	0.41833 0.42875 0.29080 0.17300
H 	H 	0.41200 0.41780 0.20920 -0.04100
N 	N 	0.39948 0.42423 0.40610 -0.24300
N 	N 	0.52780 0.46246 0.39240 -0.20000
N 	N 	0.51507 0.44934 0.27080 -0.36800
C 	C 	0.55906 0.44545 0.41300 0.10900
H 	H 	0.57380 0.44970 0.48820 -0.02000
C 	C 	0.53989 0.42449 0.22730 0.17700
H 	H 	0.53790 0.41130 0.14710 -0.04400
N 	N 	0.56808 0.42116 0.31510 -0.24200
N 	N 	0.48848 0.52545 0.32150 -0.19200
N 	N 	0.47929 0.50520 0.20880 -0.37400
C 	C 	0.48490 0.56017 0.28020 0.10200
H 	H 	0.48950 0.58040 0.33590 -0.00700
C 	C 	0.47025 0.52877 0.11080 0.18200
H 	H 	0.46230 0.52160 0.02570 -0.05100
N 	N 	0.47402 0.56394 0.14980 -0.15600
B 	B 	0.47770 0.46249 0.21110 1.50000
H 	H 	0.47350 0.45230 0.12090 -0.55400
Mn	Mn	0.36414 0.37165 0.42155 1.31800
N 	N 	0.37460 0.36931 0.61840 -0.25400
C 	C 	0.40623 0.36215 0.67330 0.07600
H 	H 	0.40810 0.36280 0.76670 0.00900
C 	C 	0.43893 0.35309 0.59540 -0.17800
C 	C 	0.47280 0.35110 0.66410 0.10100
H 	H 	0.47350 0.35470 0.75680 -0.00300
C 	C 	0.50520 0.34390 0.59530 -0.20500
H 	H 	0.52750 0.34270 0.64150 0.10600
C 	C 	0.50450 0.33860 0.46180 0.14800
H 	H 	0.52660 0.33440 0.41630 -0.01000
C 	C 	0.47160 0.33920 0.38990 -0.26900
H 	H 	0.47180 0.33480 0.29760 0.13400
C 	C 	0.43872 0.34638 0.45530 0.26400
O 	O 	0.40745 0.34547 0.37960 -0.44400
N 	N 	0.32098 0.40082 0.48540 -0.25600
C 	C 	0.29459 0.41333 0.40960 0.07100
H 	H 	0.27650 0.42780 0.45040 0.00600
C 	C 	0.29104 0.40658 0.26640 -0.18400
C 	C 	0.25790 0.41780 0.20210 0.10100
H 	H 	0.24040 0.43110 0.25080 -0.00900
C 	C 	0.25110 0.40960 0.06880 -0.21100
H 	H 	0.22910 0.41730 0.02890 0.10000
C 	C 	0.27680 0.39000 0.99410 0.16200
H 	H 	0.27180 0.38400 0.90480 -0.03400
C 	C 	0.30960 0.37950 0.05260 -0.28500
H 	H 	0.32700 0.36680 0.00120 0.13800
C 	C 	0.31771 0.38748 0.18710 0.27900
O 	O 	0.34966 0.37578 0.23860 -0.44700
C 	C 	0.34233 0.37977 0.70190 -0.08500
H 	H 	0.32600 0.35870 0.71360 0.04700
H 	H 	0.35050 0.38800 0.79010 0.05500
C 	C 	0.32247 0.41044 0.63040 -0.08400
H 	H 	0.33560 0.43360 0.64300 0.04900
H 	H 	0.29760 0.41320 0.66610 0.05400
N 	N 	0.94733 0.96218 0.94330 -0.15800
N 	N 	0.94721 0.95093 0.80910 -0.38100
C 	C 	0.91861 0.94525 0.99650 0.12600
H 	H 	0.91200 0.94740 0.08670 -0.02600
C 	C 	0.91833 0.92875 0.79080 0.17500
H 	H 	0.91200 0.91780 0.70920 -0.04000
N 	N 	0.89948 0.92423 0.90610 -0.24400
N 	N 	0.02780 0.96246 0.89240 -0.19800
N 	N 	0.01507 0.94934 0.77080 -0.37300
C 	C 	0.05906 0.94545 0.91300 0.11000
H 	H 	0.07380 0.94970 0.98820 -0.01600
C 	C 	0.03989 0.92449 0.72730 0.17800
H 	H 	0.03790 0.91130 0.64710 -0.04500
N 	N 	0.06808 0.92116 0.81510 -0.24100
N 	N 	0.98848 0.02545 0.82150 -0.19000
N 	N 	0.97929 0.00520 0.70880 -0.37900
C 	C 	0.98490 0.06017 0.78020 0.10400
H 	H 	0.98950 0.08040 0.83590 -0.00500
C 	C 	0.97025 0.02877 0.61080 0.18400
H 	H 	0.96230 0.02160 0.52570 -0.05100
N 	N 	0.97402 0.06394 0.64980 -0.15400
B 	B 	0.97770 0.96249 0.71110 1.52000
H 	H 	0.97350 0.95230 0.62090 -0.55800
Mn	Mn	0.86414 0.87165 0.92155 1.31900
N 	N 	0.87460 0.86931 0.11840 -0.25900
C 	C 	0.90623 0.86215 0.17330 0.08800
H 	H 	0.90810 0.86280 0.26670 0.00400
C 	C 	0.93893 0.85309 0.09540 -0.21000
C 	C 	0.97280 0.85110 0.16410 0.14500
H 	H 	0.97350 0.85470 0.25680 -0.01600
C 	C 	0.00520 0.84390 0.09530 -0.26300
H 	H 	0.02750 0.84270 0.14150 0.12400
C 	C 	0.00450 0.83860 0.96180 0.19200
H 	H 	0.02660 0.83440 0.91630 -0.02600
C 	C 	0.97160 0.83920 0.88990 -0.29500
H 	H 	0.97180 0.83480 0.79760 0.14500
C 	C 	0.93872 0.84638 0.95530 0.29100
O 	O 	0.90745 0.84547 0.87960 -0.44800
N 	N 	0.82098 0.90082 0.98540 -0.25000
C 	C 	0.79459 0.91333 0.90960 0.06700
H 	H 	0.77650 0.92780 0.95040 0.01000
C 	C 	0.79104 0.90658 0.76640 -0.17700
C 	C 	0.75790 0.91780 0.70210 0.09100
H 	H 	0.74040 0.93110 0.75080 -0.00400
C 	C 	0.75110 0.90960 0.56880 -0.19300
H 	H 	0.72910 0.91730 0.52890 0.09600
C 	C 	0.77680 0.89000 0.49410 0.14100
H 	H 	0.77180 0.88400 0.40480 -0.02800
C 	C 	0.80960 0.87950 0.55260 -0.27000
H 	H 	0.82700 0.86680 0.50120 0.13400
C 	C 	0.81771 0.88748 0.68710 0.27200
O 	O 	0.84966 0.87578 0.73860 -0.44400
C 	C 	0.84233 0.87977 0.20190 -0.08000
H 	H 	0.82600 0.85870 0.21360 0.04500
H 	H 	0.85050 0.88800 0.29010 0.05400
C 	C 	0.82247 0.91044 0.13040 -0.09300
H 	H 	0.83560 0.93360 0.14300 0.05100
H 	H 	0.79760 0.91320 0.16610 0.05600
N 	N 	0.71218 0.80267 0.69330 -0.16000
N 	N 	0.70093 0.80279 0.55910 -0.38000
C 	C 	0.69525 0.83139 0.74650 0.11200
H 	H 	0.69740 0.83800 0.83670 -0.01800
C 	C 	0.67875 0.83167 0.54080 0.17300
H 	H 	0.66780 0.83800 0.45920 -0.04100
N 	N 	0.67423 0.85052 0.65610 -0.24300
N 	N 	0.71246 0.72220 0.64240 -0.20000
N 	N 	0.69934 0.73493 0.52080 -0.36800
C 	C 	0.69545 0.69094 0.66300 0.10900
H 	H 	0.69970 0.67620 0.73820 -0.02000
C 	C 	0.67449 0.71011 0.47730 0.17700
H 	H 	0.66130 0.71210 0.39710 -0.04400
N 	N 	0.67116 0.68192 0.56510 -0.24200
N 	N 	0.77545 0.76152 0.57150 -0.19200
N 	N 	0.75520 0.77071 0.45880 -0.37400
C 	C 	0.81017 0.76510 0.53020 0.10200
H 	H 	0.83040 0.76050 0.58590 -0.00700
C 	C 	0.77877 0.77975 0.36080 0.18200
H 	H 	0.77160 0.78770 0.27570 -0.05000
N 	N 	0.81394 0.77598 0.39980 -0.15500
B 	B 	0.71249 0.77230 0.46110 1.50000
H 	H 	0.70230 0.77650 0.37090 -0.55400
Mn	Mn	0.62165 0.88586 0.67155 1.31800
N 	N 	0.61931 0.87540 0.86840 -0.25900
C 	C 	0.61215 0.84377 0.92330 0.09700
H 	H 	0.61280 0.84190 0.01670 -0.00300
C 	C 	0.60309 0.81107 0.84540 -0.19700
C 	C 	0.60110 0.77720 0.91410 0.13400
H 	H 	0.60470 0.77650 0.00680 -0.01900
C 	C 	0.59390 0.74480 0.84530 -0.23100
H 	H 	0.59270 0.72250 0.89150 0.11700
C 	C 	0.58860 0.74550 0.71180 0.16900
H 	H 	0.58440 0.72340 0.66630 -0.01800
C 	C 	0.58920 0.77840 0.63990 -0.28400
H 	H 	0.58480 0.77820 0.54760 0.14000
C 	C 	0.59638 0.81128 0.70530 0.27600
O 	O 	0.59547 0.84255 0.62960 -0.44700
N 	N 	0.65082 0.92902 0.73540 -0.25400
C 	C 	0.66333 0.95541 0.65960 0.06900
H 	H 	0.67780 0.97350 0.70040 0.00900
C 	C 	0.65658 0.95896 0.51640 -0.17800
C 	C 	0.66780 0.99210 0.45210 0.09700
H 	H 	0.68110 0.00960 0.50080 -0.01100
C 	C 	0.65960 0.99890 0.31880 -0.18300
H 	H 	0.66730 0.02090 0.27890 0.08800
C 	C 	0.64000 0.97320 0.24410 0.13500
H 	H 	0.63400 0.97820 0.15480 -0.02500
C 	C 	0.62950 0.94040 0.30260 -0.26700
H 	H 	0.61680 0.92300 0.25120 0.13200
C 	C 	0.63748 0.93229 0.43710 0.27100
O 	O 	0.62578 0.90034 0.48860 -0.44500
C 	C 	0.62977 0.90767 0.95190 -0.06800
H 	H 	0.60870 0.92400 0.96360 0.04400
H 	H 	0.63800 0.89950 0.04010 0.04600
C 	C 	0.66044 0.92753 0.88040 -0.09300
H 	H 	0.68360 0.91440 0.89300 0.05200
H 	H 	0.66320 0.95240 0.91610 0.05900
N 	N 	0.21218 0.30267 0.19330 -0.16000
N 	N 	0.20093 0.30279 0.05910 -0.38100
C 	C 	0.19525 0.33139 0.24650 0.11200
H 	H 	0.19740 0.33800 0.33670 -0.01900
C 	C 	0.17875 0.33167 0.04080 0.16600
H 	H 	0.16780 0.33800 0.95920 -0.03600
N 	N 	0.17423 0.35052 0.15610 -0.24200
N 	N 	0.21246 0.22220 0.14240 -0.20100
N 	N 	0.19934 0.23493 0.02080 -0.37300
C 	C 	0.19545 0.19094 0.16300 0.10900
H 	H 	0.19970 0.17620 0.23820 -0.02000
C 	C 	0.17449 0.21011 0.97730 0.18600
H 	H 	0.16130 0.21210 0.89710 -0.04600
N 	N 	0.17116 0.18192 0.06510 -0.24500
N 	N 	0.27545 0.26152 0.07150 -0.19300
N 	N 	0.25520 0.27071 0.95880 -0.37500
C 	C 	0.31017 0.26510 0.03020 0.10000
H 	H 	0.33040 0.26050 0.08590 -0.00700
C 	C 	0.27877 0.27975 0.86080 0.18400
H 	H 	0.27160 0.28770 0.77570 -0.05000
N 	N 	0.31394 0.27598 0.89980 -0.15400
B 	B 	0.21249 0.27230 0.96110 1.51000
H 	H 	0.20230 0.27650 0.87090 -0.55600
Mn	Mn	0.12165 0.38586 0.17155 1.31700
N 	N 	0.11931 0.37540 0.36840 -0.25400
C 	C 	0.11215 0.34377 0.42330 0.07500
H 	H 	0.11280 0.34190 0.51670 0.00800
C 	C 	0.10309 0.31107 0.34540 -0.17900
C 	C 	0.10110 0.27720 0.41410 0.10100
H 	H 	0.10470 0.27650 0.50680 -0.00300
C 	C 	0.09390 0.24480 0.34530 -0.20500
H 	H 	0.09270 0.22250 0.39150 0.10600
C 	C 	0.08860 0.24550 0.21180 0.14700
H 	H 	0.08440 0.22340 0.16630 -0.01100
C 	C 	0.08920 0.27840 0.13990 -0.26900
H 	H 	0.08480 0.27820 0.04760 0.13300
C 	C 	0.09638 0.31128 0.20530 0.26400
O 	O 	0.09547 0.34255 0.12960 -0.44500
N 	N 	0.15082 0.42902 0.23540 -0.25800
C 	C 	0.16333 0.45541 0.15960 0.08000
H 	H 	0.17780 0.47350 0.20040 0.00300
C 	C 	0.15658 0.45896 0.01640 -0.20500
C 	C 	0.16780 0.49210 0.95210 0.13000
H 	H 	0.18110 0.50960 0.00080 -0.02200
C 	C 	0.15960 0.49890 0.81880 -0.22200
H 	H 	0.16730 0.52090 0.77890 0.10600
C 	C 	0.14000 0.47320 0.74410 0.16500
H 	H 	0.13400 0.47820 0.65480 -0.03600
C 	C 	0.12950 0.44040 0.80260 -0.28900
H 	H 	0.11680 0.42300 0.75120 0.14100
C 	C 	0.13748 0.43229 0.93710 0.29100
O 	O 	0.12578 0.40034 0.98860 -0.44600
C 	C 	0.12977 0.40767 0.45190 -0.08500
H 	H 	0.10870 0.42400 0.46360 0.04700
H 	H 	0.13800 0.39950 0.54010 0.05500
C 	C 	0.16044 0.42753 0.38040 -0.08300
H 	H 	0.18360 0.41440 0.39300 0.04800
H 	H 	0.16320 0.45240 0.41610 0.05400
N 	N 	0.78782 0.19733 0.19330 -0.16000
N 	N 	0.79907 0.19721 0.05910 -0.38100
C 	C 	0.80475 0.16861 0.24650 0.11200
H 	H 	0.80260 0.16200 0.33670 -0.01900
C 	C 	0.82125 0.16833 0.04080 0.16600
H 	H 	0.83220 0.16200 0.95920 -0.03600
N 	N 	0.82577 0.14948 0.15610 -0.24200
N 	N 	0.78754 0.27780 0.14240 -0.20100
N 	N 	0.80066 0.26507 0.02080 -0.37300
C 	C 	0.80455 0.30906 0.16300 0.10900
H 	H 	0.80030 0.32380 0.23820 -0.02000
C 	C 	0.82551 0.28989 0.97730 0.18500
H 	H 	0.83870 0.28790 0.89710 -0.04500
N 	N 	0.82884 0.31808 0.06510 -0.24500
N 	N 	0.72455 0.23848 0.07150 -0.19300
N 	N 	0.74480 0.22929 0.95880 -0.37500
C 	C 	0.68983 0.23490 0.03020 0.10000
H 	H 	0.66960 0.23950 0.08590 -0.00700
C 	C 	0.72123 0.22025 0.86080 0.18400
H 	H 	0.72840 0.21230 0.77570 -0.05000
N 	N 	0.68606 0.22402 0.89980 -0.15400
B 	B 	0.78751 0.22770 0.96110 1.51000
H 	H 	0.79770 0.22350 0.87090 -0.55600
Mn	Mn	0.87835 0.11414 0.17155 1.31700
N 	N 	0.88069 0.12460 0.36840 -0.25400
C 	C 	0.88785 0.15623 0.42330 0.07600
H 	H 	0.88720 0.15810 0.51670 0.00900
C 	C 	0.89691 0.18893 0.34540 -0.17800
C 	C 	0.89890 0.22280 0.41410 0.10200
H 	H 	0.89530 0.22350 0.50680 -0.00200
C 	C 	0.90610 0.25520 0.34530 -0.20500
H 	H 	0.90730 0.27750 0.39150 0.10700
C 	C 	0.91140 0.25450 0.21180 0.14900
H 	H 	0.91560 0.27660 0.16630 -0.01100
C 	C 	0.91080 0.22160 0.13990 -0.26900
H 	H 	0.91520 0.22180 0.04760 0.13400
C 	C 	0.90362 0.18872 0.20530 0.26400
O 	O 	0.90453 0.15745 0.12960 -0.44500
N 	N 	0.84918 0.07098 0.23540 -0.25800
C 	C 	0.83667 0.04459 0.15960 0.07900
H 	H 	0.82220 0.02650 0.20040 0.00200
C 	C 	0.84342 0.04104 0.01640 -0.20400
C 	C 	0.83220 0.00790 0.95210 0.12400
H 	H 	0.81890 0.99040 0.00080 -0.01600
C 	C 	0.84040 0.00110 0.81880 -0.23300
H 	H 	0.83270 0.97910 0.77890 0.11300
C 	C 	0.86000 0.02680 0.74410 0.17000
H 	H 	0.86600 0.02180 0.65480 -0.03900
C 	C 	0.87050 0.05960 0.80260 -0.29300
H 	H 	0.88320 0.07700 0.75120 0.14200
C 	C 	0.86252 0.06771 0.93710 0.29200
O 	O 	0.87422 0.09966 0.98860 -0.44600
C 	C 	0.87023 0.09233 0.45190 -0.08500
H 	H 	0.89130 0.07600 0.46360 0.04700
H 	H 	0.86200 0.10050 0.54010 0.05500
C 	C 	0.83956 0.07247 0.38040 -0.08300
H 	H 	0.81640 0.08560 0.39300 0.04800
H 	H 	0.83680 0.04760 0.41610 0.05300
N 	N 	0.28782 0.69733 0.69330 -0.16000
N 	N 	0.29907 0.69721 0.55910 -0.38000
C 	C 	0.30475 0.66861 0.74650 0.11200
H 	H 	0.30260 0.66200 0.83670 -0.01800
C 	C 	0.32125 0.66833 0.54080 0.17300
H 	H 	0.33220 0.66200 0.45920 -0.04100
N 	N 	0.32577 0.64948 0.65610 -0.24300
N 	N 	0.28754 0.77780 0.64240 -0.20000
N 	N 	0.30066 0.76507 0.52080 -0.36800
C 	C 	0.30455 0.80906 0.66300 0.10900
H 	H 	0.30030 0.82380 0.73820 -0.02000
C 	C 	0.32551 0.78989 0.47730 0.17700
H 	H 	0.33870 0.78790 0.39710 -0.04400
N 	N 	0.32884 0.81808 0.56510 -0.24200
N 	N 	0.22455 0.73848 0.57150 -0.19200
N 	N 	0.24480 0.72929 0.45880 -0.37400
C 	C 	0.18983 0.73490 0.53020 0.10200
H 	H 	0.16960 0.73950 0.58590 -0.00700
C 	C 	0.22123 0.72025 0.36080 0.18200
H 	H 	0.22840 0.71230 0.27570 -0.05000
N 	N 	0.18606 0.72402 0.39980 -0.15500
B 	B 	0.28751 0.72770 0.46110 1.50000
H 	H 	0.29770 0.72350 0.37090 -0.55400
Mn	Mn	0.37835 0.61414 0.67155 1.31800
N 	N 	0.38069 0.62460 0.86840 -0.25900
C 	C 	0.38785 0.65623 0.92330 0.09700
H 	H 	0.38720 0.65810 0.01670 -0.00300
C 	C 	0.39691 0.68893 0.84540 -0.19800
C 	C 	0.39890 0.72280 0.91410 0.13400
H 	H 	0.39530 0.72350 0.00680 -0.01900
C 	C 	0.40610 0.75520 0.84530 -0.23100
H 	H 	0.40730 0.77750 0.89150 0.11700
C 	C 	0.41140 0.75450 0.71180 0.16900
H 	H 	0.41560 0.77660 0.66630 -0.01800
C 	C 	0.41080 0.72160 0.63990 -0.28400
H 	H 	0.41520 0.72180 0.54760 0.14000
C 	C 	0.40362 0.68872 0.70530 0.27600
O 	O 	0.40453 0.65745 0.62960 -0.44700
N 	N 	0.34918 0.57098 0.73540 -0.25400
C 	C 	0.33667 0.54459 0.65960 0.06800
H 	H 	0.32220 0.52650 0.70040 0.00800
C 	C 	0.34342 0.54104 0.51640 -0.17800
C 	C 	0.33220 0.50790 0.45210 0.09100
H 	H 	0.31890 0.49040 0.50080 -0.00500
C 	C 	0.34040 0.50110 0.31880 -0.19400
H 	H 	0.33270 0.47910 0.27890 0.09600
C 	C 	0.36000 0.52680 0.24410 0.14100
H 	H 	0.36600 0.52180 0.15480 -0.02900
C 	C 	0.37050 0.55960 0.30260 -0.27100
H 	H 	0.38320 0.57700 0.25120 0.13300
C 	C 	0.36252 0.56771 0.43710 0.27200
O 	O 	0.37422 0.59966 0.48860 -0.44500
C 	C 	0.37023 0.59233 0.95190 -0.06800
H 	H 	0.39130 0.57600 0.96360 0.04400
H 	H 	0.36200 0.60050 0.04010 0.04600
C 	C 	0.33956 0.57247 0.88040 -0.09200
H 	H 	0.31640 0.58560 0.89300 0.05200
H 	H 	0.33680 0.54760 0.91610 0.05800
Cu	Cu	-0.00000 0.50000 -0.00000 0.84600
Cu	Cu	0.50000 0.00000 0.50000 0.84900
Cu	Cu	0.50000 0.50000 0.50000 0.85100
Cu	Cu	-0.00000 0.00000 -0.00000 0.84300
Cu	Cu	0.25000 0.25000 0.25000 0.85100
Cu	Cu	0.25000 0.75000 0.75000 0.85200
Cu	Cu	0.75000 0.75000 0.75000 0.85200
Cu	Cu	0.75000 0.25000 0.25000 0.85100
