data_crystal

_cell_length_a 35.99780
_cell_length_b 35.99780
_cell_length_c 9.90810
_cell_angle_alpha 90.00000
_cell_angle_beta  90.00000
_cell_angle_gamma 90.00000

_symmetry_space_group_name_	'P 1'
_symmetry_space_group_name_H-M	'P 1'

loop_
_symmetry_equiv_pos_as_xyz
  x,y,z

loop_
_atom_site_label
_atom_site_type_symbol
_atom_site_fract_x
_atom_site_fract_y
_atom_site_fract_z
_atom_site_charge
N 	N 	0.05269 0.03764 0.04640 -0.17200
N 	N 	0.05489 0.04872 0.17960 -0.37200
C 	C 	0.08055 0.05472 0.98920 0.13000
H 	H 	0.08610 0.05220 0.89800 -0.02600
C 	C 	0.08366 0.07109 0.19180 0.17400
H 	H 	0.09120 0.08180 0.27270 -0.04000
N 	N 	0.10064 0.07647 0.07350 -0.25000
N 	N 	0.97314 0.03745 0.11310 -0.20100
N 	N 	0.98715 0.05031 0.23160 -0.36400
C 	C 	0.94150 0.05419 0.09850 0.11200
H 	H 	0.92600 0.05040 0.02480 -0.02300
C 	C 	0.96272 0.07404 0.28020 0.18900
H 	H 	0.96560 0.08690 0.36110 -0.04600
N 	N 	0.93330 0.07748 0.19950 -0.24300
N 	N 	0.01412 0.97365 0.17800 -0.19200
N 	N 	0.02421 0.99427 0.28820 -0.37700
C 	C 	0.01670 0.93938 0.22110 0.11200
H 	H 	0.01100 0.91910 0.16680 -0.01300
C 	C 	0.03259 0.97069 0.38760 0.18200
H 	H 	0.04050 0.97780 0.47310 -0.04800
N 	N 	0.02807 0.93564 0.34860 -0.16000
B 	B 	0.02550 0.03665 0.28370 1.47500
H 	H 	0.03100 0.04700 0.37300 -0.54700
Mn	Mn	0.13631 0.12910 0.05550 1.31900
N 	N 	0.12722 0.13264 0.85890 -0.25600
C 	C 	0.09600 0.13970 0.80490 0.07800
H 	H 	0.09470 0.13900 0.71120 0.00700
C 	C 	0.06270 0.14880 0.87670 -0.16700
C 	C 	0.02900 0.15050 0.80220 0.07100
H 	H 	0.02870 0.14680 0.70930 0.00500
C 	C 	0.99650 0.15780 0.87200 -0.16500
H 	H 	0.97420 0.15850 0.82470 0.09200
C 	C 	0.99580 0.16400 0.00800 0.13100
H 	H 	0.97340 0.16930 0.05100 -0.00500
C 	C 	0.02810 0.16260 0.07970 -0.26600
H 	H 	0.02750 0.16660 0.17240 0.13200
C 	C 	0.06180 0.15520 0.01670 0.26200
O 	O 	0.09271 0.15567 0.09230 -0.44600
N 	N 	0.18045 0.10064 0.99390 -0.25600
C 	C 	0.20709 0.08930 0.07020 0.08800
H 	H 	0.22640 0.07660 0.02850 -0.00100
C 	C 	0.20980 0.09430 0.21380 -0.22500
C 	C 	0.24260 0.08460 0.27750 0.15100
H 	H 	0.26130 0.07310 0.22790 -0.02600
C 	C 	0.24820 0.09150 0.41280 -0.26300
H 	H 	0.27020 0.08460 0.45520 0.12000
C 	C 	0.22050 0.10880 0.48300 0.21700
H 	H 	0.22390 0.11380 0.57430 -0.05400
C 	C 	0.18840 0.11880 0.42340 -0.33500
H 	H 	0.17020 0.13050 0.47470 0.15700
C 	C 	0.18150 0.11200 0.28730 0.32100
O 	O 	0.14980 0.12374 0.23670 -0.46800
C 	C 	0.16030 0.12330 0.78020 -0.08300
H 	H 	0.17640 0.14480 0.77300 0.04700
H 	H 	0.15320 0.11570 0.68990 0.05300
C 	C 	0.18050 0.09250 0.84840 -0.08100
H 	H 	0.16810 0.06900 0.83110 0.04700
H 	H 	0.20570 0.09090 0.81500 0.05400
N 	N 	0.55269 0.53764 0.54640 -0.16500
N 	N 	0.55489 0.54872 0.67960 -0.37400
C 	C 	0.58055 0.55472 0.48920 0.11800
H 	H 	0.58610 0.55220 0.39800 -0.02200
C 	C 	0.58366 0.57109 0.69180 0.17700
H 	H 	0.59120 0.58180 0.77270 -0.04000
N 	N 	0.60064 0.57647 0.57350 -0.24500
N 	N 	0.47314 0.53745 0.61310 -0.20100
N 	N 	0.48715 0.55031 0.73160 -0.36900
C 	C 	0.44150 0.55419 0.59850 0.11300
H 	H 	0.42600 0.55040 0.52480 -0.02100
C 	C 	0.46272 0.57404 0.78020 0.19100
H 	H 	0.46560 0.58690 0.86110 -0.04600
N 	N 	0.43330 0.57748 0.69950 -0.24300
N 	N 	0.51412 0.47365 0.67800 -0.19200
N 	N 	0.52421 0.49427 0.78820 -0.38100
C 	C 	0.51670 0.43938 0.72110 0.11300
H 	H 	0.51100 0.41910 0.66680 -0.01100
C 	C 	0.53259 0.47069 0.88760 0.18400
H 	H 	0.54050 0.47780 0.97310 -0.04800
N 	N 	0.52807 0.43564 0.84860 -0.15900
B 	B 	0.52550 0.53665 0.78370 1.49400
H 	H 	0.53100 0.54700 0.87300 -0.55000
Mn	Mn	0.63631 0.62910 0.55550 1.32100
N 	N 	0.62722 0.63264 0.35890 -0.25900
C 	C 	0.59600 0.63970 0.30490 0.08400
H 	H 	0.59470 0.63900 0.21120 0.00400
C 	C 	0.56270 0.64880 0.37670 -0.18100
C 	C 	0.52900 0.65050 0.30220 0.09300
H 	H 	0.52870 0.64680 0.20930 -0.00200
C 	C 	0.49650 0.65780 0.37200 -0.19100
H 	H 	0.47420 0.65850 0.32470 0.09900
C 	C 	0.49580 0.66400 0.50800 0.14200
H 	H 	0.47340 0.66930 0.55100 -0.01000
C 	C 	0.52810 0.66260 0.57970 -0.26900
H 	H 	0.52750 0.66660 0.67240 0.13500
C 	C 	0.56180 0.65520 0.51670 0.27200
O 	O 	0.59271 0.65567 0.59230 -0.44700
N 	N 	0.68045 0.60064 0.49390 -0.26100
C 	C 	0.70709 0.58930 0.57020 0.10100
H 	H 	0.72640 0.57660 0.52850 -0.00300
C 	C 	0.70980 0.59430 0.71380 -0.24000
C 	C 	0.74260 0.58460 0.77750 0.17400
H 	H 	0.76130 0.57310 0.72790 -0.03300
C 	C 	0.74820 0.59150 0.91280 -0.29300
H 	H 	0.77020 0.58460 0.95520 0.13300
C 	C 	0.72050 0.60880 0.98300 0.25900
H 	H 	0.72390 0.61380 0.07430 -0.07400
C 	C 	0.68840 0.61880 0.92340 -0.36300
H 	H 	0.67020 0.63050 0.97470 0.16900
C 	C 	0.68150 0.61200 0.78730 0.33600
O 	O 	0.64980 0.62374 0.73670 -0.47100
C 	C 	0.66030 0.62330 0.28020 -0.08100
H 	H 	0.67640 0.64480 0.27300 0.04600
H 	H 	0.65320 0.61570 0.18990 0.05100
C 	C 	0.68050 0.59250 0.34840 -0.08200
H 	H 	0.66810 0.56900 0.33110 0.04700
H 	H 	0.70570 0.59090 0.31500 0.05400
N 	N 	0.44731 0.96236 0.54640 -0.16400
N 	N 	0.44511 0.95128 0.67960 -0.37500
C 	C 	0.41945 0.94528 0.48920 0.11900
H 	H 	0.41390 0.94780 0.39800 -0.02100
C 	C 	0.41634 0.92891 0.69180 0.17800
H 	H 	0.40880 0.91820 0.77270 -0.04000
N 	N 	0.39936 0.92353 0.57350 -0.24500
N 	N 	0.52686 0.96255 0.61310 -0.20000
N 	N 	0.51285 0.94969 0.73160 -0.37000
C 	C 	0.55850 0.94581 0.59850 0.11300
H 	H 	0.57400 0.94960 0.52480 -0.02100
C 	C 	0.53728 0.92596 0.78020 0.19200
H 	H 	0.53440 0.91310 0.86110 -0.04700
N 	N 	0.56670 0.92252 0.69950 -0.24300
N 	N 	0.48588 0.02635 0.67800 -0.19300
N 	N 	0.47579 0.00573 0.78820 -0.38600
C 	C 	0.48330 0.06062 0.72110 0.11300
H 	H 	0.48900 0.08090 0.66680 -0.01100
C 	C 	0.46741 0.02931 0.88760 0.18400
H 	H 	0.45950 0.02220 0.97310 -0.05000
N 	N 	0.47193 0.06436 0.84860 -0.15900
B 	B 	0.47450 0.96335 0.78370 1.50400
H 	H 	0.46900 0.95300 0.87300 -0.55300
Mn	Mn	0.36369 0.87090 0.55550 1.32100
N 	N 	0.37278 0.86736 0.35890 -0.25900
C 	C 	0.40400 0.86030 0.30490 0.08400
H 	H 	0.40530 0.86100 0.21120 0.00500
C 	C 	0.43730 0.85120 0.37670 -0.18100
C 	C 	0.47100 0.84950 0.30220 0.09300
H 	H 	0.47130 0.85320 0.20930 -0.00200
C 	C 	0.50350 0.84220 0.37200 -0.19100
H 	H 	0.52580 0.84150 0.32470 0.09900
C 	C 	0.50420 0.83600 0.50800 0.14200
H 	H 	0.52660 0.83070 0.55100 -0.01000
C 	C 	0.47190 0.83740 0.57970 -0.26900
H 	H 	0.47250 0.83340 0.67240 0.13500
C 	C 	0.43820 0.84480 0.51670 0.27200
O 	O 	0.40729 0.84433 0.59230 -0.44700
N 	N 	0.31955 0.89936 0.49390 -0.26100
C 	C 	0.29291 0.91070 0.57020 0.10100
H 	H 	0.27360 0.92340 0.52850 -0.00300
C 	C 	0.29020 0.90570 0.71380 -0.24000
C 	C 	0.25740 0.91540 0.77750 0.17400
H 	H 	0.23870 0.92690 0.72790 -0.03200
C 	C 	0.25180 0.90850 0.91280 -0.29200
H 	H 	0.22980 0.91540 0.95520 0.13300
C 	C 	0.27950 0.89120 0.98300 0.25900
H 	H 	0.27610 0.88620 0.07430 -0.07300
C 	C 	0.31160 0.88120 0.92340 -0.36200
H 	H 	0.32980 0.86950 0.97470 0.16900
C 	C 	0.31850 0.88800 0.78730 0.33600
O 	O 	0.35020 0.87626 0.73670 -0.47100
C 	C 	0.33970 0.87670 0.28020 -0.08100
H 	H 	0.32360 0.85520 0.27300 0.04600
H 	H 	0.34680 0.88430 0.18990 0.05100
C 	C 	0.31950 0.90750 0.34840 -0.08200
H 	H 	0.33190 0.93100 0.33110 0.04800
H 	H 	0.29430 0.90910 0.31500 0.05400
N 	N 	0.94731 0.46236 0.04640 -0.16900
N 	N 	0.94511 0.45128 0.17960 -0.37600
C 	C 	0.91945 0.44528 0.98920 0.13100
H 	H 	0.91390 0.44780 0.89800 -0.02400
C 	C 	0.91634 0.42891 0.19180 0.17700
H 	H 	0.90880 0.41820 0.27270 -0.04000
N 	N 	0.89936 0.42353 0.07350 -0.25000
N 	N 	0.02686 0.46255 0.11310 -0.20300
N 	N 	0.01285 0.44969 0.23160 -0.37300
C 	C 	0.05850 0.44581 0.09850 0.11200
H 	H 	0.07400 0.44960 0.02480 -0.02300
C 	C 	0.03728 0.42596 0.28020 0.19100
H 	H 	0.03440 0.41310 0.36110 -0.04900
N 	N 	0.06670 0.42252 0.19950 -0.24300
N 	N 	0.98588 0.52635 0.17800 -0.19100
N 	N 	0.97579 0.50573 0.28820 -0.38200
C 	C 	0.98330 0.56062 0.22110 0.11400
H 	H 	0.98900 0.58090 0.16680 -0.01100
C 	C 	0.96741 0.52931 0.38760 0.18400
H 	H 	0.95950 0.52220 0.47310 -0.04900
N 	N 	0.97193 0.56436 0.34860 -0.15900
B 	B 	0.97450 0.46335 0.28370 1.50300
H 	H 	0.96900 0.45300 0.37300 -0.55300
Mn	Mn	0.86369 0.37090 0.05550 1.31900
N 	N 	0.87278 0.36736 0.85890 -0.25700
C 	C 	0.90400 0.36030 0.80490 0.07900
H 	H 	0.90530 0.36100 0.71120 0.00800
C 	C 	0.93730 0.35120 0.87670 -0.16800
C 	C 	0.97100 0.34950 0.80220 0.08700
H 	H 	0.97130 0.35320 0.70930 0.00300
C 	C 	0.00350 0.34220 0.87200 -0.17600
H 	H 	0.02580 0.34150 0.82470 0.09400
C 	C 	0.00420 0.33600 0.00800 0.11300
H 	H 	0.02660 0.33070 0.05100 -0.00100
C 	C 	0.97190 0.33740 0.07970 -0.24400
H 	H 	0.97250 0.33340 0.17240 0.12800
C 	C 	0.93820 0.34480 0.01670 0.25700
O 	O 	0.90729 0.34433 0.09230 -0.44500
N 	N 	0.81955 0.39936 0.99390 -0.25600
C 	C 	0.79291 0.41070 0.07020 0.08800
H 	H 	0.77360 0.42340 0.02850 -0.00100
C 	C 	0.79020 0.40570 0.21380 -0.22400
C 	C 	0.75740 0.41540 0.27750 0.15200
H 	H 	0.73870 0.42690 0.22790 -0.02600
C 	C 	0.75180 0.40850 0.41280 -0.26300
H 	H 	0.72980 0.41540 0.45520 0.12000
C 	C 	0.77950 0.39120 0.48300 0.21700
H 	H 	0.77610 0.38620 0.57430 -0.05400
C 	C 	0.81160 0.38120 0.42340 -0.33500
H 	H 	0.82980 0.36950 0.47470 0.15700
C 	C 	0.81850 0.38800 0.28730 0.32100
O 	O 	0.85020 0.37626 0.23670 -0.46700
C 	C 	0.83970 0.37670 0.78020 -0.08200
H 	H 	0.82360 0.35520 0.77300 0.04700
H 	H 	0.84680 0.38430 0.68990 0.05300
C 	C 	0.81950 0.40750 0.84840 -0.08200
H 	H 	0.83190 0.43100 0.83110 0.04800
H 	H 	0.79430 0.40910 0.81500 0.05500
N 	N 	0.71236 0.30269 0.29640 -0.16500
N 	N 	0.70128 0.30489 0.42960 -0.37500
C 	C 	0.69528 0.33055 0.23920 0.11800
H 	H 	0.69780 0.33610 0.14800 -0.02200
C 	C 	0.67891 0.33366 0.44180 0.17700
H 	H 	0.66820 0.34120 0.52270 -0.04000
N 	N 	0.67353 0.35064 0.32350 -0.24500
N 	N 	0.71255 0.22314 0.36310 -0.20100
N 	N 	0.69969 0.23715 0.48160 -0.36900
C 	C 	0.69581 0.19150 0.34850 0.11300
H 	H 	0.69960 0.17600 0.27480 -0.02100
C 	C 	0.67596 0.21272 0.53020 0.19100
H 	H 	0.66310 0.21560 0.61110 -0.04700
N 	N 	0.67252 0.18330 0.44950 -0.24300
N 	N 	0.77635 0.26412 0.42800 -0.19200
N 	N 	0.75573 0.27421 0.53820 -0.38200
C 	C 	0.81062 0.26670 0.47110 0.11300
H 	H 	0.83090 0.26100 0.41680 -0.01100
C 	C 	0.77931 0.28259 0.63760 0.18300
H 	H 	0.77220 0.29050 0.72310 -0.04900
N 	N 	0.81436 0.27807 0.59860 -0.15900
B 	B 	0.71335 0.27550 0.53370 1.49400
H 	H 	0.70300 0.28100 0.62300 -0.55100
Mn	Mn	0.62090 0.38631 0.30550 1.32100
N 	N 	0.61736 0.37722 0.10890 -0.25600
C 	C 	0.61030 0.34600 0.05490 0.07600
H 	H 	0.61100 0.34470 0.96120 0.01000
C 	C 	0.60120 0.31270 0.12670 -0.17500
C 	C 	0.59950 0.27900 0.05220 0.08500
H 	H 	0.60320 0.27870 0.95930 0.00300
C 	C 	0.59220 0.24650 0.12200 -0.18500
H 	H 	0.59150 0.22420 0.07470 0.09700
C 	C 	0.58600 0.24580 0.25800 0.13700
H 	H 	0.58070 0.22340 0.30100 -0.00800
C 	C 	0.58740 0.27810 0.32970 -0.26500
H 	H 	0.58340 0.27750 0.42240 0.13300
C 	C 	0.59480 0.31180 0.26670 0.26900
O 	O 	0.59433 0.34271 0.34230 -0.44700
N 	N 	0.64936 0.43045 0.24390 -0.26100
C 	C 	0.66070 0.45709 0.32020 0.09500
H 	H 	0.67340 0.47640 0.27850 -0.00200
C 	C 	0.65570 0.45980 0.46380 -0.22800
C 	C 	0.66540 0.49260 0.52750 0.15400
H 	H 	0.67690 0.51130 0.47790 -0.02600
C 	C 	0.65850 0.49820 0.66280 -0.26400
H 	H 	0.66540 0.52020 0.70520 0.12100
C 	C 	0.64120 0.47050 0.73300 0.21800
H 	H 	0.63620 0.47390 0.82430 -0.05300
C 	C 	0.63120 0.43840 0.67340 -0.33600
H 	H 	0.61950 0.42020 0.72470 0.15700
C 	C 	0.63800 0.43150 0.53730 0.32200
O 	O 	0.62626 0.39980 0.48670 -0.46800
C 	C 	0.62670 0.41030 0.03020 -0.09200
H 	H 	0.60520 0.42640 0.02300 0.04900
H 	H 	0.63430 0.40320 0.93990 0.05800
C 	C 	0.65750 0.43050 0.09840 -0.07600
H 	H 	0.68100 0.41810 0.08110 0.04500
H 	H 	0.65910 0.45570 0.06500 0.05100
N 	N 	0.21236 0.80269 0.79640 -0.16500
N 	N 	0.20128 0.80489 0.92960 -0.37000
C 	C 	0.19528 0.83055 0.73920 0.11800
H 	H 	0.19780 0.83610 0.64800 -0.02200
C 	C 	0.17891 0.83366 0.94180 0.19200
H 	H 	0.16820 0.84120 0.02270 -0.05200
N 	N 	0.17353 0.85064 0.82350 -0.24800
N 	N 	0.21255 0.72314 0.86310 -0.20100
N 	N 	0.19969 0.73715 0.98160 -0.35700
C 	C 	0.19581 0.69150 0.84850 0.11400
H 	H 	0.19960 0.67600 0.77480 -0.02100
C 	C 	0.17596 0.71272 0.03020 0.17200
H 	H 	0.16310 0.71560 0.11110 -0.04200
N 	N 	0.17252 0.68330 0.94950 -0.23600
N 	N 	0.27635 0.76412 0.92800 -0.19100
N 	N 	0.25573 0.77421 0.03820 -0.38100
C 	C 	0.31062 0.76670 0.97110 0.12200
H 	H 	0.33090 0.76100 0.91680 -0.01300
C 	C 	0.27931 0.78259 0.13760 0.18100
H 	H 	0.27220 0.79050 0.22310 -0.04900
N 	N 	0.31436 0.77807 0.09860 -0.16400
B 	B 	0.21335 0.77550 0.03370 1.46900
H 	H 	0.20300 0.78100 0.12300 -0.54400
Mn	Mn	0.12090 0.88631 0.80550 1.32000
N 	N 	0.11736 0.87722 0.60890 -0.25900
C 	C 	0.11030 0.84600 0.55490 0.08400
H 	H 	0.11100 0.84470 0.46120 0.00500
C 	C 	0.10120 0.81270 0.62670 -0.18100
C 	C 	0.09950 0.77900 0.55220 0.09300
H 	H 	0.10320 0.77870 0.45930 -0.00200
C 	C 	0.09220 0.74650 0.62200 -0.19100
H 	H 	0.09150 0.72420 0.57470 0.09900
C 	C 	0.08600 0.74580 0.75800 0.14300
H 	H 	0.08070 0.72340 0.80100 -0.01000
C 	C 	0.08740 0.77810 0.82970 -0.27000
H 	H 	0.08340 0.77750 0.92240 0.13700
C 	C 	0.09480 0.81180 0.76670 0.27300
O 	O 	0.09433 0.84271 0.84230 -0.44700
N 	N 	0.14936 0.93045 0.74390 -0.25500
C 	C 	0.16070 0.95709 0.82020 0.07100
H 	H 	0.17340 0.97640 0.77850 0.00900
C 	C 	0.15570 0.95980 0.96380 -0.17300
C 	C 	0.16540 0.99260 0.02750 0.08700
H 	H 	0.17690 0.01130 0.97790 -0.00300
C 	C 	0.15850 0.99820 0.16280 -0.19300
H 	H 	0.16540 0.02020 0.20520 0.09100
C 	C 	0.14120 0.97050 0.23300 0.15600
H 	H 	0.13620 0.97390 0.32430 -0.03100
C 	C 	0.13120 0.93840 0.17340 -0.28300
H 	H 	0.11950 0.92020 0.22470 0.13700
C 	C 	0.13800 0.93150 0.03730 0.27000
O 	O 	0.12626 0.89980 0.98670 -0.44900
C 	C 	0.12670 0.91030 0.53020 -0.08200
H 	H 	0.10520 0.92640 0.52300 0.04700
H 	H 	0.13430 0.90320 0.43990 0.05300
C 	C 	0.15750 0.93050 0.59840 -0.08400
H 	H 	0.18100 0.91810 0.58110 0.04900
H 	H 	0.15910 0.95570 0.56500 0.05500
N 	N 	0.78764 0.69731 0.79640 -0.16500
N 	N 	0.79872 0.69511 0.92960 -0.37000
C 	C 	0.80472 0.66945 0.73920 0.11800
H 	H 	0.80220 0.66390 0.64800 -0.02200
C 	C 	0.82109 0.66634 0.94180 0.19200
H 	H 	0.83180 0.65880 0.02270 -0.05200
N 	N 	0.82647 0.64936 0.82350 -0.24800
N 	N 	0.78745 0.77686 0.86310 -0.20100
N 	N 	0.80031 0.76285 0.98160 -0.35700
C 	C 	0.80419 0.80850 0.84850 0.11400
H 	H 	0.80040 0.82400 0.77480 -0.02100
C 	C 	0.82404 0.78728 0.03020 0.17200
H 	H 	0.83690 0.78440 0.11110 -0.04200
N 	N 	0.82748 0.81670 0.94950 -0.23600
N 	N 	0.72365 0.73588 0.92800 -0.19100
N 	N 	0.74427 0.72579 0.03820 -0.38100
C 	C 	0.68938 0.73330 0.97110 0.12200
H 	H 	0.66910 0.73900 0.91680 -0.01300
C 	C 	0.72069 0.71741 0.13760 0.18100
H 	H 	0.72780 0.70950 0.22310 -0.04900
N 	N 	0.68564 0.72193 0.09860 -0.16400
B 	B 	0.78665 0.72450 0.03370 1.46900
H 	H 	0.79700 0.71900 0.12300 -0.54400
Mn	Mn	0.87910 0.61369 0.80550 1.32000
N 	N 	0.88264 0.62278 0.60890 -0.25900
C 	C 	0.88970 0.65400 0.55490 0.08400
H 	H 	0.88900 0.65530 0.46120 0.00500
C 	C 	0.89880 0.68730 0.62670 -0.18100
C 	C 	0.90050 0.72100 0.55220 0.09400
H 	H 	0.89680 0.72130 0.45930 -0.00100
C 	C 	0.90780 0.75350 0.62200 -0.19100
H 	H 	0.90850 0.77580 0.57470 0.09900
C 	C 	0.91400 0.75420 0.75800 0.14300
H 	H 	0.91930 0.77660 0.80100 -0.00900
C 	C 	0.91260 0.72190 0.82970 -0.26900
H 	H 	0.91660 0.72250 0.92240 0.13700
C 	C 	0.90520 0.68820 0.76670 0.27300
O 	O 	0.90567 0.65729 0.84230 -0.44600
N 	N 	0.85064 0.56955 0.74390 -0.25500
C 	C 	0.83930 0.54291 0.82020 0.07000
H 	H 	0.82660 0.52360 0.77850 0.00800
C 	C 	0.84430 0.54020 0.96380 -0.17300
C 	C 	0.83460 0.50740 0.02750 0.08300
H 	H 	0.82310 0.48870 0.97790 0.00200
C 	C 	0.84150 0.50180 0.16280 -0.20700
H 	H 	0.83460 0.47980 0.20520 0.10000
C 	C 	0.85880 0.52950 0.23300 0.16500
H 	H 	0.86380 0.52610 0.32430 -0.03600
C 	C 	0.86880 0.56160 0.17340 -0.28900
H 	H 	0.88050 0.57980 0.22470 0.13900
C 	C 	0.86200 0.56850 0.03730 0.27300
O 	O 	0.87374 0.60020 0.98670 -0.44900
C 	C 	0.87330 0.58970 0.53020 -0.08200
H 	H 	0.89480 0.57360 0.52300 0.04700
H 	H 	0.86570 0.59680 0.43990 0.05300
C 	C 	0.84250 0.56950 0.59840 -0.08400
H 	H 	0.81900 0.58190 0.58110 0.04900
H 	H 	0.84090 0.54430 0.56500 0.05400
N 	N 	0.28764 0.19731 0.29640 -0.16500
N 	N 	0.29872 0.19511 0.42960 -0.37500
C 	C 	0.30472 0.16945 0.23920 0.11800
H 	H 	0.30220 0.16390 0.14800 -0.02200
C 	C 	0.32109 0.16634 0.44180 0.17700
H 	H 	0.33180 0.15880 0.52270 -0.04000
N 	N 	0.32647 0.14936 0.32350 -0.24500
N 	N 	0.28745 0.27686 0.36310 -0.20100
N 	N 	0.30031 0.26285 0.48160 -0.36900
C 	C 	0.30419 0.30850 0.34850 0.11300
H 	H 	0.30040 0.32400 0.27480 -0.02100
C 	C 	0.32404 0.28728 0.53020 0.19100
H 	H 	0.33690 0.28440 0.61110 -0.04700
N 	N 	0.32748 0.31670 0.44950 -0.24300
N 	N 	0.22365 0.23588 0.42800 -0.19200
N 	N 	0.24427 0.22579 0.53820 -0.38200
C 	C 	0.18938 0.23330 0.47110 0.11300
H 	H 	0.16910 0.23900 0.41680 -0.01100
C 	C 	0.22069 0.21741 0.63760 0.18300
H 	H 	0.22780 0.20950 0.72310 -0.04900
N 	N 	0.18564 0.22193 0.59860 -0.15900
B 	B 	0.28665 0.22450 0.53370 1.49400
H 	H 	0.29700 0.21900 0.62300 -0.55100
Mn	Mn	0.37910 0.11369 0.30550 1.32100
N 	N 	0.38264 0.12278 0.10890 -0.25600
C 	C 	0.38970 0.15400 0.05490 0.07600
H 	H 	0.38900 0.15530 0.96120 0.01000
C 	C 	0.39880 0.18730 0.12670 -0.17500
C 	C 	0.40050 0.22100 0.05220 0.08500
H 	H 	0.39680 0.22130 0.95930 0.00300
C 	C 	0.40780 0.25350 0.12200 -0.18500
H 	H 	0.40850 0.27580 0.07470 0.09700
C 	C 	0.41400 0.25420 0.25800 0.13700
H 	H 	0.41930 0.27660 0.30100 -0.00800
C 	C 	0.41260 0.22190 0.32970 -0.26500
H 	H 	0.41660 0.22250 0.42240 0.13300
C 	C 	0.40520 0.18820 0.26670 0.26900
O 	O 	0.40567 0.15729 0.34230 -0.44700
N 	N 	0.35064 0.06955 0.24390 -0.26100
C 	C 	0.33930 0.04291 0.32020 0.09400
H 	H 	0.32660 0.02360 0.27850 -0.00300
C 	C 	0.34430 0.04020 0.46380 -0.22700
C 	C 	0.33460 0.00740 0.52750 0.14800
H 	H 	0.32310 0.98870 0.47790 -0.02000
C 	C 	0.34150 0.00180 0.66280 -0.27700
H 	H 	0.33460 0.97980 0.70520 0.12900
C 	C 	0.35880 0.02950 0.73300 0.22600
H 	H 	0.36380 0.02610 0.82430 -0.05700
C 	C 	0.36880 0.06160 0.67340 -0.34100
H 	H 	0.38050 0.07980 0.72470 0.15900
C 	C 	0.36200 0.06850 0.53730 0.32400
O 	O 	0.37374 0.10020 0.48670 -0.46800
C 	C 	0.37330 0.08970 0.03020 -0.09300
H 	H 	0.39480 0.07360 0.02300 0.04800
H 	H 	0.36570 0.09680 0.93990 0.05800
C 	C 	0.34250 0.06950 0.09840 -0.07600
H 	H 	0.31900 0.08190 0.08110 0.04500
H 	H 	0.34090 0.04430 0.06500 0.05000
N 	N 	0.94731 0.96236 0.95360 -0.15700
N 	N 	0.94511 0.95128 0.82040 -0.37600
C 	C 	0.91945 0.94528 0.01080 0.10500
H 	H 	0.91390 0.94780 0.10200 -0.01700
C 	C 	0.91634 0.92891 0.80820 0.18000
H 	H 	0.90880 0.91820 0.72730 -0.04000
N 	N 	0.89936 0.92353 0.92650 -0.24000
N 	N 	0.02686 0.96255 0.88690 -0.19900
N 	N 	0.01285 0.94969 0.76840 -0.37400
C 	C 	0.05850 0.94581 0.90150 0.11300
H 	H 	0.07400 0.94960 0.97520 -0.01800
C 	C 	0.03728 0.92596 0.71980 0.19200
H 	H 	0.03440 0.91310 0.63890 -0.04900
N 	N 	0.06670 0.92252 0.80050 -0.24300
N 	N 	0.98588 0.02635 0.82200 -0.19000
N 	N 	0.97579 0.00573 0.71180 -0.38600
C 	C 	0.98330 0.06062 0.77890 0.11400
H 	H 	0.98900 0.08090 0.83320 -0.00900
C 	C 	0.96741 0.02931 0.61240 0.18500
H 	H 	0.95950 0.02220 0.52690 -0.05100
N 	N 	0.97193 0.06436 0.65140 -0.15900
B 	B 	0.97450 0.96335 0.71630 1.51400
H 	H 	0.96900 0.95300 0.62700 -0.55600
Mn	Mn	0.86369 0.87090 0.94450 1.32300
N 	N 	0.87278 0.86736 0.14110 -0.26300
C 	C 	0.90400 0.86030 0.19510 0.09500
H 	H 	0.90530 0.86100 0.28880 0.00200
C 	C 	0.93730 0.85120 0.12330 -0.20800
C 	C 	0.97100 0.84950 0.19780 0.13100
H 	H 	0.97130 0.85320 0.29070 -0.01200
C 	C 	0.00350 0.84220 0.12800 -0.24200
H 	H 	0.02580 0.84150 0.17530 0.11400
C 	C 	0.00420 0.83600 0.99200 0.18000
H 	H 	0.02660 0.83070 0.94900 -0.02300
C 	C 	0.97190 0.83740 0.92030 -0.29100
H 	H 	0.97250 0.83340 0.82760 0.14400
C 	C 	0.93820 0.84480 0.98330 0.29800
O 	O 	0.90729 0.84433 0.90770 -0.45100
N 	N 	0.81955 0.89936 0.00610 -0.26500
C 	C 	0.79291 0.91070 0.92980 0.10300
H 	H 	0.77360 0.92340 0.97150 -0.00100
C 	C 	0.79020 0.90570 0.78620 -0.23100
C 	C 	0.75740 0.91540 0.72250 0.15700
H 	H 	0.73870 0.92690 0.77210 -0.02700
C 	C 	0.75180 0.90850 0.58720 -0.26700
H 	H 	0.72980 0.91540 0.54480 0.12200
C 	C 	0.77950 0.89120 0.51700 0.22100
H 	H 	0.77610 0.88620 0.42570 -0.05500
C 	C 	0.81160 0.88120 0.57660 -0.33900
H 	H 	0.82980 0.86950 0.52530 0.15800
C 	C 	0.81850 0.88800 0.71270 0.32400
O 	O 	0.85020 0.87626 0.76330 -0.46800
C 	C 	0.83970 0.87670 0.21980 -0.08200
H 	H 	0.82360 0.85520 0.22700 0.04600
H 	H 	0.84680 0.88430 0.31010 0.05300
C 	C 	0.81950 0.90750 0.15160 -0.08200
H 	H 	0.83190 0.93100 0.16890 0.04900
H 	H 	0.79430 0.90910 0.18500 0.05400
N 	N 	0.44731 0.46236 0.45360 -0.16500
N 	N 	0.44511 0.45128 0.32040 -0.37500
C 	C 	0.41945 0.44528 0.51080 0.11800
H 	H 	0.41390 0.44780 0.60200 -0.02100
C 	C 	0.41634 0.42891 0.30820 0.17700
H 	H 	0.40880 0.41820 0.22730 -0.04100
N 	N 	0.39936 0.42353 0.42650 -0.24500
N 	N 	0.52686 0.46255 0.38690 -0.20100
N 	N 	0.51285 0.44969 0.26840 -0.37000
C 	C 	0.55850 0.44581 0.40150 0.11300
H 	H 	0.57400 0.44960 0.47520 -0.02100
C 	C 	0.53728 0.42596 0.21980 0.19000
H 	H 	0.53440 0.41310 0.13890 -0.04800
N 	N 	0.56670 0.42252 0.30050 -0.24300
N 	N 	0.48588 0.52635 0.32200 -0.19200
N 	N 	0.47579 0.50573 0.21180 -0.38200
C 	C 	0.48330 0.56062 0.27890 0.11300
H 	H 	0.48900 0.58090 0.33320 -0.01100
C 	C 	0.46741 0.52931 0.11240 0.18300
H 	H 	0.45950 0.52220 0.02690 -0.05100
N 	N 	0.47193 0.56436 0.15140 -0.16000
B 	B 	0.47450 0.46335 0.21630 1.49400
H 	H 	0.46900 0.45300 0.12700 -0.55100
Mn	Mn	0.36369 0.37090 0.44450 1.32100
N 	N 	0.37278 0.36736 0.64110 -0.25900
C 	C 	0.40400 0.36030 0.69510 0.08300
H 	H 	0.40530 0.36100 0.78880 0.00600
C 	C 	0.43730 0.35120 0.62330 -0.18000
C 	C 	0.47100 0.34950 0.69780 0.09200
H 	H 	0.47130 0.35320 0.79070 -0.00000
C 	C 	0.50350 0.34220 0.62800 -0.19000
H 	H 	0.52580 0.34150 0.67530 0.09900
C 	C 	0.50420 0.33600 0.49200 0.14100
H 	H 	0.52660 0.33070 0.44900 -0.00900
C 	C 	0.47190 0.33740 0.42030 -0.26900
H 	H 	0.47250 0.33340 0.32760 0.13400
C 	C 	0.43820 0.34480 0.48330 0.27200
O 	O 	0.40729 0.34433 0.40770 -0.44700
N 	N 	0.31955 0.39936 0.50610 -0.26000
C 	C 	0.29291 0.41070 0.42980 0.09300
H 	H 	0.27360 0.42340 0.47150 -0.00100
C 	C 	0.29020 0.40570 0.28620 -0.22500
C 	C 	0.25740 0.41540 0.22250 0.14900
H 	H 	0.23870 0.42690 0.27210 -0.02500
C 	C 	0.25180 0.40850 0.08720 -0.25900
H 	H 	0.22980 0.41540 0.04480 0.11800
C 	C 	0.27950 0.39120 0.01700 0.21000
H 	H 	0.27610 0.38620 0.92570 -0.05000
C 	C 	0.31160 0.38120 0.07660 -0.33100
H 	H 	0.32980 0.36950 0.02530 0.15500
C 	C 	0.31850 0.38800 0.21270 0.31900
O 	O 	0.35020 0.37626 0.26330 -0.46700
C 	C 	0.33970 0.37670 0.71980 -0.08300
H 	H 	0.32360 0.35520 0.72700 0.04700
H 	H 	0.34680 0.38430 0.81010 0.05400
C 	C 	0.31950 0.40750 0.65160 -0.08200
H 	H 	0.33190 0.43100 0.66890 0.04800
H 	H 	0.29430 0.40910 0.68500 0.05400
N 	N 	0.55269 0.03764 0.45360 -0.16600
N 	N 	0.55489 0.04872 0.32040 -0.37400
C 	C 	0.58055 0.05472 0.51080 0.11700
H 	H 	0.58610 0.05220 0.60200 -0.02200
C 	C 	0.58366 0.07109 0.30820 0.17600
H 	H 	0.59120 0.08180 0.22730 -0.04100
N 	N 	0.60064 0.07647 0.42650 -0.24500
N 	N 	0.47314 0.03745 0.38690 -0.20200
N 	N 	0.48715 0.05031 0.26840 -0.36900
C 	C 	0.44150 0.05419 0.40150 0.11200
H 	H 	0.42600 0.05040 0.47520 -0.02200
C 	C 	0.46272 0.07404 0.21980 0.18900
H 	H 	0.46560 0.08690 0.13890 -0.04800
N 	N 	0.43330 0.07748 0.30050 -0.24300
N 	N 	0.51412 0.97365 0.32200 -0.19100
N 	N 	0.52421 0.99427 0.21180 -0.37800
C 	C 	0.51670 0.93938 0.27890 0.11300
H 	H 	0.51100 0.91910 0.33320 -0.01100
C 	C 	0.53259 0.97069 0.11240 0.18300
H 	H 	0.54050 0.97780 0.02690 -0.04900
N 	N 	0.52807 0.93564 0.15140 -0.16000
B 	B 	0.52550 0.03665 0.21630 1.48400
H 	H 	0.53100 0.04700 0.12700 -0.54900
Mn	Mn	0.63631 0.12910 0.44450 1.32100
N 	N 	0.62722 0.13264 0.64110 -0.25900
C 	C 	0.59600 0.13970 0.69510 0.08300
H 	H 	0.59470 0.13900 0.78880 0.00600
C 	C 	0.56270 0.14880 0.62330 -0.18000
C 	C 	0.52900 0.15050 0.69780 0.09200
H 	H 	0.52870 0.14680 0.79070 -0.00000
C 	C 	0.49650 0.15780 0.62800 -0.19000
H 	H 	0.47420 0.15850 0.67530 0.09900
C 	C 	0.49580 0.16400 0.49200 0.14100
H 	H 	0.47340 0.16930 0.44900 -0.00900
C 	C 	0.52810 0.16260 0.42030 -0.26900
H 	H 	0.52750 0.16660 0.32760 0.13400
C 	C 	0.56180 0.15520 0.48330 0.27200
O 	O 	0.59271 0.15567 0.40770 -0.44700
N 	N 	0.68045 0.10064 0.50610 -0.26000
C 	C 	0.70709 0.08930 0.42980 0.09400
H 	H 	0.72640 0.07660 0.47150 -0.00100
C 	C 	0.70980 0.09430 0.28620 -0.22500
C 	C 	0.74260 0.08460 0.22250 0.15000
H 	H 	0.76130 0.07310 0.27210 -0.02500
C 	C 	0.74820 0.09150 0.08720 -0.25900
H 	H 	0.77020 0.08460 0.04480 0.11800
C 	C 	0.72050 0.10880 0.01700 0.21000
H 	H 	0.72390 0.11380 0.92570 -0.05000
C 	C 	0.68840 0.11880 0.07660 -0.33200
H 	H 	0.67020 0.13050 0.02530 0.15500
C 	C 	0.68150 0.11200 0.21270 0.31900
O 	O 	0.64980 0.12374 0.26330 -0.46700
C 	C 	0.66030 0.12330 0.71980 -0.08300
H 	H 	0.67640 0.14480 0.72700 0.04700
H 	H 	0.65320 0.11570 0.81010 0.05300
C 	C 	0.68050 0.09250 0.65160 -0.08100
H 	H 	0.66810 0.06900 0.66890 0.04700
H 	H 	0.70570 0.09090 0.68500 0.05300
N 	N 	0.05269 0.53764 0.95360 -0.16000
N 	N 	0.05489 0.54872 0.82040 -0.37300
C 	C 	0.08055 0.55472 0.01080 0.10300
H 	H 	0.08610 0.55220 0.10200 -0.01800
C 	C 	0.08366 0.57109 0.80820 0.17700
H 	H 	0.09120 0.58180 0.72730 -0.04000
N 	N 	0.10064 0.57647 0.92650 -0.24000
N 	N 	0.97314 0.53745 0.88690 -0.19800
N 	N 	0.98715 0.55031 0.76840 -0.36600
C 	C 	0.94150 0.55419 0.90150 0.11300
H 	H 	0.92600 0.55040 0.97520 -0.01800
C 	C 	0.96272 0.57404 0.71980 0.19100
H 	H 	0.96560 0.58690 0.63890 -0.04600
N 	N 	0.93330 0.57748 0.80050 -0.24300
N 	N 	0.01412 0.47365 0.82200 -0.19200
N 	N 	0.02421 0.49427 0.71180 -0.38100
C 	C 	0.01670 0.43938 0.77890 0.11300
H 	H 	0.01100 0.41910 0.83320 -0.01100
C 	C 	0.03259 0.47069 0.61240 0.18200
H 	H 	0.04050 0.47780 0.52690 -0.05000
N 	N 	0.02807 0.43564 0.65140 -0.16000
B 	B 	0.02550 0.53665 0.71630 1.48600
H 	H 	0.03100 0.54700 0.62700 -0.55000
Mn	Mn	0.13631 0.62910 0.94450 1.32300
N 	N 	0.12722 0.63264 0.14110 -0.26300
C 	C 	0.09600 0.63970 0.19510 0.09300
H 	H 	0.09470 0.63900 0.28880 0.00200
C 	C 	0.06270 0.64880 0.12330 -0.20600
C 	C 	0.02900 0.65050 0.19780 0.11300
H 	H 	0.02870 0.64680 0.29070 -0.01000
C 	C 	0.99650 0.65780 0.12800 -0.22700
H 	H 	0.97420 0.65850 0.17530 0.11100
C 	C 	0.99580 0.66400 0.99200 0.19400
H 	H 	0.97340 0.66930 0.94900 -0.02500
C 	C 	0.02810 0.66260 0.92030 -0.30900
H 	H 	0.02750 0.66660 0.82760 0.14700
C 	C 	0.06180 0.65520 0.98330 0.30100
O 	O 	0.09271 0.65567 0.90770 -0.45300
N 	N 	0.18045 0.60064 0.00610 -0.26600
C 	C 	0.20709 0.58930 0.92980 0.10300
H 	H 	0.22640 0.57660 0.97150 -0.00200
C 	C 	0.20980 0.59430 0.78620 -0.23100
C 	C 	0.24260 0.58460 0.72250 0.15700
H 	H 	0.26130 0.57310 0.77210 -0.02700
C 	C 	0.24820 0.59150 0.58720 -0.26800
H 	H 	0.27020 0.58460 0.54480 0.12200
C 	C 	0.22050 0.60880 0.51700 0.22100
H 	H 	0.22390 0.61380 0.42570 -0.05600
C 	C 	0.18840 0.61880 0.57660 -0.33900
H 	H 	0.17020 0.63050 0.52530 0.15800
C 	C 	0.18150 0.61200 0.71270 0.32400
O 	O 	0.14980 0.62374 0.76330 -0.46800
C 	C 	0.16030 0.62330 0.21980 -0.08200
H 	H 	0.17640 0.64480 0.22700 0.04600
H 	H 	0.15320 0.61570 0.31010 0.05300
C 	C 	0.18050 0.59250 0.15160 -0.08100
H 	H 	0.16810 0.56900 0.16890 0.04800
H 	H 	0.20570 0.59090 0.18500 0.05300
N 	N 	0.28764 0.69731 0.70360 -0.16500
N 	N 	0.29872 0.69511 0.57040 -0.37500
C 	C 	0.30472 0.66945 0.76080 0.11800
H 	H 	0.30220 0.66390 0.85200 -0.02100
C 	C 	0.32109 0.66634 0.55820 0.17700
H 	H 	0.33180 0.65880 0.47730 -0.04100
N 	N 	0.32647 0.64936 0.67650 -0.24500
N 	N 	0.28745 0.77686 0.63690 -0.20100
N 	N 	0.30031 0.76285 0.51840 -0.37000
C 	C 	0.30419 0.80850 0.65150 0.11300
H 	H 	0.30040 0.82400 0.72520 -0.02100
C 	C 	0.32404 0.78728 0.46980 0.19100
H 	H 	0.33690 0.78440 0.38890 -0.04800
N 	N 	0.32748 0.81670 0.55050 -0.24300
N 	N 	0.22365 0.73588 0.57200 -0.19200
N 	N 	0.24427 0.72579 0.46180 -0.38200
C 	C 	0.18938 0.73330 0.52890 0.11300
H 	H 	0.16910 0.73900 0.58320 -0.01100
C 	C 	0.22069 0.71741 0.36240 0.18300
H 	H 	0.22780 0.70950 0.27690 -0.05000
N 	N 	0.18564 0.72193 0.40140 -0.16000
B 	B 	0.28665 0.72450 0.46630 1.49400
H 	H 	0.29700 0.71900 0.37700 -0.55100
Mn	Mn	0.37910 0.61369 0.69450 1.32100
N 	N 	0.38264 0.62278 0.89110 -0.26400
C 	C 	0.38970 0.65400 0.94510 0.10200
H 	H 	0.38900 0.65530 0.03880 -0.00400
C 	C 	0.39880 0.68730 0.87330 -0.19600
C 	C 	0.40050 0.72100 0.94780 0.12000
H 	H 	0.39680 0.72130 0.04070 -0.01500
C 	C 	0.40780 0.75350 0.87800 -0.21100
H 	H 	0.40850 0.77580 0.92530 0.10800
C 	C 	0.41400 0.75420 0.74200 0.15800
H 	H 	0.41930 0.77660 0.69900 -0.01500
C 	C 	0.41260 0.72190 0.67030 -0.28200
H 	H 	0.41660 0.72250 0.57760 0.13900
C 	C 	0.40520 0.68820 0.73330 0.28200
O 	O 	0.40567 0.65729 0.65770 -0.45000
N 	N 	0.35064 0.56955 0.75610 -0.25900
C 	C 	0.33930 0.54291 0.67980 0.09400
H 	H 	0.32660 0.52360 0.72150 -0.00100
C 	C 	0.34430 0.54020 0.53620 -0.22700
C 	C 	0.33460 0.50740 0.47250 0.15400
H 	H 	0.32310 0.48870 0.52210 -0.02600
C 	C 	0.34150 0.50180 0.33720 -0.26500
H 	H 	0.33460 0.47980 0.29480 0.12100
C 	C 	0.35880 0.52950 0.26700 0.21900
H 	H 	0.36380 0.52610 0.17570 -0.05500
C 	C 	0.36880 0.56160 0.32660 -0.33700
H 	H 	0.38050 0.57980 0.27530 0.15700
C 	C 	0.36200 0.56850 0.46270 0.32200
O 	O 	0.37374 0.60020 0.51330 -0.46800
C 	C 	0.37330 0.58970 0.96980 -0.06800
H 	H 	0.39480 0.57360 0.97700 0.04400
H 	H 	0.36570 0.59680 0.06010 0.04600
C 	C 	0.34250 0.56950 0.90160 -0.08900
H 	H 	0.31900 0.58190 0.91890 0.05100
H 	H 	0.34090 0.54430 0.93500 0.05700
N 	N 	0.78764 0.19731 0.20360 -0.16500
N 	N 	0.79872 0.19511 0.07040 -0.37600
C 	C 	0.80472 0.16945 0.26080 0.11800
H 	H 	0.80220 0.16390 0.35200 -0.02200
C 	C 	0.82109 0.16634 0.05820 0.17300
H 	H 	0.83180 0.15880 0.97730 -0.03700
N 	N 	0.82647 0.14936 0.17650 -0.24500
N 	N 	0.78745 0.27686 0.13690 -0.20100
N 	N 	0.80031 0.26285 0.01840 -0.37300
C 	C 	0.80419 0.30850 0.15150 0.11200
H 	H 	0.80040 0.32400 0.22520 -0.02100
C 	C 	0.82404 0.28728 0.96980 0.19700
H 	H 	0.83690 0.28440 0.88890 -0.04900
N 	N 	0.82748 0.31670 0.05050 -0.24600
N 	N 	0.72365 0.23588 0.07200 -0.19300
N 	N 	0.74427 0.22579 0.96180 -0.38200
C 	C 	0.68938 0.23330 0.02890 0.11200
H 	H 	0.66910 0.23900 0.08320 -0.01100
C 	C 	0.72069 0.21741 0.86240 0.18400
H 	H 	0.72780 0.20950 0.77690 -0.05000
N 	N 	0.68564 0.22193 0.90140 -0.15900
B 	B 	0.78665 0.22450 0.96630 1.50100
H 	H 	0.79700 0.21900 0.87700 -0.55300
Mn	Mn	0.87910 0.11369 0.19450 1.32100
N 	N 	0.88264 0.12278 0.39110 -0.25800
C 	C 	0.88970 0.15400 0.44510 0.08300
H 	H 	0.88900 0.15530 0.53880 0.00600
C 	C 	0.89880 0.18730 0.37330 -0.18000
C 	C 	0.90050 0.22100 0.44780 0.09200
H 	H 	0.89680 0.22130 0.54070 0.00000
C 	C 	0.90780 0.25350 0.37800 -0.19000
H 	H 	0.90850 0.27580 0.42530 0.09900
C 	C 	0.91400 0.25420 0.24200 0.14200
H 	H 	0.91930 0.27660 0.19900 -0.00900
C 	C 	0.91260 0.22190 0.17030 -0.26800
H 	H 	0.91660 0.22250 0.07760 0.13400
C 	C 	0.90520 0.18820 0.23330 0.27200
O 	O 	0.90567 0.15729 0.15770 -0.44700
N 	N 	0.85064 0.06955 0.25610 -0.26300
C 	C 	0.83930 0.04291 0.17980 0.10600
H 	H 	0.82660 0.02360 0.22150 -0.00700
C 	C 	0.84430 0.04020 0.03620 -0.25400
C 	C 	0.83460 0.00740 0.97250 0.18600
H 	H 	0.82310 0.98870 0.02210 -0.03600
C 	C 	0.84150 0.00180 0.83720 -0.30700
H 	H 	0.83460 0.97980 0.79480 0.14000
C 	C 	0.85880 0.02950 0.76700 0.25300
H 	H 	0.86380 0.02610 0.67570 -0.06800
C 	C 	0.86880 0.06160 0.82660 -0.36500
H 	H 	0.88050 0.07980 0.77530 0.16700
C 	C 	0.86200 0.06850 0.96270 0.34700
O 	O 	0.87374 0.10020 0.01330 -0.47600
C 	C 	0.87330 0.08970 0.46980 -0.08300
H 	H 	0.89480 0.07360 0.47700 0.04700
H 	H 	0.86570 0.09680 0.56010 0.05300
C 	C 	0.84250 0.06950 0.40160 -0.08000
H 	H 	0.81900 0.08190 0.41890 0.04700
H 	H 	0.84090 0.04430 0.43500 0.05300
N 	N 	0.21236 0.30269 0.20360 -0.16500
N 	N 	0.20128 0.30489 0.07040 -0.37600
C 	C 	0.19528 0.33055 0.26080 0.11800
H 	H 	0.19780 0.33610 0.35200 -0.02200
C 	C 	0.17891 0.33366 0.05820 0.17300
H 	H 	0.16820 0.34120 0.97730 -0.03700
N 	N 	0.17353 0.35064 0.17650 -0.24500
N 	N 	0.21255 0.22314 0.13690 -0.20100
N 	N 	0.19969 0.23715 0.01840 -0.37300
C 	C 	0.19581 0.19150 0.15150 0.11200
H 	H 	0.19960 0.17600 0.22520 -0.02100
C 	C 	0.17596 0.21272 0.96980 0.19800
H 	H 	0.16310 0.21560 0.88890 -0.04900
N 	N 	0.17252 0.18330 0.05050 -0.24600
N 	N 	0.27635 0.26412 0.07200 -0.19300
N 	N 	0.25573 0.27421 0.96180 -0.38200
C 	C 	0.31062 0.26670 0.02890 0.11200
H 	H 	0.33090 0.26100 0.08320 -0.01100
C 	C 	0.27931 0.28259 0.86240 0.18400
H 	H 	0.27220 0.29050 0.77690 -0.05000
N 	N 	0.31436 0.27807 0.90140 -0.15900
B 	B 	0.21335 0.27550 0.96630 1.50100
H 	H 	0.20300 0.28100 0.87700 -0.55300
Mn	Mn	0.12090 0.38631 0.19450 1.32100
N 	N 	0.11736 0.37722 0.39110 -0.25900
C 	C 	0.11030 0.34600 0.44510 0.08300
H 	H 	0.11100 0.34470 0.53880 0.00600
C 	C 	0.10120 0.31270 0.37330 -0.18000
C 	C 	0.09950 0.27900 0.44780 0.09200
H 	H 	0.10320 0.27870 0.54070 -0.00000
C 	C 	0.09220 0.24650 0.37800 -0.19000
H 	H 	0.09150 0.22420 0.42530 0.09800
C 	C 	0.08600 0.24580 0.24200 0.14100
H 	H 	0.08070 0.22340 0.19900 -0.01000
C 	C 	0.08740 0.27810 0.17030 -0.26900
H 	H 	0.08340 0.27750 0.07760 0.13400
C 	C 	0.09480 0.31180 0.23330 0.27100
O 	O 	0.09433 0.34271 0.15770 -0.44800
N 	N 	0.14936 0.43045 0.25610 -0.26300
C 	C 	0.16070 0.45709 0.17980 0.10700
H 	H 	0.17340 0.47640 0.22150 -0.00600
C 	C 	0.15570 0.45980 0.03620 -0.25500
C 	C 	0.16540 0.49260 0.97250 0.19200
H 	H 	0.17690 0.51130 0.02210 -0.04200
C 	C 	0.15850 0.49820 0.83720 -0.29600
H 	H 	0.16540 0.52020 0.79480 0.13200
C 	C 	0.14120 0.47050 0.76700 0.24700
H 	H 	0.13620 0.47390 0.67570 -0.06400
C 	C 	0.13120 0.43840 0.82660 -0.36100
H 	H 	0.11950 0.42020 0.77530 0.16600
C 	C 	0.13800 0.43150 0.96270 0.34600
O 	O 	0.12626 0.39980 0.01330 -0.47600
C 	C 	0.12670 0.41030 0.46980 -0.08300
H 	H 	0.10520 0.42640 0.47700 0.04700
H 	H 	0.13430 0.40320 0.56010 0.05300
C 	C 	0.15750 0.43050 0.40160 -0.08100
H 	H 	0.18100 0.41810 0.41890 0.04800
H 	H 	0.15910 0.45570 0.43500 0.05400
N 	N 	0.71236 0.80269 0.70360 -0.16500
N 	N 	0.70128 0.80489 0.57040 -0.37500
C 	C 	0.69528 0.83055 0.76080 0.11800
H 	H 	0.69780 0.83610 0.85200 -0.02100
C 	C 	0.67891 0.83366 0.55820 0.17700
H 	H 	0.66820 0.84120 0.47730 -0.04100
N 	N 	0.67353 0.85064 0.67650 -0.24500
N 	N 	0.71255 0.72314 0.63690 -0.20100
N 	N 	0.69969 0.73715 0.51840 -0.37000
C 	C 	0.69581 0.69150 0.65150 0.11300
H 	H 	0.69960 0.67600 0.72520 -0.02100
C 	C 	0.67596 0.71272 0.46980 0.19100
H 	H 	0.66310 0.71560 0.38890 -0.04800
N 	N 	0.67252 0.68330 0.55050 -0.24300
N 	N 	0.77635 0.76412 0.57200 -0.19200
N 	N 	0.75573 0.77421 0.46180 -0.38200
C 	C 	0.81062 0.76670 0.52890 0.11300
H 	H 	0.83090 0.76100 0.58320 -0.01100
C 	C 	0.77931 0.78259 0.36240 0.18300
H 	H 	0.77220 0.79050 0.27690 -0.05000
N 	N 	0.81436 0.77807 0.40140 -0.16000
B 	B 	0.71335 0.77550 0.46630 1.49400
H 	H 	0.70300 0.78100 0.37700 -0.55100
Mn	Mn	0.62090 0.88631 0.69450 1.32100
N 	N 	0.61736 0.87722 0.89110 -0.26400
C 	C 	0.61030 0.84600 0.94510 0.10200
H 	H 	0.61100 0.84470 0.03880 -0.00400
C 	C 	0.60120 0.81270 0.87330 -0.19600
C 	C 	0.59950 0.77900 0.94780 0.12000
H 	H 	0.60320 0.77870 0.04070 -0.01400
C 	C 	0.59220 0.74650 0.87800 -0.21000
H 	H 	0.59150 0.72420 0.92530 0.10800
C 	C 	0.58600 0.74580 0.74200 0.15800
H 	H 	0.58070 0.72340 0.69900 -0.01500
C 	C 	0.58740 0.77810 0.67030 -0.28200
H 	H 	0.58340 0.77750 0.57760 0.13900
C 	C 	0.59480 0.81180 0.73330 0.28200
O 	O 	0.59433 0.84271 0.65770 -0.45000
N 	N 	0.64936 0.93045 0.75610 -0.25900
C 	C 	0.66070 0.95709 0.67980 0.09500
H 	H 	0.67340 0.97640 0.72150 0.00100
C 	C 	0.65570 0.95980 0.53620 -0.22800
C 	C 	0.66540 0.99260 0.47250 0.15900
H 	H 	0.67690 0.01130 0.52210 -0.03200
C 	C 	0.65850 0.99820 0.33720 -0.25300
H 	H 	0.66540 0.02020 0.29480 0.11300
C 	C 	0.64120 0.97050 0.26700 0.21100
H 	H 	0.63620 0.97390 0.17570 -0.05100
C 	C 	0.63120 0.93840 0.32660 -0.33200
H 	H 	0.61950 0.92020 0.27530 0.15600
C 	C 	0.63800 0.93150 0.46270 0.32100
O 	O 	0.62626 0.89980 0.51330 -0.46700
C 	C 	0.62670 0.91030 0.96980 -0.06800
H 	H 	0.60520 0.92640 0.97700 0.04400
H 	H 	0.63430 0.90320 0.06010 0.04600
C 	C 	0.65750 0.93050 0.90160 -0.09000
H 	H 	0.68100 0.91810 0.91890 0.05100
H 	H 	0.65910 0.95570 0.93500 0.05800
Cu	Cu	-0.00000 0.00000 -0.00000 0.84100
Cu	Cu	0.50000 0.50000 0.50000 0.84900
Cu	Cu	0.50000 0.00000 0.50000 0.84600
Cu	Cu	0.00000 0.50000 -0.00000 0.84300
Cu	Cu	0.75000 0.25000 0.25000 0.84900
Cu	Cu	0.75000 0.75000 0.75000 0.84900
Cu	Cu	0.25000 0.75000 0.75000 0.84900
Cu	Cu	0.25000 0.25000 0.25000 0.84900
