data_crystal

_cell_length_a 18.51270
_cell_length_b 18.51270
_cell_length_c 78.49080
_cell_angle_alpha 90.00000
_cell_angle_beta  90.00000
_cell_angle_gamma 120.00000

_symmetry_space_group_name_	'P 1'
_symmetry_space_group_name_H-M	'P 1'

loop_
_symmetry_equiv_pos_as_xyz
  x,y,z

loop_
_atom_site_label
_atom_site_type_symbol
_atom_site_fract_x
_atom_site_fract_y
_atom_site_fract_z
_atom_site_charge
Zn	Zn	0.54303 0.05514 0.26546 1.23100
O 	O 	0.42500 0.39190 0.22912 -0.45100
O 	O 	0.46870 0.35080 0.25186 -0.44800
O 	O 	0.44870 0.02110 0.22555 -0.44500
O 	O 	0.48900 0.10040 0.24904 -0.46100
O 	O 	0.58470 0.13150 0.28523 -0.46300
N 	N 	0.60920 0.23932 0.30110 -0.16800
C 	C 	0.42050 0.26230 0.22805 -0.08600
C 	C 	0.43990 0.20680 0.23569 0.02800
H 	H 	0.45910 0.21540 0.24710 0.05100
C 	C 	0.43110 0.13850 0.22659 -0.08900
C 	C 	0.40220 0.12560 0.20996 -0.02600
H 	H 	0.39570 0.07850 0.20380 0.05800
C 	C 	0.38250 0.18110 0.20212 0.01200
C 	C 	0.39200 0.24970 0.21166 -0.02700
H 	H 	0.37830 0.28800 0.20660 0.06000
C 	C 	0.43920 0.34160 0.23711 0.37700
C 	C 	0.45820 0.08220 0.23442 0.38000
C 	C 	0.35720 0.17170 0.18397 -0.02800
C 	C 	0.41460 0.18490 0.17105 0.01600
C 	C 	0.49830 0.20520 0.17477 -0.06100
H 	H 	0.51540 0.20930 0.18630 0.05900
C 	C 	0.55400 0.21870 0.16203 -0.03200
H 	H 	0.60880 0.23080 0.16480 0.04400
C 	C 	0.27570 0.15320 0.17977 0.01700
C 	C 	0.21420 0.13670 0.19257 -0.06300
H 	H 	0.22890 0.13870 0.20420 0.05900
C 	C 	0.13530 0.11820 0.18851 -0.02700
H 	H 	0.09580 0.10780 0.19730 0.04000
C 	C 	0.62930 0.20700 0.28612 0.19700
C 	C 	0.55530 0.22090 0.31690 0.01500
C 	C 	0.55350 0.15310 0.29635 0.18400
C 	C 	0.69480 0.29590 0.29340 -0.04500
C 	C 	0.59850 0.29380 0.31418 0.00800
Zn	Zn	0.20970 0.38847 0.59879 1.23300
O 	O 	0.09167 0.72523 0.56245 -0.45000
O 	O 	0.13537 0.68413 0.58519 -0.44700
O 	O 	0.11537 0.35443 0.55888 -0.44300
O 	O 	0.15567 0.43373 0.58237 -0.45900
O 	O 	0.25137 0.46483 0.61856 -0.46200
N 	N 	0.27587 0.57265 0.63443 -0.16700
C 	C 	0.08717 0.59563 0.56138 -0.08400
C 	C 	0.10657 0.54013 0.56902 0.02800
H 	H 	0.12577 0.54873 0.58043 0.05200
C 	C 	0.09777 0.47183 0.55992 -0.08800
C 	C 	0.06887 0.45893 0.54329 -0.02700
H 	H 	0.06237 0.41183 0.53713 0.05900
C 	C 	0.04917 0.51443 0.53545 0.01500
C 	C 	0.05867 0.58303 0.54499 -0.02700
H 	H 	0.04497 0.62133 0.53993 0.06100
C 	C 	0.10587 0.67493 0.57044 0.37800
C 	C 	0.12487 0.41553 0.56775 0.38000
C 	C 	0.02387 0.50503 0.51730 -0.03300
C 	C 	0.08127 0.51823 0.50438 0.02000
C 	C 	0.16497 0.53853 0.50810 -0.06400
H 	H 	0.18207 0.54263 0.51963 0.06000
C 	C 	0.22067 0.55203 0.49536 -0.03000
H 	H 	0.27547 0.56413 0.49813 0.04400
C 	C 	0.94237 0.48653 0.51310 0.02300
C 	C 	0.88087 0.47003 0.52590 -0.06600
H 	H 	0.89557 0.47203 0.53753 0.06200
C 	C 	0.80197 0.45153 0.52184 -0.02300
H 	H 	0.76247 0.44113 0.53063 0.04000
C 	C 	0.29597 0.54033 0.61945 0.19700
C 	C 	0.22197 0.55423 0.65023 0.01500
C 	C 	0.22017 0.48643 0.62968 0.18400
C 	C 	0.36147 0.62923 0.62673 -0.04500
C 	C 	0.26517 0.62713 0.64751 0.00800
Zn	Zn	0.87636 0.72181 0.93213 1.23300
O 	O 	0.75833 0.05857 0.89579 -0.45000
O 	O 	0.80203 0.01747 0.91853 -0.44700
O 	O 	0.78203 0.68777 0.89222 -0.44300
O 	O 	0.82233 0.76707 0.91571 -0.45900
O 	O 	0.91803 0.79817 0.95190 -0.46100
N 	N 	0.94253 0.90599 0.96777 -0.16700
C 	C 	0.75383 0.92897 0.89472 -0.08100
C 	C 	0.77323 0.87347 0.90236 0.02700
H 	H 	0.79243 0.88207 0.91377 0.05300
C 	C 	0.76443 0.80517 0.89326 -0.08700
C 	C 	0.73553 0.79227 0.87663 -0.02600
H 	H 	0.72903 0.74517 0.87047 0.06000
C 	C 	0.71583 0.84777 0.86879 0.01500
C 	C 	0.72533 0.91637 0.87833 -0.02800
H 	H 	0.71163 0.95467 0.87327 0.06200
C 	C 	0.77253 0.00827 0.90378 0.37500
C 	C 	0.79153 0.74887 0.90109 0.38000
C 	C 	0.69053 0.83837 0.85064 -0.02800
C 	C 	0.74793 0.85157 0.83772 0.01600
C 	C 	0.83163 0.87187 0.84144 -0.06000
H 	H 	0.84873 0.87597 0.85297 0.05900
C 	C 	0.88733 0.88537 0.82870 -0.03200
H 	H 	0.94213 0.89747 0.83147 0.04600
C 	C 	0.60903 0.81987 0.84644 0.01700
C 	C 	0.54753 0.80337 0.85924 -0.06300
H 	H 	0.56223 0.80537 0.87087 0.06000
C 	C 	0.46863 0.78487 0.85518 -0.02600
H 	H 	0.42913 0.77447 0.86397 0.04100
C 	C 	0.96263 0.87367 0.95279 0.19600
C 	C 	0.88863 0.88757 0.98357 0.01300
C 	C 	0.88683 0.81977 0.96302 0.18500
C 	C 	0.02813 0.96257 0.96007 -0.03800
C 	C 	0.93183 0.96047 0.98085 0.01500
Zn	Zn	0.94486 0.48789 0.26546 1.23300
O 	O 	0.60810 0.03310 0.22912 -0.45100
O 	O 	0.64920 0.11790 0.25186 -0.44700
O 	O 	0.97890 0.42760 0.22555 -0.44200
O 	O 	0.89960 0.38860 0.24904 -0.45900
O 	O 	0.86850 0.45320 0.28523 -0.46100
N 	N 	0.76068 0.36988 0.30110 -0.16700
C 	C 	0.73770 0.15820 0.22805 -0.08500
C 	C 	0.79320 0.23310 0.23569 0.02900
H 	H 	0.78460 0.24370 0.24710 0.05200
C 	C 	0.86150 0.29260 0.22659 -0.08800
C 	C 	0.87440 0.27660 0.20996 -0.02500
H 	H 	0.92150 0.31720 0.20380 0.06000
C 	C 	0.81890 0.20140 0.20212 0.01200
C 	C 	0.75030 0.14230 0.21166 -0.02500
H 	H 	0.71200 0.09030 0.20660 0.06000
C 	C 	0.65840 0.09760 0.23711 0.37800
C 	C 	0.91780 0.37600 0.23442 0.38100
C 	C 	0.82830 0.18550 0.18397 -0.02500
C 	C 	0.81510 0.22970 0.17105 0.01400
C 	C 	0.79480 0.29310 0.17477 -0.05900
H 	H 	0.79070 0.30610 0.18630 0.05800
C 	C 	0.78130 0.33530 0.16203 -0.03300
H 	H 	0.76920 0.37800 0.16480 0.04500
C 	C 	0.84680 0.12250 0.17977 0.01100
C 	C 	0.86330 0.07750 0.19257 -0.05300
H 	H 	0.86130 0.09020 0.20420 0.05700
C 	C 	0.88180 0.01710 0.18851 -0.04200
H 	H 	0.89220 0.98800 0.19730 0.04800
C 	C 	0.79300 0.42230 0.28612 0.19700
C 	C 	0.77910 0.33440 0.31690 0.01600
C 	C 	0.84690 0.40040 0.29635 0.18500
C 	C 	0.70410 0.39890 0.29340 -0.04500
C 	C 	0.70620 0.30470 0.31418 0.00800
Zn	Zn	0.61153 0.82122 0.59879 1.23300
O 	O 	0.27477 0.36643 0.56245 -0.45000
O 	O 	0.31587 0.45123 0.58519 -0.44700
O 	O 	0.64557 0.76093 0.55888 -0.44300
O 	O 	0.56627 0.72193 0.58237 -0.45900
O 	O 	0.53517 0.78653 0.61856 -0.46100
N 	N 	0.42735 0.70321 0.63443 -0.16700
C 	C 	0.40437 0.49153 0.56138 -0.08500
C 	C 	0.45987 0.56643 0.56902 0.02900
H 	H 	0.45127 0.57703 0.58043 0.05200
C 	C 	0.52817 0.62593 0.55992 -0.08800
C 	C 	0.54107 0.60993 0.54329 -0.02500
H 	H 	0.58817 0.65053 0.53713 0.06000
C 	C 	0.48557 0.53473 0.53545 0.01300
C 	C 	0.41697 0.47563 0.54499 -0.02600
H 	H 	0.37867 0.42363 0.53993 0.06100
C 	C 	0.32507 0.43093 0.57044 0.37800
C 	C 	0.58447 0.70933 0.56775 0.38100
C 	C 	0.49497 0.51883 0.51730 -0.02800
C 	C 	0.48177 0.56303 0.50438 0.01600
C 	C 	0.46147 0.62643 0.50810 -0.06100
H 	H 	0.45737 0.63943 0.51963 0.05900
C 	C 	0.44797 0.66863 0.49536 -0.03200
H 	H 	0.43587 0.71133 0.49813 0.04500
C 	C 	0.51347 0.45583 0.51310 0.01700
C 	C 	0.52997 0.41083 0.52590 -0.06300
H 	H 	0.52797 0.42353 0.53753 0.06000
C 	C 	0.54847 0.35043 0.52184 -0.02600
H 	H 	0.55887 0.32133 0.53063 0.04100
C 	C 	0.45967 0.75563 0.61945 0.19700
C 	C 	0.44577 0.66773 0.65023 0.01600
C 	C 	0.51357 0.73373 0.62968 0.18500
C 	C 	0.37077 0.73223 0.62673 -0.04500
C 	C 	0.37287 0.63803 0.64751 0.00800
Zn	Zn	0.27819 0.15456 0.93213 1.23300
O 	O 	0.94143 0.69977 0.89579 -0.45000
O 	O 	0.98253 0.78457 0.91853 -0.44600
O 	O 	0.31223 0.09427 0.89222 -0.44300
O 	O 	0.23293 0.05527 0.91571 -0.46000
O 	O 	0.20183 0.11987 0.95190 -0.46100
N 	N 	0.09401 0.03655 0.96777 -0.16700
C 	C 	0.07103 0.82487 0.89472 -0.08700
C 	C 	0.12653 0.89977 0.90236 0.02900
H 	H 	0.11793 0.91037 0.91377 0.05200
C 	C 	0.19483 0.95927 0.89326 -0.08500
C 	C 	0.20773 0.94327 0.87663 -0.02500
H 	H 	0.25483 0.98387 0.87047 0.06000
C 	C 	0.15223 0.86807 0.86879 0.01200
C 	C 	0.08363 0.80897 0.87833 -0.02400
H 	H 	0.04533 0.75697 0.87327 0.06000
C 	C 	0.99173 0.76427 0.90378 0.38000
C 	C 	0.25113 0.04267 0.90109 0.37800
C 	C 	0.16163 0.85217 0.85064 -0.02400
C 	C 	0.14843 0.89637 0.83772 0.00800
C 	C 	0.12813 0.95977 0.84144 -0.04700
H 	H 	0.12403 0.97277 0.85297 0.05400
C 	C 	0.11463 0.00197 0.82870 -0.05300
H 	H 	0.10253 0.04467 0.83147 0.05000
C 	C 	0.18013 0.78917 0.84644 0.01400
C 	C 	0.19663 0.74417 0.85924 -0.06100
H 	H 	0.19463 0.75687 0.87087 0.05900
C 	C 	0.21513 0.68377 0.85518 -0.02800
H 	H 	0.22553 0.65467 0.86397 0.04100
C 	C 	0.12633 0.08897 0.95279 0.19300
C 	C 	0.11243 0.00107 0.98357 0.00800
C 	C 	0.18023 0.06707 0.96302 0.18500
C 	C 	0.03743 0.06557 0.96007 -0.04000
C 	C 	0.03953 0.97137 0.98085 0.01700
Zn	Zn	0.51211 0.45697 0.26546 1.23300
O 	O 	0.96690 0.57500 0.22912 -0.44900
O 	O 	0.88210 0.53130 0.25186 -0.44600
O 	O 	0.57240 0.55130 0.22555 -0.44300
O 	O 	0.61140 0.51100 0.24904 -0.45900
O 	O 	0.54680 0.41530 0.28523 -0.46200
N 	N 	0.63012 0.39080 0.30110 -0.16700
C 	C 	0.84180 0.57950 0.22805 -0.08400
C 	C 	0.76690 0.56010 0.23569 0.02800
H 	H 	0.75630 0.54090 0.24710 0.05200
C 	C 	0.70740 0.56890 0.22659 -0.08700
C 	C 	0.72340 0.59780 0.20996 -0.02600
H 	H 	0.68280 0.60430 0.20380 0.06000
C 	C 	0.79860 0.61750 0.20212 0.01500
C 	C 	0.85770 0.60800 0.21166 -0.02700
H 	H 	0.90970 0.62170 0.20660 0.06200
C 	C 	0.90240 0.56080 0.23711 0.37800
C 	C 	0.62400 0.54180 0.23442 0.38000
C 	C 	0.81450 0.64280 0.18397 -0.03100
C 	C 	0.77030 0.58540 0.17105 0.01800
C 	C 	0.70690 0.50170 0.17477 -0.06200
H 	H 	0.69390 0.48460 0.18630 0.05900
C 	C 	0.66470 0.44600 0.16203 -0.03100
H 	H 	0.62200 0.39120 0.16480 0.04400
C 	C 	0.87750 0.72430 0.17977 0.02300
C 	C 	0.92250 0.78580 0.19257 -0.07400
H 	H 	0.90980 0.77110 0.20420 0.06400
C 	C 	0.98290 0.86470 0.18851 -0.00800
H 	H 	0.01200 0.90420 0.19730 0.03300
C 	C 	0.57770 0.37070 0.28612 0.19700
C 	C 	0.66560 0.44470 0.31690 0.01600
C 	C 	0.59960 0.44650 0.29635 0.18500
C 	C 	0.60110 0.30520 0.29340 -0.04500
C 	C 	0.69530 0.40150 0.31418 0.00800
Zn	Zn	0.17878 0.79030 0.59879 1.23300
O 	O 	0.63357 0.90833 0.56245 -0.45000
O 	O 	0.54877 0.86463 0.58519 -0.44600
O 	O 	0.23907 0.88463 0.55888 -0.44300
O 	O 	0.27807 0.84433 0.58237 -0.45900
O 	O 	0.21347 0.74863 0.61856 -0.46200
N 	N 	0.29679 0.72413 0.63443 -0.16700
C 	C 	0.50847 0.91283 0.56138 -0.08500
C 	C 	0.43357 0.89343 0.56902 0.02900
H 	H 	0.42297 0.87423 0.58043 0.05200
C 	C 	0.37407 0.90223 0.55992 -0.08800
C 	C 	0.39007 0.93113 0.54329 -0.02400
H 	H 	0.34947 0.93763 0.53713 0.05900
C 	C 	0.46527 0.95083 0.53545 0.01200
C 	C 	0.52437 0.94133 0.54499 -0.02500
H 	H 	0.57637 0.95503 0.53993 0.06100
C 	C 	0.56907 0.89413 0.57044 0.37800
C 	C 	0.29067 0.87513 0.56775 0.38100
C 	C 	0.48117 0.97613 0.51730 -0.02200
C 	C 	0.43697 0.91873 0.50438 0.01200
C 	C 	0.37357 0.83503 0.50810 -0.05800
H 	H 	0.36057 0.81793 0.51963 0.05700
C 	C 	0.33137 0.77933 0.49536 -0.03500
H 	H 	0.28867 0.72453 0.49813 0.04500
C 	C 	0.54417 0.05763 0.51310 0.01100
C 	C 	0.58917 0.11913 0.52590 -0.05900
H 	H 	0.57647 0.10443 0.53753 0.05800
C 	C 	0.64957 0.19803 0.52184 -0.02900
H 	H 	0.67867 0.23753 0.53063 0.04200
C 	C 	0.24437 0.70403 0.61945 0.19700
C 	C 	0.33227 0.77803 0.65023 0.01600
C 	C 	0.26627 0.77983 0.62968 0.18500
C 	C 	0.26777 0.63853 0.62673 -0.04500
C 	C 	0.36197 0.73483 0.64751 0.00800
Zn	Zn	0.84544 0.12364 0.93213 1.23300
O 	O 	0.30023 0.24167 0.89579 -0.45000
O 	O 	0.21543 0.19797 0.91853 -0.44700
O 	O 	0.90573 0.21797 0.89222 -0.44300
O 	O 	0.94473 0.17767 0.91571 -0.45900
O 	O 	0.88013 0.08197 0.95190 -0.46100
N 	N 	0.96345 0.05747 0.96777 -0.16700
C 	C 	0.17513 0.24617 0.89472 -0.08500
C 	C 	0.10023 0.22677 0.90236 0.03000
H 	H 	0.08963 0.20757 0.91377 0.05100
C 	C 	0.04073 0.23557 0.89326 -0.09100
C 	C 	0.05673 0.26447 0.87663 -0.02500
H 	H 	0.01613 0.27097 0.87047 0.05800
C 	C 	0.13193 0.28417 0.86879 0.01400
C 	C 	0.19103 0.27467 0.87833 -0.02600
H 	H 	0.24303 0.28837 0.87327 0.06100
C 	C 	0.23573 0.22747 0.90378 0.37800
C 	C 	0.95733 0.20847 0.90109 0.38300
C 	C 	0.14783 0.30947 0.85064 -0.03100
C 	C 	0.10363 0.25207 0.83772 0.02200
C 	C 	0.04023 0.16837 0.84144 -0.07300
H 	H 	0.02723 0.15127 0.85297 0.06200
C 	C 	0.99803 0.11267 0.82870 -0.01600
H 	H 	0.95533 0.05787 0.83147 0.03900
C 	C 	0.21083 0.39097 0.84644 0.01900
C 	C 	0.25583 0.45247 0.85924 -0.06400
H 	H 	0.24313 0.43777 0.87087 0.06000
C 	C 	0.31623 0.53137 0.85518 -0.02500
H 	H 	0.34533 0.57087 0.86397 0.04000
C 	C 	0.91103 0.03737 0.95279 0.19200
C 	C 	0.99893 0.11137 0.98357 0.01700
C 	C 	0.93293 0.11317 0.96302 0.18500
C 	C 	0.93443 0.97187 0.96007 -0.03300
C 	C 	0.02863 0.06817 0.98085 0.00600
Zn	Zn	0.05514 0.54303 0.23454 1.23200
O 	O 	0.39190 0.42500 0.27088 -0.45000
O 	O 	0.35080 0.46870 0.24814 -0.44700
O 	O 	0.02110 0.44870 0.27445 -0.44400
O 	O 	0.10040 0.48900 0.25096 -0.46000
O 	O 	0.13150 0.58470 0.21477 -0.46200
N 	N 	0.23932 0.60920 0.19890 -0.16700
C 	C 	0.26230 0.42050 0.27195 -0.08500
C 	C 	0.20680 0.43990 0.26431 0.02900
H 	H 	0.21540 0.45910 0.25290 0.05200
C 	C 	0.13850 0.43110 0.27341 -0.08800
C 	C 	0.12560 0.40220 0.29004 -0.02500
H 	H 	0.07850 0.39570 0.29620 0.05900
C 	C 	0.18110 0.38250 0.29788 0.01300
C 	C 	0.24970 0.39200 0.28834 -0.02600
H 	H 	0.28800 0.37830 0.29340 0.06100
C 	C 	0.34160 0.43920 0.26289 0.37800
C 	C 	0.08220 0.45820 0.26558 0.38100
C 	C 	0.17170 0.35720 0.31603 -0.02800
C 	C 	0.18490 0.41460 0.32895 0.01600
C 	C 	0.20520 0.49830 0.32523 -0.06100
H 	H 	0.20930 0.51540 0.31370 0.05900
C 	C 	0.21870 0.55400 0.33797 -0.03200
H 	H 	0.23080 0.60880 0.33520 0.04400
C 	C 	0.15320 0.27570 0.32023 0.01700
C 	C 	0.13670 0.21420 0.30743 -0.06300
H 	H 	0.13870 0.22890 0.29580 0.05900
C 	C 	0.11820 0.13530 0.31149 -0.02700
H 	H 	0.10780 0.09580 0.30270 0.04000
C 	C 	0.20700 0.62930 0.21388 0.19700
C 	C 	0.22090 0.55530 0.18310 0.01500
C 	C 	0.15310 0.55350 0.20365 0.18400
C 	C 	0.29590 0.69480 0.20660 -0.04500
C 	C 	0.29380 0.59850 0.18582 0.00800
Zn	Zn	0.72181 0.87636 0.56787 1.23300
O 	O 	0.05857 0.75833 0.60421 -0.45000
O 	O 	0.01747 0.80203 0.58147 -0.44700
O 	O 	0.68777 0.78203 0.60778 -0.44300
O 	O 	0.76707 0.82233 0.58429 -0.45900
O 	O 	0.79817 0.91803 0.54810 -0.46100
N 	N 	0.90599 0.94253 0.53223 -0.16700
C 	C 	0.92897 0.75383 0.60528 -0.08100
C 	C 	0.87347 0.77323 0.59764 0.02700
H 	H 	0.88207 0.79243 0.58623 0.05300
C 	C 	0.80517 0.76443 0.60674 -0.08700
C 	C 	0.79227 0.73553 0.62337 -0.02600
H 	H 	0.74517 0.72903 0.62953 0.06000
C 	C 	0.84777 0.71583 0.63121 0.01500
C 	C 	0.91637 0.72533 0.62167 -0.02800
H 	H 	0.95467 0.71163 0.62673 0.06200
C 	C 	0.00827 0.77253 0.59622 0.37500
C 	C 	0.74887 0.79153 0.59891 0.38000
C 	C 	0.83837 0.69053 0.64936 -0.02800
C 	C 	0.85157 0.74793 0.66228 0.01600
C 	C 	0.87187 0.83163 0.65856 -0.06000
H 	H 	0.87597 0.84873 0.64703 0.05900
C 	C 	0.88537 0.88733 0.67130 -0.03200
H 	H 	0.89747 0.94213 0.66853 0.04600
C 	C 	0.81987 0.60903 0.65356 0.01700
C 	C 	0.80337 0.54753 0.64076 -0.06300
H 	H 	0.80537 0.56223 0.62913 0.06000
C 	C 	0.78487 0.46863 0.64482 -0.02600
H 	H 	0.77447 0.42913 0.63603 0.04100
C 	C 	0.87367 0.96263 0.54721 0.19600
C 	C 	0.88757 0.88863 0.51643 0.01300
C 	C 	0.81977 0.88683 0.53698 0.18500
C 	C 	0.96257 0.02813 0.53993 -0.03800
C 	C 	0.96047 0.93183 0.51915 0.01500
Zn	Zn	0.38847 0.20970 0.90121 1.23300
O 	O 	0.72523 0.09167 0.93755 -0.45000
O 	O 	0.68413 0.13537 0.91481 -0.44700
O 	O 	0.35443 0.11537 0.94112 -0.44300
O 	O 	0.43373 0.15567 0.91763 -0.45900
O 	O 	0.46483 0.25137 0.88144 -0.46200
N 	N 	0.57265 0.27587 0.86557 -0.16700
C 	C 	0.59563 0.08717 0.93862 -0.08400
C 	C 	0.54013 0.10657 0.93098 0.02800
H 	H 	0.54873 0.12577 0.91957 0.05200
C 	C 	0.47183 0.09777 0.94008 -0.08800
C 	C 	0.45893 0.06887 0.95671 -0.02700
H 	H 	0.41183 0.06237 0.96287 0.05900
C 	C 	0.51443 0.04917 0.96455 0.01500
C 	C 	0.58303 0.05867 0.95501 -0.02700
H 	H 	0.62133 0.04497 0.96007 0.06100
C 	C 	0.67493 0.10587 0.92956 0.37800
C 	C 	0.41553 0.12487 0.93225 0.38000
C 	C 	0.50503 0.02387 0.98270 -0.03300
C 	C 	0.51823 0.08127 0.99562 0.02000
C 	C 	0.53853 0.16497 0.99190 -0.06400
H 	H 	0.54263 0.18207 0.98037 0.06000
C 	C 	0.55203 0.22067 0.00464 -0.03000
H 	H 	0.56413 0.27547 0.00187 0.04400
C 	C 	0.48653 0.94237 0.98690 0.02300
C 	C 	0.47003 0.88087 0.97410 -0.06600
H 	H 	0.47203 0.89557 0.96247 0.06200
C 	C 	0.45153 0.80197 0.97816 -0.02300
H 	H 	0.44113 0.76247 0.96937 0.04000
C 	C 	0.54033 0.29597 0.88055 0.19700
C 	C 	0.55423 0.22197 0.84977 0.01500
C 	C 	0.48643 0.22017 0.87032 0.18400
C 	C 	0.62923 0.36147 0.87327 -0.04500
C 	C 	0.62713 0.26517 0.85249 0.00800
Zn	Zn	0.48789 0.94486 0.23454 1.23300
O 	O 	0.03310 0.60810 0.27088 -0.45100
O 	O 	0.11790 0.64920 0.24814 -0.44700
O 	O 	0.42760 0.97890 0.27445 -0.44200
O 	O 	0.38860 0.89960 0.25096 -0.45900
O 	O 	0.45320 0.86850 0.21477 -0.46100
N 	N 	0.36988 0.76068 0.19890 -0.16700
C 	C 	0.15820 0.73770 0.27195 -0.08500
C 	C 	0.23310 0.79320 0.26431 0.02900
H 	H 	0.24370 0.78460 0.25290 0.05200
C 	C 	0.29260 0.86150 0.27341 -0.08800
C 	C 	0.27660 0.87440 0.29004 -0.02500
H 	H 	0.31720 0.92150 0.29620 0.06000
C 	C 	0.20140 0.81890 0.29788 0.01200
C 	C 	0.14230 0.75030 0.28834 -0.02500
H 	H 	0.09030 0.71200 0.29340 0.06000
C 	C 	0.09760 0.65840 0.26289 0.37800
C 	C 	0.37600 0.91780 0.26558 0.38100
C 	C 	0.18550 0.82830 0.31603 -0.02500
C 	C 	0.22970 0.81510 0.32895 0.01400
C 	C 	0.29310 0.79480 0.32523 -0.05900
H 	H 	0.30610 0.79070 0.31370 0.05800
C 	C 	0.33530 0.78130 0.33797 -0.03300
H 	H 	0.37800 0.76920 0.33520 0.04500
C 	C 	0.12250 0.84680 0.32023 0.01100
C 	C 	0.07750 0.86330 0.30743 -0.05300
H 	H 	0.09020 0.86130 0.29580 0.05700
C 	C 	0.01710 0.88180 0.31149 -0.04200
H 	H 	0.98800 0.89220 0.30270 0.04800
C 	C 	0.42230 0.79300 0.21388 0.19700
C 	C 	0.33440 0.77910 0.18310 0.01600
C 	C 	0.40040 0.84690 0.20365 0.18500
C 	C 	0.39890 0.70410 0.20660 -0.04500
C 	C 	0.30470 0.70620 0.18582 0.00800
Zn	Zn	0.15456 0.27819 0.56787 1.23300
O 	O 	0.69977 0.94143 0.60421 -0.45000
O 	O 	0.78457 0.98253 0.58147 -0.44600
O 	O 	0.09427 0.31223 0.60778 -0.44300
O 	O 	0.05527 0.23293 0.58429 -0.46000
O 	O 	0.11987 0.20183 0.54810 -0.46100
N 	N 	0.03655 0.09401 0.53223 -0.16700
C 	C 	0.82487 0.07103 0.60528 -0.08700
C 	C 	0.89977 0.12653 0.59764 0.02900
H 	H 	0.91037 0.11793 0.58623 0.05200
C 	C 	0.95927 0.19483 0.60674 -0.08500
C 	C 	0.94327 0.20773 0.62337 -0.02500
H 	H 	0.98387 0.25483 0.62953 0.06000
C 	C 	0.86807 0.15223 0.63121 0.01200
C 	C 	0.80897 0.08363 0.62167 -0.02400
H 	H 	0.75697 0.04533 0.62673 0.06000
C 	C 	0.76427 0.99173 0.59622 0.38000
C 	C 	0.04267 0.25113 0.59891 0.37800
C 	C 	0.85217 0.16163 0.64936 -0.02400
C 	C 	0.89637 0.14843 0.66228 0.00800
C 	C 	0.95977 0.12813 0.65856 -0.04700
H 	H 	0.97277 0.12403 0.64703 0.05400
C 	C 	0.00197 0.11463 0.67130 -0.05300
H 	H 	0.04467 0.10253 0.66853 0.05000
C 	C 	0.78917 0.18013 0.65356 0.01400
C 	C 	0.74417 0.19663 0.64076 -0.06100
H 	H 	0.75687 0.19463 0.62913 0.05900
C 	C 	0.68377 0.21513 0.64482 -0.02800
H 	H 	0.65467 0.22553 0.63603 0.04100
C 	C 	0.08897 0.12633 0.54721 0.19300
C 	C 	0.00107 0.11243 0.51643 0.00800
C 	C 	0.06707 0.18023 0.53698 0.18500
C 	C 	0.06557 0.03743 0.53993 -0.04000
C 	C 	0.97137 0.03953 0.51915 0.01700
Zn	Zn	0.82122 0.61153 0.90121 1.23300
O 	O 	0.36643 0.27477 0.93755 -0.45000
O 	O 	0.45123 0.31587 0.91481 -0.44700
O 	O 	0.76093 0.64557 0.94112 -0.44300
O 	O 	0.72193 0.56627 0.91763 -0.45900
O 	O 	0.78653 0.53517 0.88144 -0.46100
N 	N 	0.70321 0.42735 0.86557 -0.16700
C 	C 	0.49153 0.40437 0.93862 -0.08500
C 	C 	0.56643 0.45987 0.93098 0.02900
H 	H 	0.57703 0.45127 0.91957 0.05200
C 	C 	0.62593 0.52817 0.94008 -0.08800
C 	C 	0.60993 0.54107 0.95671 -0.02500
H 	H 	0.65053 0.58817 0.96287 0.06000
C 	C 	0.53473 0.48557 0.96455 0.01300
C 	C 	0.47563 0.41697 0.95501 -0.02600
H 	H 	0.42363 0.37867 0.96007 0.06100
C 	C 	0.43093 0.32507 0.92956 0.37800
C 	C 	0.70933 0.58447 0.93225 0.38100
C 	C 	0.51883 0.49497 0.98270 -0.02800
C 	C 	0.56303 0.48177 0.99562 0.01600
C 	C 	0.62643 0.46147 0.99190 -0.06100
H 	H 	0.63943 0.45737 0.98037 0.05900
C 	C 	0.66863 0.44797 0.00464 -0.03200
H 	H 	0.71133 0.43587 0.00187 0.04500
C 	C 	0.45583 0.51347 0.98690 0.01700
C 	C 	0.41083 0.52997 0.97410 -0.06300
H 	H 	0.42353 0.52797 0.96247 0.06000
C 	C 	0.35043 0.54847 0.97816 -0.02600
H 	H 	0.32133 0.55887 0.96937 0.04100
C 	C 	0.75563 0.45967 0.88055 0.19700
C 	C 	0.66773 0.44577 0.84977 0.01600
C 	C 	0.73373 0.51357 0.87032 0.18500
C 	C 	0.73223 0.37077 0.87327 -0.04500
C 	C 	0.63803 0.37287 0.85249 0.00800
Zn	Zn	0.45697 0.51211 0.23454 1.23300
O 	O 	0.57500 0.96690 0.27088 -0.44900
O 	O 	0.53130 0.88210 0.24814 -0.44600
O 	O 	0.55130 0.57240 0.27445 -0.44300
O 	O 	0.51100 0.61140 0.25096 -0.45900
O 	O 	0.41530 0.54680 0.21477 -0.46200
N 	N 	0.39080 0.63012 0.19890 -0.16700
C 	C 	0.57950 0.84180 0.27195 -0.08400
C 	C 	0.56010 0.76690 0.26431 0.02800
H 	H 	0.54090 0.75630 0.25290 0.05200
C 	C 	0.56890 0.70740 0.27341 -0.08700
C 	C 	0.59780 0.72340 0.29004 -0.02600
H 	H 	0.60430 0.68280 0.29620 0.06000
C 	C 	0.61750 0.79860 0.29788 0.01500
C 	C 	0.60800 0.85770 0.28834 -0.02700
H 	H 	0.62170 0.90970 0.29340 0.06200
C 	C 	0.56080 0.90240 0.26289 0.37800
C 	C 	0.54180 0.62400 0.26558 0.38000
C 	C 	0.64280 0.81450 0.31603 -0.03100
C 	C 	0.58540 0.77030 0.32895 0.01800
C 	C 	0.50170 0.70690 0.32523 -0.06200
H 	H 	0.48460 0.69390 0.31370 0.05900
C 	C 	0.44600 0.66470 0.33797 -0.03100
H 	H 	0.39120 0.62200 0.33520 0.04400
C 	C 	0.72430 0.87750 0.32023 0.02300
C 	C 	0.78580 0.92250 0.30743 -0.07400
H 	H 	0.77110 0.90980 0.29580 0.06400
C 	C 	0.86470 0.98290 0.31149 -0.00800
H 	H 	0.90420 0.01200 0.30270 0.03300
C 	C 	0.37070 0.57770 0.21388 0.19700
C 	C 	0.44470 0.66560 0.18310 0.01600
C 	C 	0.44650 0.59960 0.20365 0.18500
C 	C 	0.30520 0.60110 0.20660 -0.04500
C 	C 	0.40150 0.69530 0.18582 0.00800
Zn	Zn	0.12364 0.84544 0.56787 1.23300
O 	O 	0.24167 0.30023 0.60421 -0.45000
O 	O 	0.19797 0.21543 0.58147 -0.44700
O 	O 	0.21797 0.90573 0.60778 -0.44300
O 	O 	0.17767 0.94473 0.58429 -0.45900
O 	O 	0.08197 0.88013 0.54810 -0.46100
N 	N 	0.05747 0.96345 0.53223 -0.16700
C 	C 	0.24617 0.17513 0.60528 -0.08500
C 	C 	0.22677 0.10023 0.59764 0.03000
H 	H 	0.20757 0.08963 0.58623 0.05100
C 	C 	0.23557 0.04073 0.60674 -0.09100
C 	C 	0.26447 0.05673 0.62337 -0.02500
H 	H 	0.27097 0.01613 0.62953 0.05800
C 	C 	0.28417 0.13193 0.63121 0.01400
C 	C 	0.27467 0.19103 0.62167 -0.02600
H 	H 	0.28837 0.24303 0.62673 0.06100
C 	C 	0.22747 0.23573 0.59622 0.37800
C 	C 	0.20847 0.95733 0.59891 0.38300
C 	C 	0.30947 0.14783 0.64936 -0.03100
C 	C 	0.25207 0.10363 0.66228 0.02200
C 	C 	0.16837 0.04023 0.65856 -0.07300
H 	H 	0.15127 0.02723 0.64703 0.06200
C 	C 	0.11267 0.99803 0.67130 -0.01600
H 	H 	0.05787 0.95533 0.66853 0.03900
C 	C 	0.39097 0.21083 0.65356 0.01900
C 	C 	0.45247 0.25583 0.64076 -0.06400
H 	H 	0.43777 0.24313 0.62913 0.06000
C 	C 	0.53137 0.31623 0.64482 -0.02500
H 	H 	0.57087 0.34533 0.63603 0.04000
C 	C 	0.03737 0.91103 0.54721 0.19200
C 	C 	0.11137 0.99893 0.51643 0.01700
C 	C 	0.11317 0.93293 0.53698 0.18500
C 	C 	0.97187 0.93443 0.53993 -0.03300
C 	C 	0.06817 0.02863 0.51915 0.00600
Zn	Zn	0.79030 0.17878 0.90121 1.23300
O 	O 	0.90833 0.63357 0.93755 -0.45000
O 	O 	0.86463 0.54877 0.91481 -0.44600
O 	O 	0.88463 0.23907 0.94112 -0.44300
O 	O 	0.84433 0.27807 0.91763 -0.45900
O 	O 	0.74863 0.21347 0.88144 -0.46200
N 	N 	0.72413 0.29679 0.86557 -0.16700
C 	C 	0.91283 0.50847 0.93862 -0.08500
C 	C 	0.89343 0.43357 0.93098 0.02900
H 	H 	0.87423 0.42297 0.91957 0.05200
C 	C 	0.90223 0.37407 0.94008 -0.08800
C 	C 	0.93113 0.39007 0.95671 -0.02400
H 	H 	0.93763 0.34947 0.96287 0.05900
C 	C 	0.95083 0.46527 0.96455 0.01200
C 	C 	0.94133 0.52437 0.95501 -0.02500
H 	H 	0.95503 0.57637 0.96007 0.06100
C 	C 	0.89413 0.56907 0.92956 0.37800
C 	C 	0.87513 0.29067 0.93225 0.38100
C 	C 	0.97613 0.48117 0.98270 -0.02200
C 	C 	0.91873 0.43697 0.99562 0.01200
C 	C 	0.83503 0.37357 0.99190 -0.05800
H 	H 	0.81793 0.36057 0.98037 0.05700
C 	C 	0.77933 0.33137 0.00464 -0.03500
H 	H 	0.72453 0.28867 0.00187 0.04500
C 	C 	0.05763 0.54417 0.98690 0.01100
C 	C 	0.11913 0.58917 0.97410 -0.05900
H 	H 	0.10443 0.57647 0.96247 0.05800
C 	C 	0.19803 0.64957 0.97816 -0.02900
H 	H 	0.23753 0.67867 0.96937 0.04200
C 	C 	0.70403 0.24437 0.88055 0.19700
C 	C 	0.77803 0.33227 0.84977 0.01600
C 	C 	0.77983 0.26627 0.87032 0.18500
C 	C 	0.63853 0.26777 0.87327 -0.04500
C 	C 	0.73483 0.36197 0.85249 0.00800
Zn	Zn	0.45697 0.94486 0.73454 1.23300
O 	O 	0.57500 0.60810 0.77088 -0.45000
O 	O 	0.53130 0.64920 0.74814 -0.44600
O 	O 	0.55130 0.97890 0.77445 -0.44200
O 	O 	0.51100 0.89960 0.75096 -0.45900
O 	O 	0.41530 0.86850 0.71477 -0.46100
N 	N 	0.39080 0.76068 0.69890 -0.16700
C 	C 	0.57950 0.73770 0.77195 -0.08400
C 	C 	0.56010 0.79320 0.76431 0.02900
H 	H 	0.54090 0.78460 0.75290 0.05200
C 	C 	0.56890 0.86150 0.77341 -0.08800
C 	C 	0.59780 0.87440 0.79004 -0.02600
H 	H 	0.60430 0.92150 0.79620 0.06000
C 	C 	0.61750 0.81890 0.79788 0.01400
C 	C 	0.60800 0.75030 0.78834 -0.02600
H 	H 	0.62170 0.71200 0.79340 0.06100
C 	C 	0.56080 0.65840 0.76289 0.37800
C 	C 	0.54180 0.91780 0.76558 0.38000
C 	C 	0.64280 0.82830 0.81603 -0.02800
C 	C 	0.58540 0.81510 0.82895 0.01600
C 	C 	0.50170 0.79480 0.82523 -0.06000
H 	H 	0.48460 0.79070 0.81370 0.05900
C 	C 	0.44600 0.78130 0.83797 -0.03200
H 	H 	0.39120 0.76920 0.83520 0.04500
C 	C 	0.72430 0.84680 0.82023 0.01700
C 	C 	0.78580 0.86330 0.80743 -0.06300
H 	H 	0.77110 0.86130 0.79580 0.06000
C 	C 	0.86470 0.88180 0.81149 -0.02600
H 	H 	0.90420 0.89220 0.80270 0.04200
C 	C 	0.37070 0.79300 0.71388 0.19700
C 	C 	0.44470 0.77910 0.68310 0.01600
C 	C 	0.44650 0.84690 0.70365 0.18500
C 	C 	0.30520 0.70410 0.70660 -0.04500
C 	C 	0.40150 0.70620 0.68582 0.00800
Zn	Zn	0.12364 0.27819 0.06787 1.23300
O 	O 	0.24167 0.94143 0.10421 -0.45000
O 	O 	0.19797 0.98253 0.08147 -0.44700
O 	O 	0.21797 0.31223 0.10778 -0.44300
O 	O 	0.17767 0.23293 0.08429 -0.46000
O 	O 	0.08197 0.20183 0.04810 -0.46100
N 	N 	0.05747 0.09401 0.03223 -0.16700
C 	C 	0.24617 0.07103 0.10528 -0.08800
C 	C 	0.22677 0.12653 0.09764 0.03000
H 	H 	0.20757 0.11793 0.08623 0.05100
C 	C 	0.23557 0.19483 0.10674 -0.08900
C 	C 	0.26447 0.20773 0.12337 -0.02400
H 	H 	0.27097 0.25483 0.12953 0.05900
C 	C 	0.28417 0.15223 0.13121 0.01200
C 	C 	0.27467 0.08363 0.12167 -0.02400
H 	H 	0.28837 0.04533 0.12673 0.05900
C 	C 	0.22747 0.99173 0.09622 0.38100
C 	C 	0.20847 0.25113 0.09891 0.38100
C 	C 	0.30947 0.16163 0.14936 -0.02700
C 	C 	0.25207 0.14843 0.16228 0.01600
C 	C 	0.16837 0.12813 0.15856 -0.06100
H 	H 	0.15127 0.12403 0.14703 0.05800
C 	C 	0.11267 0.11463 0.17130 -0.03300
H 	H 	0.05787 0.10253 0.16853 0.04300
C 	C 	0.39097 0.18013 0.15356 0.01600
C 	C 	0.45247 0.19663 0.14076 -0.06300
H 	H 	0.43777 0.19463 0.12913 0.06000
C 	C 	0.53137 0.21513 0.14482 -0.02700
H 	H 	0.57087 0.22553 0.13603 0.04100
C 	C 	0.03737 0.12633 0.04721 0.19100
C 	C 	0.11137 0.11243 0.01643 0.01300
C 	C 	0.11317 0.18023 0.03698 0.18500
C 	C 	0.97187 0.03743 0.03993 -0.03500
C 	C 	0.06817 0.03953 0.01915 0.01000
Zn	Zn	0.79030 0.61153 0.40121 1.23300
O 	O 	0.90833 0.27477 0.43755 -0.45000
O 	O 	0.86463 0.31587 0.41481 -0.44600
O 	O 	0.88463 0.64557 0.44112 -0.44300
O 	O 	0.84433 0.56627 0.41763 -0.45900
O 	O 	0.74863 0.53517 0.38144 -0.46200
N 	N 	0.72413 0.42735 0.36557 -0.16700
C 	C 	0.91283 0.40437 0.43862 -0.08500
C 	C 	0.89343 0.45987 0.43098 0.02900
H 	H 	0.87423 0.45127 0.41957 0.05200
C 	C 	0.90223 0.52817 0.44008 -0.08800
C 	C 	0.93113 0.54107 0.45671 -0.02400
H 	H 	0.93763 0.58817 0.46287 0.05900
C 	C 	0.95083 0.48557 0.46455 0.01200
C 	C 	0.94133 0.41697 0.45501 -0.02500
H 	H 	0.95503 0.37867 0.46007 0.06100
C 	C 	0.89413 0.32507 0.42956 0.37800
C 	C 	0.87513 0.58447 0.43225 0.38100
C 	C 	0.97613 0.49497 0.48270 -0.02200
C 	C 	0.91873 0.48177 0.49562 0.01200
C 	C 	0.83503 0.46147 0.49190 -0.05800
H 	H 	0.81793 0.45737 0.48037 0.05700
C 	C 	0.77933 0.44797 0.50464 -0.03500
H 	H 	0.72453 0.43587 0.50187 0.04500
C 	C 	0.05763 0.51347 0.48690 0.01100
C 	C 	0.11913 0.52997 0.47410 -0.05900
H 	H 	0.10443 0.52797 0.46247 0.05800
C 	C 	0.19803 0.54847 0.47816 -0.02900
H 	H 	0.23753 0.55887 0.46937 0.04200
C 	C 	0.70403 0.45967 0.38055 0.19700
C 	C 	0.77803 0.44577 0.34977 0.01600
C 	C 	0.77983 0.51357 0.37032 0.18500
C 	C 	0.63853 0.37077 0.37327 -0.04500
C 	C 	0.73483 0.37287 0.35249 0.00800
Zn	Zn	0.05514 0.51211 0.73454 1.23200
O 	O 	0.39190 0.96690 0.77088 -0.44900
O 	O 	0.35080 0.88210 0.74814 -0.44600
O 	O 	0.02110 0.57240 0.77445 -0.44400
O 	O 	0.10040 0.61140 0.75096 -0.46000
O 	O 	0.13150 0.54680 0.71477 -0.46200
N 	N 	0.23932 0.63012 0.69890 -0.16700
C 	C 	0.26230 0.84180 0.77195 -0.08400
C 	C 	0.20680 0.76690 0.76431 0.02800
H 	H 	0.21540 0.75630 0.75290 0.05200
C 	C 	0.13850 0.70740 0.77341 -0.08800
C 	C 	0.12560 0.72340 0.79004 -0.02600
H 	H 	0.07850 0.68280 0.79620 0.05900
C 	C 	0.18110 0.79860 0.79788 0.01500
C 	C 	0.24970 0.85770 0.78834 -0.02700
H 	H 	0.28800 0.90970 0.79340 0.06200
C 	C 	0.34160 0.90240 0.76289 0.37800
C 	C 	0.08220 0.62400 0.76558 0.38100
C 	C 	0.17170 0.81450 0.81603 -0.03100
C 	C 	0.18490 0.77030 0.82895 0.01800
C 	C 	0.20520 0.70690 0.82523 -0.06200
H 	H 	0.20930 0.69390 0.81370 0.05900
C 	C 	0.21870 0.66470 0.83797 -0.03100
H 	H 	0.23080 0.62200 0.83520 0.04400
C 	C 	0.15320 0.87750 0.82023 0.02400
C 	C 	0.13670 0.92250 0.80743 -0.07500
H 	H 	0.13870 0.90980 0.79580 0.06400
C 	C 	0.11820 0.98290 0.81149 -0.00600
H 	H 	0.10780 0.01200 0.80270 0.03200
C 	C 	0.20700 0.57770 0.71388 0.19700
C 	C 	0.22090 0.66560 0.68310 0.01500
C 	C 	0.15310 0.59960 0.70365 0.18400
C 	C 	0.29590 0.60110 0.70660 -0.04500
C 	C 	0.29380 0.69530 0.68582 0.00800
Zn	Zn	0.72181 0.84544 0.06787 1.23300
O 	O 	0.05857 0.30023 0.10421 -0.45000
O 	O 	0.01747 0.21543 0.08147 -0.44700
O 	O 	0.68777 0.90573 0.10778 -0.44300
O 	O 	0.76707 0.94473 0.08429 -0.45900
O 	O 	0.79817 0.88013 0.04810 -0.46100
N 	N 	0.90599 0.96345 0.03223 -0.16700
C 	C 	0.92897 0.17513 0.10528 -0.08100
C 	C 	0.87347 0.10023 0.09764 0.02800
H 	H 	0.88207 0.08963 0.08623 0.05200
C 	C 	0.80517 0.04073 0.10674 -0.09000
C 	C 	0.79227 0.05673 0.12337 -0.02600
H 	H 	0.74517 0.01613 0.12953 0.05900
C 	C 	0.84777 0.13193 0.13121 0.01500
C 	C 	0.91637 0.19103 0.12167 -0.02800
H 	H 	0.95467 0.24303 0.12673 0.06200
C 	C 	0.00827 0.23573 0.09622 0.37500
C 	C 	0.74887 0.95733 0.09891 0.38300
C 	C 	0.83837 0.14783 0.14936 -0.03100
C 	C 	0.85157 0.10363 0.16228 0.02200
C 	C 	0.87187 0.04023 0.15856 -0.07100
H 	H 	0.87597 0.02723 0.14703 0.06200
C 	C 	0.88537 0.99803 0.17130 -0.01700
H 	H 	0.89747 0.95533 0.16853 0.04000
C 	C 	0.81987 0.21083 0.15356 0.01900
C 	C 	0.80337 0.25583 0.14076 -0.06400
H 	H 	0.80537 0.24313 0.12913 0.06000
C 	C 	0.78487 0.31623 0.14482 -0.02500
H 	H 	0.77447 0.34533 0.13603 0.04100
C 	C 	0.87367 0.91103 0.04721 0.19400
C 	C 	0.88757 0.99893 0.01643 0.01600
C 	C 	0.81977 0.93293 0.03698 0.18500
C 	C 	0.96257 0.93443 0.03993 -0.03500
C 	C 	0.96047 0.02863 0.01915 0.00900
Zn	Zn	0.38847 0.17878 0.40121 1.23300
O 	O 	0.72523 0.63357 0.43755 -0.45000
O 	O 	0.68413 0.54877 0.41481 -0.44700
O 	O 	0.35443 0.23907 0.44112 -0.44300
O 	O 	0.43373 0.27807 0.41763 -0.45900
O 	O 	0.46483 0.21347 0.38144 -0.46200
N 	N 	0.57265 0.29679 0.36557 -0.16700
C 	C 	0.59563 0.50847 0.43862 -0.08500
C 	C 	0.54013 0.43357 0.43098 0.02900
H 	H 	0.54873 0.42297 0.41957 0.05200
C 	C 	0.47183 0.37407 0.44008 -0.08800
C 	C 	0.45893 0.39007 0.45671 -0.02500
H 	H 	0.41183 0.34947 0.46287 0.05900
C 	C 	0.51443 0.46527 0.46455 0.01300
C 	C 	0.58303 0.52437 0.45501 -0.02600
H 	H 	0.62133 0.57637 0.46007 0.06100
C 	C 	0.67493 0.56907 0.42956 0.37800
C 	C 	0.41553 0.29067 0.43225 0.38100
C 	C 	0.50503 0.48117 0.48270 -0.02800
C 	C 	0.51823 0.43697 0.49562 0.01600
C 	C 	0.53853 0.37357 0.49190 -0.06100
H 	H 	0.54263 0.36057 0.48037 0.05800
C 	C 	0.55203 0.33137 0.50464 -0.03300
H 	H 	0.56413 0.28867 0.50187 0.04400
C 	C 	0.48653 0.54417 0.48690 0.01700
C 	C 	0.47003 0.58917 0.47410 -0.06300
H 	H 	0.47203 0.57647 0.46247 0.06000
C 	C 	0.45153 0.64957 0.47816 -0.02600
H 	H 	0.44113 0.67867 0.46937 0.04100
C 	C 	0.54033 0.24437 0.38055 0.19700
C 	C 	0.55423 0.33227 0.34977 0.01500
C 	C 	0.48643 0.26627 0.37032 0.18500
C 	C 	0.62923 0.26777 0.37327 -0.04500
C 	C 	0.62713 0.36197 0.35249 0.00800
Zn	Zn	0.48789 0.54303 0.73454 1.23300
O 	O 	0.03310 0.42500 0.77088 -0.45100
O 	O 	0.11790 0.46870 0.74814 -0.44700
O 	O 	0.42760 0.44870 0.77445 -0.44300
O 	O 	0.38860 0.48900 0.75096 -0.45900
O 	O 	0.45320 0.58470 0.71477 -0.46200
N 	N 	0.36988 0.60920 0.69890 -0.16700
C 	C 	0.15820 0.42050 0.77195 -0.08600
C 	C 	0.23310 0.43990 0.76431 0.02900
H 	H 	0.24370 0.45910 0.75290 0.05200
C 	C 	0.29260 0.43110 0.77341 -0.08900
C 	C 	0.27660 0.40220 0.79004 -0.02400
H 	H 	0.31720 0.39570 0.79620 0.05900
C 	C 	0.20140 0.38250 0.79788 0.01200
C 	C 	0.14230 0.39200 0.78834 -0.02500
H 	H 	0.09030 0.37830 0.79340 0.06000
C 	C 	0.09760 0.43920 0.76289 0.37800
C 	C 	0.37600 0.45820 0.76558 0.38100
C 	C 	0.18550 0.35720 0.81603 -0.02500
C 	C 	0.22970 0.41460 0.82895 0.01400
C 	C 	0.29310 0.49830 0.82523 -0.05900
H 	H 	0.30610 0.51540 0.81370 0.05800
C 	C 	0.33530 0.55400 0.83797 -0.03400
H 	H 	0.37800 0.60880 0.83520 0.04500
C 	C 	0.12250 0.27570 0.82023 0.01000
C 	C 	0.07750 0.21420 0.80743 -0.05300
H 	H 	0.09020 0.22890 0.79580 0.05600
C 	C 	0.01710 0.13530 0.81149 -0.04400
H 	H 	0.98800 0.09580 0.80270 0.04800
C 	C 	0.42230 0.62930 0.71388 0.19700
C 	C 	0.33440 0.55530 0.68310 0.01500
C 	C 	0.40040 0.55350 0.70365 0.18500
C 	C 	0.39890 0.69480 0.70660 -0.04500
C 	C 	0.30470 0.59850 0.68582 0.00800
Zn	Zn	0.15456 0.87636 0.06787 1.23300
O 	O 	0.69977 0.75833 0.10421 -0.45000
O 	O 	0.78457 0.80203 0.08147 -0.44600
O 	O 	0.09427 0.78203 0.10778 -0.44300
O 	O 	0.05527 0.82233 0.08429 -0.45900
O 	O 	0.11987 0.91803 0.04810 -0.46100
N 	N 	0.03655 0.94253 0.03223 -0.16700
C 	C 	0.82487 0.75383 0.10528 -0.08400
C 	C 	0.89977 0.77323 0.09764 0.02700
H 	H 	0.91037 0.79243 0.08623 0.05300
C 	C 	0.95927 0.76443 0.10674 -0.08400
C 	C 	0.94327 0.73553 0.12337 -0.02600
H 	H 	0.98387 0.72903 0.12953 0.06100
C 	C 	0.86807 0.71583 0.13121 0.01300
C 	C 	0.80897 0.72533 0.12167 -0.02600
H 	H 	0.75697 0.71163 0.12673 0.06100
C 	C 	0.76427 0.77253 0.09622 0.37800
C 	C 	0.04267 0.79153 0.09891 0.37800
C 	C 	0.85217 0.69053 0.14936 -0.02500
C 	C 	0.89637 0.74793 0.16228 0.00900
C 	C 	0.95977 0.83163 0.15856 -0.04700
H 	H 	0.97277 0.84873 0.14703 0.05500
C 	C 	0.00197 0.88733 0.17130 -0.05000
H 	H 	0.04467 0.94213 0.16853 0.05100
C 	C 	0.78917 0.60903 0.15356 0.01500
C 	C 	0.74417 0.54753 0.14076 -0.06100
H 	H 	0.75687 0.56223 0.12913 0.05900
C 	C 	0.68377 0.46863 0.14482 -0.02700
H 	H 	0.65467 0.42913 0.13603 0.04100
C 	C 	0.08897 0.96263 0.04721 0.19600
C 	C 	0.00107 0.88863 0.01643 0.00900
C 	C 	0.06707 0.88683 0.03698 0.18500
C 	C 	0.06557 0.02813 0.03993 -0.04100
C 	C 	0.97137 0.93183 0.01915 0.01900
Zn	Zn	0.82122 0.20970 0.40121 1.23300
O 	O 	0.36643 0.09167 0.43755 -0.45000
O 	O 	0.45123 0.13537 0.41481 -0.44700
O 	O 	0.76093 0.11537 0.44112 -0.44300
O 	O 	0.72193 0.15567 0.41763 -0.45900
O 	O 	0.78653 0.25137 0.38144 -0.46100
N 	N 	0.70321 0.27587 0.36557 -0.16700
C 	C 	0.49153 0.08717 0.43862 -0.08400
C 	C 	0.56643 0.10657 0.43098 0.02800
H 	H 	0.57703 0.12577 0.41957 0.05200
C 	C 	0.62593 0.09777 0.44008 -0.08800
C 	C 	0.60993 0.06887 0.45671 -0.02700
H 	H 	0.65053 0.06237 0.46287 0.06000
C 	C 	0.53473 0.04917 0.46455 0.01500
C 	C 	0.47563 0.05867 0.45501 -0.02700
H 	H 	0.42363 0.04497 0.46007 0.06100
C 	C 	0.43093 0.10587 0.42956 0.37800
C 	C 	0.70933 0.12487 0.43225 0.38000
C 	C 	0.51883 0.02387 0.48270 -0.03300
C 	C 	0.56303 0.08127 0.49562 0.02000
C 	C 	0.62643 0.16497 0.49190 -0.06400
H 	H 	0.63943 0.18207 0.48037 0.06000
C 	C 	0.66863 0.22067 0.50464 -0.03000
H 	H 	0.71133 0.27547 0.50187 0.04400
C 	C 	0.45583 0.94237 0.48690 0.02300
C 	C 	0.41083 0.88087 0.47410 -0.06600
H 	H 	0.42353 0.89557 0.46247 0.06200
C 	C 	0.35043 0.80197 0.47816 -0.02300
H 	H 	0.32133 0.76247 0.46937 0.04000
C 	C 	0.75563 0.29597 0.38055 0.19700
C 	C 	0.66773 0.22197 0.34977 0.01500
C 	C 	0.73373 0.22017 0.37032 0.18400
C 	C 	0.73223 0.36147 0.37327 -0.04500
C 	C 	0.63803 0.26517 0.35249 0.00800
Zn	Zn	0.94486 0.45697 0.76546 1.23300
O 	O 	0.60810 0.57500 0.72912 -0.45000
O 	O 	0.64920 0.53130 0.75186 -0.44600
O 	O 	0.97890 0.55130 0.72555 -0.44200
O 	O 	0.89960 0.51100 0.74904 -0.45900
O 	O 	0.86850 0.41530 0.78523 -0.46100
N 	N 	0.76068 0.39080 0.80110 -0.16700
C 	C 	0.73770 0.57950 0.72805 -0.08400
C 	C 	0.79320 0.56010 0.73569 0.02900
H 	H 	0.78460 0.54090 0.74710 0.05200
C 	C 	0.86150 0.56890 0.72659 -0.08800
C 	C 	0.87440 0.59780 0.70996 -0.02600
H 	H 	0.92150 0.60430 0.70380 0.06000
C 	C 	0.81890 0.61750 0.70212 0.01400
C 	C 	0.75030 0.60800 0.71166 -0.02600
H 	H 	0.71200 0.62170 0.70660 0.06100
C 	C 	0.65840 0.56080 0.73711 0.37800
C 	C 	0.91780 0.54180 0.73442 0.38000
C 	C 	0.82830 0.64280 0.68397 -0.02800
C 	C 	0.81510 0.58540 0.67105 0.01600
C 	C 	0.79480 0.50170 0.67477 -0.06000
H 	H 	0.79070 0.48460 0.68630 0.05900
C 	C 	0.78130 0.44600 0.66203 -0.03200
H 	H 	0.76920 0.39120 0.66480 0.04500
C 	C 	0.84680 0.72430 0.67977 0.01700
C 	C 	0.86330 0.78580 0.69257 -0.06300
H 	H 	0.86130 0.77110 0.70420 0.06000
C 	C 	0.88180 0.86470 0.68851 -0.02600
H 	H 	0.89220 0.90420 0.69730 0.04200
C 	C 	0.79300 0.37070 0.78612 0.19700
C 	C 	0.77910 0.44470 0.81690 0.01600
C 	C 	0.84690 0.44650 0.79635 0.18500
C 	C 	0.70410 0.30520 0.79340 -0.04500
C 	C 	0.70620 0.40150 0.81418 0.00800
Zn	Zn	0.61153 0.79030 0.09879 1.23300
O 	O 	0.27477 0.90833 0.06245 -0.45000
O 	O 	0.31587 0.86463 0.08519 -0.44600
O 	O 	0.64557 0.88463 0.05888 -0.44300
O 	O 	0.56627 0.84433 0.08237 -0.45900
O 	O 	0.53517 0.74863 0.11856 -0.46200
N 	N 	0.42735 0.72413 0.13443 -0.16700
C 	C 	0.40437 0.91283 0.06138 -0.08500
C 	C 	0.45987 0.89343 0.06902 0.02900
H 	H 	0.45127 0.87423 0.08043 0.05200
C 	C 	0.52817 0.90223 0.05992 -0.08800
C 	C 	0.54107 0.93113 0.04329 -0.02400
H 	H 	0.58817 0.93763 0.03713 0.05900
C 	C 	0.48557 0.95083 0.03545 0.01200
C 	C 	0.41697 0.94133 0.04499 -0.02500
H 	H 	0.37867 0.95503 0.03993 0.06100
C 	C 	0.32507 0.89413 0.07044 0.37800
C 	C 	0.58447 0.87513 0.06775 0.38100
C 	C 	0.49497 0.97613 0.01730 -0.02200
C 	C 	0.48177 0.91873 0.00438 0.01200
C 	C 	0.46147 0.83503 0.00810 -0.05800
H 	H 	0.45737 0.81793 0.01963 0.05700
C 	C 	0.44797 0.77933 0.99536 -0.03500
H 	H 	0.43587 0.72453 0.99813 0.04500
C 	C 	0.51347 0.05763 0.01310 0.01100
C 	C 	0.52997 0.11913 0.02590 -0.05900
H 	H 	0.52797 0.10443 0.03753 0.05800
C 	C 	0.54847 0.19803 0.02184 -0.02900
H 	H 	0.55887 0.23753 0.03063 0.04200
C 	C 	0.45967 0.70403 0.11945 0.19700
C 	C 	0.44577 0.77803 0.15023 0.01600
C 	C 	0.51357 0.77983 0.12968 0.18500
C 	C 	0.37077 0.63853 0.12673 -0.04500
C 	C 	0.37287 0.73483 0.14751 0.00800
Zn	Zn	0.27819 0.12364 0.43213 1.23300
O 	O 	0.94143 0.24167 0.39579 -0.45000
O 	O 	0.98253 0.19797 0.41853 -0.44700
O 	O 	0.31223 0.21797 0.39222 -0.44300
O 	O 	0.23293 0.17767 0.41571 -0.46000
O 	O 	0.20183 0.08197 0.45190 -0.46100
N 	N 	0.09401 0.05747 0.46777 -0.16700
C 	C 	0.07103 0.24617 0.39472 -0.08800
C 	C 	0.12653 0.22677 0.40236 0.03000
H 	H 	0.11793 0.20757 0.41377 0.05100
C 	C 	0.19483 0.23557 0.39326 -0.08900
C 	C 	0.20773 0.26447 0.37663 -0.02400
H 	H 	0.25483 0.27097 0.37047 0.05900
C 	C 	0.15223 0.28417 0.36879 0.01200
C 	C 	0.08363 0.27467 0.37833 -0.02400
H 	H 	0.04533 0.28837 0.37327 0.05900
C 	C 	0.99173 0.22747 0.40378 0.38100
C 	C 	0.25113 0.20847 0.40109 0.38100
C 	C 	0.16163 0.30947 0.35064 -0.02700
C 	C 	0.14843 0.25207 0.33772 0.01600
C 	C 	0.12813 0.16837 0.34144 -0.06100
H 	H 	0.12403 0.15127 0.35297 0.05800
C 	C 	0.11463 0.11267 0.32870 -0.03300
H 	H 	0.10253 0.05787 0.33147 0.04300
C 	C 	0.18013 0.39097 0.34644 0.01600
C 	C 	0.19663 0.45247 0.35924 -0.06300
H 	H 	0.19463 0.43777 0.37087 0.06000
C 	C 	0.21513 0.53137 0.35518 -0.02700
H 	H 	0.22553 0.57087 0.36397 0.04100
C 	C 	0.12633 0.03737 0.45279 0.19100
C 	C 	0.11243 0.11137 0.48357 0.01300
C 	C 	0.18023 0.11317 0.46302 0.18500
C 	C 	0.03743 0.97187 0.46007 -0.03500
C 	C 	0.03953 0.06817 0.48085 0.01000
Zn	Zn	0.51211 0.05514 0.76546 1.23200
O 	O 	0.96690 0.39190 0.72912 -0.44900
O 	O 	0.88210 0.35080 0.75186 -0.44600
O 	O 	0.57240 0.02110 0.72555 -0.44400
O 	O 	0.61140 0.10040 0.74904 -0.46000
O 	O 	0.54680 0.13150 0.78523 -0.46200
N 	N 	0.63012 0.23932 0.80110 -0.16700
C 	C 	0.84180 0.26230 0.72805 -0.08400
C 	C 	0.76690 0.20680 0.73569 0.02800
H 	H 	0.75630 0.21540 0.74710 0.05200
C 	C 	0.70740 0.13850 0.72659 -0.08800
C 	C 	0.72340 0.12560 0.70996 -0.02600
H 	H 	0.68280 0.07850 0.70380 0.05900
C 	C 	0.79860 0.18110 0.70212 0.01500
C 	C 	0.85770 0.24970 0.71166 -0.02700
H 	H 	0.90970 0.28800 0.70660 0.06200
C 	C 	0.90240 0.34160 0.73711 0.37800
C 	C 	0.62400 0.08220 0.73442 0.38100
C 	C 	0.81450 0.17170 0.68397 -0.03100
C 	C 	0.77030 0.18490 0.67105 0.01800
C 	C 	0.70690 0.20520 0.67477 -0.06200
H 	H 	0.69390 0.20930 0.68630 0.05900
C 	C 	0.66470 0.21870 0.66203 -0.03100
H 	H 	0.62200 0.23080 0.66480 0.04400
C 	C 	0.87750 0.15320 0.67977 0.02400
C 	C 	0.92250 0.13670 0.69257 -0.07500
H 	H 	0.90980 0.13870 0.70420 0.06400
C 	C 	0.98290 0.11820 0.68851 -0.00600
H 	H 	0.01200 0.10780 0.69730 0.03200
C 	C 	0.57770 0.20700 0.78612 0.19700
C 	C 	0.66560 0.22090 0.81690 0.01500
C 	C 	0.59960 0.15310 0.79635 0.18400
C 	C 	0.60110 0.29590 0.79340 -0.04500
C 	C 	0.69530 0.29380 0.81418 0.00800
Zn	Zn	0.17878 0.38847 0.09879 1.23300
O 	O 	0.63357 0.72523 0.06245 -0.45000
O 	O 	0.54877 0.68413 0.08519 -0.44700
O 	O 	0.23907 0.35443 0.05888 -0.44300
O 	O 	0.27807 0.43373 0.08237 -0.45900
O 	O 	0.21347 0.46483 0.11856 -0.46200
N 	N 	0.29679 0.57265 0.13443 -0.16700
C 	C 	0.50847 0.59563 0.06138 -0.08500
C 	C 	0.43357 0.54013 0.06902 0.02900
H 	H 	0.42297 0.54873 0.08043 0.05200
C 	C 	0.37407 0.47183 0.05992 -0.08800
C 	C 	0.39007 0.45893 0.04329 -0.02500
H 	H 	0.34947 0.41183 0.03713 0.05900
C 	C 	0.46527 0.51443 0.03545 0.01300
C 	C 	0.52437 0.58303 0.04499 -0.02600
H 	H 	0.57637 0.62133 0.03993 0.06100
C 	C 	0.56907 0.67493 0.07044 0.37800
C 	C 	0.29067 0.41553 0.06775 0.38100
C 	C 	0.48117 0.50503 0.01730 -0.02800
C 	C 	0.43697 0.51823 0.00438 0.01600
C 	C 	0.37357 0.53853 0.00810 -0.06100
H 	H 	0.36057 0.54263 0.01963 0.05800
C 	C 	0.33137 0.55203 0.99536 -0.03300
H 	H 	0.28867 0.56413 0.99813 0.04400
C 	C 	0.54417 0.48653 0.01310 0.01700
C 	C 	0.58917 0.47003 0.02590 -0.06300
H 	H 	0.57647 0.47203 0.03753 0.06000
C 	C 	0.64957 0.45153 0.02184 -0.02600
H 	H 	0.67867 0.44113 0.03063 0.04100
C 	C 	0.24437 0.54033 0.11945 0.19700
C 	C 	0.33227 0.55423 0.15023 0.01500
C 	C 	0.26627 0.48643 0.12968 0.18500
C 	C 	0.26777 0.62923 0.12673 -0.04500
C 	C 	0.36197 0.62713 0.14751 0.00800
Zn	Zn	0.84544 0.72181 0.43213 1.23300
O 	O 	0.30023 0.05857 0.39579 -0.45000
O 	O 	0.21543 0.01747 0.41853 -0.44700
O 	O 	0.90573 0.68777 0.39222 -0.44300
O 	O 	0.94473 0.76707 0.41571 -0.45900
O 	O 	0.88013 0.79817 0.45190 -0.46100
N 	N 	0.96345 0.90599 0.46777 -0.16700
C 	C 	0.17513 0.92897 0.39472 -0.08100
C 	C 	0.10023 0.87347 0.40236 0.02800
H 	H 	0.08963 0.88207 0.41377 0.05200
C 	C 	0.04073 0.80517 0.39326 -0.09000
C 	C 	0.05673 0.79227 0.37663 -0.02600
H 	H 	0.01613 0.74517 0.37047 0.05900
C 	C 	0.13193 0.84777 0.36879 0.01500
C 	C 	0.19103 0.91637 0.37833 -0.02800
H 	H 	0.24303 0.95467 0.37327 0.06200
C 	C 	0.23573 0.00827 0.40378 0.37500
C 	C 	0.95733 0.74887 0.40109 0.38300
C 	C 	0.14783 0.83837 0.35064 -0.03100
C 	C 	0.10363 0.85157 0.33772 0.02200
C 	C 	0.04023 0.87187 0.34144 -0.07100
H 	H 	0.02723 0.87597 0.35297 0.06200
C 	C 	0.99803 0.88537 0.32870 -0.01700
H 	H 	0.95533 0.89747 0.33147 0.04000
C 	C 	0.21083 0.81987 0.34644 0.01900
C 	C 	0.25583 0.80337 0.35924 -0.06400
H 	H 	0.24313 0.80537 0.37087 0.06000
C 	C 	0.31623 0.78487 0.35518 -0.02500
H 	H 	0.34533 0.77447 0.36397 0.04100
C 	C 	0.91103 0.87367 0.45279 0.19400
C 	C 	0.99893 0.88757 0.48357 0.01600
C 	C 	0.93293 0.81977 0.46302 0.18500
C 	C 	0.93443 0.96257 0.46007 -0.03500
C 	C 	0.02863 0.96047 0.48085 0.00900
Zn	Zn	0.54303 0.48789 0.76546 1.23300
O 	O 	0.42500 0.03310 0.72912 -0.45100
O 	O 	0.46870 0.11790 0.75186 -0.44700
O 	O 	0.44870 0.42760 0.72555 -0.44300
O 	O 	0.48900 0.38860 0.74904 -0.45900
O 	O 	0.58470 0.45320 0.78523 -0.46200
N 	N 	0.60920 0.36988 0.80110 -0.16700
C 	C 	0.42050 0.15820 0.72805 -0.08600
C 	C 	0.43990 0.23310 0.73569 0.02900
H 	H 	0.45910 0.24370 0.74710 0.05200
C 	C 	0.43110 0.29260 0.72659 -0.08900
C 	C 	0.40220 0.27660 0.70996 -0.02400
H 	H 	0.39570 0.31720 0.70380 0.05900
C 	C 	0.38250 0.20140 0.70212 0.01200
C 	C 	0.39200 0.14230 0.71166 -0.02500
H 	H 	0.37830 0.09030 0.70660 0.06000
C 	C 	0.43920 0.09760 0.73711 0.37800
C 	C 	0.45820 0.37600 0.73442 0.38100
C 	C 	0.35720 0.18550 0.68397 -0.02500
C 	C 	0.41460 0.22970 0.67105 0.01400
C 	C 	0.49830 0.29310 0.67477 -0.05900
H 	H 	0.51540 0.30610 0.68630 0.05800
C 	C 	0.55400 0.33530 0.66203 -0.03400
H 	H 	0.60880 0.37800 0.66480 0.04500
C 	C 	0.27570 0.12250 0.67977 0.01000
C 	C 	0.21420 0.07750 0.69257 -0.05300
H 	H 	0.22890 0.09020 0.70420 0.05600
C 	C 	0.13530 0.01710 0.68851 -0.04400
H 	H 	0.09580 0.98800 0.69730 0.04800
C 	C 	0.62930 0.42230 0.78612 0.19700
C 	C 	0.55530 0.33440 0.81690 0.01500
C 	C 	0.55350 0.40040 0.79635 0.18500
C 	C 	0.69480 0.39890 0.79340 -0.04500
C 	C 	0.59850 0.30470 0.81418 0.00800
Zn	Zn	0.20970 0.82122 0.09879 1.23300
O 	O 	0.09167 0.36643 0.06245 -0.45000
O 	O 	0.13537 0.45123 0.08519 -0.44700
O 	O 	0.11537 0.76093 0.05888 -0.44300
O 	O 	0.15567 0.72193 0.08237 -0.45900
O 	O 	0.25137 0.78653 0.11856 -0.46100
N 	N 	0.27587 0.70321 0.13443 -0.16700
C 	C 	0.08717 0.49153 0.06138 -0.08400
C 	C 	0.10657 0.56643 0.06902 0.02800
H 	H 	0.12577 0.57703 0.08043 0.05200
C 	C 	0.09777 0.62593 0.05992 -0.08800
C 	C 	0.06887 0.60993 0.04329 -0.02700
H 	H 	0.06237 0.65053 0.03713 0.06000
C 	C 	0.04917 0.53473 0.03545 0.01500
C 	C 	0.05867 0.47563 0.04499 -0.02700
H 	H 	0.04497 0.42363 0.03993 0.06100
C 	C 	0.10587 0.43093 0.07044 0.37800
C 	C 	0.12487 0.70933 0.06775 0.38000
C 	C 	0.02387 0.51883 0.01730 -0.03300
C 	C 	0.08127 0.56303 0.00438 0.02000
C 	C 	0.16497 0.62643 0.00810 -0.06400
H 	H 	0.18207 0.63943 0.01963 0.06000
C 	C 	0.22067 0.66863 0.99536 -0.03000
H 	H 	0.27547 0.71133 0.99813 0.04400
C 	C 	0.94237 0.45583 0.01310 0.02300
C 	C 	0.88087 0.41083 0.02590 -0.06600
H 	H 	0.89557 0.42353 0.03753 0.06200
C 	C 	0.80197 0.35043 0.02184 -0.02300
H 	H 	0.76247 0.32133 0.03063 0.04000
C 	C 	0.29597 0.75563 0.11945 0.19700
C 	C 	0.22197 0.66773 0.15023 0.01500
C 	C 	0.22017 0.73373 0.12968 0.18400
C 	C 	0.36147 0.73223 0.12673 -0.04500
C 	C 	0.26517 0.63803 0.14751 0.00800
Zn	Zn	0.87636 0.15456 0.43213 1.23300
O 	O 	0.75833 0.69977 0.39579 -0.45000
O 	O 	0.80203 0.78457 0.41853 -0.44600
O 	O 	0.78203 0.09427 0.39222 -0.44300
O 	O 	0.82233 0.05527 0.41571 -0.45900
O 	O 	0.91803 0.11987 0.45190 -0.46100
N 	N 	0.94253 0.03655 0.46777 -0.16700
C 	C 	0.75383 0.82487 0.39472 -0.08400
C 	C 	0.77323 0.89977 0.40236 0.02700
H 	H 	0.79243 0.91037 0.41377 0.05300
C 	C 	0.76443 0.95927 0.39326 -0.08400
C 	C 	0.73553 0.94327 0.37663 -0.02600
H 	H 	0.72903 0.98387 0.37047 0.06100
C 	C 	0.71583 0.86807 0.36879 0.01300
C 	C 	0.72533 0.80897 0.37833 -0.02600
H 	H 	0.71163 0.75697 0.37327 0.06100
C 	C 	0.77253 0.76427 0.40378 0.37800
C 	C 	0.79153 0.04267 0.40109 0.37800
C 	C 	0.69053 0.85217 0.35064 -0.02500
C 	C 	0.74793 0.89637 0.33772 0.00900
C 	C 	0.83163 0.95977 0.34144 -0.04700
H 	H 	0.84873 0.97277 0.35297 0.05500
C 	C 	0.88733 0.00197 0.32870 -0.05000
H 	H 	0.94213 0.04467 0.33147 0.05100
C 	C 	0.60903 0.78917 0.34644 0.01500
C 	C 	0.54753 0.74417 0.35924 -0.06100
H 	H 	0.56223 0.75687 0.37087 0.05900
C 	C 	0.46863 0.68377 0.35518 -0.02700
H 	H 	0.42913 0.65467 0.36397 0.04100
C 	C 	0.96263 0.08897 0.45279 0.19600
C 	C 	0.88863 0.00107 0.48357 0.00900
C 	C 	0.88683 0.06707 0.46302 0.18500
C 	C 	0.02813 0.06557 0.46007 -0.04100
C 	C 	0.93183 0.97137 0.48085 0.01900
C 	C 	0.66667 0.33333 0.30147 0.17700
C 	C 	0.33333 0.66667 0.63480 0.17700
C 	C 	-0.00000 0.00000 0.96814 0.15500
C 	C 	0.33333 0.66667 0.19853 0.17700
C 	C 	-0.00000 0.00000 0.53186 0.15500
C 	C 	0.66667 0.33333 0.86520 0.17700
C 	C 	0.33333 0.66667 0.69853 0.17700
C 	C 	-0.00000 -0.00000 0.03186 0.15500
C 	C 	0.66667 0.33333 0.36520 0.17700
C 	C 	0.66667 0.33333 0.80147 0.17700
C 	C 	0.33333 0.66667 0.13480 0.17700
C 	C 	-0.00000 0.00000 0.46814 0.15500
