data_crystal

_cell_length_a 20.13080
_cell_length_b 27.40990
_cell_length_c 45.33380
_cell_angle_alpha 90.00000
_cell_angle_beta  90.00000
_cell_angle_gamma 90.00000

_symmetry_space_group_name_	'P 1'
_symmetry_space_group_name_H-M	'P 1'

loop_
_symmetry_equiv_pos_as_xyz
  x,y,z

loop_
_atom_site_label
_atom_site_type_symbol
_atom_site_fract_x
_atom_site_fract_y
_atom_site_fract_z
_atom_site_charge
Zn	Zn	0.68636 0.24903 0.59019 1.15000
Zn	Zn	0.72898 0.12898 0.58401 1.22800
Zn	Zn	0.74038 0.18639 0.64721 1.21800
Zn	Zn	0.02536 0.68000 0.65081 1.18800
Zn	Zn	0.45918 0.78752 0.58484 1.22400
Zn	Zn	0.57608 0.86658 0.58703 1.19200
Zn	Zn	0.09078 0.75094 0.91483 1.14700
Zn	Zn	0.56842 0.87187 0.91703 1.22800
Zn	Zn	0.54395 0.81150 0.85599 1.22000
Zn	Zn	0.25258 0.32384 0.85081 1.19800
Zn	Zn	0.32725 0.31417 0.91749 1.22500
Zn	Zn	0.67061 0.18858 0.91528 1.18900
Zn	Zn	0.18636 0.75097 0.40981 1.15100
Zn	Zn	0.22898 0.87102 0.41599 1.22900
Zn	Zn	0.24038 0.81361 0.35279 1.21900
Zn	Zn	0.52536 0.32000 0.34919 1.18900
Zn	Zn	0.95918 0.21248 0.41516 1.22500
Zn	Zn	0.07608 0.13342 0.41297 1.19200
Zn	Zn	0.59078 0.24906 0.08517 1.14800
Zn	Zn	0.06842 0.12813 0.08297 1.22900
Zn	Zn	0.04395 0.18850 0.14401 1.22100
Zn	Zn	0.75258 0.67616 0.14919 1.19900
Zn	Zn	0.82725 0.68583 0.08251 1.22600
Zn	Zn	0.17061 0.81142 0.08472 1.18900
Zn	Zn	0.68636 0.74903 0.40981 1.15100
Zn	Zn	0.72898 0.62898 0.41599 1.22900
Zn	Zn	0.74038 0.68639 0.35279 1.21900
Zn	Zn	0.02536 0.18000 0.34919 1.18900
Zn	Zn	0.45918 0.28752 0.41516 1.22500
Zn	Zn	0.57608 0.36658 0.41297 1.19300
Zn	Zn	0.09078 0.25094 0.08517 1.14800
Zn	Zn	0.56842 0.37187 0.08297 1.22900
Zn	Zn	0.54395 0.31150 0.14401 1.22100
Zn	Zn	0.25258 0.82384 0.14919 1.19900
Zn	Zn	0.32725 0.81417 0.08251 1.22600
Zn	Zn	0.67061 0.68858 0.08472 1.18900
Zn	Zn	0.18636 0.25097 0.59019 1.15100
Zn	Zn	0.22898 0.37102 0.58401 1.22900
Zn	Zn	0.24038 0.31361 0.64721 1.21900
Zn	Zn	0.52536 0.82000 0.65081 1.18900
Zn	Zn	0.95918 0.71248 0.58484 1.22600
Zn	Zn	0.07608 0.63342 0.58703 1.19200
Zn	Zn	0.59078 0.74906 0.91483 1.14800
Zn	Zn	0.06842 0.62813 0.91703 1.22900
Zn	Zn	0.04395 0.68850 0.85599 1.22100
Zn	Zn	0.75258 0.17616 0.85081 1.19900
Zn	Zn	0.82725 0.18583 0.91749 1.22600
Zn	Zn	0.17061 0.31142 0.91528 1.18900
H 	H 	0.78760 0.19930 0.59980 0.28900
H 	H 	0.38260 0.78520 0.79870 0.05900
H 	H 	0.28950 0.76280 0.87560 0.04100
H 	H 	0.19060 0.74450 0.79960 0.05700
H 	H 	0.17890 0.74890 0.70210 0.05300
H 	H 	0.26630 0.75690 0.62310 0.04600
H 	H 	0.37510 0.77440 0.69630 0.03800
H 	H 	0.69730 0.06170 0.69990 0.05000
H 	H 	0.65730 0.00060 0.62170 0.03800
H 	H 	0.61770 0.92840 0.69660 0.03800
H 	H 	0.60350 0.92590 0.79880 0.05700
H 	H 	0.65270 0.99270 0.87430 0.05100
H 	H 	0.70070 0.05410 0.79720 0.05900
H 	H 	0.58900 0.23370 0.70490 0.05900
H 	H 	0.49080 0.25370 0.62840 0.04400
H 	H 	0.40180 0.28170 0.70580 0.06100
H 	H 	0.41410 0.29370 0.80590 0.02700
H 	H 	0.50840 0.26270 0.88120 0.03300
H 	H 	0.59060 0.22720 0.80460 0.03500
H 	H 	0.31140 0.16050 0.95240 0.04300
H 	H 	0.18010 0.23550 0.00080 0.02500
H 	H 	0.23600 0.10110 0.02610 0.05200
H 	H 	0.31130 0.97840 0.02530 0.06200
H 	H 	0.43030 0.86710 0.00500 0.05700
H 	H 	0.42460 0.98410 0.95200 0.06300
H 	H 	0.56770 0.78660 0.60380 0.32300
H 	H 	0.48410 0.96380 0.53080 0.05300
H 	H 	0.36490 0.85280 0.50920 0.04900
H 	H 	0.36890 0.97320 0.45880 0.06100
H 	H 	0.46920 0.14580 0.45930 0.05800
H 	H 	0.59230 0.23190 0.50510 0.03600
H 	H 	0.56150 0.09430 0.53090 0.05300
H 	H 	0.99810 0.69370 0.90380 0.29100
H 	H 	0.24790 0.36810 0.89800 0.32600
H 	H 	0.28760 0.80070 0.40020 0.28900
H 	H 	0.88260 0.21480 0.20130 0.05900
H 	H 	0.78950 0.23720 0.12440 0.04100
H 	H 	0.69060 0.25550 0.20040 0.05700
H 	H 	0.67890 0.25110 0.29790 0.05300
H 	H 	0.76630 0.24310 0.37690 0.04600
H 	H 	0.87510 0.22560 0.30370 0.03800
H 	H 	0.19730 0.93830 0.30010 0.05000
H 	H 	0.15730 0.99940 0.37830 0.03800
H 	H 	0.11770 0.07160 0.30340 0.03800
H 	H 	0.10350 0.07410 0.20120 0.05700
H 	H 	0.15270 0.00730 0.12570 0.05000
H 	H 	0.20070 0.94590 0.20280 0.05900
H 	H 	0.08900 0.76630 0.29510 0.06000
H 	H 	0.99080 0.74630 0.37160 0.04400
H 	H 	0.90180 0.71830 0.29420 0.06200
H 	H 	0.91410 0.70630 0.19410 0.02600
H 	H 	0.00840 0.73730 0.11880 0.03300
H 	H 	0.09060 0.77280 0.19540 0.03400
H 	H 	0.81140 0.83950 0.04760 0.04400
H 	H 	0.68010 0.76450 0.99920 0.02500
H 	H 	0.73600 0.89890 0.97390 0.05200
H 	H 	0.81130 0.02160 0.97470 0.06200
H 	H 	0.93030 0.13290 0.99500 0.05700
H 	H 	0.92460 0.01590 0.04800 0.06300
H 	H 	0.06770 0.21340 0.39620 0.32300
H 	H 	0.98410 0.03620 0.46920 0.05400
H 	H 	0.86490 0.14720 0.49080 0.04900
H 	H 	0.86890 0.02680 0.54120 0.06100
H 	H 	0.96920 0.85420 0.54070 0.05600
H 	H 	0.09230 0.76810 0.49490 0.03500
H 	H 	0.06150 0.90570 0.46910 0.05100
H 	H 	0.49810 0.30630 0.09620 0.28900
H 	H 	0.74790 0.63190 0.10200 0.32600
H 	H 	0.78760 0.69930 0.40020 0.28900
H 	H 	0.38260 0.28520 0.20130 0.05900
H 	H 	0.28950 0.26280 0.12440 0.04100
H 	H 	0.19060 0.24450 0.20040 0.05700
H 	H 	0.17890 0.24890 0.29790 0.05300
H 	H 	0.26630 0.25690 0.37690 0.04600
H 	H 	0.37510 0.27440 0.30370 0.03800
H 	H 	0.69730 0.56170 0.30010 0.05000
H 	H 	0.65730 0.50060 0.37830 0.03800
H 	H 	0.61770 0.42840 0.30340 0.03800
H 	H 	0.60350 0.42590 0.20120 0.05700
H 	H 	0.65270 0.49270 0.12570 0.05100
H 	H 	0.70070 0.55410 0.20280 0.05900
H 	H 	0.58900 0.73370 0.29510 0.05900
H 	H 	0.49080 0.75370 0.37160 0.04400
H 	H 	0.40180 0.78170 0.29420 0.06100
H 	H 	0.41410 0.79370 0.19410 0.02700
H 	H 	0.50840 0.76270 0.11880 0.03300
H 	H 	0.59060 0.72720 0.19540 0.03500
H 	H 	0.31140 0.66050 0.04760 0.04300
H 	H 	0.18010 0.73550 0.99920 0.02500
H 	H 	0.23600 0.60110 0.97390 0.05200
H 	H 	0.31130 0.47840 0.97470 0.06200
H 	H 	0.43030 0.36710 0.99500 0.05700
H 	H 	0.42460 0.48410 0.04800 0.06300
H 	H 	0.56770 0.28660 0.39620 0.32300
H 	H 	0.48410 0.46380 0.46920 0.05300
H 	H 	0.36490 0.35280 0.49080 0.04900
H 	H 	0.36890 0.47320 0.54120 0.06100
H 	H 	0.46920 0.64580 0.54070 0.05800
H 	H 	0.59230 0.73190 0.49490 0.03600
H 	H 	0.56150 0.59430 0.46910 0.05300
H 	H 	0.99810 0.19370 0.09620 0.29100
H 	H 	0.24790 0.86810 0.10200 0.32600
H 	H 	0.28760 0.30070 0.59980 0.28900
H 	H 	0.88260 0.71480 0.79870 0.05900
H 	H 	0.78950 0.73720 0.87560 0.04100
H 	H 	0.69060 0.75550 0.79960 0.05700
H 	H 	0.67890 0.75110 0.70210 0.05300
H 	H 	0.76630 0.74310 0.62310 0.04600
H 	H 	0.87510 0.72560 0.69630 0.03900
H 	H 	0.19730 0.43830 0.69990 0.05000
H 	H 	0.15730 0.49940 0.62170 0.03800
H 	H 	0.11770 0.57160 0.69660 0.03800
H 	H 	0.10350 0.57410 0.79880 0.05700
H 	H 	0.15270 0.50730 0.87430 0.05000
H 	H 	0.20070 0.44590 0.79720 0.05900
H 	H 	0.08900 0.26630 0.70490 0.06000
H 	H 	0.99080 0.24630 0.62840 0.04400
H 	H 	0.90180 0.21830 0.70580 0.06200
H 	H 	0.91410 0.20630 0.80590 0.02600
H 	H 	0.00840 0.23730 0.88120 0.03300
H 	H 	0.09060 0.27280 0.80460 0.03400
H 	H 	0.81140 0.33950 0.95240 0.04400
H 	H 	0.68010 0.26450 0.00080 0.02500
H 	H 	0.73600 0.39890 0.02610 0.05200
H 	H 	0.81130 0.52160 0.02530 0.06200
H 	H 	0.93030 0.63290 0.00500 0.05700
H 	H 	0.92460 0.51590 0.95200 0.06300
H 	H 	0.06770 0.71340 0.60380 0.32300
H 	H 	0.98410 0.53620 0.53080 0.05400
H 	H 	0.86490 0.64720 0.50920 0.04900
H 	H 	0.86890 0.52680 0.45880 0.06100
H 	H 	0.96920 0.35420 0.45930 0.05600
H 	H 	0.09230 0.26810 0.50510 0.03500
H 	H 	0.06150 0.40570 0.53090 0.05100
H 	H 	0.49810 0.80630 0.90380 0.28900
H 	H 	0.74790 0.13190 0.89800 0.32600
C 	C 	0.28650 0.76470 0.79387 0.01600
C 	C 	0.34460 0.77670 0.80911 -0.03800
C 	C 	0.34590 0.77590 0.83934 -0.07600
C 	C 	0.28870 0.76320 0.85510 0.01100
C 	C 	0.23070 0.75100 0.84009 -0.09100
C 	C 	0.22950 0.75220 0.80964 -0.03200
C 	C 	0.40800 0.78930 0.85568 0.32200
C 	C 	0.16950 0.73470 0.85619 0.35900
C 	C 	0.27680 0.76290 0.70469 0.00800
C 	C 	0.21660 0.75380 0.69065 -0.02500
C 	C 	0.21100 0.75180 0.66050 -0.08700
C 	C 	0.26870 0.75820 0.64352 0.02300
C 	C 	0.32900 0.76630 0.65700 -0.09600
C 	C 	0.33410 0.76880 0.68746 -0.02600
C 	C 	0.14570 0.74030 0.64594 0.35400
C 	C 	0.39070 0.77110 0.63879 0.34300
C 	C 	0.28370 0.76720 0.76190 -0.02200
C 	C 	0.28110 0.76470 0.73584 -0.01700
C 	C 	0.65550 0.99500 0.70334 -0.00300
C 	C 	0.68040 0.03590 0.68897 -0.00800
C 	C 	0.68020 0.03840 0.65878 -0.11200
C 	C 	0.65660 0.99900 0.64223 0.05100
C 	C 	0.63260 0.95800 0.65592 -0.12200
C 	C 	0.63300 0.95620 0.68705 -0.01000
C 	C 	0.70480 0.08280 0.64292 0.39800
C 	C 	0.60910 0.91420 0.63912 0.40200
C 	C 	0.65170 0.99060 0.79260 0.02000
C 	C 	0.62330 0.95190 0.80856 -0.03200
C 	C 	0.62530 0.95310 0.83923 -0.08700
C 	C 	0.65290 0.99220 0.85378 0.01900
C 	C 	0.68030 0.03020 0.83876 -0.07400
C 	C 	0.68070 0.02890 0.80772 -0.03700
C 	C 	0.59440 0.91060 0.85657 0.40300
C 	C 	0.71000 0.07400 0.85469 0.34400
C 	C 	0.65320 0.99290 0.73457 -0.01100
C 	C 	0.65110 0.99040 0.76115 -0.02300
C 	C 	0.49570 0.25810 0.71045 0.02500
C 	C 	0.55100 0.24330 0.69483 -0.04300
C 	C 	0.55020 0.24260 0.66404 -0.08400
C 	C 	0.49190 0.25510 0.64886 0.00200
C 	C 	0.43560 0.26940 0.66451 -0.06800
C 	C 	0.43880 0.27130 0.69523 -0.04800
C 	C 	0.61180 0.22610 0.64733 0.36200
C 	C 	0.37300 0.28370 0.64855 0.31200
C 	C 	0.50120 0.26200 0.79983 -0.02000
C 	C 	0.45080 0.28130 0.81580 0.00800
C 	C 	0.45160 0.28320 0.84655 -0.14200
C 	C 	0.50610 0.26200 0.86072 0.06500
C 	C 	0.55600 0.24040 0.84517 -0.13100
C 	C 	0.55540 0.24080 0.81510 0.00500
C 	C 	0.39750 0.30490 0.86336 0.39600
C 	C 	0.61200 0.21650 0.86146 0.39000
C 	C 	0.49730 0.26000 0.74155 -0.03300
C 	C 	0.49900 0.26010 0.76822 -0.00700
C 	C 	0.27970 0.12290 0.98758 -0.00400
C 	C 	0.28320 0.16200 0.96857 -0.01600
C 	C 	0.24640 0.20280 0.97305 -0.09900
C 	C 	0.20530 0.20750 0.99791 0.04000
C 	C 	0.20320 0.16900 0.01834 -0.11400
C 	C 	0.23880 0.12700 0.01294 -0.00900
C 	C 	0.24810 0.24570 0.95094 0.38200
C 	C 	0.16020 0.17340 0.04525 0.41700
C 	C 	0.36450 0.99010 0.98811 0.02500
C 	C 	0.34240 0.96430 0.01271 -0.04500
C 	C 	0.36650 0.91790 0.01866 -0.07600
C 	C 	0.41270 0.89760 0.00051 -0.00100
C 	C 	0.43380 0.92200 0.97532 -0.05500
C 	C 	0.41030 0.96790 0.96886 -0.05200
C 	C 	0.33910 0.88990 0.04424 0.35100
C 	C 	0.48270 0.89690 0.95539 0.29100
C 	C 	0.31400 0.07780 0.98358 -0.01300
C 	C 	0.33880 0.03870 0.98342 -0.03000
C 	C 	0.42830 0.97770 0.49410 0.01600
C 	C 	0.45250 0.95040 0.51825 -0.03300
C 	C 	0.42900 0.90370 0.52321 -0.09100
C 	C 	0.38240 0.88340 0.50492 0.01700
C 	C 	0.36140 0.90840 0.48000 -0.07300
C 	C 	0.38410 0.95600 0.47516 -0.04100
C 	C 	0.45790 0.87640 0.54928 0.38700
C 	C 	0.31250 0.88520 0.45953 0.32000
C 	C 	0.50970 0.11220 0.49494 0.00700
C 	C 	0.49800 0.15050 0.47509 -0.03000
C 	C 	0.52840 0.19490 0.47872 -0.07900
C 	C 	0.57150 0.20190 0.50256 0.02700
C 	C 	0.58320 0.16450 0.52234 -0.10400
C 	C 	0.55270 0.11980 0.51793 -0.01900
C 	C 	0.51520 0.23660 0.45821 0.32500
C 	C 	0.62950 0.17260 0.54808 0.41200
C 	C 	0.45390 0.02580 0.49060 -0.02400
C 	C 	0.47740 0.06540 0.49144 -0.01700
C 	C 	0.78650 0.23530 0.20613 0.01600
C 	C 	0.84460 0.22330 0.19089 -0.03800
C 	C 	0.84590 0.22410 0.16066 -0.07600
C 	C 	0.78870 0.23680 0.14490 0.01100
C 	C 	0.73070 0.24900 0.15991 -0.09100
C 	C 	0.72950 0.24780 0.19036 -0.03200
C 	C 	0.90800 0.21070 0.14432 0.32100
C 	C 	0.66950 0.26530 0.14381 0.35900
C 	C 	0.77680 0.23710 0.29531 0.00800
C 	C 	0.71660 0.24620 0.30935 -0.02500
C 	C 	0.71100 0.24820 0.33950 -0.08700
C 	C 	0.76870 0.24180 0.35648 0.02200
C 	C 	0.82900 0.23370 0.34300 -0.09600
C 	C 	0.83410 0.23120 0.31254 -0.02600
C 	C 	0.64570 0.25970 0.35406 0.35400
C 	C 	0.89070 0.22890 0.36121 0.34300
C 	C 	0.78370 0.23280 0.23810 -0.02100
C 	C 	0.78110 0.23530 0.26416 -0.01700
C 	C 	0.15550 0.00500 0.29666 -0.00300
C 	C 	0.18040 0.96410 0.31103 -0.00800
C 	C 	0.18020 0.96160 0.34122 -0.11200
C 	C 	0.15660 0.00100 0.35777 0.05100
C 	C 	0.13260 0.04200 0.34408 -0.12200
C 	C 	0.13300 0.04380 0.31295 -0.00900
C 	C 	0.20480 0.91720 0.35708 0.39800
C 	C 	0.10910 0.08580 0.36088 0.40200
C 	C 	0.15170 0.00940 0.20740 0.02000
C 	C 	0.12330 0.04810 0.19144 -0.03200
C 	C 	0.12530 0.04690 0.16077 -0.08700
C 	C 	0.15290 0.00780 0.14622 0.01900
C 	C 	0.18030 0.96980 0.16124 -0.07400
C 	C 	0.18070 0.97110 0.19228 -0.03700
C 	C 	0.09440 0.08940 0.14343 0.40300
C 	C 	0.21000 0.92600 0.14531 0.34500
C 	C 	0.15320 0.00710 0.26543 -0.01100
C 	C 	0.15110 0.00960 0.23885 -0.02400
C 	C 	0.99570 0.74190 0.28955 0.02900
C 	C 	0.05100 0.75670 0.30517 -0.04500
C 	C 	0.05020 0.75740 0.33596 -0.08500
C 	C 	0.99190 0.74490 0.35114 0.00300
C 	C 	0.93560 0.73060 0.33549 -0.06800
C 	C 	0.93880 0.72870 0.30477 -0.04900
C 	C 	0.11180 0.77390 0.35267 0.36200
C 	C 	0.87300 0.71630 0.35145 0.31200
C 	C 	0.00120 0.73800 0.20017 -0.02500
C 	C 	0.95080 0.71870 0.18420 0.01200
C 	C 	0.95160 0.71680 0.15345 -0.14200
C 	C 	0.00610 0.73800 0.13928 0.06400
C 	C 	0.05600 0.75960 0.15483 -0.13200
C 	C 	0.05540 0.75920 0.18490 0.00700
C 	C 	0.89750 0.69510 0.13664 0.39700
C 	C 	0.11200 0.78350 0.13854 0.39000
C 	C 	0.99730 0.74000 0.25845 -0.03500
C 	C 	0.99900 0.73990 0.23178 -0.00300
C 	C 	0.77970 0.87710 0.01242 -0.00400
C 	C 	0.78320 0.83800 0.03143 -0.01600
C 	C 	0.74640 0.79720 0.02695 -0.09900
C 	C 	0.70530 0.79250 0.00209 0.04000
C 	C 	0.70320 0.83100 0.98166 -0.11400
C 	C 	0.73880 0.87300 0.98706 -0.00900
C 	C 	0.74810 0.75430 0.04906 0.38200
C 	C 	0.66020 0.82660 0.95475 0.41700
C 	C 	0.86450 0.00990 0.01189 0.02400
C 	C 	0.84240 0.03570 0.98729 -0.04400
C 	C 	0.86650 0.08210 0.98134 -0.07600
C 	C 	0.91270 0.10240 0.99949 0.00000
C 	C 	0.93380 0.07800 0.02468 -0.05700
C 	C 	0.91030 0.03210 0.03114 -0.05100
C 	C 	0.83910 0.11010 0.95576 0.35100
C 	C 	0.98270 0.10310 0.04461 0.29500
C 	C 	0.81400 0.92220 0.01642 -0.01300
C 	C 	0.83880 0.96130 0.01658 -0.02900
C 	C 	0.92830 0.02230 0.50590 0.01800
C 	C 	0.95250 0.04960 0.48175 -0.03300
C 	C 	0.92900 0.09630 0.47679 -0.09100
C 	C 	0.88240 0.11660 0.49508 0.01700
C 	C 	0.86140 0.09160 0.52000 -0.07200
C 	C 	0.88410 0.04400 0.52484 -0.04200
C 	C 	0.95790 0.12360 0.45072 0.38800
C 	C 	0.81250 0.11480 0.54047 0.32000
C 	C 	0.00970 0.88780 0.50506 0.00000
C 	C 	0.99800 0.84950 0.52491 -0.02200
C 	C 	0.02840 0.80510 0.52128 -0.08300
C 	C 	0.07150 0.79810 0.49744 0.03100
C 	C 	0.08320 0.83550 0.47766 -0.10700
C 	C 	0.05270 0.88020 0.48207 -0.01400
C 	C 	0.01520 0.76340 0.54179 0.32500
C 	C 	0.12950 0.82740 0.45192 0.41300
C 	C 	0.95390 0.97420 0.50940 -0.02600
C 	C 	0.97740 0.93460 0.50856 -0.01300
C 	C 	0.28650 0.26470 0.20613 0.01600
C 	C 	0.34460 0.27670 0.19089 -0.03800
C 	C 	0.34590 0.27590 0.16066 -0.07600
C 	C 	0.28870 0.26320 0.14490 0.01100
C 	C 	0.23070 0.25100 0.15991 -0.09100
C 	C 	0.22950 0.25220 0.19036 -0.03200
C 	C 	0.40800 0.28930 0.14432 0.32200
C 	C 	0.16950 0.23470 0.14381 0.35900
C 	C 	0.27680 0.26290 0.29531 0.00800
C 	C 	0.21660 0.25380 0.30935 -0.02500
C 	C 	0.21100 0.25180 0.33950 -0.08700
C 	C 	0.26870 0.25820 0.35648 0.02300
C 	C 	0.32900 0.26630 0.34300 -0.09600
C 	C 	0.33410 0.26880 0.31254 -0.02600
C 	C 	0.14570 0.24030 0.35406 0.35400
C 	C 	0.39070 0.27110 0.36121 0.34300
C 	C 	0.28370 0.26720 0.23810 -0.02200
C 	C 	0.28110 0.26470 0.26416 -0.01700
C 	C 	0.65550 0.49500 0.29666 -0.00300
C 	C 	0.68040 0.53590 0.31103 -0.00800
C 	C 	0.68020 0.53840 0.34122 -0.11200
C 	C 	0.65660 0.49900 0.35777 0.05100
C 	C 	0.63260 0.45800 0.34408 -0.12200
C 	C 	0.63300 0.45620 0.31295 -0.01000
C 	C 	0.70480 0.58280 0.35708 0.39800
C 	C 	0.60910 0.41420 0.36088 0.40200
C 	C 	0.65170 0.49060 0.20740 0.02000
C 	C 	0.62330 0.45190 0.19144 -0.03200
C 	C 	0.62530 0.45310 0.16077 -0.08600
C 	C 	0.65290 0.49220 0.14622 0.01900
C 	C 	0.68030 0.53020 0.16124 -0.07400
C 	C 	0.68070 0.52890 0.19228 -0.03700
C 	C 	0.59440 0.41060 0.14343 0.40300
C 	C 	0.71000 0.57400 0.14531 0.34400
C 	C 	0.65320 0.49290 0.26543 -0.01100
C 	C 	0.65110 0.49040 0.23885 -0.02300
C 	C 	0.49570 0.75810 0.28955 0.02500
C 	C 	0.55100 0.74330 0.30517 -0.04300
C 	C 	0.55020 0.74260 0.33596 -0.08400
C 	C 	0.49190 0.75510 0.35114 0.00200
C 	C 	0.43560 0.76940 0.33549 -0.06800
C 	C 	0.43880 0.77130 0.30477 -0.04800
C 	C 	0.61180 0.72610 0.35267 0.36200
C 	C 	0.37300 0.78370 0.35145 0.31200
C 	C 	0.50120 0.76200 0.20017 -0.02000
C 	C 	0.45080 0.78130 0.18420 0.00800
C 	C 	0.45160 0.78320 0.15345 -0.14200
C 	C 	0.50610 0.76200 0.13928 0.06500
C 	C 	0.55600 0.74040 0.15483 -0.13100
C 	C 	0.55540 0.74080 0.18490 0.00500
C 	C 	0.39750 0.80490 0.13664 0.39600
C 	C 	0.61200 0.71650 0.13854 0.39000
C 	C 	0.49730 0.76000 0.25845 -0.03300
C 	C 	0.49900 0.76010 0.23178 -0.00700
C 	C 	0.27970 0.62290 0.01242 -0.00400
C 	C 	0.28320 0.66200 0.03143 -0.01600
C 	C 	0.24640 0.70280 0.02695 -0.09900
C 	C 	0.20530 0.70750 0.00209 0.04000
C 	C 	0.20320 0.66900 0.98166 -0.11400
C 	C 	0.23880 0.62700 0.98706 -0.00900
C 	C 	0.24810 0.74570 0.04906 0.38200
C 	C 	0.16020 0.67340 0.95475 0.41700
C 	C 	0.36450 0.49010 0.01189 0.02500
C 	C 	0.34240 0.46430 0.98729 -0.04500
C 	C 	0.36650 0.41790 0.98134 -0.07600
C 	C 	0.41270 0.39760 0.99949 -0.00100
C 	C 	0.43380 0.42200 0.02468 -0.05500
C 	C 	0.41030 0.46790 0.03114 -0.05200
C 	C 	0.33910 0.38990 0.95576 0.35100
C 	C 	0.48270 0.39690 0.04461 0.29100
C 	C 	0.31400 0.57780 0.01642 -0.01300
C 	C 	0.33880 0.53870 0.01658 -0.03000
C 	C 	0.42830 0.47770 0.50590 0.01700
C 	C 	0.45250 0.45040 0.48175 -0.03300
C 	C 	0.42900 0.40370 0.47679 -0.09100
C 	C 	0.38240 0.38340 0.49508 0.01700
C 	C 	0.36140 0.40840 0.52000 -0.07300
C 	C 	0.38410 0.45600 0.52484 -0.04100
C 	C 	0.45790 0.37640 0.45072 0.38700
C 	C 	0.31250 0.38520 0.54047 0.32000
C 	C 	0.50970 0.61220 0.50506 0.00700
C 	C 	0.49800 0.65050 0.52491 -0.03000
C 	C 	0.52840 0.69490 0.52128 -0.07900
C 	C 	0.57150 0.70190 0.49744 0.02700
C 	C 	0.58320 0.66450 0.47766 -0.10400
C 	C 	0.55270 0.61980 0.48207 -0.01900
C 	C 	0.51520 0.73660 0.54179 0.32500
C 	C 	0.62950 0.67260 0.45192 0.41200
C 	C 	0.45390 0.52580 0.50940 -0.02400
C 	C 	0.47740 0.56540 0.50856 -0.01700
C 	C 	0.78650 0.73530 0.79387 0.01600
C 	C 	0.84460 0.72330 0.80911 -0.03800
C 	C 	0.84590 0.72410 0.83934 -0.07600
C 	C 	0.78870 0.73680 0.85510 0.01100
C 	C 	0.73070 0.74900 0.84009 -0.09100
C 	C 	0.72950 0.74780 0.80964 -0.03200
C 	C 	0.90800 0.71070 0.85568 0.32100
C 	C 	0.66950 0.76530 0.85619 0.35900
C 	C 	0.77680 0.73710 0.70469 0.00800
C 	C 	0.71660 0.74620 0.69065 -0.02500
C 	C 	0.71100 0.74820 0.66050 -0.08700
C 	C 	0.76870 0.74180 0.64352 0.02200
C 	C 	0.82900 0.73370 0.65700 -0.09500
C 	C 	0.83410 0.73120 0.68746 -0.02600
C 	C 	0.64570 0.75970 0.64594 0.35400
C 	C 	0.89070 0.72890 0.63879 0.34300
C 	C 	0.78370 0.73280 0.76190 -0.02100
C 	C 	0.78110 0.73530 0.73584 -0.01700
C 	C 	0.15550 0.50500 0.70334 -0.00300
C 	C 	0.18040 0.46410 0.68897 -0.00800
C 	C 	0.18020 0.46160 0.65878 -0.11200
C 	C 	0.15660 0.50100 0.64223 0.05100
C 	C 	0.13260 0.54200 0.65592 -0.12200
C 	C 	0.13300 0.54380 0.68705 -0.01000
C 	C 	0.20480 0.41720 0.64292 0.39800
C 	C 	0.10910 0.58580 0.63912 0.40200
C 	C 	0.15170 0.50940 0.79260 0.02000
C 	C 	0.12330 0.54810 0.80856 -0.03200
C 	C 	0.12530 0.54690 0.83923 -0.08700
C 	C 	0.15290 0.50780 0.85378 0.01900
C 	C 	0.18030 0.46980 0.83876 -0.07400
C 	C 	0.18070 0.47110 0.80772 -0.03700
C 	C 	0.09440 0.58940 0.85657 0.40300
C 	C 	0.21000 0.42600 0.85469 0.34500
C 	C 	0.15320 0.50710 0.73457 -0.01100
C 	C 	0.15110 0.50960 0.76115 -0.02400
C 	C 	0.99570 0.24190 0.71045 0.02800
C 	C 	0.05100 0.25670 0.69483 -0.04500
C 	C 	0.05020 0.25740 0.66404 -0.08500
C 	C 	0.99190 0.24490 0.64886 0.00300
C 	C 	0.93560 0.23060 0.66451 -0.06800
C 	C 	0.93880 0.22870 0.69523 -0.04900
C 	C 	0.11180 0.27390 0.64733 0.36200
C 	C 	0.87300 0.21630 0.64855 0.31200
C 	C 	0.00120 0.23800 0.79983 -0.02400
C 	C 	0.95080 0.21870 0.81580 0.01100
C 	C 	0.95160 0.21680 0.84655 -0.14200
C 	C 	0.00610 0.23800 0.86072 0.06400
C 	C 	0.05600 0.25960 0.84517 -0.13200
C 	C 	0.05540 0.25920 0.81510 0.00700
C 	C 	0.89750 0.19510 0.86336 0.39700
C 	C 	0.11200 0.28350 0.86146 0.39000
C 	C 	0.99730 0.24000 0.74155 -0.03400
C 	C 	0.99900 0.23990 0.76822 -0.00300
C 	C 	0.77970 0.37710 0.98758 -0.00400
C 	C 	0.78320 0.33800 0.96857 -0.01600
C 	C 	0.74640 0.29720 0.97305 -0.09900
C 	C 	0.70530 0.29250 0.99791 0.04000
C 	C 	0.70320 0.33100 0.01834 -0.11400
C 	C 	0.73880 0.37300 0.01294 -0.00900
C 	C 	0.74810 0.25430 0.95094 0.38200
C 	C 	0.66020 0.32660 0.04525 0.41700
C 	C 	0.86450 0.50990 0.98811 0.02400
C 	C 	0.84240 0.53570 0.01271 -0.04500
C 	C 	0.86650 0.58210 0.01866 -0.07600
C 	C 	0.91270 0.60240 0.00051 0.00000
C 	C 	0.93380 0.57800 0.97532 -0.05600
C 	C 	0.91030 0.53210 0.96886 -0.05100
C 	C 	0.83910 0.61010 0.04424 0.35100
C 	C 	0.98270 0.60310 0.95539 0.29500
C 	C 	0.81400 0.42220 0.98358 -0.01300
C 	C 	0.83880 0.46130 0.98342 -0.02900
C 	C 	0.92830 0.52230 0.49410 0.01800
C 	C 	0.95250 0.54960 0.51825 -0.03400
C 	C 	0.92900 0.59630 0.52321 -0.09100
C 	C 	0.88240 0.61660 0.50492 0.01700
C 	C 	0.86140 0.59160 0.48000 -0.07200
C 	C 	0.88410 0.54400 0.47516 -0.04200
C 	C 	0.95790 0.62360 0.54928 0.38800
C 	C 	0.81250 0.61480 0.45953 0.32000
C 	C 	0.00970 0.38780 0.49494 0.00100
C 	C 	0.99800 0.34950 0.47509 -0.02300
C 	C 	0.02840 0.30510 0.47872 -0.08300
C 	C 	0.07150 0.29810 0.50256 0.03000
C 	C 	0.08320 0.33550 0.52234 -0.10700
C 	C 	0.05270 0.38020 0.51793 -0.01500
C 	C 	0.01520 0.26340 0.45821 0.32500
C 	C 	0.12950 0.32740 0.54808 0.41300
C 	C 	0.95390 0.47420 0.49060 -0.02600
C 	C 	0.97740 0.43460 0.49144 -0.01300
O 	O 	0.40790 0.79310 0.88244 -0.35300
O 	O 	0.45970 0.79531 0.83860 -0.46700
O 	O 	0.17008 0.73576 0.88394 -0.48300
O 	O 	0.12080 0.72222 0.84026 -0.49600
O 	O 	0.14300 0.74300 0.61821 -0.34200
O 	O 	0.09940 0.72732 0.66225 -0.44800
O 	O 	0.38390 0.77560 0.61104 -0.47100
O 	O 	0.44650 0.77130 0.65236 -0.47800
O 	O 	0.74773 0.19146 0.60382 -0.93600
O 	O 	0.70180 0.08290 0.61553 -0.48700
O 	O 	0.72730 0.11702 0.65880 -0.47700
O 	O 	0.60340 0.92050 0.61151 -0.51800
O 	O 	0.59680 0.87690 0.65269 -0.50900
O 	O 	0.60280 0.91217 0.88370 -0.48400
O 	O 	0.56650 0.87821 0.84218 -0.48800
O 	O 	0.71190 0.07250 0.88171 -0.33400
O 	O 	0.73340 0.10728 0.83809 -0.44200
O 	O 	0.61090 0.22810 0.62023 -0.50200
O 	O 	0.66050 0.21330 0.66379 -0.49900
O 	O 	0.37400 0.28530 0.62096 -0.34600
O 	O 	0.32310 0.29347 0.66510 -0.46800
O 	O 	0.39840 0.29740 0.89095 -0.49400
O 	O 	0.35440 0.32900 0.85021 -0.49800
O 	O 	0.61120 0.22180 0.88943 -0.52400
O 	O 	0.65490 0.19460 0.84660 -0.50900
O 	O 	0.19470 0.27005 0.94856 -0.52400
O 	O 	0.30030 0.25204 0.93701 -0.50000
O 	O 	0.13980 0.21426 0.05191 -0.52000
O 	O 	0.14890 0.13417 0.05913 -0.47500
O 	O 	0.36480 0.85005 0.05025 -0.47400
O 	O 	0.29210 0.90740 0.05800 -0.34500
O 	O 	0.50340 0.85510 0.96134 -0.35900
O 	O 	0.50330 0.92023 0.93277 -0.42300
O 	O 	0.53906 0.80919 0.60565 -0.96000
O 	O 	0.42600 0.83945 0.55823 -0.48100
O 	O 	0.51220 0.89195 0.55919 -0.52400
O 	O 	0.29220 0.84370 0.46447 -0.34400
O 	O 	0.29630 0.90910 0.43648 -0.44700
O 	O 	0.54730 0.27452 0.46009 -0.36300
O 	O 	0.46920 0.22908 0.43892 -0.44600
O 	O 	0.64610 0.21424 0.55421 -0.51800
O 	O 	0.64640 0.13375 0.56176 -0.47900
O 	O 	0.03868 0.68986 0.89917 -0.94000
O 	O 	0.24910 0.33731 0.89588 -0.95900
O 	O 	0.90790 0.20690 0.11756 -0.35200
O 	O 	0.95970 0.20469 0.16140 -0.46700
O 	O 	0.67008 0.26424 0.11606 -0.48300
O 	O 	0.62080 0.27778 0.15974 -0.49600
O 	O 	0.64300 0.25700 0.38179 -0.34200
O 	O 	0.59940 0.27268 0.33775 -0.44700
O 	O 	0.88390 0.22440 0.38896 -0.47100
O 	O 	0.94650 0.22870 0.34764 -0.47700
O 	O 	0.24773 0.80854 0.39618 -0.93600
O 	O 	0.20180 0.91710 0.38447 -0.48700
O 	O 	0.22730 0.88298 0.34120 -0.47700
O 	O 	0.10340 0.07950 0.38849 -0.51800
O 	O 	0.09680 0.12310 0.34731 -0.50900
O 	O 	0.10280 0.08783 0.11630 -0.48400
O 	O 	0.06650 0.12179 0.15782 -0.48800
O 	O 	0.21190 0.92750 0.11829 -0.33400
O 	O 	0.23340 0.89272 0.16191 -0.44200
O 	O 	0.11090 0.77190 0.37977 -0.50200
O 	O 	0.16050 0.78670 0.33621 -0.49900
O 	O 	0.87400 0.71470 0.37904 -0.34500
O 	O 	0.82310 0.70653 0.33490 -0.46800
O 	O 	0.89840 0.70260 0.10905 -0.49300
O 	O 	0.85440 0.67100 0.14979 -0.49700
O 	O 	0.11120 0.77820 0.11057 -0.52400
O 	O 	0.15490 0.80540 0.15340 -0.50900
O 	O 	0.69470 0.72995 0.05144 -0.52400
O 	O 	0.80030 0.74796 0.06299 -0.49900
O 	O 	0.63980 0.78574 0.94809 -0.52000
O 	O 	0.64890 0.86583 0.94087 -0.47500
O 	O 	0.86480 0.14995 0.94975 -0.47400
O 	O 	0.79210 0.09260 0.94200 -0.34500
O 	O 	0.00340 0.14490 0.03866 -0.36100
O 	O 	0.00330 0.07977 0.06723 -0.42500
O 	O 	0.03906 0.19081 0.39435 -0.96100
O 	O 	0.92600 0.16055 0.44177 -0.48100
O 	O 	0.01220 0.10805 0.44081 -0.52500
O 	O 	0.79220 0.15630 0.53553 -0.34400
O 	O 	0.79630 0.09090 0.56352 -0.44600
O 	O 	0.04730 0.72548 0.53991 -0.36300
O 	O 	0.96920 0.77092 0.56108 -0.44500
O 	O 	0.14610 0.78576 0.44579 -0.51900
O 	O 	0.14640 0.86625 0.43824 -0.47900
O 	O 	0.53868 0.31014 0.10083 -0.93800
O 	O 	0.74910 0.66269 0.10412 -0.95900
O 	O 	0.40790 0.29310 0.11756 -0.35300
O 	O 	0.45970 0.29531 0.16140 -0.46700
O 	O 	0.17008 0.23576 0.11606 -0.48300
O 	O 	0.12080 0.22222 0.15974 -0.49600
O 	O 	0.14300 0.24300 0.38179 -0.34200
O 	O 	0.09940 0.22732 0.33775 -0.44800
O 	O 	0.38390 0.27560 0.38896 -0.47100
O 	O 	0.44650 0.27130 0.34764 -0.47800
O 	O 	0.74773 0.69146 0.39618 -0.93600
O 	O 	0.70180 0.58290 0.38447 -0.48700
O 	O 	0.72730 0.61702 0.34120 -0.47700
O 	O 	0.60340 0.42050 0.38849 -0.51800
O 	O 	0.59680 0.37690 0.34731 -0.50900
O 	O 	0.60280 0.41217 0.11630 -0.48400
O 	O 	0.56650 0.37821 0.15782 -0.48800
O 	O 	0.71190 0.57250 0.11829 -0.33400
O 	O 	0.73340 0.60728 0.16191 -0.44200
O 	O 	0.61090 0.72810 0.37977 -0.50200
O 	O 	0.66050 0.71330 0.33621 -0.49900
O 	O 	0.37400 0.78530 0.37904 -0.34600
O 	O 	0.32310 0.79347 0.33490 -0.46800
O 	O 	0.39840 0.79740 0.10905 -0.49400
O 	O 	0.35440 0.82900 0.14979 -0.49800
O 	O 	0.61120 0.72180 0.11057 -0.52400
O 	O 	0.65490 0.69460 0.15340 -0.50900
O 	O 	0.19470 0.77005 0.05144 -0.52400
O 	O 	0.30030 0.75204 0.06299 -0.50000
O 	O 	0.13980 0.71426 0.94809 -0.52000
O 	O 	0.14890 0.63417 0.94087 -0.47500
O 	O 	0.36480 0.35005 0.94975 -0.47400
O 	O 	0.29210 0.40740 0.94200 -0.34500
O 	O 	0.50340 0.35510 0.03866 -0.35900
O 	O 	0.50330 0.42023 0.06723 -0.42300
O 	O 	0.53906 0.30919 0.39435 -0.96000
O 	O 	0.42600 0.33945 0.44177 -0.48100
O 	O 	0.51220 0.39195 0.44081 -0.52400
O 	O 	0.29220 0.34370 0.53553 -0.34400
O 	O 	0.29630 0.40910 0.56352 -0.44700
O 	O 	0.54730 0.77452 0.53991 -0.36300
O 	O 	0.46920 0.72908 0.56108 -0.44600
O 	O 	0.64610 0.71424 0.44579 -0.51800
O 	O 	0.64640 0.63375 0.43824 -0.47900
O 	O 	0.03868 0.18986 0.10083 -0.94000
O 	O 	0.24910 0.83731 0.10412 -0.95900
O 	O 	0.90790 0.70690 0.88244 -0.35200
O 	O 	0.95970 0.70469 0.83860 -0.46700
O 	O 	0.67008 0.76424 0.88394 -0.48300
O 	O 	0.62080 0.77778 0.84026 -0.49600
O 	O 	0.64300 0.75700 0.61821 -0.34200
O 	O 	0.59940 0.77268 0.66225 -0.44700
O 	O 	0.88390 0.72440 0.61104 -0.47100
O 	O 	0.94650 0.72870 0.65236 -0.47700
O 	O 	0.24773 0.30854 0.60382 -0.93600
O 	O 	0.20180 0.41710 0.61553 -0.48700
O 	O 	0.22730 0.38298 0.65880 -0.47700
O 	O 	0.10340 0.57950 0.61151 -0.51800
O 	O 	0.09680 0.62310 0.65269 -0.50900
O 	O 	0.10280 0.58783 0.88370 -0.48400
O 	O 	0.06650 0.62179 0.84218 -0.48900
O 	O 	0.21190 0.42750 0.88171 -0.33400
O 	O 	0.23340 0.39272 0.83809 -0.44200
O 	O 	0.11090 0.27190 0.62023 -0.50200
O 	O 	0.16050 0.28670 0.66379 -0.49900
O 	O 	0.87400 0.21470 0.62096 -0.34500
O 	O 	0.82310 0.20653 0.66510 -0.46800
O 	O 	0.89840 0.20260 0.89095 -0.49300
O 	O 	0.85440 0.17100 0.85021 -0.49700
O 	O 	0.11120 0.27820 0.88943 -0.52400
O 	O 	0.15490 0.30540 0.84660 -0.50900
O 	O 	0.69470 0.22995 0.94856 -0.52400
O 	O 	0.80030 0.24796 0.93701 -0.49900
O 	O 	0.63980 0.28574 0.05191 -0.52000
O 	O 	0.64890 0.36583 0.05913 -0.47500
O 	O 	0.86480 0.64995 0.05025 -0.47400
O 	O 	0.79210 0.59260 0.05800 -0.34500
O 	O 	0.00340 0.64490 0.96134 -0.36200
O 	O 	0.00330 0.57977 0.93277 -0.42500
O 	O 	0.03906 0.69081 0.60565 -0.96100
O 	O 	0.92600 0.66055 0.55823 -0.48100
O 	O 	0.01220 0.60805 0.55919 -0.52500
O 	O 	0.79220 0.65630 0.46447 -0.34400
O 	O 	0.79630 0.59090 0.43648 -0.44600
O 	O 	0.04730 0.22548 0.46009 -0.36300
O 	O 	0.96920 0.27092 0.43892 -0.44500
O 	O 	0.14610 0.28576 0.55421 -0.51900
O 	O 	0.14640 0.36625 0.56176 -0.47900
O 	O 	0.53868 0.81014 0.89917 -0.93800
O 	O 	0.74910 0.16269 0.89588 -0.95900
