data_crystal

_cell_length_a 29.31870
_cell_length_b 29.31870
_cell_length_c 29.31870
_cell_angle_alpha 90.00000
_cell_angle_beta  90.00000
_cell_angle_gamma 90.00000

_symmetry_space_group_name_	'P 1'
_symmetry_space_group_name_H-M	'P 1'

loop_
_symmetry_equiv_pos_as_xyz
  x,y,z

loop_
_atom_site_label
_atom_site_type_symbol
_atom_site_fract_x
_atom_site_fract_y
_atom_site_fract_z
_atom_site_charge
N 	N 	0.46230 0.11180 0.26200 -0.71600
N 	N 	0.47707 0.12680 0.30260 -0.10800
N 	N 	0.38060 0.14150 0.19440 -0.32400
C 	C 	0.36480 0.12300 0.15550 -0.07300
H 	H 	0.35540 0.09290 0.15170 -0.02100
H 	H 	0.42580 0.23710 0.19800 0.04400
H 	H 	0.34360 0.24990 0.20790 -0.05900
H 	H 	0.40370 0.25040 0.28770 0.22400
H 	H 	0.53090 0.08330 0.18420 1.03400
H 	H 	0.48430 0.10790 0.17510 1.00900
H 	H 	0.48480 0.05780 0.19360 1.02500
N 	N 	0.96230 0.61180 0.76200 -0.29600
N 	N 	0.97707 0.62680 0.80260 -0.16100
N 	N 	0.88060 0.64150 0.69440 -0.30300
C 	C 	0.86480 0.62300 0.65550 -0.01600
H 	H 	0.85540 0.59290 0.65170 -0.01100
H 	H 	0.92580 0.73710 0.69800 0.08600
H 	H 	0.84360 0.74990 0.70790 -0.06300
H 	H 	0.90370 0.75040 0.78770 0.20200
H 	H 	0.03090 0.58330 0.68420 -0.08800
H 	H 	0.98430 0.60790 0.67510 -0.09800
H 	H 	0.98480 0.55780 0.69360 -0.17100
N 	N 	0.53770 0.88820 0.26200 -0.58300
N 	N 	0.52293 0.87320 0.30260 -0.07400
N 	N 	0.61940 0.85850 0.19440 -0.32500
C 	C 	0.63520 0.87700 0.15550 -0.06400
H 	H 	0.64460 0.90710 0.15170 -0.03300
H 	H 	0.57420 0.76290 0.19800 0.05700
H 	H 	0.65640 0.75010 0.20790 -0.06400
H 	H 	0.59630 0.74960 0.28770 0.22700
H 	H 	0.46910 0.91670 0.18420 0.81000
H 	H 	0.51570 0.89210 0.17510 0.79700
H 	H 	0.51520 0.94220 0.19360 0.80800
N 	N 	0.03770 0.38820 0.76200 -1.03700
N 	N 	0.02293 0.37320 0.80260 -0.11700
N 	N 	0.11940 0.35850 0.69440 -0.33400
C 	C 	0.13520 0.37700 0.65550 -0.09500
H 	H 	0.14460 0.40710 0.65170 -0.01100
H 	H 	0.07420 0.26290 0.69800 0.10300
H 	H 	0.15640 0.25010 0.70790 -0.07300
H 	H 	0.09630 0.24960 0.78770 0.24300
H 	H 	0.96910 0.41670 0.68420 1.80500
H 	H 	0.01570 0.39210 0.67510 1.92000
H 	H 	0.01520 0.44220 0.69360 1.83900
N 	N 	0.53770 0.11180 0.73800 -0.62000
N 	N 	0.52293 0.12680 0.69740 -0.11300
N 	N 	0.61940 0.14150 0.80560 -0.32200
C 	C 	0.63520 0.12300 0.84450 -0.06600
H 	H 	0.64460 0.09290 0.84830 -0.02400
H 	H 	0.57420 0.23710 0.80200 0.05700
H 	H 	0.65640 0.24990 0.79210 -0.06400
H 	H 	0.59630 0.25040 0.71230 0.22700
H 	H 	0.46910 0.08330 0.81580 0.83100
H 	H 	0.51570 0.10790 0.82490 0.81800
H 	H 	0.51520 0.05780 0.80640 0.82500
N 	N 	0.03770 0.61180 0.23800 0.14500
N 	N 	0.02293 0.62680 0.19740 -0.11400
N 	N 	0.11940 0.64150 0.30560 -0.28700
C 	C 	0.13520 0.62300 0.34450 0.03200
H 	H 	0.14460 0.59290 0.34830 -0.00600
H 	H 	0.07420 0.73710 0.30200 0.07900
H 	H 	0.15640 0.74990 0.29210 -0.07300
H 	H 	0.09630 0.75040 0.21230 0.24600
H 	H 	0.96910 0.58330 0.31580 -1.08500
H 	H 	0.01570 0.60790 0.32490 -1.12400
H 	H 	0.01520 0.55780 0.30640 -1.07700
N 	N 	0.46230 0.88820 0.73800 -0.57400
N 	N 	0.47707 0.87320 0.69740 -0.15200
N 	N 	0.38060 0.85850 0.80560 -0.31600
C 	C 	0.36480 0.87700 0.84450 -0.05400
H 	H 	0.35540 0.90710 0.84830 -0.03200
H 	H 	0.42580 0.76290 0.80200 0.06700
H 	H 	0.34360 0.75010 0.79210 -0.06600
H 	H 	0.40370 0.74960 0.71230 0.22900
H 	H 	0.53090 0.91670 0.81580 0.60600
H 	H 	0.48430 0.89210 0.82490 0.60300
H 	H 	0.48480 0.94220 0.80640 0.56100
N 	N 	0.96230 0.38820 0.23800 -0.63500
N 	N 	0.97707 0.37320 0.19740 -0.17000
N 	N 	0.88060 0.35850 0.30560 -0.31700
C 	C 	0.86480 0.37700 0.34450 -0.05300
H 	H 	0.85540 0.40710 0.34830 -0.01200
H 	H 	0.92580 0.26290 0.30200 0.04800
H 	H 	0.84360 0.25010 0.29210 -0.05700
H 	H 	0.90370 0.24960 0.21230 0.20900
H 	H 	0.03090 0.41670 0.31580 0.72800
H 	H 	0.98430 0.39210 0.32490 0.68400
H 	H 	0.98480 0.44220 0.30640 0.71900
N 	N 	0.26200 0.46230 0.11180 -0.71700
N 	N 	0.30260 0.47707 0.12680 -0.10900
N 	N 	0.19440 0.38060 0.14150 -0.32500
C 	C 	0.15550 0.36480 0.12300 -0.07300
H 	H 	0.15170 0.35540 0.09290 -0.02100
H 	H 	0.19800 0.42580 0.23710 0.04400
H 	H 	0.20790 0.34360 0.24990 -0.05900
H 	H 	0.28770 0.40370 0.25040 0.22400
H 	H 	0.18420 0.53090 0.08330 1.03400
H 	H 	0.17510 0.48430 0.10790 1.00900
H 	H 	0.19360 0.48480 0.05780 1.02500
N 	N 	0.76200 0.96230 0.61180 -0.29600
N 	N 	0.80260 0.97707 0.62680 -0.16100
N 	N 	0.69440 0.88060 0.64150 -0.30300
C 	C 	0.65550 0.86480 0.62300 -0.01600
H 	H 	0.65170 0.85540 0.59290 -0.01100
H 	H 	0.69800 0.92580 0.73710 0.08600
H 	H 	0.70790 0.84360 0.74990 -0.06300
H 	H 	0.78770 0.90370 0.75040 0.20200
H 	H 	0.68420 0.03090 0.58330 -0.08800
H 	H 	0.67510 0.98430 0.60790 -0.09800
H 	H 	0.69360 0.98480 0.55780 -0.17100
N 	N 	0.26200 0.53770 0.88820 -0.58300
N 	N 	0.30260 0.52293 0.87320 -0.07400
N 	N 	0.19440 0.61940 0.85850 -0.32500
C 	C 	0.15550 0.63520 0.87700 -0.06400
H 	H 	0.15170 0.64460 0.90710 -0.03300
H 	H 	0.19800 0.57420 0.76290 0.05700
H 	H 	0.20790 0.65640 0.75010 -0.06400
H 	H 	0.28770 0.59630 0.74960 0.22700
H 	H 	0.18420 0.46910 0.91670 0.81000
H 	H 	0.17510 0.51570 0.89210 0.79700
H 	H 	0.19360 0.51520 0.94220 0.80800
N 	N 	0.76200 0.03770 0.38820 -1.03700
N 	N 	0.80260 0.02293 0.37320 -0.11700
N 	N 	0.69440 0.11940 0.35850 -0.33400
C 	C 	0.65550 0.13520 0.37700 -0.09500
H 	H 	0.65170 0.14460 0.40710 -0.01100
H 	H 	0.69800 0.07420 0.26290 0.10300
H 	H 	0.70790 0.15640 0.25010 -0.07300
H 	H 	0.78770 0.09630 0.24960 0.24300
H 	H 	0.68420 0.96910 0.41670 1.80500
H 	H 	0.67510 0.01570 0.39210 1.92000
H 	H 	0.69360 0.01520 0.44220 1.83900
N 	N 	0.73800 0.53770 0.11180 -0.62000
N 	N 	0.69740 0.52293 0.12680 -0.11300
N 	N 	0.80560 0.61940 0.14150 -0.32200
C 	C 	0.84450 0.63520 0.12300 -0.06600
H 	H 	0.84830 0.64460 0.09290 -0.02400
H 	H 	0.80200 0.57420 0.23710 0.05700
H 	H 	0.79210 0.65640 0.24990 -0.06400
H 	H 	0.71230 0.59630 0.25040 0.22700
H 	H 	0.81580 0.46910 0.08330 0.83100
H 	H 	0.82490 0.51570 0.10790 0.81800
H 	H 	0.80640 0.51520 0.05780 0.82500
N 	N 	0.23800 0.03770 0.61180 0.14500
N 	N 	0.19740 0.02293 0.62680 -0.11400
N 	N 	0.30560 0.11940 0.64150 -0.28700
C 	C 	0.34450 0.13520 0.62300 0.03200
H 	H 	0.34830 0.14460 0.59290 -0.00600
H 	H 	0.30200 0.07420 0.73710 0.07900
H 	H 	0.29210 0.15640 0.74990 -0.07300
H 	H 	0.21230 0.09630 0.75040 0.24600
H 	H 	0.31580 0.96910 0.58330 -1.08500
H 	H 	0.32490 0.01570 0.60790 -1.12400
H 	H 	0.30640 0.01520 0.55780 -1.07700
N 	N 	0.73800 0.46230 0.88820 -0.57400
N 	N 	0.69740 0.47707 0.87320 -0.15200
N 	N 	0.80560 0.38060 0.85850 -0.31600
C 	C 	0.84450 0.36480 0.87700 -0.05400
H 	H 	0.84830 0.35540 0.90710 -0.03200
H 	H 	0.80200 0.42580 0.76290 0.06700
H 	H 	0.79210 0.34360 0.75010 -0.06600
H 	H 	0.71230 0.40370 0.74960 0.22900
H 	H 	0.81580 0.53090 0.91670 0.60600
H 	H 	0.82490 0.48430 0.89210 0.60300
H 	H 	0.80640 0.48480 0.94220 0.56100
N 	N 	0.23800 0.96230 0.38820 -0.63500
N 	N 	0.19740 0.97707 0.37320 -0.17000
N 	N 	0.30560 0.88060 0.35850 -0.31700
C 	C 	0.34450 0.86480 0.37700 -0.05300
H 	H 	0.34830 0.85540 0.40710 -0.01200
H 	H 	0.30200 0.92580 0.26290 0.04800
H 	H 	0.29210 0.84360 0.25010 -0.05700
H 	H 	0.21230 0.90370 0.24960 0.20900
H 	H 	0.31580 0.03090 0.41670 0.72800
H 	H 	0.32490 0.98430 0.39210 0.68400
H 	H 	0.30640 0.98480 0.44220 0.71900
N 	N 	0.11180 0.26200 0.46230 -0.71700
N 	N 	0.12680 0.30260 0.47707 -0.10900
N 	N 	0.14150 0.19440 0.38060 -0.32500
C 	C 	0.12300 0.15550 0.36480 -0.07300
H 	H 	0.09290 0.15170 0.35540 -0.02100
H 	H 	0.23710 0.19800 0.42580 0.04400
H 	H 	0.24990 0.20790 0.34360 -0.05900
H 	H 	0.25040 0.28770 0.40370 0.22400
H 	H 	0.08330 0.18420 0.53090 1.03400
H 	H 	0.10790 0.17510 0.48430 1.00900
H 	H 	0.05780 0.19360 0.48480 1.02500
N 	N 	0.61180 0.76200 0.96230 -0.29600
N 	N 	0.62680 0.80260 0.97707 -0.16100
N 	N 	0.64150 0.69440 0.88060 -0.30300
C 	C 	0.62300 0.65550 0.86480 -0.01600
H 	H 	0.59290 0.65170 0.85540 -0.01100
H 	H 	0.73710 0.69800 0.92580 0.08600
H 	H 	0.74990 0.70790 0.84360 -0.06300
H 	H 	0.75040 0.78770 0.90370 0.20200
H 	H 	0.58330 0.68420 0.03090 -0.08800
H 	H 	0.60790 0.67510 0.98430 -0.09800
H 	H 	0.55780 0.69360 0.98480 -0.17100
N 	N 	0.88820 0.26200 0.53770 -0.58300
N 	N 	0.87320 0.30260 0.52293 -0.07400
N 	N 	0.85850 0.19440 0.61940 -0.32500
C 	C 	0.87700 0.15550 0.63520 -0.06400
H 	H 	0.90710 0.15170 0.64460 -0.03300
H 	H 	0.76290 0.19800 0.57420 0.05700
H 	H 	0.75010 0.20790 0.65640 -0.06400
H 	H 	0.74960 0.28770 0.59630 0.22700
H 	H 	0.91670 0.18420 0.46910 0.81000
H 	H 	0.89210 0.17510 0.51570 0.79700
H 	H 	0.94220 0.19360 0.51520 0.80800
N 	N 	0.38820 0.76200 0.03770 -1.03700
N 	N 	0.37320 0.80260 0.02293 -0.11700
N 	N 	0.35850 0.69440 0.11940 -0.33400
C 	C 	0.37700 0.65550 0.13520 -0.09500
H 	H 	0.40710 0.65170 0.14460 -0.01100
H 	H 	0.26290 0.69800 0.07420 0.10300
H 	H 	0.25010 0.70790 0.15640 -0.07300
H 	H 	0.24960 0.78770 0.09630 0.24300
H 	H 	0.41670 0.68420 0.96910 1.80500
H 	H 	0.39210 0.67510 0.01570 1.92000
H 	H 	0.44220 0.69360 0.01520 1.83900
N 	N 	0.11180 0.73800 0.53770 -0.62000
N 	N 	0.12680 0.69740 0.52293 -0.11300
N 	N 	0.14150 0.80560 0.61940 -0.32200
C 	C 	0.12300 0.84450 0.63520 -0.06600
H 	H 	0.09290 0.84830 0.64460 -0.02400
H 	H 	0.23710 0.80200 0.57420 0.05700
H 	H 	0.24990 0.79210 0.65640 -0.06400
H 	H 	0.25040 0.71230 0.59630 0.22700
H 	H 	0.08330 0.81580 0.46910 0.83100
H 	H 	0.10790 0.82490 0.51570 0.81800
H 	H 	0.05780 0.80640 0.51520 0.82500
N 	N 	0.61180 0.23800 0.03770 0.14500
N 	N 	0.62680 0.19740 0.02293 -0.11400
N 	N 	0.64150 0.30560 0.11940 -0.28700
C 	C 	0.62300 0.34450 0.13520 0.03200
H 	H 	0.59290 0.34830 0.14460 -0.00600
H 	H 	0.73710 0.30200 0.07420 0.07900
H 	H 	0.74990 0.29210 0.15640 -0.07300
H 	H 	0.75040 0.21230 0.09630 0.24600
H 	H 	0.58330 0.31580 0.96910 -1.08500
H 	H 	0.60790 0.32490 0.01570 -1.12400
H 	H 	0.55780 0.30640 0.01520 -1.07700
N 	N 	0.88820 0.73800 0.46230 -0.57400
N 	N 	0.87320 0.69740 0.47707 -0.15200
N 	N 	0.85850 0.80560 0.38060 -0.31600
C 	C 	0.87700 0.84450 0.36480 -0.05400
H 	H 	0.90710 0.84830 0.35540 -0.03200
H 	H 	0.76290 0.80200 0.42580 0.06700
H 	H 	0.75010 0.79210 0.34360 -0.06600
H 	H 	0.74960 0.71230 0.40370 0.22900
H 	H 	0.91670 0.81580 0.53090 0.60600
H 	H 	0.89210 0.82490 0.48430 0.60300
H 	H 	0.94220 0.80640 0.48480 0.56100
N 	N 	0.38820 0.23800 0.96230 -0.63500
N 	N 	0.37320 0.19740 0.97707 -0.17000
N 	N 	0.35850 0.30560 0.88060 -0.31700
C 	C 	0.37700 0.34450 0.86480 -0.05300
H 	H 	0.40710 0.34830 0.85540 -0.01200
H 	H 	0.26290 0.30200 0.92580 0.04800
H 	H 	0.25010 0.29210 0.84360 -0.05700
H 	H 	0.24960 0.21230 0.90370 0.20900
H 	H 	0.41670 0.31580 0.03090 0.72800
H 	H 	0.39210 0.32490 0.98430 0.68400
H 	H 	0.44220 0.30640 0.98480 0.71900
N 	N 	0.11180 0.46230 0.73800 -0.66400
N 	N 	0.12680 0.47707 0.69740 -0.15000
N 	N 	0.14150 0.38060 0.80560 -0.31900
C 	C 	0.12300 0.36480 0.84450 -0.06500
H 	H 	0.09290 0.35540 0.84830 -0.02200
H 	H 	0.23710 0.42580 0.80200 0.05600
H 	H 	0.24990 0.34360 0.79210 -0.06200
H 	H 	0.25040 0.40370 0.71230 0.22600
H 	H 	0.08330 0.53090 0.81580 0.83000
H 	H 	0.10790 0.48430 0.82490 0.81700
H 	H 	0.05780 0.48480 0.80640 0.80200
N 	N 	0.61180 0.96230 0.23800 0.12500
N 	N 	0.62680 0.97707 0.19740 -0.16400
N 	N 	0.64150 0.88060 0.30560 -0.28600
C 	C 	0.62300 0.86480 0.34450 0.02900
H 	H 	0.59290 0.85540 0.34830 -0.00900
H 	H 	0.73710 0.92580 0.30200 0.05500
H 	H 	0.74990 0.84360 0.29210 -0.06000
H 	H 	0.75040 0.90370 0.21230 0.20700
H 	H 	0.58330 0.03090 0.31580 -1.12500
H 	H 	0.60790 0.98430 0.32490 -1.22900
H 	H 	0.55780 0.98480 0.30640 -1.18400
N 	N 	0.88820 0.53770 0.73800 -0.53000
N 	N 	0.87320 0.52293 0.69740 -0.11500
N 	N 	0.85850 0.61940 0.80560 -0.31900
C 	C 	0.87700 0.63520 0.84450 -0.05600
H 	H 	0.90710 0.64460 0.84830 -0.03400
H 	H 	0.76290 0.57420 0.80200 0.06900
H 	H 	0.75010 0.65640 0.79210 -0.06700
H 	H 	0.74960 0.59630 0.71230 0.23000
H 	H 	0.91670 0.46910 0.81580 0.60600
H 	H 	0.89210 0.51570 0.82490 0.60400
H 	H 	0.94220 0.51520 0.80640 0.58400
N 	N 	0.38820 0.03770 0.23800 -0.61600
N 	N 	0.37320 0.02293 0.19740 -0.12000
N 	N 	0.35850 0.11940 0.30560 -0.31800
C 	C 	0.37700 0.13520 0.34450 -0.05000
H 	H 	0.40710 0.14460 0.34830 -0.00900
H 	H 	0.26290 0.07420 0.30200 0.07200
H 	H 	0.25010 0.15640 0.29210 -0.07000
H 	H 	0.24960 0.09630 0.21230 0.24800
H 	H 	0.41670 0.96910 0.31580 0.76800
H 	H 	0.39210 0.01570 0.32490 0.78900
H 	H 	0.44220 0.01520 0.30640 0.82600
N 	N 	0.11180 0.53770 0.26200 -0.67300
N 	N 	0.12680 0.52293 0.30260 -0.07200
N 	N 	0.14150 0.61940 0.19440 -0.32900
C 	C 	0.12300 0.63520 0.15550 -0.07400
H 	H 	0.09290 0.64460 0.15170 -0.02300
H 	H 	0.23710 0.57420 0.19800 0.04600
H 	H 	0.24990 0.65640 0.20790 -0.06100
H 	H 	0.25040 0.59630 0.28770 0.22500
H 	H 	0.08330 0.46910 0.18420 1.03400
H 	H 	0.10790 0.51570 0.17510 1.01000
H 	H 	0.05780 0.51520 0.19360 1.04800
N 	N 	0.61180 0.03770 0.76200 -0.27600
N 	N 	0.62680 0.02293 0.80260 -0.11100
N 	N 	0.64150 0.11940 0.69440 -0.30400
C 	C 	0.62300 0.13520 0.65550 -0.01300
H 	H 	0.59290 0.14460 0.65170 -0.00800
H 	H 	0.73710 0.07420 0.69800 0.11000
H 	H 	0.74990 0.15640 0.70790 -0.07600
H 	H 	0.75040 0.09630 0.78770 0.24100
H 	H 	0.58330 0.96910 0.68420 -0.04800
H 	H 	0.60790 0.01570 0.67510 0.00700
H 	H 	0.55780 0.01520 0.69360 -0.06400
N 	N 	0.88820 0.46230 0.26200 -0.62700
N 	N 	0.87320 0.47707 0.30260 -0.11100
N 	N 	0.85850 0.38060 0.19440 -0.32200
C 	C 	0.87700 0.36480 0.15550 -0.06300
H 	H 	0.90710 0.35540 0.15170 -0.03100
H 	H 	0.76290 0.42580 0.19800 0.05600
H 	H 	0.75010 0.34360 0.20790 -0.06200
H 	H 	0.74960 0.40370 0.28770 0.22600
H 	H 	0.91670 0.53090 0.18420 0.81000
H 	H 	0.89210 0.48430 0.17510 0.79600
H 	H 	0.94220 0.48480 0.19360 0.78500
N 	N 	0.38820 0.96230 0.76200 -1.05600
N 	N 	0.37320 0.97707 0.80260 -0.16700
N 	N 	0.35850 0.88060 0.69440 -0.33300
C 	C 	0.37700 0.86480 0.65550 -0.09800
H 	H 	0.40710 0.85540 0.65170 -0.01400
H 	H 	0.26290 0.92580 0.69800 0.07900
H 	H 	0.25010 0.84360 0.70790 -0.06000
H 	H 	0.24960 0.90370 0.78770 0.20400
H 	H 	0.41670 0.03090 0.68420 1.76500
H 	H 	0.39210 0.98430 0.67510 1.81500
H 	H 	0.44220 0.98480 0.69360 1.73200
N 	N 	0.46230 0.26200 0.88820 -0.62700
N 	N 	0.47707 0.30260 0.87320 -0.11100
N 	N 	0.38060 0.19440 0.85850 -0.32200
C 	C 	0.36480 0.15550 0.87700 -0.06300
H 	H 	0.35540 0.15170 0.90710 -0.03100
H 	H 	0.42580 0.19800 0.76290 0.05600
H 	H 	0.34360 0.20790 0.75010 -0.06200
H 	H 	0.40370 0.28770 0.74960 0.22600
H 	H 	0.53090 0.18420 0.91670 0.81000
H 	H 	0.48430 0.17510 0.89210 0.79600
H 	H 	0.48480 0.19360 0.94220 0.78500
N 	N 	0.96230 0.76200 0.38820 -1.05600
N 	N 	0.97707 0.80260 0.37320 -0.16700
N 	N 	0.88060 0.69440 0.35850 -0.33300
C 	C 	0.86480 0.65550 0.37700 -0.09800
H 	H 	0.85540 0.65170 0.40710 -0.01400
H 	H 	0.92580 0.69800 0.26290 0.07900
H 	H 	0.84360 0.70790 0.25010 -0.06000
H 	H 	0.90370 0.78770 0.24960 0.20400
H 	H 	0.03090 0.68420 0.41670 1.76500
H 	H 	0.98430 0.67510 0.39210 1.81500
H 	H 	0.98480 0.69360 0.44220 1.73200
N 	N 	0.53770 0.26200 0.11180 -0.67300
N 	N 	0.52293 0.30260 0.12680 -0.07200
N 	N 	0.61940 0.19440 0.14150 -0.32900
C 	C 	0.63520 0.15550 0.12300 -0.07400
H 	H 	0.64460 0.15170 0.09290 -0.02300
H 	H 	0.57420 0.19800 0.23710 0.04600
H 	H 	0.65640 0.20790 0.24990 -0.06100
H 	H 	0.59630 0.28770 0.25040 0.22500
H 	H 	0.46910 0.18420 0.08330 1.03400
H 	H 	0.51570 0.17510 0.10790 1.01000
H 	H 	0.51520 0.19360 0.05780 1.04800
N 	N 	0.03770 0.76200 0.61180 -0.27600
N 	N 	0.02293 0.80260 0.62680 -0.11100
N 	N 	0.11940 0.69440 0.64150 -0.30400
C 	C 	0.13520 0.65550 0.62300 -0.01300
H 	H 	0.14460 0.65170 0.59290 -0.00800
H 	H 	0.07420 0.69800 0.73710 0.11000
H 	H 	0.15640 0.70790 0.74990 -0.07600
H 	H 	0.09630 0.78770 0.75040 0.24100
H 	H 	0.96910 0.68420 0.58330 -0.04800
H 	H 	0.01570 0.67510 0.60790 0.00700
H 	H 	0.01520 0.69360 0.55780 -0.06400
N 	N 	0.53770 0.73800 0.88820 -0.53000
N 	N 	0.52293 0.69740 0.87320 -0.11500
N 	N 	0.61940 0.80560 0.85850 -0.31900
C 	C 	0.63520 0.84450 0.87700 -0.05600
H 	H 	0.64460 0.84830 0.90710 -0.03400
H 	H 	0.57420 0.80200 0.76290 0.06900
H 	H 	0.65640 0.79210 0.75010 -0.06700
H 	H 	0.59630 0.71230 0.74960 0.23000
H 	H 	0.46910 0.81580 0.91670 0.60600
H 	H 	0.51570 0.82490 0.89210 0.60400
H 	H 	0.51520 0.80640 0.94220 0.58400
N 	N 	0.03770 0.23800 0.38820 -0.61600
N 	N 	0.02293 0.19740 0.37320 -0.12000
N 	N 	0.11940 0.30560 0.35850 -0.31800
C 	C 	0.13520 0.34450 0.37700 -0.05000
H 	H 	0.14460 0.34830 0.40710 -0.00900
H 	H 	0.07420 0.30200 0.26290 0.07200
H 	H 	0.15640 0.29210 0.25010 -0.07000
H 	H 	0.09630 0.21230 0.24960 0.24800
H 	H 	0.96910 0.31580 0.41670 0.76800
H 	H 	0.01570 0.32490 0.39210 0.78900
H 	H 	0.01520 0.30640 0.44220 0.82600
N 	N 	0.46230 0.73800 0.11180 -0.66400
N 	N 	0.47707 0.69740 0.12680 -0.15000
N 	N 	0.38060 0.80560 0.14150 -0.31900
C 	C 	0.36480 0.84450 0.12300 -0.06500
H 	H 	0.35540 0.84830 0.09290 -0.02200
H 	H 	0.42580 0.80200 0.23710 0.05600
H 	H 	0.34360 0.79210 0.24990 -0.06200
H 	H 	0.40370 0.71230 0.25040 0.22600
H 	H 	0.53090 0.81580 0.08330 0.83000
H 	H 	0.48430 0.82490 0.10790 0.81700
H 	H 	0.48480 0.80640 0.05780 0.80200
N 	N 	0.96230 0.23800 0.61180 0.12500
N 	N 	0.97707 0.19740 0.62680 -0.16400
N 	N 	0.88060 0.30560 0.64150 -0.28600
C 	C 	0.86480 0.34450 0.62300 0.02900
H 	H 	0.85540 0.34830 0.59290 -0.00900
H 	H 	0.92580 0.30200 0.73710 0.05500
H 	H 	0.84360 0.29210 0.74990 -0.06000
H 	H 	0.90370 0.21230 0.75040 0.20700
H 	H 	0.03090 0.31580 0.58330 -1.12500
H 	H 	0.98430 0.32490 0.60790 -1.22900
H 	H 	0.98480 0.30640 0.55780 -1.18400
N 	N 	0.26200 0.11180 0.53770 -0.67300
N 	N 	0.30260 0.12680 0.52293 -0.07200
N 	N 	0.19440 0.14150 0.61940 -0.32900
C 	C 	0.15550 0.12300 0.63520 -0.07400
H 	H 	0.15170 0.09290 0.64460 -0.02300
H 	H 	0.19800 0.23710 0.57420 0.04600
H 	H 	0.20790 0.24990 0.65640 -0.06100
H 	H 	0.28770 0.25040 0.59630 0.22500
H 	H 	0.18420 0.08330 0.46910 1.03400
H 	H 	0.17510 0.10790 0.51570 1.01000
H 	H 	0.19360 0.05780 0.51520 1.04800
N 	N 	0.76200 0.61180 0.03770 -0.27600
N 	N 	0.80260 0.62680 0.02293 -0.11100
N 	N 	0.69440 0.64150 0.11940 -0.30400
C 	C 	0.65550 0.62300 0.13520 -0.01300
H 	H 	0.65170 0.59290 0.14460 -0.00800
H 	H 	0.69800 0.73710 0.07420 0.11000
H 	H 	0.70790 0.74990 0.15640 -0.07600
H 	H 	0.78770 0.75040 0.09630 0.24100
H 	H 	0.68420 0.58330 0.96910 -0.04800
H 	H 	0.67510 0.60790 0.01570 0.00700
H 	H 	0.69360 0.55780 0.01520 -0.06400
N 	N 	0.26200 0.88820 0.46230 -0.62700
N 	N 	0.30260 0.87320 0.47707 -0.11100
N 	N 	0.19440 0.85850 0.38060 -0.32200
C 	C 	0.15550 0.87700 0.36480 -0.06300
H 	H 	0.15170 0.90710 0.35540 -0.03100
H 	H 	0.19800 0.76290 0.42580 0.05600
H 	H 	0.20790 0.75010 0.34360 -0.06200
H 	H 	0.28770 0.74960 0.40370 0.22600
H 	H 	0.18420 0.91670 0.53090 0.81000
H 	H 	0.17510 0.89210 0.48430 0.79600
H 	H 	0.19360 0.94220 0.48480 0.78500
N 	N 	0.76200 0.38820 0.96230 -1.05600
N 	N 	0.80260 0.37320 0.97707 -0.16700
N 	N 	0.69440 0.35850 0.88060 -0.33300
C 	C 	0.65550 0.37700 0.86480 -0.09800
H 	H 	0.65170 0.40710 0.85540 -0.01400
H 	H 	0.69800 0.26290 0.92580 0.07900
H 	H 	0.70790 0.25010 0.84360 -0.06000
H 	H 	0.78770 0.24960 0.90370 0.20400
H 	H 	0.68420 0.41670 0.03090 1.76500
H 	H 	0.67510 0.39210 0.98430 1.81500
H 	H 	0.69360 0.44220 0.98480 1.73200
N 	N 	0.73800 0.11180 0.46230 -0.66400
N 	N 	0.69740 0.12680 0.47707 -0.15000
N 	N 	0.80560 0.14150 0.38060 -0.31900
C 	C 	0.84450 0.12300 0.36480 -0.06500
H 	H 	0.84830 0.09290 0.35540 -0.02200
H 	H 	0.80200 0.23710 0.42580 0.05600
H 	H 	0.79210 0.24990 0.34360 -0.06200
H 	H 	0.71230 0.25040 0.40370 0.22600
H 	H 	0.81580 0.08330 0.53090 0.83000
H 	H 	0.82490 0.10790 0.48430 0.81700
H 	H 	0.80640 0.05780 0.48480 0.80200
N 	N 	0.23800 0.61180 0.96230 0.12500
N 	N 	0.19740 0.62680 0.97707 -0.16400
N 	N 	0.30560 0.64150 0.88060 -0.28600
C 	C 	0.34450 0.62300 0.86480 0.02900
H 	H 	0.34830 0.59290 0.85540 -0.00900
H 	H 	0.30200 0.73710 0.92580 0.05500
H 	H 	0.29210 0.74990 0.84360 -0.06000
H 	H 	0.21230 0.75040 0.90370 0.20700
H 	H 	0.31580 0.58330 0.03090 -1.12500
H 	H 	0.32490 0.60790 0.98430 -1.22900
H 	H 	0.30640 0.55780 0.98480 -1.18400
N 	N 	0.73800 0.88820 0.53770 -0.53000
N 	N 	0.69740 0.87320 0.52293 -0.11500
N 	N 	0.80560 0.85850 0.61940 -0.31900
C 	C 	0.84450 0.87700 0.63520 -0.05600
H 	H 	0.84830 0.90710 0.64460 -0.03400
H 	H 	0.80200 0.76290 0.57420 0.06900
H 	H 	0.79210 0.75010 0.65640 -0.06700
H 	H 	0.71230 0.74960 0.59630 0.23000
H 	H 	0.81580 0.91670 0.46910 0.60600
H 	H 	0.82490 0.89210 0.51570 0.60400
H 	H 	0.80640 0.94220 0.51520 0.58400
N 	N 	0.23800 0.38820 0.03770 -0.61600
N 	N 	0.19740 0.37320 0.02293 -0.12000
N 	N 	0.30560 0.35850 0.11940 -0.31800
C 	C 	0.34450 0.37700 0.13520 -0.05000
H 	H 	0.34830 0.40710 0.14460 -0.00900
H 	H 	0.30200 0.26290 0.07420 0.07200
H 	H 	0.29210 0.25010 0.15640 -0.07000
H 	H 	0.21230 0.24960 0.09630 0.24800
H 	H 	0.31580 0.41670 0.96910 0.76800
H 	H 	0.32490 0.39210 0.01570 0.78900
H 	H 	0.30640 0.44220 0.01520 0.82600
N 	N 	0.53770 0.88820 0.73800 -0.53000
N 	N 	0.52293 0.87320 0.69740 -0.11500
N 	N 	0.61940 0.85850 0.80560 -0.31900
C 	C 	0.63520 0.87700 0.84450 -0.05600
H 	H 	0.64460 0.90710 0.84830 -0.03400
H 	H 	0.57420 0.76290 0.80200 0.06900
H 	H 	0.65640 0.75010 0.79210 -0.06700
H 	H 	0.59630 0.74960 0.71230 0.23000
H 	H 	0.46910 0.91670 0.81580 0.60600
H 	H 	0.51570 0.89210 0.82490 0.60400
H 	H 	0.51520 0.94220 0.80640 0.58400
N 	N 	0.03770 0.38820 0.23800 -0.61600
N 	N 	0.02293 0.37320 0.19740 -0.12000
N 	N 	0.11940 0.35850 0.30560 -0.31800
C 	C 	0.13520 0.37700 0.34450 -0.05000
H 	H 	0.14460 0.40710 0.34830 -0.00900
H 	H 	0.07420 0.26290 0.30200 0.07200
H 	H 	0.15640 0.25010 0.29210 -0.07000
H 	H 	0.09630 0.24960 0.21230 0.24800
H 	H 	0.96910 0.41670 0.31580 0.76800
H 	H 	0.01570 0.39210 0.32490 0.78900
H 	H 	0.01520 0.44220 0.30640 0.82600
N 	N 	0.46230 0.11180 0.73800 -0.66400
N 	N 	0.47707 0.12680 0.69740 -0.15000
N 	N 	0.38060 0.14150 0.80560 -0.31900
C 	C 	0.36480 0.12300 0.84450 -0.06500
H 	H 	0.35540 0.09290 0.84830 -0.02200
H 	H 	0.42580 0.23710 0.80200 0.05600
H 	H 	0.34360 0.24990 0.79210 -0.06200
H 	H 	0.40370 0.25040 0.71230 0.22600
H 	H 	0.53090 0.08330 0.81580 0.83000
H 	H 	0.48430 0.10790 0.82490 0.81700
H 	H 	0.48480 0.05780 0.80640 0.80200
N 	N 	0.96230 0.61180 0.23800 0.12500
N 	N 	0.97707 0.62680 0.19740 -0.16400
N 	N 	0.88060 0.64150 0.30560 -0.28600
C 	C 	0.86480 0.62300 0.34450 0.02900
H 	H 	0.85540 0.59290 0.34830 -0.00900
H 	H 	0.92580 0.73710 0.30200 0.05500
H 	H 	0.84360 0.74990 0.29210 -0.06000
H 	H 	0.90370 0.75040 0.21230 0.20700
H 	H 	0.03090 0.58330 0.31580 -1.12500
H 	H 	0.98430 0.60790 0.32490 -1.22900
H 	H 	0.98480 0.55780 0.30640 -1.18400
N 	N 	0.46230 0.88820 0.26200 -0.62700
N 	N 	0.47707 0.87320 0.30260 -0.11100
N 	N 	0.38060 0.85850 0.19440 -0.32200
C 	C 	0.36480 0.87700 0.15550 -0.06300
H 	H 	0.35540 0.90710 0.15170 -0.03100
H 	H 	0.42580 0.76290 0.19800 0.05600
H 	H 	0.34360 0.75010 0.20790 -0.06200
H 	H 	0.40370 0.74960 0.28770 0.22600
H 	H 	0.53090 0.91670 0.18420 0.81000
H 	H 	0.48430 0.89210 0.17510 0.79600
H 	H 	0.48480 0.94220 0.19360 0.78500
N 	N 	0.96230 0.38820 0.76200 -1.05600
N 	N 	0.97707 0.37320 0.80260 -0.16700
N 	N 	0.88060 0.35850 0.69440 -0.33300
C 	C 	0.86480 0.37700 0.65550 -0.09800
H 	H 	0.85540 0.40710 0.65170 -0.01400
H 	H 	0.92580 0.26290 0.69800 0.07900
H 	H 	0.84360 0.25010 0.70790 -0.06000
H 	H 	0.90370 0.24960 0.78770 0.20400
H 	H 	0.03090 0.41670 0.68420 1.76500
H 	H 	0.98430 0.39210 0.67510 1.81500
H 	H 	0.98480 0.44220 0.69360 1.73200
N 	N 	0.53770 0.11180 0.26200 -0.67300
N 	N 	0.52293 0.12680 0.30260 -0.07200
N 	N 	0.61940 0.14150 0.19440 -0.32900
C 	C 	0.63520 0.12300 0.15550 -0.07400
H 	H 	0.64460 0.09290 0.15170 -0.02300
H 	H 	0.57420 0.23710 0.19800 0.04600
H 	H 	0.65640 0.24990 0.20790 -0.06100
H 	H 	0.59630 0.25040 0.28770 0.22500
H 	H 	0.46910 0.08330 0.18420 1.03400
H 	H 	0.51570 0.10790 0.17510 1.01000
H 	H 	0.51520 0.05780 0.19360 1.04800
N 	N 	0.03770 0.61180 0.76200 -0.27600
N 	N 	0.02293 0.62680 0.80260 -0.11100
N 	N 	0.11940 0.64150 0.69440 -0.30400
C 	C 	0.13520 0.62300 0.65550 -0.01300
H 	H 	0.14460 0.59290 0.65170 -0.00800
H 	H 	0.07420 0.73710 0.69800 0.11000
H 	H 	0.15640 0.74990 0.70790 -0.07600
H 	H 	0.09630 0.75040 0.78770 0.24100
H 	H 	0.96910 0.58330 0.68420 -0.04800
H 	H 	0.01570 0.60790 0.67510 0.00700
H 	H 	0.01520 0.55780 0.69360 -0.06400
N 	N 	0.73800 0.53770 0.88820 -0.53000
N 	N 	0.69740 0.52293 0.87320 -0.11500
N 	N 	0.80560 0.61940 0.85850 -0.31900
C 	C 	0.84450 0.63520 0.87700 -0.05600
H 	H 	0.84830 0.64460 0.90710 -0.03400
H 	H 	0.80200 0.57420 0.76290 0.06900
H 	H 	0.79210 0.65640 0.75010 -0.06700
H 	H 	0.71230 0.59630 0.74960 0.23000
H 	H 	0.81580 0.46910 0.91670 0.60600
H 	H 	0.82490 0.51570 0.89210 0.60400
H 	H 	0.80640 0.51520 0.94220 0.58400
N 	N 	0.23800 0.03770 0.38820 -0.61600
N 	N 	0.19740 0.02293 0.37320 -0.12000
N 	N 	0.30560 0.11940 0.35850 -0.31800
C 	C 	0.34450 0.13520 0.37700 -0.05000
H 	H 	0.34830 0.14460 0.40710 -0.00900
H 	H 	0.30200 0.07420 0.26290 0.07200
H 	H 	0.29210 0.15640 0.25010 -0.07000
H 	H 	0.21230 0.09630 0.24960 0.24800
H 	H 	0.31580 0.96910 0.41670 0.76800
H 	H 	0.32490 0.01570 0.39210 0.78900
H 	H 	0.30640 0.01520 0.44220 0.82600
N 	N 	0.73800 0.46230 0.11180 -0.66400
N 	N 	0.69740 0.47707 0.12680 -0.15000
N 	N 	0.80560 0.38060 0.14150 -0.31900
C 	C 	0.84450 0.36480 0.12300 -0.06500
H 	H 	0.84830 0.35540 0.09290 -0.02200
H 	H 	0.80200 0.42580 0.23710 0.05600
H 	H 	0.79210 0.34360 0.24990 -0.06200
H 	H 	0.71230 0.40370 0.25040 0.22600
H 	H 	0.81580 0.53090 0.08330 0.83000
H 	H 	0.82490 0.48430 0.10790 0.81700
H 	H 	0.80640 0.48480 0.05780 0.80200
N 	N 	0.23800 0.96230 0.61180 0.12500
N 	N 	0.19740 0.97707 0.62680 -0.16400
N 	N 	0.30560 0.88060 0.64150 -0.28600
C 	C 	0.34450 0.86480 0.62300 0.02900
H 	H 	0.34830 0.85540 0.59290 -0.00900
H 	H 	0.30200 0.92580 0.73710 0.05500
H 	H 	0.29210 0.84360 0.74990 -0.06000
H 	H 	0.21230 0.90370 0.75040 0.20700
H 	H 	0.31580 0.03090 0.58330 -1.12500
H 	H 	0.32490 0.98430 0.60790 -1.22900
H 	H 	0.30640 0.98480 0.55780 -1.18400
N 	N 	0.26200 0.46230 0.88820 -0.62700
N 	N 	0.30260 0.47707 0.87320 -0.11100
N 	N 	0.19440 0.38060 0.85850 -0.32200
C 	C 	0.15550 0.36480 0.87700 -0.06300
H 	H 	0.15170 0.35540 0.90710 -0.03100
H 	H 	0.19800 0.42580 0.76290 0.05600
H 	H 	0.20790 0.34360 0.75010 -0.06200
H 	H 	0.28770 0.40370 0.74960 0.22600
H 	H 	0.18420 0.53090 0.91670 0.81000
H 	H 	0.17510 0.48430 0.89210 0.79600
H 	H 	0.19360 0.48480 0.94220 0.78500
N 	N 	0.76200 0.96230 0.38820 -1.05600
N 	N 	0.80260 0.97707 0.37320 -0.16700
N 	N 	0.69440 0.88060 0.35850 -0.33300
C 	C 	0.65550 0.86480 0.37700 -0.09800
H 	H 	0.65170 0.85540 0.40710 -0.01400
H 	H 	0.69800 0.92580 0.26290 0.07900
H 	H 	0.70790 0.84360 0.25010 -0.06000
H 	H 	0.78770 0.90370 0.24960 0.20400
H 	H 	0.68420 0.03090 0.41670 1.76500
H 	H 	0.67510 0.98430 0.39210 1.81500
H 	H 	0.69360 0.98480 0.44220 1.73200
N 	N 	0.26200 0.53770 0.11180 -0.67300
N 	N 	0.30260 0.52293 0.12680 -0.07200
N 	N 	0.19440 0.61940 0.14150 -0.32900
C 	C 	0.15550 0.63520 0.12300 -0.07400
H 	H 	0.15170 0.64460 0.09290 -0.02300
H 	H 	0.19800 0.57420 0.23710 0.04600
H 	H 	0.20790 0.65640 0.24990 -0.06100
H 	H 	0.28770 0.59630 0.25040 0.22500
H 	H 	0.18420 0.46910 0.08330 1.03400
H 	H 	0.17510 0.51570 0.10790 1.01000
H 	H 	0.19360 0.51520 0.05780 1.04800
N 	N 	0.76200 0.03770 0.61180 -0.27600
N 	N 	0.80260 0.02293 0.62680 -0.11100
N 	N 	0.69440 0.11940 0.64150 -0.30400
C 	C 	0.65550 0.13520 0.62300 -0.01300
H 	H 	0.65170 0.14460 0.59290 -0.00800
H 	H 	0.69800 0.07420 0.73710 0.11000
H 	H 	0.70790 0.15640 0.74990 -0.07600
H 	H 	0.78770 0.09630 0.75040 0.24100
H 	H 	0.68420 0.96910 0.58330 -0.04800
H 	H 	0.67510 0.01570 0.60790 0.00700
H 	H 	0.69360 0.01520 0.55780 -0.06400
N 	N 	0.88820 0.73800 0.53770 -0.53000
N 	N 	0.87320 0.69740 0.52293 -0.11500
N 	N 	0.85850 0.80560 0.61940 -0.31900
C 	C 	0.87700 0.84450 0.63520 -0.05600
H 	H 	0.90710 0.84830 0.64460 -0.03400
H 	H 	0.76290 0.80200 0.57420 0.06900
H 	H 	0.75010 0.79210 0.65640 -0.06700
H 	H 	0.74960 0.71230 0.59630 0.23000
H 	H 	0.91670 0.81580 0.46910 0.60600
H 	H 	0.89210 0.82490 0.51570 0.60400
H 	H 	0.94220 0.80640 0.51520 0.58400
N 	N 	0.38820 0.23800 0.03770 -0.61600
N 	N 	0.37320 0.19740 0.02293 -0.12000
N 	N 	0.35850 0.30560 0.11940 -0.31800
C 	C 	0.37700 0.34450 0.13520 -0.05000
H 	H 	0.40710 0.34830 0.14460 -0.00900
H 	H 	0.26290 0.30200 0.07420 0.07200
H 	H 	0.25010 0.29210 0.15640 -0.07000
H 	H 	0.24960 0.21230 0.09630 0.24800
H 	H 	0.41670 0.31580 0.96910 0.76800
H 	H 	0.39210 0.32490 0.01570 0.78900
H 	H 	0.44220 0.30640 0.01520 0.82600
N 	N 	0.11180 0.73800 0.46230 -0.66400
N 	N 	0.12680 0.69740 0.47707 -0.15000
N 	N 	0.14150 0.80560 0.38060 -0.31900
C 	C 	0.12300 0.84450 0.36480 -0.06500
H 	H 	0.09290 0.84830 0.35540 -0.02200
H 	H 	0.23710 0.80200 0.42580 0.05600
H 	H 	0.24990 0.79210 0.34360 -0.06200
H 	H 	0.25040 0.71230 0.40370 0.22600
H 	H 	0.08330 0.81580 0.53090 0.83000
H 	H 	0.10790 0.82490 0.48430 0.81700
H 	H 	0.05780 0.80640 0.48480 0.80200
N 	N 	0.61180 0.23800 0.96230 0.12500
N 	N 	0.62680 0.19740 0.97707 -0.16400
N 	N 	0.64150 0.30560 0.88060 -0.28600
C 	C 	0.62300 0.34450 0.86480 0.02900
H 	H 	0.59290 0.34830 0.85540 -0.00900
H 	H 	0.73710 0.30200 0.92580 0.05500
H 	H 	0.74990 0.29210 0.84360 -0.06000
H 	H 	0.75040 0.21230 0.90370 0.20700
H 	H 	0.58330 0.31580 0.03090 -1.12500
H 	H 	0.60790 0.32490 0.98430 -1.22900
H 	H 	0.55780 0.30640 0.98480 -1.18400
N 	N 	0.88820 0.26200 0.46230 -0.62700
N 	N 	0.87320 0.30260 0.47707 -0.11100
N 	N 	0.85850 0.19440 0.38060 -0.32200
C 	C 	0.87700 0.15550 0.36480 -0.06300
H 	H 	0.90710 0.15170 0.35540 -0.03100
H 	H 	0.76290 0.19800 0.42580 0.05600
H 	H 	0.75010 0.20790 0.34360 -0.06200
H 	H 	0.74960 0.28770 0.40370 0.22600
H 	H 	0.91670 0.18420 0.53090 0.81000
H 	H 	0.89210 0.17510 0.48430 0.79600
H 	H 	0.94220 0.19360 0.48480 0.78500
N 	N 	0.38820 0.76200 0.96230 -1.05600
N 	N 	0.37320 0.80260 0.97707 -0.16700
N 	N 	0.35850 0.69440 0.88060 -0.33300
C 	C 	0.37700 0.65550 0.86480 -0.09800
H 	H 	0.40710 0.65170 0.85540 -0.01400
H 	H 	0.26290 0.69800 0.92580 0.07900
H 	H 	0.25010 0.70790 0.84360 -0.06000
H 	H 	0.24960 0.78770 0.90370 0.20400
H 	H 	0.41670 0.68420 0.03090 1.76500
H 	H 	0.39210 0.67510 0.98430 1.81500
H 	H 	0.44220 0.69360 0.98480 1.73200
N 	N 	0.11180 0.26200 0.53770 -0.67300
N 	N 	0.12680 0.30260 0.52293 -0.07200
N 	N 	0.14150 0.19440 0.61940 -0.32900
C 	C 	0.12300 0.15550 0.63520 -0.07400
H 	H 	0.09290 0.15170 0.64460 -0.02300
H 	H 	0.23710 0.19800 0.57420 0.04600
H 	H 	0.24990 0.20790 0.65640 -0.06100
H 	H 	0.25040 0.28770 0.59630 0.22500
H 	H 	0.08330 0.18420 0.46910 1.03400
H 	H 	0.10790 0.17510 0.51570 1.01000
H 	H 	0.05780 0.19360 0.51520 1.04800
N 	N 	0.61180 0.76200 0.03770 -0.27600
N 	N 	0.62680 0.80260 0.02293 -0.11100
N 	N 	0.64150 0.69440 0.11940 -0.30400
C 	C 	0.62300 0.65550 0.13520 -0.01300
H 	H 	0.59290 0.65170 0.14460 -0.00800
H 	H 	0.73710 0.69800 0.07420 0.11000
H 	H 	0.74990 0.70790 0.15640 -0.07600
H 	H 	0.75040 0.78770 0.09630 0.24100
H 	H 	0.58330 0.68420 0.96910 -0.04800
H 	H 	0.60790 0.67510 0.01570 0.00700
H 	H 	0.55780 0.69360 0.01520 -0.06400
N 	N 	0.88820 0.53770 0.26200 -0.58300
N 	N 	0.87320 0.52293 0.30260 -0.07400
N 	N 	0.85850 0.61940 0.19440 -0.32500
C 	C 	0.87700 0.63520 0.15550 -0.06400
H 	H 	0.90710 0.64460 0.15170 -0.03300
H 	H 	0.76290 0.57420 0.19800 0.05700
H 	H 	0.75010 0.65640 0.20790 -0.06400
H 	H 	0.74960 0.59630 0.28770 0.22700
H 	H 	0.91670 0.46910 0.18420 0.81000
H 	H 	0.89210 0.51570 0.17510 0.79700
H 	H 	0.94220 0.51520 0.19360 0.80800
N 	N 	0.38820 0.03770 0.76200 -1.03700
N 	N 	0.37320 0.02293 0.80260 -0.11700
N 	N 	0.35850 0.11940 0.69440 -0.33400
C 	C 	0.37700 0.13520 0.65550 -0.09500
H 	H 	0.40710 0.14460 0.65170 -0.01100
H 	H 	0.26290 0.07420 0.69800 0.10300
H 	H 	0.25010 0.15640 0.70790 -0.07300
H 	H 	0.24960 0.09630 0.78770 0.24300
H 	H 	0.41670 0.96910 0.68420 1.80500
H 	H 	0.39210 0.01570 0.67510 1.92000
H 	H 	0.44220 0.01520 0.69360 1.83900
N 	N 	0.11180 0.46230 0.26200 -0.71700
N 	N 	0.12680 0.47707 0.30260 -0.10900
N 	N 	0.14150 0.38060 0.19440 -0.32500
C 	C 	0.12300 0.36480 0.15550 -0.07300
H 	H 	0.09290 0.35540 0.15170 -0.02100
H 	H 	0.23710 0.42580 0.19800 0.04400
H 	H 	0.24990 0.34360 0.20790 -0.05900
H 	H 	0.25040 0.40370 0.28770 0.22400
H 	H 	0.08330 0.53090 0.18420 1.03400
H 	H 	0.10790 0.48430 0.17510 1.00900
H 	H 	0.05780 0.48480 0.19360 1.02500
N 	N 	0.61180 0.96230 0.76200 -0.29600
N 	N 	0.62680 0.97707 0.80260 -0.16100
N 	N 	0.64150 0.88060 0.69440 -0.30300
C 	C 	0.62300 0.86480 0.65550 -0.01600
H 	H 	0.59290 0.85540 0.65170 -0.01100
H 	H 	0.73710 0.92580 0.69800 0.08600
H 	H 	0.74990 0.84360 0.70790 -0.06300
H 	H 	0.75040 0.90370 0.78770 0.20200
H 	H 	0.58330 0.03090 0.68420 -0.08800
H 	H 	0.60790 0.98430 0.67510 -0.09800
H 	H 	0.55780 0.98480 0.69360 -0.17100
N 	N 	0.88820 0.46230 0.73800 -0.57400
N 	N 	0.87320 0.47707 0.69740 -0.15200
N 	N 	0.85850 0.38060 0.80560 -0.31600
C 	C 	0.87700 0.36480 0.84450 -0.05400
H 	H 	0.90710 0.35540 0.84830 -0.03200
H 	H 	0.76290 0.42580 0.80200 0.06700
H 	H 	0.75010 0.34360 0.79210 -0.06600
H 	H 	0.74960 0.40370 0.71230 0.22900
H 	H 	0.91670 0.53090 0.81580 0.60600
H 	H 	0.89210 0.48430 0.82490 0.60300
H 	H 	0.94220 0.48480 0.80640 0.56100
N 	N 	0.38820 0.96230 0.23800 -0.63500
N 	N 	0.37320 0.97707 0.19740 -0.17000
N 	N 	0.35850 0.88060 0.30560 -0.31700
C 	C 	0.37700 0.86480 0.34450 -0.05300
H 	H 	0.40710 0.85540 0.34830 -0.01200
H 	H 	0.26290 0.92580 0.30200 0.04800
H 	H 	0.25010 0.84360 0.29210 -0.05700
H 	H 	0.24960 0.90370 0.21230 0.20900
H 	H 	0.41670 0.03090 0.31580 0.72800
H 	H 	0.39210 0.98430 0.32490 0.68400
H 	H 	0.44220 0.98480 0.30640 0.71900
N 	N 	0.11180 0.53770 0.73800 -0.62000
N 	N 	0.12680 0.52293 0.69740 -0.11300
N 	N 	0.14150 0.61940 0.80560 -0.32200
C 	C 	0.12300 0.63520 0.84450 -0.06600
H 	H 	0.09290 0.64460 0.84830 -0.02400
H 	H 	0.23710 0.57420 0.80200 0.05700
H 	H 	0.24990 0.65640 0.79210 -0.06400
H 	H 	0.25040 0.59630 0.71230 0.22700
H 	H 	0.08330 0.46910 0.81580 0.83100
H 	H 	0.10790 0.51570 0.82490 0.81800
H 	H 	0.05780 0.51520 0.80640 0.82500
N 	N 	0.61180 0.03770 0.23800 0.14500
N 	N 	0.62680 0.02293 0.19740 -0.11400
N 	N 	0.64150 0.11940 0.30560 -0.28700
C 	C 	0.62300 0.13520 0.34450 0.03200
H 	H 	0.59290 0.14460 0.34830 -0.00600
H 	H 	0.73710 0.07420 0.30200 0.07900
H 	H 	0.74990 0.15640 0.29210 -0.07300
H 	H 	0.75040 0.09630 0.21230 0.24600
H 	H 	0.58330 0.96910 0.31580 -1.08500
H 	H 	0.60790 0.01570 0.32490 -1.12400
H 	H 	0.55780 0.01520 0.30640 -1.07700
N 	N 	0.53770 0.73800 0.11180 -0.62000
N 	N 	0.52293 0.69740 0.12680 -0.11300
N 	N 	0.61940 0.80560 0.14150 -0.32200
C 	C 	0.63520 0.84450 0.12300 -0.06600
H 	H 	0.64460 0.84830 0.09290 -0.02400
H 	H 	0.57420 0.80200 0.23710 0.05700
H 	H 	0.65640 0.79210 0.24990 -0.06400
H 	H 	0.59630 0.71230 0.25040 0.22700
H 	H 	0.46910 0.81580 0.08330 0.83100
H 	H 	0.51570 0.82490 0.10790 0.81800
H 	H 	0.51520 0.80640 0.05780 0.82500
N 	N 	0.03770 0.23800 0.61180 0.14500
N 	N 	0.02293 0.19740 0.62680 -0.11400
N 	N 	0.11940 0.30560 0.64150 -0.28700
C 	C 	0.13520 0.34450 0.62300 0.03200
H 	H 	0.14460 0.34830 0.59290 -0.00600
H 	H 	0.07420 0.30200 0.73710 0.07900
H 	H 	0.15640 0.29210 0.74990 -0.07300
H 	H 	0.09630 0.21230 0.75040 0.24600
H 	H 	0.96910 0.31580 0.58330 -1.08500
H 	H 	0.01570 0.32490 0.60790 -1.12400
H 	H 	0.01520 0.30640 0.55780 -1.07700
N 	N 	0.46230 0.73800 0.88820 -0.57400
N 	N 	0.47707 0.69740 0.87320 -0.15200
N 	N 	0.38060 0.80560 0.85850 -0.31600
C 	C 	0.36480 0.84450 0.87700 -0.05400
H 	H 	0.35540 0.84830 0.90710 -0.03200
H 	H 	0.42580 0.80200 0.76290 0.06700
H 	H 	0.34360 0.79210 0.75010 -0.06600
H 	H 	0.40370 0.71230 0.74960 0.22900
H 	H 	0.53090 0.81580 0.91670 0.60600
H 	H 	0.48430 0.82490 0.89210 0.60300
H 	H 	0.48480 0.80640 0.94220 0.56100
N 	N 	0.96230 0.23800 0.38820 -0.63500
N 	N 	0.97707 0.19740 0.37320 -0.17000
N 	N 	0.88060 0.30560 0.35850 -0.31700
C 	C 	0.86480 0.34450 0.37700 -0.05300
H 	H 	0.85540 0.34830 0.40710 -0.01200
H 	H 	0.92580 0.30200 0.26290 0.04800
H 	H 	0.84360 0.29210 0.25010 -0.05700
H 	H 	0.90370 0.21230 0.24960 0.20900
H 	H 	0.03090 0.31580 0.41670 0.72800
H 	H 	0.98430 0.32490 0.39210 0.68400
H 	H 	0.98480 0.30640 0.44220 0.71900
N 	N 	0.46230 0.26200 0.11180 -0.71700
N 	N 	0.47707 0.30260 0.12680 -0.10900
N 	N 	0.38060 0.19440 0.14150 -0.32500
C 	C 	0.36480 0.15550 0.12300 -0.07300
H 	H 	0.35540 0.15170 0.09290 -0.02100
H 	H 	0.42580 0.19800 0.23710 0.04400
H 	H 	0.34360 0.20790 0.24990 -0.05900
H 	H 	0.40370 0.28770 0.25040 0.22400
H 	H 	0.53090 0.18420 0.08330 1.03400
H 	H 	0.48430 0.17510 0.10790 1.00900
H 	H 	0.48480 0.19360 0.05780 1.02500
N 	N 	0.96230 0.76200 0.61180 -0.29600
N 	N 	0.97707 0.80260 0.62680 -0.16100
N 	N 	0.88060 0.69440 0.64150 -0.30300
C 	C 	0.86480 0.65550 0.62300 -0.01600
H 	H 	0.85540 0.65170 0.59290 -0.01100
H 	H 	0.92580 0.69800 0.73710 0.08600
H 	H 	0.84360 0.70790 0.74990 -0.06300
H 	H 	0.90370 0.78770 0.75040 0.20200
H 	H 	0.03090 0.68420 0.58330 -0.08800
H 	H 	0.98430 0.67510 0.60790 -0.09800
H 	H 	0.98480 0.69360 0.55780 -0.17100
N 	N 	0.53770 0.26200 0.88820 -0.58300
N 	N 	0.52293 0.30260 0.87320 -0.07400
N 	N 	0.61940 0.19440 0.85850 -0.32500
C 	C 	0.63520 0.15550 0.87700 -0.06400
H 	H 	0.64460 0.15170 0.90710 -0.03300
H 	H 	0.57420 0.19800 0.76290 0.05700
H 	H 	0.65640 0.20790 0.75010 -0.06400
H 	H 	0.59630 0.28770 0.74960 0.22700
H 	H 	0.46910 0.18420 0.91670 0.81000
H 	H 	0.51570 0.17510 0.89210 0.79700
H 	H 	0.51520 0.19360 0.94220 0.80800
N 	N 	0.03770 0.76200 0.38820 -1.03700
N 	N 	0.02293 0.80260 0.37320 -0.11700
N 	N 	0.11940 0.69440 0.35850 -0.33400
C 	C 	0.13520 0.65550 0.37700 -0.09500
H 	H 	0.14460 0.65170 0.40710 -0.01100
H 	H 	0.07420 0.69800 0.26290 0.10300
H 	H 	0.15640 0.70790 0.25010 -0.07300
H 	H 	0.09630 0.78770 0.24960 0.24300
H 	H 	0.96910 0.68420 0.41670 1.80500
H 	H 	0.01570 0.67510 0.39210 1.92000
H 	H 	0.01520 0.69360 0.44220 1.83900
N 	N 	0.73800 0.88820 0.46230 -0.57400
N 	N 	0.69740 0.87320 0.47707 -0.15200
N 	N 	0.80560 0.85850 0.38060 -0.31600
C 	C 	0.84450 0.87700 0.36480 -0.05400
H 	H 	0.84830 0.90710 0.35540 -0.03200
H 	H 	0.80200 0.76290 0.42580 0.06700
H 	H 	0.79210 0.75010 0.34360 -0.06600
H 	H 	0.71230 0.74960 0.40370 0.22900
H 	H 	0.81580 0.91670 0.53090 0.60600
H 	H 	0.82490 0.89210 0.48430 0.60300
H 	H 	0.80640 0.94220 0.48480 0.56100
N 	N 	0.23800 0.38820 0.96230 -0.63500
N 	N 	0.19740 0.37320 0.97707 -0.17000
N 	N 	0.30560 0.35850 0.88060 -0.31700
C 	C 	0.34450 0.37700 0.86480 -0.05300
H 	H 	0.34830 0.40710 0.85540 -0.01200
H 	H 	0.30200 0.26290 0.92580 0.04800
H 	H 	0.29210 0.25010 0.84360 -0.05700
H 	H 	0.21230 0.24960 0.90370 0.20900
H 	H 	0.31580 0.41670 0.03090 0.72800
H 	H 	0.32490 0.39210 0.98430 0.68400
H 	H 	0.30640 0.44220 0.98480 0.71900
N 	N 	0.73800 0.11180 0.53770 -0.62000
N 	N 	0.69740 0.12680 0.52293 -0.11300
N 	N 	0.80560 0.14150 0.61940 -0.32200
C 	C 	0.84450 0.12300 0.63520 -0.06600
H 	H 	0.84830 0.09290 0.64460 -0.02400
H 	H 	0.80200 0.23710 0.57420 0.05700
H 	H 	0.79210 0.24990 0.65640 -0.06400
H 	H 	0.71230 0.25040 0.59630 0.22700
H 	H 	0.81580 0.08330 0.46910 0.83100
H 	H 	0.82490 0.10790 0.51570 0.81800
H 	H 	0.80640 0.05780 0.51520 0.82500
N 	N 	0.23800 0.61180 0.03770 0.14500
N 	N 	0.19740 0.62680 0.02293 -0.11400
N 	N 	0.30560 0.64150 0.11940 -0.28700
C 	C 	0.34450 0.62300 0.13520 0.03200
H 	H 	0.34830 0.59290 0.14460 -0.00600
H 	H 	0.30200 0.73710 0.07420 0.07900
H 	H 	0.29210 0.74990 0.15640 -0.07300
H 	H 	0.21230 0.75040 0.09630 0.24600
H 	H 	0.31580 0.58330 0.96910 -1.08500
H 	H 	0.32490 0.60790 0.01570 -1.12400
H 	H 	0.30640 0.55780 0.01520 -1.07700
N 	N 	0.26200 0.88820 0.53770 -0.58300
N 	N 	0.30260 0.87320 0.52293 -0.07400
N 	N 	0.19440 0.85850 0.61940 -0.32500
C 	C 	0.15550 0.87700 0.63520 -0.06400
H 	H 	0.15170 0.90710 0.64460 -0.03300
H 	H 	0.19800 0.76290 0.57420 0.05700
H 	H 	0.20790 0.75010 0.65640 -0.06400
H 	H 	0.28770 0.74960 0.59630 0.22700
H 	H 	0.18420 0.91670 0.46910 0.81000
H 	H 	0.17510 0.89210 0.51570 0.79700
H 	H 	0.19360 0.94220 0.51520 0.80800
N 	N 	0.76200 0.38820 0.03770 -1.03700
N 	N 	0.80260 0.37320 0.02293 -0.11700
N 	N 	0.69440 0.35850 0.11940 -0.33400
C 	C 	0.65550 0.37700 0.13520 -0.09500
H 	H 	0.65170 0.40710 0.14460 -0.01100
H 	H 	0.69800 0.26290 0.07420 0.10300
H 	H 	0.70790 0.25010 0.15640 -0.07300
H 	H 	0.78770 0.24960 0.09630 0.24300
H 	H 	0.68420 0.41670 0.96910 1.80500
H 	H 	0.67510 0.39210 0.01570 1.92000
H 	H 	0.69360 0.44220 0.01520 1.83900
N 	N 	0.26200 0.11180 0.46230 -0.71700
N 	N 	0.30260 0.12680 0.47707 -0.10900
N 	N 	0.19440 0.14150 0.38060 -0.32500
C 	C 	0.15550 0.12300 0.36480 -0.07300
H 	H 	0.15170 0.09290 0.35540 -0.02100
H 	H 	0.19800 0.23710 0.42580 0.04400
H 	H 	0.20790 0.24990 0.34360 -0.05900
H 	H 	0.28770 0.25040 0.40370 0.22400
H 	H 	0.18420 0.08330 0.53090 1.03400
H 	H 	0.17510 0.10790 0.48430 1.00900
H 	H 	0.19360 0.05780 0.48480 1.02500
N 	N 	0.76200 0.61180 0.96230 -0.29600
N 	N 	0.80260 0.62680 0.97707 -0.16100
N 	N 	0.69440 0.64150 0.88060 -0.30300
C 	C 	0.65550 0.62300 0.86480 -0.01600
H 	H 	0.65170 0.59290 0.85540 -0.01100
H 	H 	0.69800 0.73710 0.92580 0.08600
H 	H 	0.70790 0.74990 0.84360 -0.06300
H 	H 	0.78770 0.75040 0.90370 0.20200
H 	H 	0.68420 0.58330 0.03090 -0.08800
H 	H 	0.67510 0.60790 0.98430 -0.09800
H 	H 	0.69360 0.55780 0.98480 -0.17100
Zn	Zn	0.39483 0.10517 0.25000 1.15600
Zn	Zn	0.60517 0.89483 0.25000 1.16600
Zn	Zn	0.60517 0.10517 0.75000 1.16100
Zn	Zn	0.39483 0.89483 0.75000 1.15200
Zn	Zn	0.25000 0.39483 0.10517 1.15600
Zn	Zn	0.25000 0.60517 0.89483 1.16600
Zn	Zn	0.75000 0.60517 0.10517 1.16100
Zn	Zn	0.75000 0.39483 0.89483 1.15200
Zn	Zn	0.10517 0.25000 0.39483 1.15600
Zn	Zn	0.89483 0.25000 0.60517 1.16600
Zn	Zn	0.10517 0.75000 0.60517 1.16100
Zn	Zn	0.89483 0.75000 0.39483 1.15200
Zn	Zn	0.10517 0.39483 0.75000 1.15100
Zn	Zn	0.89483 0.60517 0.75000 1.16100
Zn	Zn	0.10517 0.60517 0.25000 1.16500
Zn	Zn	0.89483 0.39483 0.25000 1.15600
Zn	Zn	0.39483 0.25000 0.89483 1.15600
Zn	Zn	0.60517 0.25000 0.10517 1.16500
Zn	Zn	0.60517 0.75000 0.89483 1.16100
Zn	Zn	0.39483 0.75000 0.10517 1.15100
Zn	Zn	0.25000 0.10517 0.60517 1.16500
Zn	Zn	0.25000 0.89483 0.39483 1.15600
Zn	Zn	0.75000 0.10517 0.39483 1.15100
Zn	Zn	0.75000 0.89483 0.60517 1.16100
Zn	Zn	0.60517 0.89483 0.75000 1.16100
Zn	Zn	0.10517 0.39483 0.25000 1.15600
Zn	Zn	0.39483 0.10517 0.75000 1.15100
Zn	Zn	0.39483 0.89483 0.25000 1.15600
Zn	Zn	0.60517 0.10517 0.25000 1.16500
Zn	Zn	0.75000 0.60517 0.89483 1.16100
Zn	Zn	0.25000 0.10517 0.39483 1.15600
Zn	Zn	0.75000 0.39483 0.10517 1.15100
Zn	Zn	0.25000 0.39483 0.89483 1.15600
Zn	Zn	0.25000 0.60517 0.10517 1.16500
Zn	Zn	0.89483 0.75000 0.60517 1.16100
Zn	Zn	0.39483 0.25000 0.10517 1.15600
Zn	Zn	0.10517 0.75000 0.39483 1.15100
Zn	Zn	0.89483 0.25000 0.39483 1.15600
Zn	Zn	0.10517 0.25000 0.60517 1.16500
Zn	Zn	0.89483 0.60517 0.25000 1.16600
Zn	Zn	0.89483 0.39483 0.75000 1.15200
Zn	Zn	0.10517 0.60517 0.75000 1.16100
Zn	Zn	0.60517 0.75000 0.10517 1.16100
Zn	Zn	0.39483 0.75000 0.89483 1.15200
Zn	Zn	0.60517 0.25000 0.89483 1.16600
Zn	Zn	0.75000 0.89483 0.39483 1.15200
Zn	Zn	0.75000 0.10517 0.60517 1.16100
Zn	Zn	0.25000 0.89483 0.60517 1.16600
C 	C 	0.50000 0.10280 0.23780 2.15500
C 	C 	0.50000 0.08680 0.19450 -6.53200
C 	C 	0.00000 0.60280 0.73780 0.01700
C 	C 	0.00000 0.58680 0.69450 0.20300
C 	C 	0.50000 0.89720 0.23780 1.71900
C 	C 	0.50000 0.91320 0.19450 -5.18700
C 	C 	-0.00000 0.39720 0.73780 3.66300
C 	C 	-0.00000 0.41320 0.69450 -11.06900
C 	C 	0.50000 0.10280 0.76220 1.71100
C 	C 	0.50000 0.08680 0.80550 -5.29000
C 	C 	0.00000 0.60280 0.26220 -2.03500
C 	C 	-0.00000 0.58680 0.30550 6.52800
C 	C 	0.50000 0.89720 0.76220 1.27200
C 	C 	0.50000 0.91320 0.80550 -3.94000
C 	C 	0.00000 0.39720 0.26220 1.61200
C 	C 	0.00000 0.41320 0.30550 -4.74500
C 	C 	0.23780 0.50000 0.10280 2.15500
C 	C 	0.19450 0.50000 0.08680 -6.53200
C 	C 	0.73780 0.00000 0.60280 0.01700
C 	C 	0.69450 0.00000 0.58680 0.20300
C 	C 	0.23780 0.50000 0.89720 1.71900
C 	C 	0.19450 0.50000 0.91320 -5.18700
C 	C 	0.73780 0.00000 0.39720 3.66300
C 	C 	0.69450 0.00000 0.41320 -11.06900
C 	C 	0.76220 0.50000 0.10280 1.71100
C 	C 	0.80550 0.50000 0.08680 -5.29000
C 	C 	0.26220 0.00000 0.60280 -2.03500
C 	C 	0.30550 0.00000 0.58680 6.52800
C 	C 	0.76220 0.50000 0.89720 1.27200
C 	C 	0.80550 0.50000 0.91320 -3.94000
C 	C 	0.26220 0.00000 0.39720 1.61200
C 	C 	0.30550 0.00000 0.41320 -4.74500
C 	C 	0.10280 0.23780 0.50000 2.15500
C 	C 	0.08680 0.19450 0.50000 -6.53200
C 	C 	0.60280 0.73780 -0.00000 0.01700
C 	C 	0.58680 0.69450 -0.00000 0.20300
C 	C 	0.89720 0.23780 0.50000 1.71900
C 	C 	0.91320 0.19450 0.50000 -5.18700
C 	C 	0.39720 0.73780 -0.00000 3.66300
C 	C 	0.41320 0.69450 -0.00000 -11.06900
C 	C 	0.10280 0.76220 0.50000 1.71100
C 	C 	0.08680 0.80550 0.50000 -5.29000
C 	C 	0.60280 0.26220 -0.00000 -2.03500
C 	C 	0.58680 0.30550 -0.00000 6.52800
C 	C 	0.89720 0.76220 0.50000 1.27200
C 	C 	0.91320 0.80550 0.50000 -3.94000
C 	C 	0.39720 0.26220 -0.00000 1.61200
C 	C 	0.41320 0.30550 -0.00000 -4.74500
C 	C 	0.10280 0.50000 0.76220 1.71100
C 	C 	0.08680 0.50000 0.80550 -5.29000
C 	C 	0.60280 0.00000 0.26220 -2.03500
C 	C 	0.58680 0.00000 0.30550 6.52800
C 	C 	0.89720 0.50000 0.76220 1.27200
C 	C 	0.91320 0.50000 0.80550 -3.94000
C 	C 	0.39720 0.00000 0.26220 1.61200
C 	C 	0.41320 0.00000 0.30550 -4.74500
C 	C 	0.10280 0.50000 0.23780 2.15500
C 	C 	0.08680 0.50000 0.19450 -6.53200
C 	C 	0.60280 -0.00000 0.73780 0.01700
C 	C 	0.58680 0.00000 0.69450 0.20300
C 	C 	0.89720 0.50000 0.23780 1.71900
C 	C 	0.91320 0.50000 0.19450 -5.18700
C 	C 	0.39720 -0.00000 0.73780 3.66300
C 	C 	0.41320 0.00000 0.69450 -11.06900
C 	C 	0.50000 0.23780 0.89720 1.71900
C 	C 	0.50000 0.19450 0.91320 -5.18700
C 	C 	-0.00000 0.73780 0.39720 3.66300
C 	C 	-0.00000 0.69450 0.41320 -11.06900
C 	C 	0.50000 0.23780 0.10280 2.15500
C 	C 	0.50000 0.19450 0.08680 -6.53200
C 	C 	0.00000 0.73780 0.60280 0.01700
C 	C 	0.00000 0.69450 0.58680 0.20300
C 	C 	0.50000 0.76220 0.89720 1.27200
C 	C 	0.50000 0.80550 0.91320 -3.94000
C 	C 	0.00000 0.26220 0.39720 1.61200
C 	C 	0.00000 0.30550 0.41320 -4.74500
C 	C 	0.50000 0.76220 0.10280 1.71100
C 	C 	0.50000 0.80550 0.08680 -5.29000
C 	C 	0.00000 0.26220 0.60280 -2.03500
C 	C 	-0.00000 0.30550 0.58680 6.52800
C 	C 	0.23780 0.10280 0.50000 2.15500
C 	C 	0.19450 0.08680 0.50000 -6.53200
C 	C 	0.73780 0.60280 -0.00000 0.01700
C 	C 	0.69450 0.58680 -0.00000 0.20300
C 	C 	0.23780 0.89720 0.50000 1.71900
C 	C 	0.19450 0.91320 0.50000 -5.18700
C 	C 	0.73780 0.39720 -0.00000 3.66300
C 	C 	0.69450 0.41320 -0.00000 -11.06900
C 	C 	0.76220 0.10280 0.50000 1.71100
C 	C 	0.80550 0.08680 0.50000 -5.29000
C 	C 	0.26220 0.60280 -0.00000 -2.03500
C 	C 	0.30550 0.58680 -0.00000 6.52800
C 	C 	0.76220 0.89720 0.50000 1.27200
C 	C 	0.80550 0.91320 0.50000 -3.94000
C 	C 	0.26220 0.39720 -0.00000 1.61200
C 	C 	0.30550 0.41320 -0.00000 -4.74500
C 	C 	0.39010 0.18550 0.18550 0.10500
C 	C 	0.40680 0.21610 0.21610 -0.32300
C 	C 	0.36080 0.23420 0.23420 0.23500
C 	C 	0.38510 0.26700 0.26700 -0.72000
H 	H 	0.36170 0.28295 0.28295 0.21900
C 	C 	0.89010 0.68550 0.68550 0.18500
C 	C 	0.90680 0.71610 0.71610 -0.37800
C 	C 	0.86080 0.73420 0.73420 0.23600
C 	C 	0.88510 0.76700 0.76700 -0.68000
H 	H 	0.86170 0.78295 0.78295 0.19800
C 	C 	0.60990 0.81450 0.18550 0.12500
C 	C 	0.59320 0.78390 0.21610 -0.34200
C 	C 	0.63920 0.76580 0.23420 0.24600
C 	C 	0.61490 0.73300 0.26700 -0.73000
H 	H 	0.63830 0.71705 0.28295 0.22100
C 	C 	0.10990 0.31450 0.68550 0.17000
C 	C 	0.09320 0.28390 0.71610 -0.38800
C 	C 	0.13920 0.26580 0.73420 0.27700
C 	C 	0.11490 0.23300 0.76700 -0.77100
H 	H 	0.13830 0.21705 0.78295 0.23500
C 	C 	0.60990 0.18550 0.81450 0.12500
C 	C 	0.59320 0.21610 0.78390 -0.34200
C 	C 	0.63920 0.23420 0.76580 0.24600
C 	C 	0.61490 0.26700 0.73300 -0.73000
H 	H 	0.63830 0.28295 0.71705 0.22100
C 	C 	0.10990 0.68550 0.31450 0.17000
C 	C 	0.09320 0.71610 0.28390 -0.38800
C 	C 	0.13920 0.73420 0.26580 0.27700
C 	C 	0.11490 0.76700 0.23300 -0.77100
H 	H 	0.13830 0.78295 0.21705 0.23500
C 	C 	0.39010 0.81450 0.81450 0.13900
C 	C 	0.40680 0.78390 0.78390 -0.35400
C 	C 	0.36080 0.76580 0.76580 0.25100
C 	C 	0.38510 0.73300 0.73300 -0.73400
H 	H 	0.36170 0.71705 0.71705 0.22300
C 	C 	0.89010 0.31450 0.31450 0.12300
C 	C 	0.90680 0.28390 0.28390 -0.32800
C 	C 	0.86080 0.26580 0.26580 0.22300
C 	C 	0.88510 0.23300 0.23300 -0.68900
H 	H 	0.86170 0.21705 0.21705 0.20800
C 	C 	0.18550 0.39010 0.18550 0.10500
C 	C 	0.21610 0.40680 0.21610 -0.32300
C 	C 	0.23420 0.36080 0.23420 0.23500
C 	C 	0.26700 0.38510 0.26700 -0.72000
H 	H 	0.28295 0.36170 0.28295 0.21900
C 	C 	0.68550 0.89010 0.68550 0.18500
C 	C 	0.71610 0.90680 0.71610 -0.37800
C 	C 	0.73420 0.86080 0.73420 0.23600
C 	C 	0.76700 0.88510 0.76700 -0.68000
H 	H 	0.78295 0.86170 0.78295 0.19800
C 	C 	0.18550 0.60990 0.81450 0.12500
C 	C 	0.21610 0.59320 0.78390 -0.34200
C 	C 	0.23420 0.63920 0.76580 0.24600
C 	C 	0.26700 0.61490 0.73300 -0.73000
H 	H 	0.28295 0.63830 0.71705 0.22100
C 	C 	0.68550 0.10990 0.31450 0.17000
C 	C 	0.71610 0.09320 0.28390 -0.38800
C 	C 	0.73420 0.13920 0.26580 0.27700
C 	C 	0.76700 0.11490 0.23300 -0.77100
H 	H 	0.78295 0.13830 0.21705 0.23500
C 	C 	0.81450 0.60990 0.18550 0.12500
C 	C 	0.78390 0.59320 0.21610 -0.34200
C 	C 	0.76580 0.63920 0.23420 0.24600
C 	C 	0.73300 0.61490 0.26700 -0.73000
H 	H 	0.71705 0.63830 0.28295 0.22100
C 	C 	0.31450 0.10990 0.68550 0.17000
C 	C 	0.28390 0.09320 0.71610 -0.38800
C 	C 	0.26580 0.13920 0.73420 0.27700
C 	C 	0.23300 0.11490 0.76700 -0.77100
H 	H 	0.21705 0.13830 0.78295 0.23500
C 	C 	0.81450 0.39010 0.81450 0.13900
C 	C 	0.78390 0.40680 0.78390 -0.35400
C 	C 	0.76580 0.36080 0.76580 0.25100
C 	C 	0.73300 0.38510 0.73300 -0.73400
H 	H 	0.71705 0.36170 0.71705 0.22300
C 	C 	0.31450 0.89010 0.31450 0.12300
C 	C 	0.28390 0.90680 0.28390 -0.32800
C 	C 	0.26580 0.86080 0.26580 0.22300
C 	C 	0.23300 0.88510 0.23300 -0.68900
H 	H 	0.21705 0.86170 0.21705 0.20800
C 	C 	0.18550 0.18550 0.39010 0.10500
C 	C 	0.21610 0.21610 0.40680 -0.32300
C 	C 	0.23420 0.23420 0.36080 0.23500
C 	C 	0.26700 0.26700 0.38510 -0.72000
H 	H 	0.28295 0.28295 0.36170 0.21900
C 	C 	0.68550 0.68550 0.89010 0.18500
C 	C 	0.71610 0.71610 0.90680 -0.37800
C 	C 	0.73420 0.73420 0.86080 0.23600
C 	C 	0.76700 0.76700 0.88510 -0.68000
H 	H 	0.78295 0.78295 0.86170 0.19800
C 	C 	0.81450 0.18550 0.60990 0.12500
C 	C 	0.78390 0.21610 0.59320 -0.34200
C 	C 	0.76580 0.23420 0.63920 0.24600
C 	C 	0.73300 0.26700 0.61490 -0.73000
H 	H 	0.71705 0.28295 0.63830 0.22100
C 	C 	0.31450 0.68550 0.10990 0.17000
C 	C 	0.28390 0.71610 0.09320 -0.38800
C 	C 	0.26580 0.73420 0.13920 0.27700
C 	C 	0.23300 0.76700 0.11490 -0.77100
H 	H 	0.21705 0.78295 0.13830 0.23500
C 	C 	0.18550 0.81450 0.60990 0.12500
C 	C 	0.21610 0.78390 0.59320 -0.34200
C 	C 	0.23420 0.76580 0.63920 0.24600
C 	C 	0.26700 0.73300 0.61490 -0.73000
H 	H 	0.28295 0.71705 0.63830 0.22100
C 	C 	0.68550 0.31450 0.10990 0.17000
C 	C 	0.71610 0.28390 0.09320 -0.38800
C 	C 	0.73420 0.26580 0.13920 0.27700
C 	C 	0.76700 0.23300 0.11490 -0.77100
H 	H 	0.78295 0.21705 0.13830 0.23500
C 	C 	0.81450 0.81450 0.39010 0.13900
C 	C 	0.78390 0.78390 0.40680 -0.35400
C 	C 	0.76580 0.76580 0.36080 0.25100
C 	C 	0.73300 0.73300 0.38510 -0.73400
H 	H 	0.71705 0.71705 0.36170 0.22300
C 	C 	0.31450 0.31450 0.89010 0.12300
C 	C 	0.28390 0.28390 0.90680 -0.32800
C 	C 	0.26580 0.26580 0.86080 0.22300
C 	C 	0.23300 0.23300 0.88510 -0.68900
H 	H 	0.21705 0.21705 0.86170 0.20800
C 	C 	0.18550 0.39010 0.81450 0.12200
C 	C 	0.21610 0.40680 0.78390 -0.33900
C 	C 	0.23420 0.36080 0.76580 0.24300
C 	C 	0.26700 0.38510 0.73300 -0.72700
H 	H 	0.28295 0.36170 0.71705 0.22100
C 	C 	0.68550 0.89010 0.31450 0.15400
C 	C 	0.71610 0.90680 0.28390 -0.35300
C 	C 	0.73420 0.86080 0.26580 0.23000
C 	C 	0.76700 0.88510 0.23300 -0.68500
H 	H 	0.78295 0.86170 0.21705 0.20300
C 	C 	0.81450 0.60990 0.81450 0.14200
C 	C 	0.78390 0.59320 0.78390 -0.35800
C 	C 	0.76580 0.63920 0.76580 0.25400
C 	C 	0.73300 0.61490 0.73300 -0.73700
H 	H 	0.71705 0.63830 0.71705 0.22300
C 	C 	0.31450 0.10990 0.31450 0.13800
C 	C 	0.28390 0.09320 0.28390 -0.36400
C 	C 	0.26580 0.13920 0.26580 0.27000
C 	C 	0.23300 0.11490 0.23300 -0.77500
H 	H 	0.21705 0.13830 0.21705 0.23900
C 	C 	0.18550 0.60990 0.18550 0.10800
C 	C 	0.21610 0.59320 0.21610 -0.32700
C 	C 	0.23420 0.63920 0.23420 0.23800
C 	C 	0.26700 0.61490 0.26700 -0.72200
H 	H 	0.28295 0.63830 0.28295 0.21900
C 	C 	0.68550 0.10990 0.68550 0.20100
C 	C 	0.71610 0.09320 0.71610 -0.41300
C 	C 	0.73420 0.13920 0.73420 0.28300
C 	C 	0.76700 0.11490 0.76700 -0.76600
H 	H 	0.78295 0.13830 0.78295 0.23100
C 	C 	0.81450 0.39010 0.18550 0.12200
C 	C 	0.78390 0.40680 0.21610 -0.33900
C 	C 	0.76580 0.36080 0.23420 0.24300
C 	C 	0.73300 0.38510 0.26700 -0.72700
H 	H 	0.71705 0.36170 0.28295 0.22100
C 	C 	0.31450 0.89010 0.68550 0.15400
C 	C 	0.28390 0.90680 0.71610 -0.35300
C 	C 	0.26580 0.86080 0.73420 0.23000
C 	C 	0.23300 0.88510 0.76700 -0.68500
H 	H 	0.21705 0.86170 0.78295 0.20300
C 	C 	0.39010 0.18550 0.81450 0.12200
C 	C 	0.40680 0.21610 0.78390 -0.33900
C 	C 	0.36080 0.23420 0.76580 0.24300
C 	C 	0.38510 0.26700 0.73300 -0.72700
H 	H 	0.36170 0.28295 0.71705 0.22100
C 	C 	0.89010 0.68550 0.31450 0.15400
C 	C 	0.90680 0.71610 0.28390 -0.35300
C 	C 	0.86080 0.73420 0.26580 0.23000
C 	C 	0.88510 0.76700 0.23300 -0.68500
H 	H 	0.86170 0.78295 0.21705 0.20300
C 	C 	0.60990 0.18550 0.18550 0.10800
C 	C 	0.59320 0.21610 0.21610 -0.32700
C 	C 	0.63920 0.23420 0.23420 0.23800
C 	C 	0.61490 0.26700 0.26700 -0.72200
H 	H 	0.63830 0.28295 0.28295 0.21900
C 	C 	0.10990 0.68550 0.68550 0.20100
C 	C 	0.09320 0.71610 0.71610 -0.41300
C 	C 	0.13920 0.73420 0.73420 0.28300
C 	C 	0.11490 0.76700 0.76700 -0.76600
H 	H 	0.13830 0.78295 0.78295 0.23100
C 	C 	0.60990 0.81450 0.81450 0.14200
C 	C 	0.59320 0.78390 0.78390 -0.35800
C 	C 	0.63920 0.76580 0.76580 0.25400
C 	C 	0.61490 0.73300 0.73300 -0.73700
H 	H 	0.63830 0.71705 0.71705 0.22300
C 	C 	0.10990 0.31450 0.31450 0.13800
C 	C 	0.09320 0.28390 0.28390 -0.36400
C 	C 	0.13920 0.26580 0.26580 0.27000
C 	C 	0.11490 0.23300 0.23300 -0.77500
H 	H 	0.13830 0.21705 0.21705 0.23900
C 	C 	0.39010 0.81450 0.18550 0.12200
C 	C 	0.40680 0.78390 0.21610 -0.33900
C 	C 	0.36080 0.76580 0.23420 0.24300
C 	C 	0.38510 0.73300 0.26700 -0.72700
H 	H 	0.36170 0.71705 0.28295 0.22100
C 	C 	0.89010 0.31450 0.68550 0.15400
C 	C 	0.90680 0.28390 0.71610 -0.35300
C 	C 	0.86080 0.26580 0.73420 0.23000
C 	C 	0.88510 0.23300 0.76700 -0.68500
H 	H 	0.86170 0.21705 0.78295 0.20300
C 	C 	0.18550 0.18550 0.60990 0.10800
C 	C 	0.21610 0.21610 0.59320 -0.32700
C 	C 	0.23420 0.23420 0.63920 0.23800
C 	C 	0.26700 0.26700 0.61490 -0.72200
H 	H 	0.28295 0.28295 0.63830 0.21900
C 	C 	0.68550 0.68550 0.10990 0.20100
C 	C 	0.71610 0.71610 0.09320 -0.41300
C 	C 	0.73420 0.73420 0.13920 0.28300
C 	C 	0.76700 0.76700 0.11490 -0.76600
H 	H 	0.78295 0.78295 0.13830 0.23100
C 	C 	0.18550 0.81450 0.39010 0.12200
C 	C 	0.21610 0.78390 0.40680 -0.33900
C 	C 	0.23420 0.76580 0.36080 0.24300
C 	C 	0.26700 0.73300 0.38510 -0.72700
H 	H 	0.28295 0.71705 0.36170 0.22100
C 	C 	0.68550 0.31450 0.89010 0.15400
C 	C 	0.71610 0.28390 0.90680 -0.35300
C 	C 	0.73420 0.26580 0.86080 0.23000
C 	C 	0.76700 0.23300 0.88510 -0.68500
H 	H 	0.78295 0.21705 0.86170 0.20300
C 	C 	0.81450 0.18550 0.39010 0.12200
C 	C 	0.78390 0.21610 0.40680 -0.33900
C 	C 	0.76580 0.23420 0.36080 0.24300
C 	C 	0.73300 0.26700 0.38510 -0.72700
H 	H 	0.71705 0.28295 0.36170 0.22100
C 	C 	0.31450 0.68550 0.89010 0.15400
C 	C 	0.28390 0.71610 0.90680 -0.35300
C 	C 	0.26580 0.73420 0.86080 0.23000
C 	C 	0.23300 0.76700 0.88510 -0.68500
H 	H 	0.21705 0.78295 0.86170 0.20300
C 	C 	0.81450 0.81450 0.60990 0.14200
C 	C 	0.78390 0.78390 0.59320 -0.35800
C 	C 	0.76580 0.76580 0.63920 0.25400
C 	C 	0.73300 0.73300 0.61490 -0.73700
H 	H 	0.71705 0.71705 0.63830 0.22300
C 	C 	0.31450 0.31450 0.10990 0.13800
C 	C 	0.28390 0.28390 0.09320 -0.36400
C 	C 	0.26580 0.26580 0.13920 0.27000
C 	C 	0.23300 0.23300 0.11490 -0.77500
H 	H 	0.21705 0.21705 0.13830 0.23900
