data_crystal

_cell_length_a 51.11160
_cell_length_b 51.11160
_cell_length_c 15.39380
_cell_angle_alpha 90.00000
_cell_angle_beta  90.00000
_cell_angle_gamma 120.00000

_symmetry_space_group_name_	'P 1'
_symmetry_space_group_name_H-M	'P 1'

loop_
_symmetry_equiv_pos_as_xyz
  x,y,z

loop_
_atom_site_label
_atom_site_type_symbol
_atom_site_fract_x
_atom_site_fract_y
_atom_site_fract_z
_atom_site_charge
Au	Au	0.16691 0.85037 0.20916 0.19800
Au	Au	0.17558 0.87476 0.39041 0.19500
Au	Au	0.11972 0.81666 0.34168 0.19800
Ag	Ag	0.13172 0.87447 0.27970 0.46500
P 	P 	0.16379 0.86765 0.07660 0.01500
P 	P 	0.18405 0.91971 0.44420 0.01400
P 	P 	0.07008 0.80216 0.35090 0.01800
N 	N 	0.15660 0.90910 0.16360 -0.15700
N 	N 	0.12670 0.90220 0.39650 -0.15800
N 	N 	0.08200 0.84340 0.22820 -0.15900
C 	C 	0.12750 0.84330 0.02850 -0.01900
C 	C 	0.19440 0.87210 0.00830 -0.01200
C 	C 	0.16620 0.90510 0.08680 -0.06500
C 	C 	0.20790 0.95090 0.37220 -0.02500
C 	C 	0.20130 0.92570 0.54970 -0.01500
C 	C 	0.14830 0.92050 0.45490 -0.06400
C 	C 	0.06280 0.81820 0.44560 -0.03100
C 	C 	0.04750 0.76110 0.35200 -0.01300
C 	C 	0.05890 0.81700 0.25850 -0.06100
C 	C 	0.15850 0.93550 0.17720 -0.02400
C 	C 	0.09980 0.89920 0.39880 -0.01600
C 	C 	0.07740 0.85540 0.15950 -0.02400
C 	C 	0.11380 0.85340 0.97080 -0.06400
C 	C 	0.11210 0.81290 0.05050 -0.06300
C 	C 	0.18960 0.85340 0.94100 -0.07600
C 	C 	0.22330 0.89500 0.02800 -0.07200
C 	C 	0.17700 0.92730 0.02170 0.18200
C 	C 	0.22780 0.94790 0.31870 -0.05500
C 	C 	0.20510 0.97640 0.36360 -0.05500
C 	C 	0.23110 0.94690 0.56440 -0.07200
C 	C 	0.18500 0.90680 0.61670 -0.08500
C 	C 	0.14180 0.93670 0.51480 0.15900
C 	C 	0.08180 0.82400 0.51910 -0.05200
C 	C 	0.04110 0.82660 0.44960 -0.05200
C 	C 	0.03680 0.74720 0.43500 -0.08200
C 	C 	0.04480 0.74550 0.27600 -0.07900
C 	C 	0.03050 0.80360 0.21700 0.15900
H 	H 	0.15100 0.93900 0.23000 0.01300
C 	C 	0.17100 0.95790 0.11650 0.01900
H 	H 	0.08520 0.88730 0.35630 0.00700
C 	C 	0.09280 0.91320 0.46250 0.00600
H 	H 	0.09310 0.87420 0.13830 0.01100
C 	C 	0.04970 0.84100 0.11690 0.02300
H 	H 	0.12440 0.87390 0.95250 0.02900
C 	C 	0.08520 0.83450 0.93920 -0.02600
C 	C 	0.08290 0.79350 0.01910 -0.02300
H 	H 	0.12140 0.80510 0.08750 0.01800
H 	H 	0.16960 0.83810 0.92720 0.04700
C 	C 	0.21410 0.85640 0.89090 -0.02800
C 	C 	0.24780 0.89950 0.97800 -0.03400
H 	H 	0.22640 0.90770 0.07650 0.03500
C 	C 	0.18550 0.92410 0.93330 -0.53900
N 	N 	0.17900 0.95390 0.04000 -0.22000
H 	H 	0.22900 0.93010 0.32250 0.01500
C 	C 	0.24550 0.96930 0.26100 -0.03300
C 	C 	0.22220 0.99750 0.30420 -0.02800
H 	H 	0.19140 0.97900 0.39910 0.03700
H 	H 	0.24240 0.96070 0.51950 0.05000
C 	C 	0.24480 0.94860 0.64330 -0.02500
C 	C 	0.19710 0.90890 0.69460 -0.01900
H 	H 	0.16450 0.89190 0.60720 0.03400
C 	C 	0.16430 0.95920 0.57650 -0.49800
N 	N 	0.11340 0.93190 0.51880 -0.21400
H 	H 	0.09730 0.81880 0.51760 0.01200
C 	C 	0.07800 0.83700 0.59180 -0.04400
C 	C 	0.03790 0.84050 0.52340 -0.04400
H 	H 	0.02810 0.82280 0.40130 0.02400
H 	H 	0.03870 0.75830 0.48620 0.05300
C 	C 	0.02340 0.71560 0.43400 -0.01100
C 	C 	0.02940 0.71330 0.27700 -0.03000
H 	H 	0.05320 0.75620 0.22300 0.03700
C 	C 	0.00260 0.77650 0.25100 -0.50000
N 	N 	0.02780 0.81620 0.14430 -0.21900
H 	H 	0.17390 0.97720 0.13080 -0.01300
H 	H 	0.07270 0.90950 0.46670 -0.02400
H 	H 	0.04710 0.84990 0.06590 -0.02200
H 	H 	0.07630 0.84230 0.90020 0.01300
C 	C 	0.06940 0.80500 0.96300 -0.06300
H 	H 	0.07230 0.77280 0.03550 0.02900
H 	H 	0.21080 0.84260 0.84500 0.03400
C 	C 	0.24290 0.87970 0.90970 -0.05600
H 	H 	0.26750 0.91580 0.98990 0.03000
H 	H 	0.19230 0.94300 0.90150 0.12500
H 	H 	0.16800 0.90770 0.90360 0.16400
H 	H 	0.20180 0.91940 0.93530 0.17900
Ag	Ag	0.19144 0.98787 0.93908 0.48400
H 	H 	0.25970 0.96710 0.22640 0.03300
C 	C 	0.24240 0.99520 0.25420 -0.05200
H 	H 	0.21980 0.01460 0.29760 0.02900
H 	H 	0.26550 0.96270 0.65260 0.03100
C 	C 	0.22710 0.92890 0.70810 -0.06900
H 	H 	0.18490 0.89650 0.74090 0.01900
H 	H 	0.15460 0.96770 0.61230 0.11100
H 	H 	0.18100 0.97540 0.54380 0.15900
H 	H 	0.17220 0.94920 0.61400 0.15500
Ag	Ag	0.09765 0.95078 0.62631 0.42400
H 	H 	0.09020 0.84030 0.64170 0.03200
C 	C 	0.05560 0.84540 0.59170 -0.04200
H 	H 	0.02300 0.84640 0.52480 0.01000
H 	H 	0.01690 0.70510 0.48770 0.02400
C 	C 	0.01940 0.70020 0.36500 -0.06600
H 	H 	0.02600 0.70130 0.22640 0.02900
H 	H 	0.98570 0.77140 0.21130 0.12300
H 	H 	0.99770 0.78110 0.30860 0.15700
H 	H 	0.00620 0.75940 0.25550 0.16900
H 	H 	0.04940 0.79230 0.94190 0.02700
H 	H 	0.25950 0.88210 0.87570 0.04100
H 	H 	0.25440 0.01090 0.21440 0.03500
H 	H 	0.23600 0.92920 0.76270 0.04100
H 	H 	0.05320 0.85490 0.64170 0.01200
H 	H 	0.00930 0.67890 0.36990 0.04200
Au	Au	0.83358 0.18370 0.54249 0.19700
Au	Au	0.84225 0.20810 0.72374 0.19400
Au	Au	0.78639 0.14999 0.67501 0.19700
Ag	Ag	0.79839 0.20780 0.61303 0.46400
P 	P 	0.83046 0.20098 0.40993 0.01500
P 	P 	0.85072 0.25304 0.77753 0.01300
P 	P 	0.73675 0.13549 0.68423 0.01700
N 	N 	0.82327 0.24243 0.49693 -0.15800
N 	N 	0.79337 0.23553 0.72983 -0.15900
N 	N 	0.74867 0.17673 0.56153 -0.16000
C 	C 	0.79417 0.17663 0.36183 -0.03100
C 	C 	0.86107 0.20543 0.34163 -0.01700
C 	C 	0.83287 0.23843 0.42013 -0.06500
C 	C 	0.87457 0.28423 0.70553 -0.02500
C 	C 	0.86797 0.25903 0.88303 -0.01400
C 	C 	0.81497 0.25383 0.78823 -0.06400
C 	C 	0.72947 0.15153 0.77893 -0.03200
C 	C 	0.71417 0.09443 0.68533 -0.01400
C 	C 	0.72557 0.15033 0.59183 -0.06200
C 	C 	0.82517 0.26883 0.51053 -0.02500
C 	C 	0.76647 0.23253 0.73213 -0.01700
C 	C 	0.74407 0.18873 0.49283 -0.02500
C 	C 	0.78047 0.18673 0.30413 -0.05000
C 	C 	0.77877 0.14623 0.38383 -0.05400
C 	C 	0.85627 0.18673 0.27433 -0.07100
C 	C 	0.88997 0.22833 0.36133 -0.07800
C 	C 	0.84367 0.26063 0.35503 0.17600
C 	C 	0.89447 0.28123 0.65203 -0.05600
C 	C 	0.87177 0.30973 0.69693 -0.05600
C 	C 	0.89777 0.28023 0.89773 -0.07300
C 	C 	0.85167 0.24013 0.95003 -0.09300
C 	C 	0.80847 0.27003 0.84813 0.15900
C 	C 	0.74847 0.15733 0.85243 -0.05200
C 	C 	0.70777 0.15993 0.78293 -0.05200
C 	C 	0.70347 0.08053 0.76833 -0.08200
C 	C 	0.71147 0.07883 0.60933 -0.07900
C 	C 	0.69717 0.13693 0.55033 0.15900
H 	H 	0.81767 0.27233 0.56333 0.01200
C 	C 	0.83767 0.29123 0.44983 0.01900
H 	H 	0.75187 0.22063 0.68963 0.00700
C 	C 	0.75947 0.24653 0.79583 0.00600
H 	H 	0.75977 0.20753 0.47163 0.01100
C 	C 	0.71637 0.17433 0.45023 0.02300
H 	H 	0.79107 0.20723 0.28583 0.02600
C 	C 	0.75187 0.16783 0.27253 -0.03900
C 	C 	0.74957 0.12683 0.35243 -0.03900
H 	H 	0.78807 0.13843 0.42083 0.01400
H 	H 	0.83627 0.17143 0.26053 0.04700
C 	C 	0.88077 0.18973 0.22423 -0.02900
C 	C 	0.91447 0.23283 0.31133 -0.02800
H 	H 	0.89307 0.24103 0.40983 0.03600
C 	C 	0.85217 0.25743 0.26663 -0.53100
N 	N 	0.84567 0.28723 0.37333 -0.22000
H 	H 	0.89567 0.26343 0.65583 0.01500
C 	C 	0.91217 0.30263 0.59433 -0.03300
C 	C 	0.88887 0.33083 0.63753 -0.02700
H 	H 	0.85807 0.31233 0.73243 0.03700
H 	H 	0.90907 0.29403 0.85283 0.05000
C 	C 	0.91147 0.28193 0.97663 -0.03000
C 	C 	0.86377 0.24223 0.02793 -0.01200
H 	H 	0.83117 0.22523 0.94053 0.03600
C 	C 	0.83097 0.29253 0.90983 -0.49600
N 	N 	0.78007 0.26523 0.85213 -0.21400
H 	H 	0.76397 0.15213 0.85093 0.01200
C 	C 	0.74467 0.17033 0.92513 -0.04500
C 	C 	0.70457 0.17383 0.85673 -0.04400
H 	H 	0.69477 0.15613 0.73463 0.02400
H 	H 	0.70537 0.09163 0.81953 0.05200
C 	C 	0.69007 0.04893 0.76733 -0.01100
C 	C 	0.69607 0.04663 0.61033 -0.03000
H 	H 	0.71987 0.08953 0.55633 0.03700
C 	C 	0.66927 0.10983 0.58433 -0.50200
N 	N 	0.69447 0.14953 0.47763 -0.22000
H 	H 	0.84057 0.31053 0.46413 -0.01300
H 	H 	0.73937 0.24283 0.80003 -0.02400
H 	H 	0.71377 0.18323 0.39923 -0.02300
H 	H 	0.74297 0.17563 0.23353 0.01900
C 	C 	0.73607 0.13833 0.29633 -0.04600
H 	H 	0.73897 0.10613 0.36883 0.03300
H 	H 	0.87747 0.17593 0.17833 0.03400
C 	C 	0.90957 0.21303 0.24303 -0.05600
H 	H 	0.93417 0.24913 0.32323 0.02900
H 	H 	0.85897 0.27633 0.23483 0.12300
H 	H 	0.83467 0.24103 0.23693 0.16300
H 	H 	0.86847 0.25273 0.26863 0.17800
Ag	Ag	0.85811 0.32120 0.27241 0.48600
H 	H 	0.92637 0.30043 0.55973 0.03300
C 	C 	0.90907 0.32853 0.58753 -0.05200
H 	H 	0.88647 0.34793 0.63093 0.02800
H 	H 	0.93217 0.29603 0.98593 0.03200
C 	C 	0.89377 0.26223 0.04143 -0.06500
H 	H 	0.85157 0.22983 0.07423 0.01800
H 	H 	0.82127 0.30103 0.94563 0.11000
H 	H 	0.84767 0.30873 0.87713 0.15800
H 	H 	0.83887 0.28253 0.94733 0.15300
Ag	Ag	0.76432 0.28411 0.95964 0.42300
H 	H 	0.75687 0.17363 0.97503 0.03100
C 	C 	0.72227 0.17873 0.92503 -0.04300
H 	H 	0.68967 0.17973 0.85813 0.01000
H 	H 	0.68357 0.03843 0.82103 0.02400
C 	C 	0.68607 0.03353 0.69833 -0.06600
H 	H 	0.69267 0.03463 0.55973 0.02900
H 	H 	0.65237 0.10473 0.54463 0.12300
H 	H 	0.66437 0.11443 0.64193 0.15700
H 	H 	0.67287 0.09273 0.58883 0.16900
H 	H 	0.71607 0.12563 0.27523 0.02200
H 	H 	0.92617 0.21543 0.20903 0.04200
H 	H 	0.92107 0.34423 0.54773 0.03500
H 	H 	0.90267 0.26253 0.09603 0.04100
H 	H 	0.71987 0.18823 0.97503 0.01100
H 	H 	0.67597 0.01223 0.70323 0.04200
Au	Au	0.50025 0.51703 0.87583 0.19600
Au	Au	0.50892 0.54143 0.05708 0.19500
Au	Au	0.45306 0.48332 0.00835 0.19900
Ag	Ag	0.46505 0.54114 0.94637 0.46200
P 	P 	0.49712 0.53432 0.74327 0.01500
P 	P 	0.51738 0.58638 0.11087 0.01400
P 	P 	0.40341 0.46883 0.01757 0.01900
N 	N 	0.48993 0.57577 0.83027 -0.15800
N 	N 	0.46003 0.56887 0.06317 -0.15800
N 	N 	0.41533 0.51007 0.89487 -0.16000
C 	C 	0.46083 0.50997 0.69517 -0.03100
C 	C 	0.52773 0.53877 0.67497 -0.01700
C 	C 	0.49953 0.57177 0.75347 -0.06500
C 	C 	0.54123 0.61757 0.03887 -0.02300
C 	C 	0.53463 0.59237 0.21637 -0.01600
C 	C 	0.48163 0.58717 0.12157 -0.06500
C 	C 	0.39613 0.48487 0.11227 -0.03100
C 	C 	0.38083 0.42777 0.01867 -0.01000
C 	C 	0.39223 0.48367 0.92517 -0.06500
C 	C 	0.49183 0.60217 0.84387 -0.02500
C 	C 	0.43313 0.56587 0.06547 -0.01700
C 	C 	0.41073 0.52207 0.82617 -0.02500
C 	C 	0.44713 0.52007 0.63747 -0.05000
C 	C 	0.44543 0.47957 0.71717 -0.05400
C 	C 	0.52293 0.52007 0.60767 -0.07100
C 	C 	0.55663 0.56167 0.69467 -0.07800
C 	C 	0.51033 0.59397 0.68837 0.17600
C 	C 	0.56113 0.61457 0.98537 -0.06000
C 	C 	0.53843 0.64307 0.03027 -0.04900
C 	C 	0.56443 0.61357 0.23107 -0.07300
C 	C 	0.51833 0.57347 0.28337 -0.08500
C 	C 	0.47513 0.60337 0.18147 0.16000
C 	C 	0.41513 0.49067 0.18577 -0.05200
C 	C 	0.37443 0.49327 0.11627 -0.05200
C 	C 	0.37013 0.41387 0.10167 -0.08100
C 	C 	0.37813 0.41217 0.94267 -0.08300
C 	C 	0.36383 0.47027 0.88367 0.15800
H 	H 	0.48433 0.60567 0.89667 0.01100
C 	C 	0.50433 0.62457 0.78317 0.01900
H 	H 	0.41853 0.55397 0.02297 0.00800
C 	C 	0.42613 0.57987 0.12917 0.00700
H 	H 	0.42643 0.54087 0.80497 0.01100
C 	C 	0.38303 0.50767 0.78357 0.02300
H 	H 	0.45773 0.54057 0.61917 0.02600
C 	C 	0.41853 0.50117 0.60587 -0.03900
C 	C 	0.41623 0.46017 0.68577 -0.03900
H 	H 	0.45473 0.47177 0.75417 0.01400
H 	H 	0.50293 0.50477 0.59387 0.04700
C 	C 	0.54743 0.52307 0.55757 -0.02900
C 	C 	0.58113 0.56617 0.64467 -0.02800
H 	H 	0.55973 0.57437 0.74317 0.03600
C 	C 	0.51883 0.59077 0.59997 -0.53000
N 	N 	0.51233 0.62057 0.70667 -0.22000
H 	H 	0.56233 0.59677 0.98917 0.01500
C 	C 	0.57883 0.63597 0.92767 -0.03400
C 	C 	0.55553 0.66417 0.97087 -0.03600
H 	H 	0.52473 0.64567 0.06577 0.03500
H 	H 	0.57573 0.62737 0.18617 0.05100
C 	C 	0.57813 0.61527 0.30997 -0.02500
C 	C 	0.53043 0.57557 0.36127 -0.01900
H 	H 	0.49783 0.55857 0.27387 0.03400
C 	C 	0.49763 0.62587 0.24317 -0.49800
N 	N 	0.44673 0.59857 0.18547 -0.21400
H 	H 	0.43063 0.48547 0.18427 0.01200
C 	C 	0.41133 0.50367 0.25847 -0.04400
C 	C 	0.37123 0.50717 0.19007 -0.04300
H 	H 	0.36143 0.48947 0.06797 0.02500
H 	H 	0.37203 0.42497 0.15287 0.05300
C 	C 	0.35673 0.38227 0.10067 -0.01400
C 	C 	0.36273 0.37997 0.94367 -0.03400
H 	H 	0.38653 0.42287 0.88967 0.03700
C 	C 	0.33593 0.44317 0.91767 -0.50000
N 	N 	0.36113 0.48287 0.81097 -0.22000
H 	H 	0.50723 0.64387 0.79747 -0.01400
H 	H 	0.40603 0.57617 0.13337 -0.02300
H 	H 	0.38043 0.51657 0.73257 -0.02300
H 	H 	0.40963 0.50897 0.56687 0.01800
C 	C 	0.40273 0.47167 0.62967 -0.04700
H 	H 	0.40563 0.43947 0.70217 0.03300
H 	H 	0.54413 0.50927 0.51167 0.03400
C 	C 	0.57623 0.54637 0.57637 -0.05700
H 	H 	0.60083 0.58247 0.65657 0.02900
H 	H 	0.52563 0.60967 0.56817 0.12300
H 	H 	0.50133 0.57437 0.57027 0.16200
H 	H 	0.53513 0.58607 0.60197 0.17800
Ag	Ag	0.52477 0.65454 0.60575 0.48600
H 	H 	0.59303 0.63377 0.89307 0.03300
C 	C 	0.57573 0.66187 0.92087 -0.04800
H 	H 	0.55313 0.68127 0.96427 0.03000
H 	H 	0.59883 0.62937 0.31927 0.03100
C 	C 	0.56043 0.59557 0.37477 -0.06900
H 	H 	0.51823 0.56317 0.40757 0.01900
H 	H 	0.48793 0.63437 0.27897 0.11100
H 	H 	0.51433 0.64207 0.21047 0.16000
H 	H 	0.50553 0.61587 0.28067 0.15500
Ag	Ag	0.43098 0.61745 0.29298 0.42500
H 	H 	0.42353 0.50697 0.30837 0.03200
C 	C 	0.38893 0.51207 0.25837 -0.04300
H 	H 	0.35633 0.51307 0.19147 0.01000
H 	H 	0.35023 0.37177 0.15437 0.02500
C 	C 	0.35273 0.36687 0.03167 -0.05900
H 	H 	0.35933 0.36797 0.89307 0.03000
H 	H 	0.31903 0.43807 0.87797 0.12200
H 	H 	0.33103 0.44777 0.97527 0.15500
H 	H 	0.33953 0.42607 0.92217 0.16700
H 	H 	0.38273 0.45897 0.60857 0.02200
H 	H 	0.59283 0.54877 0.54237 0.04100
H 	H 	0.58773 0.67757 0.88107 0.03300
H 	H 	0.56933 0.59587 0.42937 0.04100
H 	H 	0.38653 0.52157 0.30837 0.01200
H 	H 	0.34263 0.34557 0.03657 0.04100
Au	Au	0.14963 0.31654 0.20916 0.19700
Au	Au	0.12524 0.30082 0.39041 0.19400
Au	Au	0.18334 0.30307 0.34168 0.19700
Ag	Ag	0.12553 0.25725 0.27970 0.46400
P 	P 	0.13235 0.29614 0.07660 0.01400
P 	P 	0.08029 0.26434 0.44420 0.01300
P 	P 	0.19784 0.26792 0.35090 0.01700
N 	N 	0.09090 0.24750 0.16360 -0.15800
N 	N 	0.09780 0.22450 0.39650 -0.15900
N 	N 	0.15660 0.23860 0.22820 -0.16000
C 	C 	0.15670 0.28420 0.02850 -0.02000
C 	C 	0.12790 0.32230 0.00830 -0.01300
C 	C 	0.09490 0.26110 0.08680 -0.06600
C 	C 	0.04910 0.25700 0.37220 -0.02500
C 	C 	0.07430 0.27560 0.54970 -0.01600
C 	C 	0.07950 0.22780 0.45490 -0.06500
C 	C 	0.18180 0.24460 0.44560 -0.03200
C 	C 	0.23890 0.28640 0.35200 -0.01400
C 	C 	0.18300 0.24190 0.25850 -0.06200
C 	C 	0.06450 0.22300 0.17720 -0.02500
C 	C 	0.10080 0.20060 0.39880 -0.01700
C 	C 	0.14460 0.22200 0.15950 -0.02500
C 	C 	0.14660 0.26040 0.97080 -0.06500
C 	C 	0.18710 0.29920 0.05050 -0.06400
C 	C 	0.14660 0.33620 0.94100 -0.07700
C 	C 	0.10500 0.32830 0.02800 -0.07300
C 	C 	0.07270 0.24970 0.02170 0.18100
C 	C 	0.05210 0.27990 0.31870 -0.05600
C 	C 	0.02360 0.22870 0.36360 -0.05700
C 	C 	0.05310 0.28420 0.56440 -0.07300
C 	C 	0.09320 0.27820 0.61670 -0.08500
C 	C 	0.06330 0.20510 0.51480 0.15900
C 	C 	0.17600 0.25780 0.51910 -0.05200
C 	C 	0.17340 0.21450 0.44960 -0.05200
C 	C 	0.25280 0.28960 0.43500 -0.08200
C 	C 	0.25450 0.29930 0.27600 -0.07900
C 	C 	0.19640 0.22690 0.21700 0.15900
H 	H 	0.06100 0.21200 0.23000 0.01300
C 	C 	0.04210 0.21310 0.11650 0.01900
H 	H 	0.11270 0.19790 0.35630 0.00700
C 	C 	0.08680 0.17960 0.46250 0.00600
H 	H 	0.12580 0.21890 0.13830 0.01100
C 	C 	0.15900 0.20870 0.11690 0.02300
H 	H 	0.12610 0.25050 0.95250 0.02900
C 	C 	0.16550 0.25070 0.93920 -0.02600
C 	C 	0.20650 0.28940 0.01910 -0.02400
H 	H 	0.19490 0.31630 0.08750 0.01800
H 	H 	0.16190 0.33150 0.92720 0.04700
C 	C 	0.14360 0.35770 0.89090 -0.02800
C 	C 	0.10050 0.34830 0.97800 -0.03400
H 	H 	0.09230 0.31870 0.07650 0.03500
C 	C 	0.07590 0.26140 0.93330 -0.53900
N 	N 	0.04610 0.22510 0.04000 -0.22000
H 	H 	0.06990 0.29890 0.32250 0.01500
C 	C 	0.03070 0.27620 0.26100 -0.03400
C 	C 	0.00250 0.22470 0.30420 -0.02700
H 	H 	0.02100 0.21240 0.39910 0.03700
H 	H 	0.03930 0.28170 0.51950 0.05100
C 	C 	0.05140 0.29620 0.64330 -0.02500
C 	C 	0.09110 0.28820 0.69460 -0.01900
H 	H 	0.10810 0.27260 0.60720 0.03400
C 	C 	0.04080 0.20510 0.57650 -0.49800
N 	N 	0.06810 0.18150 0.51880 -0.21400
H 	H 	0.18120 0.27850 0.51760 0.01200
C 	C 	0.16300 0.24100 0.59180 -0.04400
C 	C 	0.15950 0.19740 0.52340 -0.04400
H 	H 	0.17720 0.20530 0.40130 0.02400
H 	H 	0.24170 0.28040 0.48620 0.05300
C 	C 	0.28440 0.30780 0.43400 -0.01100
C 	C 	0.28670 0.31610 0.27700 -0.03000
H 	H 	0.24380 0.29700 0.22300 0.03700
C 	C 	0.22350 0.22610 0.25100 -0.50200
N 	N 	0.18380 0.21160 0.14430 -0.21900
H 	H 	0.02280 0.19670 0.13080 -0.01300
H 	H 	0.09050 0.16320 0.46670 -0.02400
H 	H 	0.15010 0.19720 0.06590 -0.02200
H 	H 	0.15770 0.23400 0.90020 0.01300
C 	C 	0.19500 0.26440 0.96300 -0.06300
H 	H 	0.22720 0.29950 0.03550 0.02900
H 	H 	0.15740 0.36820 0.84500 0.03400
C 	C 	0.12030 0.36320 0.90970 -0.05600
H 	H 	0.08420 0.35170 0.98990 0.03000
H 	H 	0.05700 0.24930 0.90150 0.12400
H 	H 	0.09230 0.26030 0.90360 0.16400
H 	H 	0.08060 0.28240 0.93530 0.17900
Ag	Ag	0.01213 0.20357 0.93908 0.48400
H 	H 	0.03290 0.29260 0.22640 0.03300
C 	C 	0.00480 0.24720 0.25420 -0.05100
H 	H 	0.98540 0.20520 0.29760 0.02800
H 	H 	0.03730 0.30280 0.65260 0.03100
C 	C 	0.07110 0.29820 0.70810 -0.06900
H 	H 	0.10350 0.28840 0.74090 0.01900
H 	H 	0.03230 0.18690 0.61230 0.11100
H 	H 	0.02460 0.20560 0.54380 0.15900
H 	H 	0.05080 0.22300 0.61400 0.15500
Ag	Ag	0.04922 0.14687 0.62631 0.42400
H 	H 	0.15970 0.24990 0.64170 0.03200
C 	C 	0.15460 0.21020 0.59170 -0.04200
H 	H 	0.15360 0.17660 0.52480 0.01000
H 	H 	0.29490 0.31180 0.48770 0.02400
C 	C 	0.29980 0.31920 0.36500 -0.06600
H 	H 	0.29870 0.32470 0.22640 0.02900
H 	H 	0.22860 0.21430 0.21130 0.12400
H 	H 	0.21890 0.21660 0.30860 0.15700
H 	H 	0.24060 0.24680 0.25550 0.16900
H 	H 	0.20770 0.25710 0.94190 0.02700
H 	H 	0.11790 0.37740 0.87570 0.04100
H 	H 	0.98910 0.24350 0.21440 0.03500
H 	H 	0.07080 0.30680 0.76270 0.04100
H 	H 	0.14510 0.19830 0.64170 0.01200
H 	H 	0.32110 0.33040 0.36990 0.04200
Au	Au	0.81630 0.64988 0.54249 0.19700
Au	Au	0.79190 0.63415 0.72374 0.19400
Au	Au	0.85001 0.63640 0.67501 0.19700
Ag	Ag	0.79220 0.59058 0.61303 0.46400
P 	P 	0.79902 0.62947 0.40993 0.01500
P 	P 	0.74696 0.59767 0.77753 0.01300
P 	P 	0.86451 0.60125 0.68423 0.01700
N 	N 	0.75757 0.58083 0.49693 -0.15800
N 	N 	0.76447 0.55783 0.72983 -0.15900
N 	N 	0.82327 0.57193 0.56153 -0.16000
C 	C 	0.82337 0.61753 0.36183 -0.03100
C 	C 	0.79457 0.65563 0.34163 -0.01700
C 	C 	0.76157 0.59443 0.42013 -0.06500
C 	C 	0.71577 0.59033 0.70553 -0.02500
C 	C 	0.74097 0.60893 0.88303 -0.01400
C 	C 	0.74617 0.56113 0.78823 -0.06400
C 	C 	0.84847 0.57793 0.77893 -0.03200
C 	C 	0.90557 0.61973 0.68533 -0.01400
C 	C 	0.84967 0.57523 0.59183 -0.06200
C 	C 	0.73117 0.55633 0.51053 -0.02500
C 	C 	0.76747 0.53393 0.73213 -0.01700
C 	C 	0.81127 0.55533 0.49283 -0.02500
C 	C 	0.81327 0.59373 0.30413 -0.05000
C 	C 	0.85377 0.63253 0.38383 -0.05400
C 	C 	0.81327 0.66953 0.27433 -0.07100
C 	C 	0.77167 0.66163 0.36133 -0.07800
C 	C 	0.73937 0.58303 0.35503 0.17600
C 	C 	0.71877 0.61323 0.65203 -0.05600
C 	C 	0.69027 0.56203 0.69693 -0.05600
C 	C 	0.71977 0.61753 0.89773 -0.07300
C 	C 	0.75987 0.61153 0.95003 -0.09300
C 	C 	0.72997 0.53843 0.84813 0.15900
C 	C 	0.84267 0.59113 0.85243 -0.05200
C 	C 	0.84007 0.54783 0.78293 -0.05200
C 	C 	0.91947 0.62293 0.76833 -0.08200
C 	C 	0.92117 0.63263 0.60933 -0.07900
C 	C 	0.86307 0.56023 0.55033 0.15900
H 	H 	0.72767 0.54533 0.56333 0.01200
C 	C 	0.70877 0.54643 0.44983 0.01900
H 	H 	0.77937 0.53123 0.68963 0.00700
C 	C 	0.75347 0.51293 0.79583 0.00600
H 	H 	0.79247 0.55223 0.47163 0.01100
C 	C 	0.82567 0.54203 0.45023 0.02300
H 	H 	0.79277 0.58383 0.28583 0.02600
C 	C 	0.83217 0.58403 0.27253 -0.03900
C 	C 	0.87317 0.62273 0.35243 -0.03900
H 	H 	0.86157 0.64963 0.42083 0.01400
H 	H 	0.82857 0.66483 0.26053 0.04700
C 	C 	0.81027 0.69103 0.22423 -0.02900
C 	C 	0.76717 0.68163 0.31133 -0.02800
H 	H 	0.75897 0.65203 0.40983 0.03600
C 	C 	0.74257 0.59473 0.26663 -0.53100
N 	N 	0.71277 0.55843 0.37333 -0.22000
H 	H 	0.73657 0.63223 0.65583 0.01500
C 	C 	0.69737 0.60953 0.59433 -0.03300
C 	C 	0.66917 0.55803 0.63753 -0.02700
H 	H 	0.68767 0.54573 0.73243 0.03700
H 	H 	0.70597 0.61503 0.85283 0.05000
C 	C 	0.71807 0.62953 0.97663 -0.03000
C 	C 	0.75777 0.62153 0.02793 -0.01200
H 	H 	0.77477 0.60593 0.94053 0.03600
C 	C 	0.70747 0.53843 0.90983 -0.49600
N 	N 	0.73477 0.51483 0.85213 -0.21400
H 	H 	0.84787 0.61183 0.85093 0.01200
C 	C 	0.82967 0.57433 0.92513 -0.04500
C 	C 	0.82617 0.53073 0.85673 -0.04400
H 	H 	0.84387 0.53863 0.73463 0.02400
H 	H 	0.90837 0.61373 0.81953 0.05200
C 	C 	0.95107 0.64113 0.76733 -0.01100
C 	C 	0.95337 0.64943 0.61033 -0.03000
H 	H 	0.91047 0.63033 0.55633 0.03700
C 	C 	0.89017 0.55943 0.58433 -0.50200
N 	N 	0.85047 0.54493 0.47763 -0.22000
H 	H 	0.68947 0.53003 0.46413 -0.01300
H 	H 	0.75717 0.49653 0.80003 -0.02400
H 	H 	0.81677 0.53053 0.39923 -0.02300
H 	H 	0.82437 0.56733 0.23353 0.01900
C 	C 	0.86167 0.59773 0.29633 -0.04600
H 	H 	0.89387 0.63283 0.36883 0.03300
H 	H 	0.82407 0.70153 0.17833 0.03400
C 	C 	0.78697 0.69653 0.24303 -0.05600
H 	H 	0.75087 0.68503 0.32323 0.02900
H 	H 	0.72367 0.58263 0.23483 0.12300
H 	H 	0.75897 0.59363 0.23693 0.16300
H 	H 	0.74727 0.61573 0.26863 0.17800
Ag	Ag	0.67880 0.53690 0.27241 0.48600
H 	H 	0.69957 0.62593 0.55973 0.03300
C 	C 	0.67147 0.58053 0.58753 -0.05200
H 	H 	0.65207 0.53853 0.63093 0.02800
H 	H 	0.70397 0.63613 0.98593 0.03200
C 	C 	0.73777 0.63153 0.04143 -0.06500
H 	H 	0.77017 0.62173 0.07423 0.01800
H 	H 	0.69897 0.52023 0.94563 0.11000
H 	H 	0.69127 0.53893 0.87713 0.15800
H 	H 	0.71747 0.55633 0.94733 0.15300
Ag	Ag	0.71589 0.48020 0.95964 0.42300
H 	H 	0.82637 0.58323 0.97503 0.03100
C 	C 	0.82127 0.54353 0.92503 -0.04300
H 	H 	0.82027 0.50993 0.85813 0.01000
H 	H 	0.96157 0.64513 0.82103 0.02300
C 	C 	0.96647 0.65253 0.69833 -0.06600
H 	H 	0.96537 0.65803 0.55973 0.02900
H 	H 	0.89527 0.54763 0.54463 0.12300
H 	H 	0.88557 0.54993 0.64193 0.15700
H 	H 	0.90727 0.58013 0.58883 0.16900
H 	H 	0.87437 0.59043 0.27523 0.02200
H 	H 	0.78457 0.71073 0.20903 0.04200
H 	H 	0.65577 0.57683 0.54773 0.03500
H 	H 	0.73747 0.64013 0.09603 0.04100
H 	H 	0.81177 0.53163 0.97503 0.01100
H 	H 	0.98777 0.66373 0.70323 0.04200
Au	Au	0.48297 0.98321 0.87583 0.19600
Au	Au	0.45857 0.96749 0.05708 0.19500
Au	Au	0.51668 0.96973 0.00835 0.19900
Ag	Ag	0.45886 0.92392 0.94637 0.46200
P 	P 	0.46568 0.96281 0.74327 0.01500
P 	P 	0.41362 0.93101 0.11087 0.01400
P 	P 	0.53117 0.93459 0.01757 0.01900
N 	N 	0.42423 0.91417 0.83027 -0.15800
N 	N 	0.43113 0.89117 0.06317 -0.15800
N 	N 	0.48993 0.90527 0.89487 -0.16000
C 	C 	0.49003 0.95087 0.69517 -0.03100
C 	C 	0.46123 0.98897 0.67497 -0.01800
C 	C 	0.42823 0.92777 0.75347 -0.06500
C 	C 	0.38243 0.92367 0.03887 -0.02300
C 	C 	0.40763 0.94227 0.21637 -0.01600
C 	C 	0.41283 0.89447 0.12157 -0.06500
C 	C 	0.51513 0.91127 0.11227 -0.03100
C 	C 	0.57223 0.95307 0.01867 -0.01000
C 	C 	0.51633 0.90857 0.92517 -0.06500
C 	C 	0.39783 0.88967 0.84387 -0.02500
C 	C 	0.43413 0.86727 0.06547 -0.01700
C 	C 	0.47793 0.88867 0.82617 -0.02500
C 	C 	0.47993 0.92707 0.63747 -0.05000
C 	C 	0.52043 0.96587 0.71717 -0.05400
C 	C 	0.47993 0.00287 0.60767 -0.07000
C 	C 	0.43833 0.99497 0.69467 -0.07800
C 	C 	0.40603 0.91637 0.68837 0.17600
C 	C 	0.38543 0.94657 0.98537 -0.06000
C 	C 	0.35693 0.89537 0.03027 -0.04900
C 	C 	0.38643 0.95087 0.23107 -0.07300
C 	C 	0.42653 0.94487 0.28337 -0.08500
C 	C 	0.39663 0.87177 0.18147 0.16000
C 	C 	0.50933 0.92447 0.18577 -0.05200
C 	C 	0.50673 0.88117 0.11627 -0.05200
C 	C 	0.58613 0.95627 0.10167 -0.08100
C 	C 	0.58783 0.96597 0.94267 -0.08300
C 	C 	0.52973 0.89357 0.88367 0.15800
H 	H 	0.39433 0.87867 0.89667 0.01100
C 	C 	0.37543 0.87977 0.78317 0.01900
H 	H 	0.44603 0.86457 0.02297 0.00800
C 	C 	0.42013 0.84627 0.12917 0.00700
H 	H 	0.45913 0.88557 0.80497 0.01100
C 	C 	0.49233 0.87537 0.78357 0.02300
H 	H 	0.45943 0.91717 0.61917 0.02600
C 	C 	0.49883 0.91737 0.60587 -0.03900
C 	C 	0.53983 0.95607 0.68577 -0.03900
H 	H 	0.52823 0.98297 0.75417 0.01400
H 	H 	0.49523 0.99817 0.59387 0.04600
C 	C 	0.47693 0.02437 0.55757 -0.02900
C 	C 	0.43383 0.01497 0.64467 -0.02700
H 	H 	0.42563 0.98537 0.74317 0.03600
C 	C 	0.40923 0.92807 0.59997 -0.53000
N 	N 	0.37943 0.89177 0.70667 -0.22000
H 	H 	0.40323 0.96557 0.98917 0.01500
C 	C 	0.36403 0.94287 0.92767 -0.03400
C 	C 	0.33583 0.89137 0.97087 -0.03600
H 	H 	0.35433 0.87907 0.06577 0.03500
H 	H 	0.37263 0.94837 0.18617 0.05100
C 	C 	0.38473 0.96287 0.30997 -0.02500
C 	C 	0.42443 0.95487 0.36127 -0.01900
H 	H 	0.44143 0.93927 0.27387 0.03400
C 	C 	0.37413 0.87177 0.24317 -0.49800
N 	N 	0.40143 0.84817 0.18547 -0.21400
H 	H 	0.51453 0.94517 0.18427 0.01200
C 	C 	0.49633 0.90767 0.25847 -0.04400
C 	C 	0.49283 0.86407 0.19007 -0.04300
H 	H 	0.51053 0.87197 0.06797 0.02500
H 	H 	0.57503 0.94707 0.15287 0.05300
C 	C 	0.61773 0.97447 0.10067 -0.01400
C 	C 	0.62003 0.98277 0.94367 -0.03400
H 	H 	0.57713 0.96367 0.88967 0.03700
C 	C 	0.55683 0.89277 0.91767 -0.50000
N 	N 	0.51713 0.87827 0.81097 -0.22000
H 	H 	0.35613 0.86337 0.79747 -0.01400
H 	H 	0.42383 0.82987 0.13337 -0.02300
H 	H 	0.48343 0.86387 0.73257 -0.02300
H 	H 	0.49103 0.90067 0.56687 0.01800
C 	C 	0.52833 0.93107 0.62967 -0.04700
H 	H 	0.56053 0.96617 0.70217 0.03300
H 	H 	0.49073 0.03487 0.51167 0.03400
C 	C 	0.45363 0.02987 0.57637 -0.05600
H 	H 	0.41753 0.01837 0.65657 0.02900
H 	H 	0.39033 0.91597 0.56817 0.12300
H 	H 	0.42563 0.92697 0.57027 0.16200
H 	H 	0.41393 0.94907 0.60197 0.17800
Ag	Ag	0.34546 0.87024 0.60575 0.48600
H 	H 	0.36623 0.95927 0.89307 0.03300
C 	C 	0.33813 0.91387 0.92087 -0.04900
H 	H 	0.31873 0.87187 0.96427 0.03000
H 	H 	0.37063 0.96947 0.31927 0.03100
C 	C 	0.40443 0.96487 0.37477 -0.06900
H 	H 	0.43683 0.95507 0.40757 0.01900
H 	H 	0.36563 0.85357 0.27897 0.11100
H 	H 	0.35793 0.87227 0.21047 0.16000
H 	H 	0.38413 0.88967 0.28067 0.15500
Ag	Ag	0.38255 0.81354 0.29298 0.42500
H 	H 	0.49303 0.91657 0.30837 0.03200
C 	C 	0.48793 0.87687 0.25837 -0.04300
H 	H 	0.48693 0.84327 0.19147 0.01000
H 	H 	0.62823 0.97847 0.15437 0.02500
C 	C 	0.63313 0.98587 0.03167 -0.05900
H 	H 	0.63203 0.99137 0.89307 0.03000
H 	H 	0.56193 0.88097 0.87797 0.12200
H 	H 	0.55223 0.88327 0.97527 0.15500
H 	H 	0.57393 0.91347 0.92217 0.16700
H 	H 	0.54103 0.92377 0.60857 0.02200
H 	H 	0.45123 0.04407 0.54237 0.04100
H 	H 	0.32243 0.91017 0.88107 0.03300
H 	H 	0.40413 0.97347 0.42937 0.04100
H 	H 	0.47843 0.86497 0.30837 0.01200
H 	H 	0.65443 0.99707 0.03657 0.04100
Au	Au	0.68346 0.83309 0.20916 0.19700
Au	Au	0.69918 0.82442 0.39041 0.19400
Au	Au	0.69693 0.88028 0.34168 0.19700
Ag	Ag	0.74275 0.86828 0.27970 0.46500
P 	P 	0.70386 0.83621 0.07660 0.01400
P 	P 	0.73566 0.81595 0.44420 0.01300
P 	P 	0.73208 0.92992 0.35090 0.01700
N 	N 	0.75250 0.84340 0.16360 -0.15800
N 	N 	0.77550 0.87330 0.39650 -0.15900
N 	N 	0.76140 0.91800 0.22820 -0.16000
C 	C 	0.71580 0.87250 0.02850 -0.02000
C 	C 	0.67770 0.80560 0.00830 -0.01300
C 	C 	0.73890 0.83380 0.08680 -0.06600
C 	C 	0.74300 0.79210 0.37220 -0.02500
C 	C 	0.72440 0.79870 0.54970 -0.01600
C 	C 	0.77220 0.85170 0.45490 -0.06500
C 	C 	0.75540 0.93720 0.44560 -0.03200
C 	C 	0.71360 0.95250 0.35200 -0.01400
C 	C 	0.75810 0.94110 0.25850 -0.06200
C 	C 	0.77700 0.84150 0.17720 -0.02500
C 	C 	0.79940 0.90020 0.39880 -0.01700
C 	C 	0.77800 0.92260 0.15950 -0.02500
C 	C 	0.73960 0.88620 0.97080 -0.06500
C 	C 	0.70080 0.88790 0.05050 -0.06400
C 	C 	0.66380 0.81040 0.94100 -0.07700
C 	C 	0.67170 0.77670 0.02800 -0.07300
C 	C 	0.75030 0.82300 0.02170 0.18100
C 	C 	0.72010 0.77220 0.31870 -0.05600
C 	C 	0.77130 0.79490 0.36360 -0.05600
C 	C 	0.71580 0.76890 0.56440 -0.07300
C 	C 	0.72180 0.81500 0.61670 -0.08500
C 	C 	0.79490 0.85820 0.51480 0.15900
C 	C 	0.74220 0.91820 0.51910 -0.05200
C 	C 	0.78550 0.95890 0.44960 -0.05200
C 	C 	0.71040 0.96320 0.43500 -0.08200
C 	C 	0.70070 0.95520 0.27600 -0.07900
C 	C 	0.77310 0.96950 0.21700 0.16000
H 	H 	0.78800 0.84900 0.23000 0.01300
C 	C 	0.78690 0.82900 0.11650 0.01900
H 	H 	0.80210 0.91480 0.35630 0.00700
C 	C 	0.82040 0.90720 0.46250 0.00600
H 	H 	0.78110 0.90690 0.13830 0.01100
C 	C 	0.79130 0.95030 0.11690 0.02300
H 	H 	0.74950 0.87560 0.95250 0.02900
C 	C 	0.74930 0.91480 0.93920 -0.02600
C 	C 	0.71060 0.91710 0.01910 -0.02400
H 	H 	0.68370 0.87860 0.08750 0.01800
H 	H 	0.66850 0.83040 0.92720 0.04700
C 	C 	0.64230 0.78590 0.89090 -0.02800
C 	C 	0.65170 0.75220 0.97800 -0.03400
H 	H 	0.68130 0.77360 0.07650 0.03500
C 	C 	0.73860 0.81450 0.93330 -0.53900
N 	N 	0.77490 0.82100 0.04000 -0.22000
H 	H 	0.70110 0.77100 0.32250 0.01500
C 	C 	0.72380 0.75450 0.26100 -0.03300
C 	C 	0.77530 0.77780 0.30420 -0.02700
H 	H 	0.78760 0.80860 0.39910 0.03700
H 	H 	0.71830 0.75760 0.51950 0.05000
C 	C 	0.70380 0.75520 0.64330 -0.02500
C 	C 	0.71180 0.80290 0.69460 -0.01900
H 	H 	0.72740 0.83550 0.60720 0.03400
C 	C 	0.79490 0.83570 0.57650 -0.49800
N 	N 	0.81850 0.88660 0.51880 -0.21400
H 	H 	0.72150 0.90270 0.51760 0.01200
C 	C 	0.75900 0.92200 0.59180 -0.04500
C 	C 	0.80260 0.96210 0.52340 -0.04400
H 	H 	0.79470 0.97190 0.40130 0.02400
H 	H 	0.71960 0.96130 0.48620 0.05300
C 	C 	0.69220 0.97660 0.43400 -0.01100
C 	C 	0.68390 0.97060 0.27700 -0.03000
H 	H 	0.70300 0.94680 0.22300 0.03700
C 	C 	0.77390 0.99740 0.25100 -0.50400
N 	N 	0.78840 0.97220 0.14430 -0.22000
H 	H 	0.80330 0.82610 0.13080 -0.01300
H 	H 	0.83680 0.92730 0.46670 -0.02400
H 	H 	0.80280 0.95290 0.06590 -0.02200
H 	H 	0.76600 0.92370 0.90020 0.01300
C 	C 	0.73560 0.93060 0.96300 -0.06300
H 	H 	0.70050 0.92770 0.03550 0.02900
H 	H 	0.63180 0.78920 0.84500 0.03400
C 	C 	0.63680 0.75710 0.90970 -0.05600
H 	H 	0.64830 0.73250 0.98990 0.03000
H 	H 	0.75070 0.80770 0.90150 0.12400
H 	H 	0.73970 0.83200 0.90360 0.16400
H 	H 	0.71760 0.79820 0.93530 0.17900
Ag	Ag	0.79643 0.80856 0.93908 0.48400
H 	H 	0.70740 0.74030 0.22640 0.03300
C 	C 	0.75280 0.75760 0.25420 -0.05200
H 	H 	0.79480 0.78020 0.29760 0.02800
H 	H 	0.69720 0.73450 0.65260 0.03100
C 	C 	0.70180 0.77290 0.70810 -0.06900
H 	H 	0.71160 0.81510 0.74090 0.01900
H 	H 	0.81310 0.84540 0.61230 0.11100
H 	H 	0.79440 0.81900 0.54380 0.15900
H 	H 	0.77700 0.82780 0.61400 0.15500
Ag	Ag	0.85313 0.90235 0.62631 0.42400
H 	H 	0.75010 0.90980 0.64170 0.03200
C 	C 	0.78980 0.94440 0.59170 -0.04200
H 	H 	0.82340 0.97700 0.52480 0.01000
H 	H 	0.68820 0.98310 0.48770 0.02400
C 	C 	0.68080 0.98060 0.36500 -0.06600
H 	H 	0.67530 0.97400 0.22640 0.02900
H 	H 	0.78570 0.01430 0.21130 0.12400
H 	H 	0.78340 0.00230 0.30860 0.15800
H 	H 	0.75320 0.99380 0.25550 0.17000
H 	H 	0.74290 0.95060 0.94190 0.02700
H 	H 	0.62260 0.74050 0.87570 0.04100
H 	H 	0.75650 0.74560 0.21440 0.03500
H 	H 	0.69320 0.76400 0.76270 0.04100
H 	H 	0.80170 0.94680 0.64170 0.01200
H 	H 	0.66960 0.99070 0.36990 0.04200
Au	Au	0.35012 0.16642 0.54249 0.19700
Au	Au	0.36585 0.15775 0.72374 0.19400
Au	Au	0.36360 0.21361 0.67501 0.19700
Ag	Ag	0.40942 0.20161 0.61303 0.46400
P 	P 	0.37053 0.16954 0.40993 0.01500
P 	P 	0.40233 0.14928 0.77753 0.01300
P 	P 	0.39875 0.26325 0.68423 0.01700
N 	N 	0.41917 0.17673 0.49693 -0.15800
N 	N 	0.44217 0.20663 0.72983 -0.15900
N 	N 	0.42807 0.25133 0.56153 -0.16000
C 	C 	0.38247 0.20583 0.36183 -0.03100
C 	C 	0.34437 0.13893 0.34163 -0.01700
C 	C 	0.40557 0.16713 0.42013 -0.06500
C 	C 	0.40967 0.12543 0.70553 -0.02500
C 	C 	0.39107 0.13203 0.88303 -0.01400
C 	C 	0.43887 0.18503 0.78823 -0.06400
C 	C 	0.42207 0.27053 0.77893 -0.03200
C 	C 	0.38027 0.28583 0.68533 -0.01400
C 	C 	0.42477 0.27443 0.59183 -0.06200
C 	C 	0.44367 0.17483 0.51053 -0.02500
C 	C 	0.46607 0.23353 0.73213 -0.01700
C 	C 	0.44467 0.25593 0.49283 -0.02500
C 	C 	0.40627 0.21953 0.30413 -0.05000
C 	C 	0.36747 0.22123 0.38383 -0.05400
C 	C 	0.33047 0.14373 0.27433 -0.07100
C 	C 	0.33837 0.11003 0.36133 -0.07800
C 	C 	0.41697 0.15633 0.35503 0.17600
C 	C 	0.38677 0.10553 0.65203 -0.05600
C 	C 	0.43797 0.12823 0.69693 -0.05600
C 	C 	0.38247 0.10223 0.89773 -0.07300
C 	C 	0.38847 0.14833 0.95003 -0.09300
C 	C 	0.46157 0.19153 0.84813 0.15900
C 	C 	0.40887 0.25153 0.85243 -0.05200
C 	C 	0.45217 0.29223 0.78293 -0.05200
C 	C 	0.37707 0.29653 0.76833 -0.08200
C 	C 	0.36737 0.28853 0.60933 -0.07900
C 	C 	0.43977 0.30283 0.55033 0.15900
H 	H 	0.45467 0.18233 0.56333 0.01200
C 	C 	0.45357 0.16233 0.44983 0.01900
H 	H 	0.46877 0.24813 0.68963 0.00700
C 	C 	0.48707 0.24053 0.79583 0.00600
H 	H 	0.44777 0.24023 0.47163 0.01100
C 	C 	0.45797 0.28363 0.45023 0.02300
H 	H 	0.41617 0.20893 0.28583 0.02600
C 	C 	0.41597 0.24813 0.27253 -0.03900
C 	C 	0.37727 0.25043 0.35243 -0.03900
H 	H 	0.35037 0.21193 0.42083 0.01400
H 	H 	0.33517 0.16373 0.26053 0.04700
C 	C 	0.30897 0.11923 0.22423 -0.02900
C 	C 	0.31837 0.08553 0.31133 -0.02800
H 	H 	0.34797 0.10693 0.40983 0.03600
C 	C 	0.40527 0.14783 0.26663 -0.53100
N 	N 	0.44157 0.15433 0.37333 -0.22000
H 	H 	0.36777 0.10433 0.65583 0.01500
C 	C 	0.39047 0.08783 0.59433 -0.03300
C 	C 	0.44197 0.11113 0.63753 -0.02700
H 	H 	0.45427 0.14193 0.73243 0.03700
H 	H 	0.38497 0.09093 0.85283 0.05000
C 	C 	0.37047 0.08853 0.97663 -0.03000
C 	C 	0.37847 0.13623 0.02793 -0.01200
H 	H 	0.39407 0.16883 0.94053 0.03600
C 	C 	0.46157 0.16903 0.90983 -0.49600
N 	N 	0.48517 0.21993 0.85213 -0.21400
H 	H 	0.38817 0.23603 0.85093 0.01200
C 	C 	0.42567 0.25533 0.92513 -0.04500
C 	C 	0.46927 0.29543 0.85673 -0.04400
H 	H 	0.46137 0.30523 0.73463 0.02400
H 	H 	0.38627 0.29463 0.81953 0.05200
C 	C 	0.35887 0.30993 0.76733 -0.01100
C 	C 	0.35057 0.30393 0.61033 -0.03000
H 	H 	0.36967 0.28013 0.55633 0.03700
C 	C 	0.44057 0.33073 0.58433 -0.50200
N 	N 	0.45507 0.30553 0.47763 -0.22000
H 	H 	0.46997 0.15943 0.46413 -0.01300
H 	H 	0.50347 0.26063 0.80003 -0.02400
H 	H 	0.46947 0.28623 0.39923 -0.02300
H 	H 	0.43267 0.25703 0.23353 0.01900
C 	C 	0.40227 0.26393 0.29633 -0.04600
H 	H 	0.36717 0.26103 0.36883 0.03300
H 	H 	0.29847 0.12253 0.17833 0.03400
C 	C 	0.30347 0.09043 0.24303 -0.05600
H 	H 	0.31497 0.06583 0.32323 0.03000
H 	H 	0.41737 0.14103 0.23483 0.12300
H 	H 	0.40637 0.16533 0.23693 0.16300
H 	H 	0.38427 0.13153 0.26863 0.17800
Ag	Ag	0.46310 0.14189 0.27241 0.48600
H 	H 	0.37407 0.07363 0.55973 0.03300
C 	C 	0.41947 0.09093 0.58753 -0.05200
H 	H 	0.46147 0.11353 0.63093 0.02800
H 	H 	0.36387 0.06783 0.98593 0.03200
C 	C 	0.36847 0.10623 0.04143 -0.06500
H 	H 	0.37827 0.14843 0.07423 0.01800
H 	H 	0.47977 0.17873 0.94563 0.11000
H 	H 	0.46107 0.15233 0.87713 0.15800
H 	H 	0.44367 0.16113 0.94733 0.15300
Ag	Ag	0.51980 0.23568 0.95964 0.42300
H 	H 	0.41677 0.24313 0.97503 0.03100
C 	C 	0.45647 0.27773 0.92503 -0.04300
H 	H 	0.49007 0.31033 0.85813 0.01000
H 	H 	0.35487 0.31643 0.82103 0.02300
C 	C 	0.34747 0.31393 0.69833 -0.06600
H 	H 	0.34197 0.30733 0.55973 0.02900
H 	H 	0.45237 0.34763 0.54463 0.12300
H 	H 	0.45007 0.33563 0.64193 0.15700
H 	H 	0.41987 0.32713 0.58883 0.16900
H 	H 	0.40957 0.28393 0.27523 0.02200
H 	H 	0.28927 0.07383 0.20903 0.04200
H 	H 	0.42317 0.07893 0.54773 0.03500
H 	H 	0.35987 0.09733 0.09603 0.04100
H 	H 	0.46837 0.28013 0.97503 0.01100
H 	H 	0.33627 0.32403 0.70323 0.04200
Au	Au	0.01679 0.49975 0.87583 0.19600
Au	Au	0.03251 0.49108 0.05708 0.19500
Au	Au	0.03027 0.54694 0.00835 0.19900
Ag	Ag	0.07608 0.53495 0.94637 0.46200
P 	P 	0.03719 0.50288 0.74327 0.01500
P 	P 	0.06899 0.48262 0.11087 0.01400
P 	P 	0.06541 0.59659 0.01757 0.01900
N 	N 	0.08583 0.51007 0.83027 -0.15800
N 	N 	0.10883 0.53997 0.06317 -0.15800
N 	N 	0.09473 0.58467 0.89487 -0.16000
C 	C 	0.04913 0.53917 0.69517 -0.03100
C 	C 	0.01103 0.47227 0.67497 -0.01700
C 	C 	0.07223 0.50047 0.75347 -0.06500
C 	C 	0.07633 0.45877 0.03887 -0.02300
C 	C 	0.05773 0.46537 0.21637 -0.01600
C 	C 	0.10553 0.51837 0.12157 -0.06500
C 	C 	0.08873 0.60387 0.11227 -0.03100
C 	C 	0.04693 0.61917 0.01867 -0.01000
C 	C 	0.09143 0.60777 0.92517 -0.06500
C 	C 	0.11033 0.50817 0.84387 -0.02500
C 	C 	0.13273 0.56687 0.06547 -0.01700
C 	C 	0.11133 0.58927 0.82617 -0.02500
C 	C 	0.07293 0.55287 0.63747 -0.05000
C 	C 	0.03413 0.55457 0.71717 -0.05400
C 	C 	0.99713 0.47707 0.60767 -0.07200
C 	C 	0.00503 0.44337 0.69467 -0.07800
C 	C 	0.08363 0.48967 0.68837 0.17600
C 	C 	0.05343 0.43887 0.98537 -0.06000
C 	C 	0.10463 0.46157 0.03027 -0.04900
C 	C 	0.04913 0.43557 0.23107 -0.07300
C 	C 	0.05513 0.48167 0.28337 -0.08500
C 	C 	0.12823 0.52487 0.18147 0.16000
C 	C 	0.07553 0.58487 0.18577 -0.05200
C 	C 	0.11883 0.62557 0.11627 -0.05200
C 	C 	0.04373 0.62987 0.10167 -0.08100
C 	C 	0.03403 0.62187 0.94267 -0.08300
C 	C 	0.10643 0.63617 0.88367 0.15800
H 	H 	0.12133 0.51567 0.89667 0.01100
C 	C 	0.12023 0.49567 0.78317 0.01900
H 	H 	0.13543 0.58147 0.02297 0.00800
C 	C 	0.15373 0.57387 0.12917 0.00700
H 	H 	0.11443 0.57357 0.80497 0.01100
C 	C 	0.12463 0.61697 0.78357 0.02300
H 	H 	0.08283 0.54227 0.61917 0.02600
C 	C 	0.08263 0.58147 0.60587 -0.03900
C 	C 	0.04393 0.58377 0.68577 -0.03900
H 	H 	0.01703 0.54527 0.75417 0.01400
H 	H 	0.00183 0.49707 0.59387 0.04700
C 	C 	0.97563 0.45257 0.55757 -0.02800
C 	C 	0.98503 0.41887 0.64467 -0.02800
H 	H 	0.01463 0.44027 0.74317 0.03600
C 	C 	0.07193 0.48117 0.59997 -0.53000
N 	N 	0.10823 0.48767 0.70667 -0.22000
H 	H 	0.03443 0.43767 0.98917 0.01500
C 	C 	0.05713 0.42117 0.92767 -0.03400
C 	C 	0.10863 0.44447 0.97087 -0.03600
H 	H 	0.12093 0.47527 0.06577 0.03500
H 	H 	0.05163 0.42427 0.18617 0.05100
C 	C 	0.03713 0.42187 0.30997 -0.02500
C 	C 	0.04513 0.46957 0.36127 -0.01800
H 	H 	0.06073 0.50217 0.27387 0.03500
C 	C 	0.12823 0.50237 0.24317 -0.49800
N 	N 	0.15183 0.55327 0.18547 -0.21400
H 	H 	0.05483 0.56937 0.18427 0.01200
C 	C 	0.09233 0.58867 0.25847 -0.04400
C 	C 	0.13593 0.62877 0.19007 -0.04300
H 	H 	0.12803 0.63857 0.06797 0.02500
H 	H 	0.05293 0.62797 0.15287 0.05300
C 	C 	0.02553 0.64327 0.10067 -0.01400
C 	C 	0.01723 0.63727 0.94367 -0.03400
H 	H 	0.03633 0.61347 0.88967 0.03700
C 	C 	0.10723 0.66407 0.91767 -0.50000
N 	N 	0.12173 0.63887 0.81097 -0.22000
H 	H 	0.13663 0.49277 0.79747 -0.01400
H 	H 	0.17013 0.59397 0.13337 -0.02300
H 	H 	0.13613 0.61957 0.73257 -0.02300
H 	H 	0.09933 0.59037 0.56687 0.01800
C 	C 	0.06893 0.59727 0.62967 -0.04700
H 	H 	0.03383 0.59437 0.70217 0.03300
H 	H 	0.96513 0.45587 0.51167 0.03400
C 	C 	0.97013 0.42377 0.57637 -0.05700
H 	H 	0.98163 0.39917 0.65657 0.02900
H 	H 	0.08403 0.47437 0.56817 0.12300
H 	H 	0.07303 0.49867 0.57027 0.16200
H 	H 	0.05093 0.46487 0.60197 0.17800
Ag	Ag	0.12976 0.47523 0.60575 0.48600
H 	H 	0.04073 0.40697 0.89307 0.03300
C 	C 	0.08613 0.42427 0.92087 -0.04800
H 	H 	0.12813 0.44687 0.96427 0.03000
H 	H 	0.03053 0.40117 0.31927 0.03100
C 	C 	0.03513 0.43957 0.37477 -0.06900
H 	H 	0.04493 0.48177 0.40757 0.01900
H 	H 	0.14643 0.51207 0.27897 0.11100
H 	H 	0.12773 0.48567 0.21047 0.16000
H 	H 	0.11033 0.49447 0.28067 0.15500
Ag	Ag	0.18646 0.56902 0.29298 0.42500
H 	H 	0.08343 0.57647 0.30837 0.03200
C 	C 	0.12313 0.61107 0.25837 -0.04300
H 	H 	0.15673 0.64367 0.19147 0.01000
H 	H 	0.02153 0.64977 0.15437 0.02500
C 	C 	0.01413 0.64727 0.03167 -0.05900
H 	H 	0.00863 0.64067 0.89307 0.03000
H 	H 	0.11903 0.68097 0.87797 0.12200
H 	H 	0.11673 0.66897 0.97527 0.15500
H 	H 	0.08653 0.66047 0.92217 0.16700
H 	H 	0.07623 0.61727 0.60857 0.02200
H 	H 	0.95593 0.40717 0.54237 0.04200
H 	H 	0.08983 0.41227 0.88107 0.03300
H 	H 	0.02653 0.43067 0.42937 0.04100
H 	H 	0.13503 0.61347 0.30837 0.01200
H 	H 	0.00293 0.65737 0.03657 0.04100
Au	Au	0.83309 0.14963 0.79084 0.19700
Au	Au	0.82442 0.12524 0.60959 0.19400
Au	Au	0.88028 0.18334 0.65832 0.19700
Ag	Ag	0.86828 0.12553 0.72030 0.46400
P 	P 	0.83621 0.13235 0.92340 0.01700
P 	P 	0.81595 0.08029 0.55580 0.01300
P 	P 	0.92992 0.19784 0.64910 0.01700
N 	N 	0.84340 0.09090 0.83640 -0.15800
N 	N 	0.87330 0.09780 0.60350 -0.15900
N 	N 	0.91800 0.15660 0.77180 -0.16000
C 	C 	0.87250 0.15670 0.97150 -0.04200
C 	C 	0.80560 0.12790 0.99170 -0.02100
C 	C 	0.83380 0.09490 0.91320 -0.06400
C 	C 	0.79210 0.04910 0.62780 -0.02500
C 	C 	0.79870 0.07430 0.45030 -0.01600
C 	C 	0.85170 0.07950 0.54510 -0.06500
C 	C 	0.93720 0.18180 0.55440 -0.03200
C 	C 	0.95250 0.23890 0.64800 -0.01400
C 	C 	0.94110 0.18300 0.74150 -0.06200
C 	C 	0.84150 0.06450 0.82280 -0.02500
C 	C 	0.90020 0.10080 0.60120 -0.01700
C 	C 	0.92260 0.14460 0.84050 -0.02500
C 	C 	0.88620 0.14660 0.02920 -0.03500
C 	C 	0.88790 0.18710 0.94950 -0.04300
C 	C 	0.81040 0.14660 0.05900 -0.06600
C 	C 	0.77670 0.10500 0.97200 -0.08300
C 	C 	0.82300 0.07270 0.97830 0.17000
C 	C 	0.77220 0.05210 0.68130 -0.05600
C 	C 	0.79490 0.02360 0.63640 -0.05600
C 	C 	0.76890 0.05310 0.43560 -0.07300
C 	C 	0.81500 0.09320 0.38330 -0.08500
C 	C 	0.85820 0.06330 0.48520 0.16000
C 	C 	0.91820 0.17600 0.48090 -0.05200
C 	C 	0.95890 0.17340 0.55040 -0.05200
C 	C 	0.96320 0.25280 0.56500 -0.08200
C 	C 	0.95520 0.25450 0.72400 -0.07900
C 	C 	0.96950 0.19640 0.78300 0.15900
H 	H 	0.84900 0.06100 0.77000 0.01200
C 	C 	0.82900 0.04210 0.88350 0.01800
H 	H 	0.91480 0.11270 0.64370 0.00700
C 	C 	0.90720 0.08680 0.53750 0.00600
H 	H 	0.90690 0.12580 0.86170 0.01100
C 	C 	0.95030 0.15900 0.88310 0.02300
H 	H 	0.87560 0.12610 0.04750 0.02200
C 	C 	0.91480 0.16550 0.06080 -0.05200
C 	C 	0.91710 0.20650 0.98090 -0.05500
H 	H 	0.87860 0.19490 0.91250 0.01000
H 	H 	0.83040 0.16190 0.07280 0.04600
C 	C 	0.78590 0.14360 0.10910 -0.02900
C 	C 	0.75220 0.10050 0.02200 -0.02100
H 	H 	0.77360 0.09230 0.92350 0.03700
C 	C 	0.81450 0.07590 0.06670 -0.52200
N 	N 	0.82100 0.04610 0.96000 -0.22000
H 	H 	0.77100 0.06990 0.67750 0.01500
C 	C 	0.75450 0.03070 0.73900 -0.03400
C 	C 	0.77780 0.00250 0.69580 -0.02700
H 	H 	0.80860 0.02100 0.60090 0.03700
H 	H 	0.75760 0.03930 0.48050 0.05100
C 	C 	0.75520 0.05140 0.35670 -0.02500
C 	C 	0.80290 0.09110 0.30540 -0.01900
H 	H 	0.83550 0.10810 0.39280 0.03500
C 	C 	0.83570 0.04080 0.42350 -0.49800
N 	N 	0.88660 0.06810 0.48120 -0.21400
H 	H 	0.90270 0.18120 0.48240 0.01200
C 	C 	0.92200 0.16300 0.40820 -0.04400
C 	C 	0.96210 0.15950 0.47660 -0.04400
H 	H 	0.97190 0.17720 0.59870 0.02400
H 	H 	0.96130 0.24170 0.51380 0.05300
C 	C 	0.97660 0.28440 0.56600 -0.01100
C 	C 	0.97060 0.28670 0.72300 -0.03000
H 	H 	0.94680 0.24380 0.77700 0.03700
C 	C 	0.99740 0.22350 0.74900 -0.50300
N 	N 	0.97220 0.18380 0.85570 -0.22000
H 	H 	0.82610 0.02280 0.86920 -0.01400
H 	H 	0.92730 0.09050 0.53330 -0.02400
H 	H 	0.95290 0.15010 0.93410 -0.02400
H 	H 	0.92370 0.15770 0.09980 0.02300
C 	C 	0.93060 0.19500 0.03700 -0.03000
H 	H 	0.92770 0.22720 0.96450 0.03700
H 	H 	0.78920 0.15740 0.15500 0.03500
C 	C 	0.75710 0.12030 0.09030 -0.05800
H 	H 	0.73250 0.08420 0.01010 0.02900
H 	H 	0.80770 0.05700 0.09850 0.12100
H 	H 	0.83200 0.09230 0.09640 0.16000
H 	H 	0.79820 0.08060 0.06470 0.17700
Ag	Ag	0.80856 0.01213 0.06092 0.48800
H 	H 	0.74030 0.03290 0.77360 0.03200
C 	C 	0.75760 0.00480 0.74580 -0.05100
H 	H 	0.78020 0.98540 0.70240 0.02800
H 	H 	0.73450 0.03730 0.34740 0.03100
C 	C 	0.77290 0.07110 0.29190 -0.06900
H 	H 	0.81510 0.10350 0.25910 0.02000
H 	H 	0.84540 0.03230 0.38770 0.11100
H 	H 	0.81900 0.02460 0.45620 0.15900
H 	H 	0.82780 0.05080 0.38600 0.15500
Ag	Ag	0.90235 0.04922 0.37369 0.42500
H 	H 	0.90980 0.15970 0.35830 0.03200
C 	C 	0.94440 0.15460 0.40830 -0.04200
H 	H 	0.97700 0.15360 0.47520 0.01000
H 	H 	0.98310 0.29490 0.51230 0.02400
C 	C 	0.98060 0.29980 0.63500 -0.06600
H 	H 	0.97400 0.29870 0.77360 0.02900
H 	H 	0.01430 0.22860 0.78870 0.12300
H 	H 	0.00230 0.21890 0.69140 0.15800
H 	H 	0.99380 0.24060 0.74450 0.16900
H 	H 	0.95060 0.20770 0.05810 0.01800
H 	H 	0.74050 0.11790 0.12430 0.04200
H 	H 	0.74560 0.98910 0.78560 0.03400
H 	H 	0.76400 0.07080 0.23730 0.04100
H 	H 	0.94680 0.14510 0.35830 0.01200
H 	H 	0.99070 0.32110 0.63010 0.04200
Au	Au	0.49975 0.48297 0.12417 0.19800
Au	Au	0.49108 0.45857 0.94292 0.19100
Au	Au	0.54694 0.51668 0.99165 0.19400
Ag	Ag	0.53495 0.45886 0.05363 0.46700
P 	P 	0.50288 0.46568 0.25673 0.01500
P 	P 	0.48262 0.41362 0.88913 0.01300
P 	P 	0.59659 0.53117 0.98243 0.01400
N 	N 	0.51007 0.42423 0.16973 -0.15800
N 	N 	0.53997 0.43113 0.93683 -0.16000
N 	N 	0.58467 0.48993 0.10513 -0.16000
C 	C 	0.53917 0.49003 0.30483 -0.03100
C 	C 	0.47227 0.46123 0.32503 -0.01700
C 	C 	0.50047 0.42823 0.24653 -0.06500
C 	C 	0.45877 0.38243 0.96113 -0.02800
C 	C 	0.46537 0.40763 0.78363 -0.01600
C 	C 	0.51837 0.41283 0.87843 -0.06500
C 	C 	0.60387 0.51513 0.88773 -0.03200
C 	C 	0.61917 0.57223 0.98133 -0.01800
C 	C 	0.60777 0.51633 0.07483 -0.05900
C 	C 	0.50817 0.39783 0.15613 -0.02500
C 	C 	0.56687 0.43413 0.93453 -0.01700
C 	C 	0.58927 0.47793 0.17383 -0.02500
C 	C 	0.55287 0.47993 0.36253 -0.05000
C 	C 	0.55457 0.52043 0.28283 -0.05400
C 	C 	0.47707 0.47993 0.39233 -0.07100
C 	C 	0.44337 0.43833 0.30533 -0.07800
C 	C 	0.48967 0.40603 0.31163 0.17600
C 	C 	0.43887 0.38543 0.01463 -0.05100
C 	C 	0.46157 0.35693 0.96973 -0.06400
C 	C 	0.43557 0.38643 0.76893 -0.07300
C 	C 	0.48167 0.42653 0.71663 -0.08500
C 	C 	0.52487 0.39663 0.81853 0.15900
C 	C 	0.58487 0.50933 0.81423 -0.05200
C 	C 	0.62557 0.50673 0.88373 -0.05100
C 	C 	0.62987 0.58613 0.89833 -0.08200
C 	C 	0.62187 0.58783 0.05733 -0.07500
C 	C 	0.63617 0.52973 0.11633 0.16000
H 	H 	0.51567 0.39433 0.10333 0.01400
C 	C 	0.49567 0.37543 0.21683 0.01900
H 	H 	0.58147 0.44603 0.97703 0.00600
C 	C 	0.57387 0.42013 0.87083 0.00600
H 	H 	0.57357 0.45913 0.19503 0.01100
C 	C 	0.61697 0.49233 0.21643 0.02300
H 	H 	0.54227 0.45943 0.38083 0.02600
C 	C 	0.58147 0.49883 0.39413 -0.03900
C 	C 	0.58377 0.53983 0.31423 -0.03900
H 	H 	0.54527 0.52823 0.24583 0.01400
H 	H 	0.49707 0.49523 0.40613 0.04700
C 	C 	0.45257 0.47693 0.44243 -0.02900
C 	C 	0.41887 0.43383 0.35533 -0.02800
H 	H 	0.44027 0.42563 0.25683 0.03600
C 	C 	0.48117 0.40923 0.40003 -0.53000
N 	N 	0.48767 0.37943 0.29333 -0.22000
H 	H 	0.43767 0.40323 0.01083 0.01500
C 	C 	0.42117 0.36403 0.07233 -0.03300
C 	C 	0.44447 0.33583 0.02913 -0.01800
H 	H 	0.47527 0.35433 0.93423 0.03900
H 	H 	0.42427 0.37263 0.81383 0.05000
C 	C 	0.42187 0.38473 0.69003 -0.02500
C 	C 	0.46957 0.42443 0.63873 -0.01900
H 	H 	0.50217 0.44143 0.72613 0.03400
C 	C 	0.50237 0.37413 0.75683 -0.49800
N 	N 	0.55327 0.40143 0.81453 -0.21400
H 	H 	0.56937 0.51453 0.81573 0.01200
C 	C 	0.58867 0.49633 0.74153 -0.04500
C 	C 	0.62877 0.49283 0.80993 -0.04400
H 	H 	0.63857 0.51053 0.93203 0.02300
H 	H 	0.62797 0.57503 0.84713 0.05300
C 	C 	0.64327 0.61773 0.89933 -0.00900
C 	C 	0.63727 0.62003 0.05633 -0.02500
H 	H 	0.61347 0.57713 0.11033 0.03600
C 	C 	0.66407 0.55683 0.08233 -0.50400
N 	N 	0.63887 0.51713 0.18903 -0.22000
H 	H 	0.49277 0.35613 0.20253 -0.01300
H 	H 	0.59397 0.42383 0.86663 -0.02400
H 	H 	0.61957 0.48343 0.26743 -0.02300
H 	H 	0.59037 0.49103 0.43313 0.01800
C 	C 	0.59727 0.52833 0.37033 -0.04700
H 	H 	0.59437 0.56053 0.29783 0.03300
H 	H 	0.45587 0.49073 0.48833 0.03400
C 	C 	0.42377 0.45363 0.42363 -0.05700
H 	H 	0.39917 0.41753 0.34343 0.02900
H 	H 	0.47437 0.39033 0.43183 0.12300
H 	H 	0.49867 0.42563 0.42973 0.16200
H 	H 	0.46487 0.41393 0.39803 0.17800
Ag	Ag	0.47523 0.34546 0.39425 0.48600
H 	H 	0.40697 0.36623 0.10693 0.03300
C 	C 	0.42427 0.33813 0.07913 -0.05500
H 	H 	0.44687 0.31873 0.03573 0.02700
H 	H 	0.40117 0.37063 0.68073 0.03100
C 	C 	0.43957 0.40443 0.62523 -0.06900
H 	H 	0.48177 0.43683 0.59243 0.02000
H 	H 	0.51207 0.36563 0.72103 0.11100
H 	H 	0.48567 0.35793 0.78953 0.15900
H 	H 	0.49447 0.38413 0.71933 0.15500
Ag	Ag	0.56902 0.38255 0.70702 0.42400
H 	H 	0.57647 0.49303 0.69163 0.03200
C 	C 	0.61107 0.48793 0.74163 -0.04200
H 	H 	0.64367 0.48693 0.80853 0.01000
H 	H 	0.64977 0.62823 0.84563 0.02300
C 	C 	0.64727 0.63313 0.96833 -0.07200
H 	H 	0.64067 0.63203 0.10693 0.02800
H 	H 	0.68097 0.56193 0.12203 0.12400
H 	H 	0.66897 0.55223 0.02473 0.16000
H 	H 	0.66047 0.57393 0.07783 0.17000
H 	H 	0.61727 0.54103 0.39143 0.02200
H 	H 	0.40717 0.45123 0.45763 0.04100
H 	H 	0.41227 0.32243 0.11893 0.03600
H 	H 	0.43067 0.40413 0.57063 0.04100
H 	H 	0.61347 0.47843 0.69163 0.01200
H 	H 	0.65737 0.65443 0.96343 0.04300
Au	Au	0.16642 0.81630 0.45751 0.19700
Au	Au	0.15775 0.79190 0.27626 0.19400
Au	Au	0.21361 0.85001 0.32499 0.19700
Ag	Ag	0.20161 0.79220 0.38697 0.46400
P 	P 	0.16954 0.79902 0.59007 0.01500
P 	P 	0.14928 0.74696 0.22247 0.01400
P 	P 	0.26325 0.86451 0.31577 0.01700
N 	N 	0.17673 0.75757 0.50307 -0.15800
N 	N 	0.20663 0.76447 0.27017 -0.15900
N 	N 	0.25133 0.82327 0.43847 -0.16000
C 	C 	0.20583 0.82337 0.63817 -0.03100
C 	C 	0.13893 0.79457 0.65837 -0.01700
C 	C 	0.16713 0.76157 0.57987 -0.06500
C 	C 	0.12543 0.71577 0.29447 -0.02600
C 	C 	0.13203 0.74097 0.11697 -0.01700
C 	C 	0.18503 0.74617 0.21177 -0.06500
C 	C 	0.27053 0.84847 0.22107 -0.03200
C 	C 	0.28583 0.90557 0.31467 -0.01400
C 	C 	0.27443 0.84967 0.40817 -0.06200
C 	C 	0.17483 0.73117 0.48947 -0.02500
C 	C 	0.23353 0.76747 0.26787 -0.01700
C 	C 	0.25593 0.81127 0.50717 -0.02500
C 	C 	0.21953 0.81327 0.69587 -0.05000
C 	C 	0.22123 0.85377 0.61617 -0.05400
C 	C 	0.14373 0.81327 0.72567 -0.07200
C 	C 	0.11003 0.77167 0.63867 -0.07800
C 	C 	0.15633 0.73937 0.64497 0.17600
C 	C 	0.10553 0.71877 0.34797 -0.05600
C 	C 	0.12823 0.69027 0.30307 -0.05600
C 	C 	0.10223 0.71977 0.10227 -0.07400
C 	C 	0.14833 0.75987 0.04997 -0.07800
C 	C 	0.19153 0.72997 0.15187 0.16000
C 	C 	0.25153 0.84267 0.14757 -0.05100
C 	C 	0.29223 0.84007 0.21707 -0.05100
C 	C 	0.29653 0.91947 0.23167 -0.08200
C 	C 	0.28853 0.92117 0.39067 -0.07900
C 	C 	0.30283 0.86307 0.44967 0.15900
H 	H 	0.18233 0.72767 0.43667 0.01200
C 	C 	0.16233 0.70877 0.55017 0.01900
H 	H 	0.24813 0.77937 0.31037 0.00700
C 	C 	0.24053 0.75347 0.20417 0.00600
H 	H 	0.24023 0.79247 0.52837 0.01100
C 	C 	0.28363 0.82567 0.54977 0.02300
H 	H 	0.20893 0.79277 0.71417 0.02500
C 	C 	0.24813 0.83217 0.72747 -0.03900
C 	C 	0.25043 0.87317 0.64757 -0.03900
H 	H 	0.21193 0.86157 0.57917 0.01400
H 	H 	0.16373 0.82857 0.73947 0.04700
C 	C 	0.11923 0.81027 0.77577 -0.02900
C 	C 	0.08553 0.76717 0.68867 -0.02800
H 	H 	0.10693 0.75897 0.59017 0.03600
C 	C 	0.14783 0.74257 0.73337 -0.53000
N 	N 	0.15433 0.71277 0.62667 -0.22000
H 	H 	0.10433 0.73657 0.34417 0.01500
C 	C 	0.08783 0.69737 0.40567 -0.03400
C 	C 	0.11113 0.66917 0.36247 -0.02700
H 	H 	0.14193 0.68767 0.26757 0.03700
H 	H 	0.09093 0.70597 0.14717 0.05100
C 	C 	0.08853 0.71807 0.02337 -0.02000
C 	C 	0.13623 0.75777 0.97207 -0.02500
H 	H 	0.16883 0.77477 0.05947 0.03300
C 	C 	0.16903 0.70747 0.09017 -0.50000
N 	N 	0.21993 0.73477 0.14787 -0.21400
H 	H 	0.23603 0.84787 0.14907 0.01200
C 	C 	0.25533 0.82967 0.07487 -0.04400
C 	C 	0.29543 0.82617 0.14327 -0.04300
H 	H 	0.30523 0.84387 0.26537 0.02400
H 	H 	0.29463 0.90837 0.18047 0.05300
C 	C 	0.30993 0.95107 0.23267 -0.01100
C 	C 	0.30393 0.95337 0.38967 -0.03000
H 	H 	0.28013 0.91047 0.44367 0.03700
C 	C 	0.33073 0.89017 0.41567 -0.50200
N 	N 	0.30553 0.85047 0.52237 -0.22000
H 	H 	0.15943 0.68947 0.53587 -0.01300
H 	H 	0.26063 0.75717 0.19997 -0.02400
H 	H 	0.28623 0.81677 0.60077 -0.02300
H 	H 	0.25703 0.82437 0.76647 0.01700
C 	C 	0.26393 0.86167 0.70367 -0.04700
H 	H 	0.26103 0.89387 0.63117 0.03300
H 	H 	0.12253 0.82407 0.82167 0.03400
C 	C 	0.09043 0.78697 0.75697 -0.05700
H 	H 	0.06583 0.75087 0.67677 0.02900
H 	H 	0.14103 0.72367 0.76517 0.12200
H 	H 	0.16533 0.75897 0.76307 0.16200
H 	H 	0.13153 0.74727 0.73137 0.17800
Ag	Ag	0.14189 0.67880 0.72759 0.48600
H 	H 	0.07363 0.69957 0.44027 0.03300
C 	C 	0.09093 0.67147 0.41247 -0.05200
H 	H 	0.11353 0.65207 0.36907 0.02800
H 	H 	0.06783 0.70397 0.01407 0.03100
C 	C 	0.10623 0.73777 0.95857 -0.07300
H 	H 	0.14843 0.77017 0.92577 0.02100
H 	H 	0.17873 0.69897 0.05437 0.11200
H 	H 	0.15233 0.69127 0.12287 0.16000
H 	H 	0.16113 0.71747 0.05267 0.15600
Ag	Ag	0.23568 0.71589 0.04036 0.42500
H 	H 	0.24313 0.82637 0.02497 0.03300
C 	C 	0.27773 0.82127 0.07497 -0.04200
H 	H 	0.31033 0.82027 0.14187 0.01000
H 	H 	0.31643 0.96157 0.17897 0.02500
C 	C 	0.31393 0.96647 0.30167 -0.06600
H 	H 	0.30733 0.96537 0.44027 0.02900
H 	H 	0.34763 0.89527 0.45537 0.12300
H 	H 	0.33563 0.88557 0.35807 0.15700
H 	H 	0.32713 0.90727 0.41117 0.16900
H 	H 	0.28393 0.87437 0.72477 0.02200
H 	H 	0.07383 0.78457 0.79097 0.04100
H 	H 	0.07893 0.65577 0.45227 0.03500
H 	H 	0.09733 0.73747 0.90397 0.04200
H 	H 	0.28013 0.81177 0.02497 0.01300
H 	H 	0.32403 0.98777 0.29677 0.04200
Au	Au	0.85037 0.68346 0.79084 0.19700
Au	Au	0.87476 0.69918 0.60959 0.19400
Au	Au	0.81666 0.69693 0.65832 0.19700
Ag	Ag	0.87447 0.74275 0.72030 0.46400
P 	P 	0.86765 0.70386 0.92340 0.01700
P 	P 	0.91971 0.73566 0.55580 0.01300
P 	P 	0.80216 0.73208 0.64910 0.01700
N 	N 	0.90910 0.75250 0.83640 -0.15800
N 	N 	0.90220 0.77550 0.60350 -0.15900
N 	N 	0.84340 0.76140 0.77180 -0.16000
C 	C 	0.84330 0.71580 0.97150 -0.04200
C 	C 	0.87210 0.67770 0.99170 -0.02100
C 	C 	0.90510 0.73890 0.91320 -0.06400
C 	C 	0.95090 0.74300 0.62780 -0.02600
C 	C 	0.92570 0.72440 0.45030 -0.01600
C 	C 	0.92050 0.77220 0.54510 -0.06500
C 	C 	0.81820 0.75540 0.55440 -0.03200
C 	C 	0.76110 0.71360 0.64800 -0.01400
C 	C 	0.81700 0.75810 0.74150 -0.06200
C 	C 	0.93550 0.77700 0.82280 -0.02500
C 	C 	0.89920 0.79940 0.60120 -0.01700
C 	C 	0.85540 0.77800 0.84050 -0.02500
C 	C 	0.85340 0.73960 0.02920 -0.03500
C 	C 	0.81290 0.70080 0.94950 -0.04300
C 	C 	0.85340 0.66380 0.05900 -0.06500
C 	C 	0.89500 0.67170 0.97200 -0.08300
C 	C 	0.92730 0.75030 0.97830 0.17000
C 	C 	0.94790 0.72010 0.68130 -0.05600
C 	C 	0.97640 0.77130 0.63640 -0.05600
C 	C 	0.94690 0.71580 0.43560 -0.07300
C 	C 	0.90680 0.72180 0.38330 -0.08500
C 	C 	0.93670 0.79490 0.48520 0.15900
C 	C 	0.82400 0.74220 0.48090 -0.05200
C 	C 	0.82660 0.78550 0.55040 -0.05200
C 	C 	0.74720 0.71040 0.56500 -0.08200
C 	C 	0.74550 0.70070 0.72400 -0.07900
C 	C 	0.80360 0.77310 0.78300 0.15900
H 	H 	0.93900 0.78800 0.77000 0.01200
C 	C 	0.95790 0.78690 0.88350 0.01800
H 	H 	0.88730 0.80210 0.64370 0.00700
C 	C 	0.91320 0.82040 0.53750 0.00600
H 	H 	0.87420 0.78110 0.86170 0.01100
C 	C 	0.84100 0.79130 0.88310 0.02300
H 	H 	0.87390 0.74950 0.04750 0.02200
C 	C 	0.83450 0.74930 0.06080 -0.05200
C 	C 	0.79350 0.71060 0.98090 -0.05500
H 	H 	0.80510 0.68370 0.91250 0.01000
H 	H 	0.83810 0.66850 0.07280 0.04600
C 	C 	0.85640 0.64230 0.10910 -0.02900
C 	C 	0.89950 0.65170 0.02200 -0.02100
H 	H 	0.90770 0.68130 0.92350 0.03700
C 	C 	0.92410 0.73860 0.06670 -0.52200
N 	N 	0.95390 0.77490 0.96000 -0.22000
H 	H 	0.93010 0.70110 0.67750 0.01500
C 	C 	0.96930 0.72380 0.73900 -0.03400
C 	C 	0.99750 0.77530 0.69580 -0.02800
H 	H 	0.97900 0.78760 0.60090 0.03700
H 	H 	0.96070 0.71830 0.48050 0.05000
C 	C 	0.94860 0.70380 0.35670 -0.02500
C 	C 	0.90890 0.71180 0.30540 -0.01900
H 	H 	0.89190 0.72740 0.39280 0.03500
C 	C 	0.95920 0.79490 0.42350 -0.49800
N 	N 	0.93190 0.81850 0.48120 -0.21400
H 	H 	0.81880 0.72150 0.48240 0.01200
C 	C 	0.83700 0.75900 0.40820 -0.04400
C 	C 	0.84050 0.80260 0.47660 -0.04400
H 	H 	0.82280 0.79470 0.59870 0.02400
H 	H 	0.75830 0.71960 0.51380 0.05300
C 	C 	0.71560 0.69220 0.56600 -0.01100
C 	C 	0.71330 0.68390 0.72300 -0.03000
H 	H 	0.75620 0.70300 0.77700 0.03700
C 	C 	0.77650 0.77390 0.74900 -0.50200
N 	N 	0.81620 0.78840 0.85570 -0.22000
H 	H 	0.97720 0.80330 0.86920 -0.01400
H 	H 	0.90950 0.83680 0.53330 -0.02400
H 	H 	0.84990 0.80280 0.93410 -0.02400
H 	H 	0.84230 0.76600 0.09980 0.02300
C 	C 	0.80500 0.73560 0.03700 -0.03000
H 	H 	0.77280 0.70050 0.96450 0.03700
H 	H 	0.84260 0.63180 0.15500 0.03500
C 	C 	0.87970 0.63680 0.09030 -0.05800
H 	H 	0.91580 0.64830 0.01010 0.02900
H 	H 	0.94300 0.75070 0.09850 0.12100
H 	H 	0.90770 0.73970 0.09640 0.16000
H 	H 	0.91940 0.71760 0.06470 0.17700
Ag	Ag	0.98787 0.79643 0.06092 0.48700
H 	H 	0.96710 0.70740 0.77360 0.03200
C 	C 	0.99520 0.75280 0.74580 -0.05200
H 	H 	0.01460 0.79480 0.70240 0.02900
H 	H 	0.96270 0.69720 0.34740 0.03100
C 	C 	0.92890 0.70180 0.29190 -0.06900
H 	H 	0.89650 0.71160 0.25910 0.02000
H 	H 	0.96770 0.81310 0.38770 0.11100
H 	H 	0.97540 0.79440 0.45620 0.15900
H 	H 	0.94920 0.77700 0.38600 0.15500
Ag	Ag	0.95078 0.85313 0.37369 0.42500
H 	H 	0.84030 0.75010 0.35830 0.03200
C 	C 	0.84540 0.78980 0.40830 -0.04200
H 	H 	0.84640 0.82340 0.47520 0.01000
H 	H 	0.70510 0.68820 0.51230 0.02400
C 	C 	0.70020 0.68080 0.63500 -0.06600
H 	H 	0.70130 0.67530 0.77360 0.02900
H 	H 	0.77140 0.78570 0.78870 0.12300
H 	H 	0.78110 0.78340 0.69140 0.15700
H 	H 	0.75940 0.75320 0.74450 0.16900
H 	H 	0.79230 0.74290 0.05810 0.01800
H 	H 	0.88210 0.62260 0.12430 0.04200
H 	H 	0.01090 0.75650 0.78560 0.03400
H 	H 	0.92920 0.69320 0.23730 0.04100
H 	H 	0.85490 0.80170 0.35830 0.01200
H 	H 	0.67890 0.66960 0.63010 0.04200
Au	Au	0.51703 0.01679 0.12417 0.19800
Au	Au	0.54143 0.03251 0.94292 0.19100
Au	Au	0.48332 0.03027 0.99165 0.19500
Ag	Ag	0.54114 0.07608 0.05363 0.46700
P 	P 	0.53432 0.03719 0.25673 0.01500
P 	P 	0.58638 0.06899 0.88913 0.01300
P 	P 	0.46883 0.06541 0.98243 0.01400
N 	N 	0.57577 0.08583 0.16973 -0.15800
N 	N 	0.56887 0.10883 0.93683 -0.16000
N 	N 	0.51007 0.09473 0.10513 -0.16000
C 	C 	0.50997 0.04913 0.30483 -0.03100
C 	C 	0.53877 0.01103 0.32503 -0.01700
C 	C 	0.57177 0.07223 0.24653 -0.06500
C 	C 	0.61757 0.07633 0.96113 -0.02800
C 	C 	0.59237 0.05773 0.78363 -0.01600
C 	C 	0.58717 0.10553 0.87843 -0.06500
C 	C 	0.48487 0.08873 0.88773 -0.03200
C 	C 	0.42777 0.04693 0.98133 -0.01800
C 	C 	0.48367 0.09143 0.07483 -0.05900
C 	C 	0.60217 0.11033 0.15613 -0.02500
C 	C 	0.56587 0.13273 0.93453 -0.01700
C 	C 	0.52207 0.11133 0.17383 -0.02500
C 	C 	0.52007 0.07293 0.36253 -0.05000
C 	C 	0.47957 0.03413 0.28283 -0.05400
C 	C 	0.52007 0.99713 0.39233 -0.07200
C 	C 	0.56167 0.00503 0.30533 -0.07800
C 	C 	0.59397 0.08363 0.31163 0.17600
C 	C 	0.61457 0.05343 0.01463 -0.05100
C 	C 	0.64307 0.10463 0.96973 -0.06400
C 	C 	0.61357 0.04913 0.76893 -0.07300
C 	C 	0.57347 0.05513 0.71663 -0.08500
C 	C 	0.60337 0.12823 0.81853 0.15900
C 	C 	0.49067 0.07553 0.81423 -0.05200
C 	C 	0.49327 0.11883 0.88373 -0.05100
C 	C 	0.41387 0.04373 0.89833 -0.08200
C 	C 	0.41217 0.03403 0.05733 -0.07500
C 	C 	0.47027 0.10643 0.11633 0.16000
H 	H 	0.60567 0.12133 0.10333 0.01400
C 	C 	0.62457 0.12023 0.21683 0.01900
H 	H 	0.55397 0.13543 0.97703 0.00600
C 	C 	0.57987 0.15373 0.87083 0.00600
H 	H 	0.54087 0.11443 0.19503 0.01100
C 	C 	0.50767 0.12463 0.21643 0.02300
H 	H 	0.54057 0.08283 0.38083 0.02600
C 	C 	0.50117 0.08263 0.39413 -0.03900
C 	C 	0.46017 0.04393 0.31423 -0.03900
H 	H 	0.47177 0.01703 0.24583 0.01400
H 	H 	0.50477 0.00183 0.40613 0.04700
C 	C 	0.52307 0.97563 0.44243 -0.02800
C 	C 	0.56617 0.98503 0.35533 -0.02800
H 	H 	0.57437 0.01463 0.25683 0.03600
C 	C 	0.59077 0.07193 0.40003 -0.53000
N 	N 	0.62057 0.10823 0.29333 -0.22000
H 	H 	0.59677 0.03443 0.01083 0.01500
C 	C 	0.63597 0.05713 0.07233 -0.03300
C 	C 	0.66417 0.10863 0.02913 -0.01800
H 	H 	0.64567 0.12093 0.93423 0.03900
H 	H 	0.62737 0.05163 0.81383 0.05000
C 	C 	0.61527 0.03713 0.69003 -0.02500
C 	C 	0.57557 0.04513 0.63873 -0.01900
H 	H 	0.55857 0.06073 0.72613 0.03400
C 	C 	0.62587 0.12823 0.75683 -0.49800
N 	N 	0.59857 0.15183 0.81453 -0.21400
H 	H 	0.48547 0.05483 0.81573 0.01200
C 	C 	0.50367 0.09233 0.74153 -0.04500
C 	C 	0.50717 0.13593 0.80993 -0.04400
H 	H 	0.48947 0.12803 0.93203 0.02300
H 	H 	0.42497 0.05293 0.84713 0.05300
C 	C 	0.38227 0.02553 0.89933 -0.00900
C 	C 	0.37997 0.01723 0.05633 -0.02500
H 	H 	0.42287 0.03633 0.11033 0.03600
C 	C 	0.44317 0.10723 0.08233 -0.50400
N 	N 	0.48287 0.12173 0.18903 -0.22000
H 	H 	0.64387 0.13663 0.20253 -0.01300
H 	H 	0.57617 0.17013 0.86663 -0.02400
H 	H 	0.51657 0.13613 0.26743 -0.02300
H 	H 	0.50897 0.09933 0.43313 0.01800
C 	C 	0.47167 0.06893 0.37033 -0.04700
H 	H 	0.43947 0.03383 0.29783 0.03300
H 	H 	0.50927 0.96513 0.48833 0.03400
C 	C 	0.54637 0.97013 0.42363 -0.05700
H 	H 	0.58247 0.98163 0.34343 0.02900
H 	H 	0.60967 0.08403 0.43183 0.12300
H 	H 	0.57437 0.07303 0.42973 0.16200
H 	H 	0.58607 0.05093 0.39803 0.17800
Ag	Ag	0.65454 0.12976 0.39425 0.48600
H 	H 	0.63377 0.04073 0.10693 0.03300
C 	C 	0.66187 0.08613 0.07913 -0.05500
H 	H 	0.68127 0.12813 0.03573 0.02700
H 	H 	0.62937 0.03053 0.68073 0.03100
C 	C 	0.59557 0.03513 0.62523 -0.06900
H 	H 	0.56317 0.04493 0.59243 0.02000
H 	H 	0.63437 0.14643 0.72103 0.11100
H 	H 	0.64207 0.12773 0.78953 0.15900
H 	H 	0.61587 0.11033 0.71933 0.15500
Ag	Ag	0.61745 0.18646 0.70702 0.42400
H 	H 	0.50697 0.08343 0.69163 0.03200
C 	C 	0.51207 0.12313 0.74163 -0.04200
H 	H 	0.51307 0.15673 0.80853 0.01000
H 	H 	0.37177 0.02153 0.84563 0.02300
C 	C 	0.36687 0.01413 0.96833 -0.07200
H 	H 	0.36797 0.00863 0.10693 0.02800
H 	H 	0.43807 0.11903 0.12203 0.12400
H 	H 	0.44777 0.11673 0.02473 0.16000
H 	H 	0.42607 0.08653 0.07783 0.17000
H 	H 	0.45897 0.07623 0.39143 0.02200
H 	H 	0.54877 0.95593 0.45763 0.04200
H 	H 	0.67757 0.08983 0.11893 0.03600
H 	H 	0.59587 0.02653 0.57063 0.04100
H 	H 	0.52157 0.13503 0.69163 0.01200
H 	H 	0.34557 0.00293 0.96343 0.04300
Au	Au	0.18370 0.35012 0.45751 0.19700
Au	Au	0.20810 0.36585 0.27626 0.19400
Au	Au	0.14999 0.36360 0.32499 0.19700
Ag	Ag	0.20780 0.40942 0.38697 0.46400
P 	P 	0.20098 0.37053 0.59007 0.01500
P 	P 	0.25304 0.40233 0.22247 0.01400
P 	P 	0.13549 0.39875 0.31577 0.01700
N 	N 	0.24243 0.41917 0.50307 -0.15800
N 	N 	0.23553 0.44217 0.27017 -0.15900
N 	N 	0.17673 0.42807 0.43847 -0.16000
C 	C 	0.17663 0.38247 0.63817 -0.03100
C 	C 	0.20543 0.34437 0.65837 -0.01700
C 	C 	0.23843 0.40557 0.57987 -0.06500
C 	C 	0.28423 0.40967 0.29447 -0.02600
C 	C 	0.25903 0.39107 0.11697 -0.01700
C 	C 	0.25383 0.43887 0.21177 -0.06500
C 	C 	0.15153 0.42207 0.22107 -0.03200
C 	C 	0.09443 0.38027 0.31467 -0.01400
C 	C 	0.15033 0.42477 0.40817 -0.06200
C 	C 	0.26883 0.44367 0.48947 -0.02500
C 	C 	0.23253 0.46607 0.26787 -0.01700
C 	C 	0.18873 0.44467 0.50717 -0.02500
C 	C 	0.18673 0.40627 0.69587 -0.05000
C 	C 	0.14623 0.36747 0.61617 -0.05400
C 	C 	0.18673 0.33047 0.72567 -0.07200
C 	C 	0.22833 0.33837 0.63867 -0.07800
C 	C 	0.26063 0.41697 0.64497 0.17600
C 	C 	0.28123 0.38677 0.34797 -0.05600
C 	C 	0.30973 0.43797 0.30307 -0.05600
C 	C 	0.28023 0.38247 0.10227 -0.07400
C 	C 	0.24013 0.38847 0.04997 -0.07800
C 	C 	0.27003 0.46157 0.15187 0.16000
C 	C 	0.15733 0.40887 0.14757 -0.05100
C 	C 	0.15993 0.45217 0.21707 -0.05100
C 	C 	0.08053 0.37707 0.23167 -0.08200
C 	C 	0.07883 0.36737 0.39067 -0.07900
C 	C 	0.13693 0.43977 0.44967 0.15900
H 	H 	0.27233 0.45467 0.43667 0.01200
C 	C 	0.29123 0.45357 0.55017 0.01900
H 	H 	0.22063 0.46877 0.31037 0.00700
C 	C 	0.24653 0.48707 0.20417 0.00600
H 	H 	0.20753 0.44777 0.52837 0.01100
C 	C 	0.17433 0.45797 0.54977 0.02300
H 	H 	0.20723 0.41617 0.71417 0.02500
C 	C 	0.16783 0.41597 0.72747 -0.03900
C 	C 	0.12683 0.37727 0.64757 -0.03900
H 	H 	0.13843 0.35037 0.57917 0.01400
H 	H 	0.17143 0.33517 0.73947 0.04700
C 	C 	0.18973 0.30897 0.77577 -0.02900
C 	C 	0.23283 0.31837 0.68867 -0.02800
H 	H 	0.24103 0.34797 0.59017 0.03600
C 	C 	0.25743 0.40527 0.73337 -0.53000
N 	N 	0.28723 0.44157 0.62667 -0.22000
H 	H 	0.26343 0.36777 0.34417 0.01500
C 	C 	0.30263 0.39047 0.40567 -0.03400
C 	C 	0.33083 0.44197 0.36247 -0.02700
H 	H 	0.31233 0.45427 0.26757 0.03700
H 	H 	0.29403 0.38497 0.14717 0.05100
C 	C 	0.28193 0.37047 0.02337 -0.02000
C 	C 	0.24223 0.37847 0.97207 -0.02500
H 	H 	0.22523 0.39407 0.05947 0.03300
C 	C 	0.29253 0.46157 0.09017 -0.50000
N 	N 	0.26523 0.48517 0.14787 -0.21400
H 	H 	0.15213 0.38817 0.14907 0.01200
C 	C 	0.17033 0.42567 0.07487 -0.04400
C 	C 	0.17383 0.46927 0.14327 -0.04300
H 	H 	0.15613 0.46137 0.26537 0.02400
H 	H 	0.09163 0.38627 0.18047 0.05300
C 	C 	0.04893 0.35887 0.23267 -0.01100
C 	C 	0.04663 0.35057 0.38967 -0.03000
H 	H 	0.08953 0.36967 0.44367 0.03700
C 	C 	0.10983 0.44057 0.41567 -0.50200
N 	N 	0.14953 0.45507 0.52237 -0.22000
H 	H 	0.31053 0.46997 0.53587 -0.01300
H 	H 	0.24283 0.50347 0.19997 -0.02400
H 	H 	0.18323 0.46947 0.60077 -0.02300
H 	H 	0.17563 0.43267 0.76647 0.01700
C 	C 	0.13833 0.40227 0.70367 -0.04700
H 	H 	0.10613 0.36717 0.63117 0.03300
H 	H 	0.17593 0.29847 0.82167 0.03400
C 	C 	0.21303 0.30347 0.75697 -0.05700
H 	H 	0.24913 0.31497 0.67677 0.02900
H 	H 	0.27633 0.41737 0.76517 0.12200
H 	H 	0.24103 0.40637 0.76307 0.16200
H 	H 	0.25273 0.38427 0.73137 0.17800
Ag	Ag	0.32120 0.46310 0.72759 0.48600
H 	H 	0.30043 0.37407 0.44027 0.03300
C 	C 	0.32853 0.41947 0.41247 -0.05200
H 	H 	0.34793 0.46147 0.36907 0.02800
H 	H 	0.29603 0.36387 0.01407 0.03100
C 	C 	0.26223 0.36847 0.95857 -0.07300
H 	H 	0.22983 0.37827 0.92577 0.02100
H 	H 	0.30103 0.47977 0.05437 0.11200
H 	H 	0.30873 0.46107 0.12287 0.16000
H 	H 	0.28253 0.44367 0.05267 0.15600
Ag	Ag	0.28411 0.51980 0.04036 0.42500
H 	H 	0.17363 0.41677 0.02497 0.03300
C 	C 	0.17873 0.45647 0.07497 -0.04200
H 	H 	0.17973 0.49007 0.14187 0.01000
H 	H 	0.03843 0.35487 0.17897 0.02500
C 	C 	0.03353 0.34747 0.30167 -0.06600
H 	H 	0.03463 0.34197 0.44027 0.02900
H 	H 	0.10473 0.45237 0.45537 0.12300
H 	H 	0.11443 0.45007 0.35807 0.15700
H 	H 	0.09273 0.41987 0.41117 0.16900
H 	H 	0.12563 0.40957 0.72477 0.02200
H 	H 	0.21543 0.28927 0.79097 0.04100
H 	H 	0.34423 0.42317 0.45227 0.03500
H 	H 	0.26253 0.35987 0.90397 0.04200
H 	H 	0.18823 0.46837 0.02497 0.01300
H 	H 	0.01223 0.33627 0.29677 0.04200
Au	Au	0.31654 0.16691 0.79084 0.19700
Au	Au	0.30082 0.17558 0.60959 0.19400
Au	Au	0.30307 0.11972 0.65832 0.19700
Ag	Ag	0.25725 0.13172 0.72030 0.46400
P 	P 	0.29614 0.16379 0.92340 0.01700
P 	P 	0.26434 0.18405 0.55580 0.01300
P 	P 	0.26792 0.07008 0.64910 0.01700
N 	N 	0.24750 0.15660 0.83640 -0.15800
N 	N 	0.22450 0.12670 0.60350 -0.15900
N 	N 	0.23860 0.08200 0.77180 -0.16000
C 	C 	0.28420 0.12750 0.97150 -0.04200
C 	C 	0.32230 0.19440 0.99170 -0.02100
C 	C 	0.26110 0.16620 0.91320 -0.06400
C 	C 	0.25700 0.20790 0.62780 -0.02600
C 	C 	0.27560 0.20130 0.45030 -0.01600
C 	C 	0.22780 0.14830 0.54510 -0.06500
C 	C 	0.24460 0.06280 0.55440 -0.03200
C 	C 	0.28640 0.04750 0.64800 -0.01400
C 	C 	0.24190 0.05890 0.74150 -0.06200
C 	C 	0.22300 0.15850 0.82280 -0.02500
C 	C 	0.20060 0.09980 0.60120 -0.01700
C 	C 	0.22200 0.07740 0.84050 -0.02500
C 	C 	0.26040 0.11380 0.02920 -0.03500
C 	C 	0.29920 0.11210 0.94950 -0.04300
C 	C 	0.33620 0.18960 0.05900 -0.06500
C 	C 	0.32830 0.22330 0.97200 -0.08300
C 	C 	0.24970 0.17700 0.97830 0.17000
C 	C 	0.27990 0.22780 0.68130 -0.05600
C 	C 	0.22870 0.20510 0.63640 -0.05600
C 	C 	0.28420 0.23110 0.43560 -0.07300
C 	C 	0.27820 0.18500 0.38330 -0.08500
C 	C 	0.20510 0.14180 0.48520 0.16000
C 	C 	0.25780 0.08180 0.48090 -0.05200
C 	C 	0.21450 0.04110 0.55040 -0.05200
C 	C 	0.28960 0.03680 0.56500 -0.08200
C 	C 	0.29930 0.04480 0.72400 -0.07900
C 	C 	0.22690 0.03050 0.78300 0.15800
H 	H 	0.21200 0.15100 0.77000 0.01200
C 	C 	0.21310 0.17100 0.88350 0.01800
H 	H 	0.19790 0.08520 0.64370 0.00700
C 	C 	0.17960 0.09280 0.53750 0.00600
H 	H 	0.21890 0.09310 0.86170 0.01100
C 	C 	0.20870 0.04970 0.88310 0.02300
H 	H 	0.25050 0.12440 0.04750 0.02200
C 	C 	0.25070 0.08520 0.06080 -0.05200
C 	C 	0.28940 0.08290 0.98090 -0.05500
H 	H 	0.31630 0.12140 0.91250 0.01000
H 	H 	0.33150 0.16960 0.07280 0.04600
C 	C 	0.35770 0.21410 0.10910 -0.02900
C 	C 	0.34830 0.24780 0.02200 -0.02100
H 	H 	0.31870 0.22640 0.92350 0.03700
C 	C 	0.26140 0.18550 0.06670 -0.52100
N 	N 	0.22510 0.17900 0.96000 -0.22000
H 	H 	0.29890 0.22900 0.67750 0.01500
C 	C 	0.27620 0.24550 0.73900 -0.03400
C 	C 	0.22470 0.22220 0.69580 -0.02700
H 	H 	0.21240 0.19140 0.60090 0.03700
H 	H 	0.28170 0.24240 0.48050 0.05100
C 	C 	0.29620 0.24480 0.35670 -0.02500
C 	C 	0.28820 0.19710 0.30540 -0.01900
H 	H 	0.27260 0.16450 0.39280 0.03500
C 	C 	0.20510 0.16430 0.42350 -0.49800
N 	N 	0.18150 0.11340 0.48120 -0.21400
H 	H 	0.27850 0.09730 0.48240 0.01200
C 	C 	0.24100 0.07800 0.40820 -0.04400
C 	C 	0.19740 0.03790 0.47660 -0.04300
H 	H 	0.20530 0.02810 0.59870 0.02400
H 	H 	0.28040 0.03870 0.51380 0.05300
C 	C 	0.30780 0.02340 0.56600 -0.01100
C 	C 	0.31610 0.02940 0.72300 -0.03000
H 	H 	0.29700 0.05320 0.77700 0.03700
C 	C 	0.22610 0.00260 0.74900 -0.50000
N 	N 	0.21160 0.02780 0.85570 -0.22000
H 	H 	0.19670 0.17390 0.86920 -0.01400
H 	H 	0.16320 0.07270 0.53330 -0.02400
H 	H 	0.19720 0.04710 0.93410 -0.02400
H 	H 	0.23400 0.07630 0.09980 0.02300
C 	C 	0.26440 0.06940 0.03700 -0.03000
H 	H 	0.29950 0.07230 0.96450 0.03700
H 	H 	0.36820 0.21080 0.15500 0.03500
C 	C 	0.36320 0.24290 0.09030 -0.05800
H 	H 	0.35170 0.26750 0.01010 0.02900
H 	H 	0.24930 0.19230 0.09850 0.12100
H 	H 	0.26030 0.16800 0.09640 0.16000
H 	H 	0.28240 0.20180 0.06470 0.17700
Ag	Ag	0.20357 0.19144 0.06092 0.48700
H 	H 	0.29260 0.25970 0.77360 0.03200
C 	C 	0.24720 0.24240 0.74580 -0.05200
H 	H 	0.20520 0.21980 0.70240 0.02800
H 	H 	0.30280 0.26550 0.34740 0.03100
C 	C 	0.29820 0.22710 0.29190 -0.06900
H 	H 	0.28840 0.18490 0.25910 0.02000
H 	H 	0.18690 0.15460 0.38770 0.11100
H 	H 	0.20560 0.18100 0.45620 0.15900
H 	H 	0.22300 0.17220 0.38600 0.15500
Ag	Ag	0.14687 0.09765 0.37369 0.42500
H 	H 	0.24990 0.09020 0.35830 0.03200
C 	C 	0.21020 0.05560 0.40830 -0.04200
H 	H 	0.17660 0.02300 0.47520 0.01000
H 	H 	0.31180 0.01690 0.51230 0.02400
C 	C 	0.31920 0.01940 0.63500 -0.06600
H 	H 	0.32470 0.02600 0.77360 0.02900
H 	H 	0.21430 0.98570 0.78870 0.12200
H 	H 	0.21660 0.99770 0.69140 0.15600
H 	H 	0.24680 0.00620 0.74450 0.16800
H 	H 	0.25710 0.04940 0.05810 0.01800
H 	H 	0.37740 0.25950 0.12430 0.04200
H 	H 	0.24350 0.25440 0.78560 0.03400
H 	H 	0.30680 0.23600 0.23730 0.04100
H 	H 	0.19830 0.05320 0.35830 0.01200
H 	H 	0.33040 0.00930 0.63010 0.04200
Au	Au	0.98321 0.50025 0.12417 0.19800
Au	Au	0.96749 0.50892 0.94292 0.19100
Au	Au	0.96973 0.45306 0.99165 0.19400
Ag	Ag	0.92392 0.46505 0.05363 0.46700
P 	P 	0.96281 0.49712 0.25673 0.01500
P 	P 	0.93101 0.51738 0.88913 0.01300
P 	P 	0.93459 0.40341 0.98243 0.01400
N 	N 	0.91417 0.48993 0.16973 -0.15800
N 	N 	0.89117 0.46003 0.93683 -0.16000
N 	N 	0.90527 0.41533 0.10513 -0.16000
C 	C 	0.95087 0.46083 0.30483 -0.03100
C 	C 	0.98897 0.52773 0.32503 -0.01800
C 	C 	0.92777 0.49953 0.24653 -0.06500
C 	C 	0.92367 0.54123 0.96113 -0.02800
C 	C 	0.94227 0.53463 0.78363 -0.01600
C 	C 	0.89447 0.48163 0.87843 -0.06500
C 	C 	0.91127 0.39613 0.88773 -0.03200
C 	C 	0.95307 0.38083 0.98133 -0.01800
C 	C 	0.90857 0.39223 0.07483 -0.05900
C 	C 	0.88967 0.49183 0.15613 -0.02500
C 	C 	0.86727 0.43313 0.93453 -0.01700
C 	C 	0.88867 0.41073 0.17383 -0.02500
C 	C 	0.92707 0.44713 0.36253 -0.05000
C 	C 	0.96587 0.44543 0.28283 -0.05400
C 	C 	0.00287 0.52293 0.39233 -0.07000
C 	C 	0.99497 0.55663 0.30533 -0.07800
C 	C 	0.91637 0.51033 0.31163 0.17600
C 	C 	0.94657 0.56113 0.01463 -0.05100
C 	C 	0.89537 0.53843 0.96973 -0.06400
C 	C 	0.95087 0.56443 0.76893 -0.07300
C 	C 	0.94487 0.51833 0.71663 -0.08500
C 	C 	0.87177 0.47513 0.81853 0.15900
C 	C 	0.92447 0.41513 0.81423 -0.05200
C 	C 	0.88117 0.37443 0.88373 -0.05100
C 	C 	0.95627 0.37013 0.89833 -0.08200
C 	C 	0.96597 0.37813 0.05733 -0.07500
C 	C 	0.89357 0.36383 0.11633 0.16000
H 	H 	0.87867 0.48433 0.10333 0.01400
C 	C 	0.87977 0.50433 0.21683 0.01900
H 	H 	0.86457 0.41853 0.97703 0.00600
C 	C 	0.84627 0.42613 0.87083 0.00600
H 	H 	0.88557 0.42643 0.19503 0.01100
C 	C 	0.87537 0.38303 0.21643 0.02300
H 	H 	0.91717 0.45773 0.38083 0.02600
C 	C 	0.91737 0.41853 0.39413 -0.03900
C 	C 	0.95607 0.41623 0.31423 -0.03900
H 	H 	0.98297 0.45473 0.24583 0.01400
H 	H 	0.99817 0.50293 0.40613 0.04600
C 	C 	0.02437 0.54743 0.44243 -0.02900
C 	C 	0.01497 0.58113 0.35533 -0.02700
H 	H 	0.98537 0.55973 0.25683 0.03600
C 	C 	0.92807 0.51883 0.40003 -0.53000
N 	N 	0.89177 0.51233 0.29333 -0.22000
H 	H 	0.96557 0.56233 0.01083 0.01500
C 	C 	0.94287 0.57883 0.07233 -0.03300
C 	C 	0.89137 0.55553 0.02913 -0.01800
H 	H 	0.87907 0.52473 0.93423 0.03900
H 	H 	0.94837 0.57573 0.81383 0.05000
C 	C 	0.96287 0.57813 0.69003 -0.02500
C 	C 	0.95487 0.53043 0.63873 -0.01900
H 	H 	0.93927 0.49783 0.72613 0.03400
C 	C 	0.87177 0.49763 0.75683 -0.49800
N 	N 	0.84817 0.44673 0.81453 -0.21400
H 	H 	0.94517 0.43063 0.81573 0.01200
C 	C 	0.90767 0.41133 0.74153 -0.04500
C 	C 	0.86407 0.37123 0.80993 -0.04400
H 	H 	0.87197 0.36143 0.93203 0.02300
H 	H 	0.94707 0.37203 0.84713 0.05300
C 	C 	0.97447 0.35673 0.89933 -0.00900
C 	C 	0.98277 0.36273 0.05633 -0.02500
H 	H 	0.96367 0.38653 0.11033 0.03600
C 	C 	0.89277 0.33593 0.08233 -0.50400
N 	N 	0.87827 0.36113 0.18903 -0.22000
H 	H 	0.86337 0.50723 0.20253 -0.01300
H 	H 	0.82987 0.40603 0.86663 -0.02400
H 	H 	0.86387 0.38043 0.26743 -0.02300
H 	H 	0.90067 0.40963 0.43313 0.01800
C 	C 	0.93107 0.40273 0.37033 -0.04700
H 	H 	0.96617 0.40563 0.29783 0.03300
H 	H 	0.03487 0.54413 0.48833 0.03400
C 	C 	0.02987 0.57623 0.42363 -0.05600
H 	H 	0.01837 0.60083 0.34343 0.02900
H 	H 	0.91597 0.52563 0.43183 0.12300
H 	H 	0.92697 0.50133 0.42973 0.16200
H 	H 	0.94907 0.53513 0.39803 0.17800
Ag	Ag	0.87024 0.52477 0.39425 0.48600
H 	H 	0.95927 0.59303 0.10693 0.03300
C 	C 	0.91387 0.57573 0.07913 -0.05500
H 	H 	0.87187 0.55313 0.03573 0.02700
H 	H 	0.96947 0.59883 0.68073 0.03100
C 	C 	0.96487 0.56043 0.62523 -0.06900
H 	H 	0.95507 0.51823 0.59243 0.02000
H 	H 	0.85357 0.48793 0.72103 0.11100
H 	H 	0.87227 0.51433 0.78953 0.15900
H 	H 	0.88967 0.50553 0.71933 0.15500
Ag	Ag	0.81354 0.43098 0.70702 0.42400
H 	H 	0.91657 0.42353 0.69163 0.03200
C 	C 	0.87687 0.38893 0.74163 -0.04200
H 	H 	0.84327 0.35633 0.80853 0.01000
H 	H 	0.97847 0.35023 0.84563 0.02300
C 	C 	0.98587 0.35273 0.96833 -0.07200
H 	H 	0.99137 0.35933 0.10693 0.02800
H 	H 	0.88097 0.31903 0.12203 0.12400
H 	H 	0.88327 0.33103 0.02473 0.16000
H 	H 	0.91347 0.33953 0.07783 0.17000
H 	H 	0.92377 0.38273 0.39143 0.02200
H 	H 	0.04407 0.59283 0.45763 0.04100
H 	H 	0.91017 0.58773 0.11893 0.03600
H 	H 	0.97347 0.56933 0.57063 0.04100
H 	H 	0.86497 0.38653 0.69163 0.01200
H 	H 	0.99707 0.34263 0.96343 0.04300
Au	Au	0.64988 0.83358 0.45751 0.19700
Au	Au	0.63415 0.84225 0.27626 0.19400
Au	Au	0.63640 0.78639 0.32499 0.19700
Ag	Ag	0.59058 0.79839 0.38697 0.46400
P 	P 	0.62947 0.83046 0.59007 0.01500
P 	P 	0.59767 0.85072 0.22247 0.01400
P 	P 	0.60125 0.73675 0.31577 0.01700
N 	N 	0.58083 0.82327 0.50307 -0.15800
N 	N 	0.55783 0.79337 0.27017 -0.15900
N 	N 	0.57193 0.74867 0.43847 -0.16000
C 	C 	0.61753 0.79417 0.63817 -0.03100
C 	C 	0.65563 0.86107 0.65837 -0.01700
C 	C 	0.59443 0.83287 0.57987 -0.06500
C 	C 	0.59033 0.87457 0.29447 -0.02600
C 	C 	0.60893 0.86797 0.11697 -0.01700
C 	C 	0.56113 0.81497 0.21177 -0.06500
C 	C 	0.57793 0.72947 0.22107 -0.03200
C 	C 	0.61973 0.71417 0.31467 -0.01400
C 	C 	0.57523 0.72557 0.40817 -0.06200
C 	C 	0.55633 0.82517 0.48947 -0.02500
C 	C 	0.53393 0.76647 0.26787 -0.01700
C 	C 	0.55533 0.74407 0.50717 -0.02500
C 	C 	0.59373 0.78047 0.69587 -0.05000
C 	C 	0.63253 0.77877 0.61617 -0.05400
C 	C 	0.66953 0.85627 0.72567 -0.07200
C 	C 	0.66163 0.88997 0.63867 -0.07800
C 	C 	0.58303 0.84367 0.64497 0.17600
C 	C 	0.61323 0.89447 0.34797 -0.05600
C 	C 	0.56203 0.87177 0.30307 -0.05600
C 	C 	0.61753 0.89777 0.10227 -0.07400
C 	C 	0.61153 0.85167 0.04997 -0.07800
C 	C 	0.53843 0.80847 0.15187 0.16000
C 	C 	0.59113 0.74847 0.14757 -0.05100
C 	C 	0.54783 0.70777 0.21707 -0.05100
C 	C 	0.62293 0.70347 0.23167 -0.08200
C 	C 	0.63263 0.71147 0.39067 -0.07900
C 	C 	0.56023 0.69717 0.44967 0.15900
H 	H 	0.54533 0.81767 0.43667 0.01200
C 	C 	0.54643 0.83767 0.55017 0.01900
H 	H 	0.53123 0.75187 0.31037 0.00700
C 	C 	0.51293 0.75947 0.20417 0.00600
H 	H 	0.55223 0.75977 0.52837 0.01100
C 	C 	0.54203 0.71637 0.54977 0.02300
H 	H 	0.58383 0.79107 0.71417 0.02500
C 	C 	0.58403 0.75187 0.72747 -0.03900
C 	C 	0.62273 0.74957 0.64757 -0.03900
H 	H 	0.64963 0.78807 0.57917 0.01400
H 	H 	0.66483 0.83627 0.73947 0.04700
C 	C 	0.69103 0.88077 0.77577 -0.02900
C 	C 	0.68163 0.91447 0.68867 -0.02800
H 	H 	0.65203 0.89307 0.59017 0.03600
C 	C 	0.59473 0.85217 0.73337 -0.53000
N 	N 	0.55843 0.84567 0.62667 -0.22000
H 	H 	0.63223 0.89567 0.34417 0.01500
C 	C 	0.60953 0.91217 0.40567 -0.03400
C 	C 	0.55803 0.88887 0.36247 -0.02700
H 	H 	0.54573 0.85807 0.26757 0.03700
H 	H 	0.61503 0.90907 0.14717 0.05100
C 	C 	0.62953 0.91147 0.02337 -0.02000
C 	C 	0.62153 0.86377 0.97207 -0.02500
H 	H 	0.60593 0.83117 0.05947 0.03300
C 	C 	0.53843 0.83097 0.09017 -0.50000
N 	N 	0.51483 0.78007 0.14787 -0.21400
H 	H 	0.61183 0.76397 0.14907 0.01200
C 	C 	0.57433 0.74467 0.07487 -0.04400
C 	C 	0.53073 0.70457 0.14327 -0.04300
H 	H 	0.53863 0.69477 0.26537 0.02400
H 	H 	0.61373 0.70537 0.18047 0.05300
C 	C 	0.64113 0.69007 0.23267 -0.01100
C 	C 	0.64943 0.69607 0.38967 -0.03000
H 	H 	0.63033 0.71987 0.44367 0.03700
C 	C 	0.55943 0.66927 0.41567 -0.50200
N 	N 	0.54493 0.69447 0.52237 -0.22000
H 	H 	0.53003 0.84057 0.53587 -0.01300
H 	H 	0.49653 0.73937 0.19997 -0.02400
H 	H 	0.53053 0.71377 0.60077 -0.02300
H 	H 	0.56733 0.74297 0.76647 0.01700
C 	C 	0.59773 0.73607 0.70367 -0.04700
H 	H 	0.63283 0.73897 0.63117 0.03300
H 	H 	0.70153 0.87747 0.82167 0.03400
C 	C 	0.69653 0.90957 0.75697 -0.05700
H 	H 	0.68503 0.93417 0.67677 0.02900
H 	H 	0.58263 0.85897 0.76517 0.12200
H 	H 	0.59363 0.83467 0.76307 0.16200
H 	H 	0.61573 0.86847 0.73137 0.17800
Ag	Ag	0.53690 0.85811 0.72759 0.48600
H 	H 	0.62593 0.92637 0.44027 0.03300
C 	C 	0.58053 0.90907 0.41247 -0.05200
H 	H 	0.53853 0.88647 0.36907 0.02800
H 	H 	0.63613 0.93217 0.01407 0.03100
C 	C 	0.63153 0.89377 0.95857 -0.07300
H 	H 	0.62173 0.85157 0.92577 0.02100
H 	H 	0.52023 0.82127 0.05437 0.11200
H 	H 	0.53893 0.84767 0.12287 0.16000
H 	H 	0.55633 0.83887 0.05267 0.15600
Ag	Ag	0.48020 0.76432 0.04036 0.42500
H 	H 	0.58323 0.75687 0.02497 0.03300
C 	C 	0.54353 0.72227 0.07497 -0.04200
H 	H 	0.50993 0.68967 0.14187 0.01000
H 	H 	0.64513 0.68357 0.17897 0.02500
C 	C 	0.65253 0.68607 0.30167 -0.06600
H 	H 	0.65803 0.69267 0.44027 0.02900
H 	H 	0.54763 0.65237 0.45537 0.12300
H 	H 	0.54993 0.66437 0.35807 0.15700
H 	H 	0.58013 0.67287 0.41117 0.16900
H 	H 	0.59043 0.71607 0.72477 0.02200
H 	H 	0.71073 0.92617 0.79097 0.04100
H 	H 	0.57683 0.92107 0.45227 0.03500
H 	H 	0.64013 0.90267 0.90397 0.04200
H 	H 	0.53163 0.71987 0.02497 0.01300
H 	H 	0.66373 0.67597 0.29677 0.04200
C 	C 	0.16667 0.83333 0.33333 -0.43100
C 	C 	0.16667 0.33333 0.33333 -0.43100
C 	C 	0.66667 0.83333 0.33333 -0.43100
C 	C 	0.83333 0.16667 0.66667 -0.43100
C 	C 	0.50000 0.50000 -0.00000 -0.42700
C 	C 	0.83333 0.66667 0.66667 -0.43100
C 	C 	0.50000 0.00000 -0.00000 -0.42600
C 	C 	0.33333 0.16667 0.66667 -0.43100
C 	C 	0.00000 0.50000 -0.00000 -0.42600
