data_crystal

_cell_length_a 6.82000
_cell_length_b 16.49300
_cell_length_c 22.22000
_cell_angle_alpha 90.00000
_cell_angle_beta  90.00000
_cell_angle_gamma 90.00000

_symmetry_space_group_name_	'P 1'
_symmetry_space_group_name_H-M	'P 1'

loop_
_symmetry_equiv_pos_as_xyz
  x,y,z

loop_
_atom_site_label
_atom_site_type_symbol
_atom_site_fract_x
_atom_site_fract_y
_atom_site_fract_z
_atom_site_charge
Sr	Sr	0.04403 0.05797 0.91306 1.49100
Sr	Sr	0.45597 0.44203 0.41306 1.50500
Sr	Sr	0.04403 0.94203 0.58694 1.52000
Sr	Sr	0.45597 0.55797 0.08694 1.50600
Sr	Sr	0.95597 0.94203 0.08694 1.52000
Sr	Sr	0.54403 0.55797 0.58694 1.50700
Sr	Sr	0.95597 0.05797 0.41306 1.49100
Sr	Sr	0.54403 0.44203 0.91306 1.50700
Sr	Sr	0.24167 0.00000 0.75000 1.49600
Sr	Sr	0.25833 0.50000 0.25000 1.51300
Sr	Sr	0.75833 0.00000 0.25000 1.49600
Sr	Sr	0.74167 0.50000 0.75000 1.51300
H 	H 	0.46660 0.75290 0.90940 0.02500
H 	H 	0.29950 0.66230 0.74970 0.00500
H 	H 	0.29500 0.03100 0.02600 0.30400
H 	H 	0.30500 0.96700 0.99240 0.38600
H 	H 	0.03340 0.74710 0.40940 0.02600
H 	H 	0.20050 0.83770 0.24970 0.01700
H 	H 	0.20500 0.46900 0.52600 0.43900
H 	H 	0.19500 0.53300 0.49240 0.43900
H 	H 	0.46660 0.24710 0.59060 0.02000
H 	H 	0.29950 0.33770 0.75030 0.00200
H 	H 	0.29500 0.96900 0.47400 0.57600
H 	H 	0.30500 0.03300 0.50760 0.49700
H 	H 	0.03340 0.25290 0.09060 0.02000
H 	H 	0.20050 0.16230 0.25030 -0.00500
H 	H 	0.20500 0.53100 0.97400 0.43500
H 	H 	0.19500 0.46700 0.00760 0.43000
H 	H 	0.53340 0.24710 0.09060 0.01900
H 	H 	0.70050 0.33770 0.25030 0.00200
H 	H 	0.70500 0.96900 0.97400 0.56600
H 	H 	0.69500 0.03300 0.00760 0.48100
H 	H 	0.96660 0.25290 0.59060 0.02000
H 	H 	0.79950 0.16230 0.75030 -0.00400
H 	H 	0.79500 0.53100 0.47400 0.43900
H 	H 	0.80500 0.46700 0.50760 0.43800
H 	H 	0.53340 0.75290 0.40940 0.02500
H 	H 	0.70050 0.66230 0.24970 0.00500
H 	H 	0.70500 0.03100 0.52600 0.30300
H 	H 	0.69500 0.96700 0.49240 0.38100
H 	H 	0.96660 0.74710 0.90940 0.02700
H 	H 	0.79950 0.83770 0.74970 0.01700
H 	H 	0.79500 0.46900 0.02600 0.44200
H 	H 	0.80500 0.53300 0.99240 0.45100
C 	C 	0.38780 0.83640 0.84760 -0.05900
C 	C 	0.42330 0.75960 0.87010 0.03300
C 	C 	0.29080 0.78470 0.75590 -0.06900
C 	C 	0.20810 0.80370 0.69400 0.36500
C 	C 	0.39370 0.69290 0.83350 -0.11400
C 	C 	0.44140 0.60840 0.85520 0.34500
C 	C 	0.41620 0.91090 0.88720 0.32900
C 	C 	0.32370 0.70590 0.77520 0.03700
C 	C 	0.11220 0.66360 0.34760 -0.06100
C 	C 	0.07670 0.74040 0.37010 0.03200
C 	C 	0.20920 0.71530 0.25590 -0.06700
C 	C 	0.29190 0.69630 0.19400 0.36800
C 	C 	0.10630 0.80710 0.33350 -0.10400
C 	C 	0.05860 0.89160 0.35520 0.33700
C 	C 	0.08380 0.58910 0.38720 0.33600
C 	C 	0.17630 0.79410 0.27520 0.03400
C 	C 	0.38780 0.16360 0.65240 -0.07200
C 	C 	0.42330 0.24040 0.62990 0.04200
C 	C 	0.29080 0.21530 0.74410 -0.08100
C 	C 	0.20810 0.19630 0.80600 0.37500
C 	C 	0.39370 0.30710 0.66650 -0.12000
C 	C 	0.44140 0.39160 0.64480 0.34800
C 	C 	0.41620 0.08910 0.61280 0.34200
C 	C 	0.32370 0.29410 0.72480 0.04500
C 	C 	0.11220 0.33640 0.15240 -0.06600
C 	C 	0.07670 0.25960 0.12990 0.04500
C 	C 	0.20920 0.28470 0.24410 -0.07700
C 	C 	0.29190 0.30370 0.30600 0.37400
C 	C 	0.10630 0.19290 0.16650 -0.12400
C 	C 	0.05860 0.10840 0.14480 0.35800
C 	C 	0.08380 0.41090 0.11280 0.33800
C 	C 	0.17630 0.20590 0.22480 0.05000
C 	C 	0.61220 0.16360 0.15240 -0.07300
C 	C 	0.57670 0.24040 0.12990 0.04200
C 	C 	0.70920 0.21530 0.24410 -0.08200
C 	C 	0.79190 0.19630 0.30600 0.37500
C 	C 	0.60630 0.30710 0.16650 -0.12100
C 	C 	0.55860 0.39160 0.14480 0.34800
C 	C 	0.58380 0.08910 0.11280 0.34200
C 	C 	0.67630 0.29410 0.22480 0.04500
C 	C 	0.88780 0.33640 0.65240 -0.06600
C 	C 	0.92330 0.25960 0.62990 0.04400
C 	C 	0.79080 0.28470 0.74410 -0.07700
C 	C 	0.70810 0.30370 0.80600 0.37400
C 	C 	0.89370 0.19290 0.66650 -0.12300
C 	C 	0.94140 0.10840 0.64480 0.35700
C 	C 	0.91620 0.41090 0.61280 0.33800
C 	C 	0.82370 0.20590 0.72480 0.05000
C 	C 	0.61220 0.83640 0.34760 -0.05900
C 	C 	0.57670 0.75960 0.37010 0.03400
C 	C 	0.70920 0.78470 0.25590 -0.07000
C 	C 	0.79190 0.80370 0.19400 0.36500
C 	C 	0.60630 0.69290 0.33350 -0.11400
C 	C 	0.55860 0.60840 0.35520 0.34600
C 	C 	0.58380 0.91090 0.38720 0.33000
C 	C 	0.67630 0.70590 0.27520 0.03800
C 	C 	0.88780 0.66360 0.84760 -0.06000
C 	C 	0.92330 0.74040 0.87010 0.03200
C 	C 	0.79080 0.71530 0.75590 -0.06700
C 	C 	0.70810 0.69630 0.69400 0.36800
C 	C 	0.89370 0.80710 0.83350 -0.10400
C 	C 	0.94140 0.89160 0.85520 0.33700
C 	C 	0.91620 0.58910 0.88720 0.33500
C 	C 	0.82370 0.79410 0.77520 0.03400
N 	N 	0.32380 0.84930 0.79123 -0.15700
N 	N 	0.17620 0.65070 0.29123 -0.16200
N 	N 	0.32380 0.15070 0.70877 -0.16500
N 	N 	0.17620 0.34930 0.20877 -0.15900
N 	N 	0.67620 0.15070 0.20877 -0.16500
N 	N 	0.82380 0.34930 0.70877 -0.16000
N 	N 	0.67620 0.84930 0.29123 -0.15700
N 	N 	0.82380 0.65070 0.79123 -0.16200
O 	O 	0.36350 0.97840 0.86512 -0.47500
O 	O 	0.16790 0.87710 0.68346 -0.55300
O 	O 	0.48150 0.60000 0.91023 -0.41600
O 	O 	0.22870 0.99870 0.00723 -0.91400
O 	O 	0.44420 0.55080 0.81828 -0.50100
O 	O 	0.48260 0.90040 0.93846 -0.37200
O 	O 	0.18230 0.74790 0.65833 -0.36600
O 	O 	0.13650 0.52160 0.36512 -0.51200
O 	O 	0.33210 0.62290 0.18346 -0.58000
O 	O 	0.01850 0.90000 0.41023 -0.39800
O 	O 	0.27130 0.50130 0.50723 -1.11900
O 	O 	0.05580 0.94920 0.31828 -0.46000
O 	O 	0.01740 0.59960 0.43846 -0.38400
O 	O 	0.31770 0.75210 0.15833 -0.36100
O 	O 	0.36350 0.02160 0.63488 -0.54900
O 	O 	0.16790 0.12290 0.81654 -0.61000
O 	O 	0.48150 0.40000 0.58977 -0.41800
O 	O 	0.22870 0.00130 0.49277 -1.33200
O 	O 	0.44420 0.44920 0.68172 -0.50100
O 	O 	0.48260 0.09960 0.56154 -0.39700
O 	O 	0.18230 0.25210 0.84167 -0.37700
O 	O 	0.13650 0.47840 0.13488 -0.51300
O 	O 	0.33210 0.37710 0.31654 -0.58200
O 	O 	0.01850 0.10000 0.08977 -0.43300
O 	O 	0.27130 0.49870 0.99277 -1.10700
O 	O 	0.05580 0.05080 0.18172 -0.52900
O 	O 	0.01740 0.40040 0.06154 -0.38600
O 	O 	0.31770 0.24790 0.34167 -0.37700
O 	O 	0.63650 0.02160 0.13488 -0.55100
O 	O 	0.83210 0.12290 0.31654 -0.61100
O 	O 	0.51850 0.40000 0.08977 -0.41900
O 	O 	0.77130 0.00130 0.99277 -1.30500
O 	O 	0.55580 0.44920 0.18172 -0.50200
O 	O 	0.51740 0.09960 0.06154 -0.39800
O 	O 	0.81770 0.25210 0.34167 -0.37800
O 	O 	0.86350 0.47840 0.63488 -0.51300
O 	O 	0.66790 0.37710 0.81654 -0.58100
O 	O 	0.98150 0.10000 0.58977 -0.43200
O 	O 	0.72870 0.49870 0.49277 -1.11900
O 	O 	0.94420 0.05080 0.68172 -0.52900
O 	O 	0.98260 0.40040 0.56154 -0.38600
O 	O 	0.68230 0.24790 0.84167 -0.37600
O 	O 	0.63650 0.97840 0.36512 -0.47500
O 	O 	0.83210 0.87710 0.18346 -0.55300
O 	O 	0.51850 0.60000 0.41023 -0.41700
O 	O 	0.77130 0.99870 0.50723 -0.90700
O 	O 	0.55580 0.55080 0.31828 -0.50100
O 	O 	0.51740 0.90040 0.43846 -0.37400
O 	O 	0.81770 0.74790 0.15833 -0.36700
O 	O 	0.86350 0.52160 0.86512 -0.51100
O 	O 	0.66790 0.62290 0.68346 -0.57900
O 	O 	0.98150 0.90000 0.91023 -0.39800
O 	O 	0.72870 0.50130 0.00723 -1.13700
O 	O 	0.94420 0.94920 0.81828 -0.46000
O 	O 	0.98260 0.59960 0.93846 -0.38200
O 	O 	0.68230 0.75210 0.65833 -0.36000
