data_crystal

_cell_length_a 25.58450
_cell_length_b 24.55970
_cell_length_c 19.05180
_cell_angle_alpha 90.00000
_cell_angle_beta  105.29100
_cell_angle_gamma 90.00000

_symmetry_space_group_name_	'P 1'
_symmetry_space_group_name_H-M	'P 1'

loop_
_symmetry_equiv_pos_as_xyz
  x,y,z

loop_
_atom_site_label
_atom_site_type_symbol
_atom_site_fract_x
_atom_site_fract_y
_atom_site_fract_z
_atom_site_charge
C 	C 	0.19699 0.36695 0.88680 0.12200
C 	C 	0.01590 0.40900 0.70700 0.02700
C 	C 	0.03798 0.33745 0.78722 0.01200
H 	H 	0.02410 0.44590 0.68390 -0.00400
H 	H 	0.06380 0.31050 0.81300 -0.00200
C 	C 	0.96311 0.40909 0.71459 -0.03200
C 	C 	0.98494 0.33753 0.79489 -0.02300
H 	H 	0.94010 0.44010 0.69860 0.01900
H 	H 	0.97600 0.32000 0.83740 0.02000
C 	C 	0.14996 0.25182 0.70217 0.17700
C 	C 	0.35887 0.42092 0.91794 0.06500
H 	H 	0.34630 0.38700 0.93110 -0.01300
C 	C 	0.15730 0.54806 0.75430 0.38000
C 	C 	0.10872 0.37268 0.56500 0.19700
C 	C 	0.17112 0.48828 0.76010 0.19600
C 	C 	0.25342 0.22810 0.56460 -0.00100
H 	H 	0.25620 0.21150 0.61050 0.01200
C 	C 	0.32424 0.30622 0.76010 0.19600
C 	C 	0.37560 0.27300 0.78700 0.41700
C 	C 	0.40847 0.44080 0.95930 -0.16600
H 	H 	0.42940 0.42070 0.99960 0.05800
C 	C 	0.48001 0.51350 0.97910 -0.09500
H 	H 	0.48560 0.55120 0.97300 0.03900
C 	C 	0.23384 0.30180 0.48960 -0.00200
H 	H 	0.22250 0.33850 0.48070 0.01100
C 	C 	0.19460 0.35660 0.96500 0.65400
C 	C 	0.39375 0.51930 0.88400 -0.17100
H 	H 	0.40390 0.55450 0.87150 0.05600
C 	C 	0.32320 0.46050 0.60190 0.50800
C 	C 	0.06980 0.39140 0.49380 0.41000
C 	C 	0.34540 0.49651 0.84550 0.07100
H 	H 	0.32310 0.51650 0.80620 -0.01900
C 	C 	0.42360 0.31300 0.80360 -0.69300
H 	H 	0.42150 0.33610 0.76110 0.20800
H 	H 	0.45770 0.29250 0.81510 0.19700
H 	H 	0.42220 0.33570 0.84530 0.22100
C 	C 	0.18870 0.57770 0.82250 -0.67100
H 	H 	0.22770 0.57260 0.82860 0.21100
H 	H 	0.17870 0.56290 0.86490 0.20100
H 	H 	0.18010 0.61660 0.81790 0.19500
C 	C 	0.28943 0.42640 0.64220 0.16600
C 	C 	0.07680 0.36010 0.42960 -0.71600
H 	H 	0.05480 0.37670 0.38480 0.20300
H 	H 	0.06510 0.32230 0.43270 0.21000
H 	H 	0.11500 0.36060 0.42930 0.22500
C 	C 	0.33550 0.51640 0.63490 -0.79200
H 	H 	0.35570 0.51290 0.68610 0.24400
H 	H 	0.30150 0.53590 0.63160 0.22700
H 	H 	0.35730 0.53670 0.60850 0.22900
C 	C 	0.37340 0.24310 0.85230 -0.74400
H 	H 	0.35040 0.21090 0.83860 0.20700
H 	H 	0.35830 0.26670 0.88360 0.22400
H 	H 	0.41010 0.23180 0.87870 0.21000
C 	C 	0.09740 0.55740 0.74500 -0.67700
H 	H 	0.08720 0.54330 0.78760 0.20300
H 	H 	0.07660 0.53850 0.70130 0.20700
H 	H 	0.08960 0.59650 0.74010 0.19000
C 	C 	0.15650 0.40370 0.97870 -0.81200
H 	H 	0.12600 0.40820 0.93550 0.25500
H 	H 	0.17710 0.43780 0.98860 0.23300
H 	H 	0.14280 0.39440 0.02060 0.22800
C 	C 	0.14030 0.19360 0.72770 0.48200
C 	C 	0.37580 0.43020 0.60970 -0.80100
H 	H 	0.39440 0.42620 0.66140 0.24100
H 	H 	0.39890 0.45060 0.58530 0.24400
H 	H 	0.36820 0.39410 0.58740 0.24300
C 	C 	0.24600 0.36420 0.01920 -1.00200
H 	H 	0.27190 0.33670 0.01220 0.28800
H 	H 	0.24050 0.36040 0.06790 0.28400
H 	H 	0.26010 0.40060 0.01390 0.29700
C 	C 	0.08120 0.18090 0.69950 -0.76100
H 	H 	0.05980 0.21160 0.70960 0.23500
H 	H 	0.07250 0.14820 0.72360 0.22200
H 	H 	0.07260 0.17470 0.64690 0.22600
C 	C 	0.14360 0.19520 0.80900 -0.73400
H 	H 	0.10910 0.20840 0.81580 0.22100
H 	H 	0.17280 0.21980 0.83360 0.21400
H 	H 	0.15090 0.15860 0.82950 0.20800
C 	C 	0.29480 0.46500 0.52330 -0.83400
H 	H 	0.31270 0.49280 0.50080 0.25500
H 	H 	0.25700 0.47540 0.51780 0.24600
H 	H 	0.29610 0.42990 0.49960 0.26100
C 	C 	0.38540 0.23500 0.72750 -0.68100
H 	H 	0.38330 0.25610 0.68320 0.21100
H 	H 	0.35780 0.20640 0.71720 0.20300
H 	H 	0.42140 0.21840 0.74430 0.19000
C 	C 	0.17660 0.56970 0.69030 -0.66100
H 	H 	0.21580 0.56420 0.70000 0.19700
H 	H 	0.16840 0.60860 0.68400 0.18100
H 	H 	0.15810 0.55010 0.64590 0.19100
C 	C 	0.08670 0.45090 0.48460 -0.67400
H 	H 	0.07320 0.47460 0.51740 0.19900
H 	H 	0.07130 0.46250 0.43420 0.19400
H 	H 	0.12630 0.45330 0.49650 0.20100
C 	C 	0.01240 0.38930 0.49930 -0.71200
H 	H 	0.00950 0.40910 0.54280 0.22300
H 	H 	0.00170 0.35120 0.50270 0.20800
H 	H 	0.98840 0.40610 0.45600 0.20200
C 	C 	0.17440 0.15190 0.70660 -0.82300
H 	H 	0.21250 0.15880 0.73150 0.24400
H 	H 	0.16950 0.15310 0.65380 0.25300
H 	H 	0.16400 0.11580 0.72040 0.24100
C 	C 	0.16550 0.30760 0.96620 -1.04200
H 	H 	0.13750 0.30350 0.92010 0.32000
H 	H 	0.14850 0.30740 0.00670 0.29700
H 	H 	0.19120 0.27740 0.97190 0.29200
N 	N 	0.05206 0.37355 0.74158 -0.18600
N 	N 	0.32843 0.44735 0.86100 -0.21500
C 	C 	0.42697 0.49120 0.94040 0.08800
N 	N 	0.23728 0.27981 0.55450 -0.18600
O 	O 	0.15401 0.36285 0.83922 -0.38800
O 	O 	0.13333 0.45380 0.74066 -0.39000
O 	O 	0.24216 0.38046 0.87697 -0.37700
O 	O 	0.09524 0.38197 0.62246 -0.39800
O 	O 	0.22044 0.47616 0.78356 -0.39500
O 	O 	0.31671 0.34362 0.80090 -0.39600
O 	O 	0.18340 0.25812 0.66564 -0.38900
O 	O 	0.12283 0.28851 0.72135 -0.39200
O 	O 	0.29272 0.29424 0.70037 -0.38800
O 	O 	0.26206 0.38765 0.60748 -0.38600
O 	O 	0.20584 0.36854 0.71938 -0.68800
O 	O 	0.15270 0.35118 0.56212 -0.39300
O 	O 	0.29485 0.43759 0.70741 -0.38700
Fe	Fe	0.13459 0.37108 0.72886 1.22300
Fe	Fe	0.26159 0.40516 0.78471 1.22700
Fe	Fe	0.21988 0.32734 0.64172 1.21900
Co	Co	0.86541 0.37108 0.77114 1.20100
Co	Co	0.73841 0.40516 0.71529 1.20500
Co	Co	0.78012 0.32734 0.85828 1.19800
C 	C 	0.69699 0.86695 0.88680 0.12100
C 	C 	0.51590 0.90900 0.70700 0.02700
C 	C 	0.53798 0.83745 0.78722 0.01100
H 	H 	0.52410 0.94590 0.68390 -0.00300
H 	H 	0.56380 0.81050 0.81300 -0.00200
C 	C 	0.46311 0.90909 0.71459 -0.03100
C 	C 	0.48494 0.83753 0.79489 -0.02100
H 	H 	0.44010 0.94010 0.69860 0.01900
H 	H 	0.47600 0.82000 0.83740 0.01900
C 	C 	0.64996 0.75182 0.70217 0.17700
C 	C 	0.85887 0.92092 0.91794 0.06500
H 	H 	0.84630 0.88700 0.93110 -0.01300
C 	C 	0.65730 0.04806 0.75430 0.38000
C 	C 	0.60872 0.87268 0.56500 0.19700
C 	C 	0.67112 0.98828 0.76010 0.19600
C 	C 	0.75342 0.72810 0.56460 -0.00100
H 	H 	0.75620 0.71150 0.61050 0.01200
C 	C 	0.82424 0.80622 0.76010 0.19700
C 	C 	0.87560 0.77300 0.78700 0.41600
C 	C 	0.90847 0.94080 0.95930 -0.16600
H 	H 	0.92940 0.92070 0.99960 0.05700
C 	C 	0.98001 0.01350 0.97910 -0.09500
H 	H 	0.98560 0.05120 0.97300 0.03900
C 	C 	0.73384 0.80180 0.48960 -0.00200
H 	H 	0.72250 0.83850 0.48070 0.01100
C 	C 	0.69460 0.85660 0.96500 0.65900
C 	C 	0.89375 0.01930 0.88400 -0.17000
H 	H 	0.90390 0.05450 0.87150 0.05600
C 	C 	0.82320 0.96050 0.60190 0.50800
C 	C 	0.56980 0.89140 0.49380 0.41000
C 	C 	0.84540 0.99651 0.84550 0.07000
H 	H 	0.82310 0.01650 0.80620 -0.01900
C 	C 	0.92360 0.81300 0.80360 -0.69200
H 	H 	0.92150 0.83610 0.76110 0.20800
H 	H 	0.95770 0.79250 0.81510 0.19700
H 	H 	0.92220 0.83570 0.84530 0.22000
C 	C 	0.68870 0.07770 0.82250 -0.67100
H 	H 	0.72770 0.07260 0.82860 0.21100
H 	H 	0.67870 0.06290 0.86490 0.20000
H 	H 	0.68010 0.11660 0.81790 0.19400
C 	C 	0.78943 0.92640 0.64220 0.16600
C 	C 	0.57680 0.86010 0.42960 -0.71600
H 	H 	0.55480 0.87670 0.38480 0.20300
H 	H 	0.56510 0.82230 0.43270 0.21000
H 	H 	0.61500 0.86060 0.42930 0.22600
C 	C 	0.83550 0.01640 0.63490 -0.79100
H 	H 	0.85570 0.01290 0.68610 0.24400
H 	H 	0.80150 0.03590 0.63160 0.22700
H 	H 	0.85730 0.03670 0.60850 0.22900
C 	C 	0.87340 0.74310 0.85230 -0.74300
H 	H 	0.85040 0.71090 0.83860 0.20700
H 	H 	0.85830 0.76670 0.88360 0.22300
H 	H 	0.91010 0.73180 0.87870 0.20900
C 	C 	0.59740 0.05740 0.74500 -0.67700
H 	H 	0.58720 0.04330 0.78760 0.20200
H 	H 	0.57660 0.03850 0.70130 0.20700
H 	H 	0.58960 0.09650 0.74010 0.18900
C 	C 	0.65650 0.90370 0.97870 -0.82300
H 	H 	0.62600 0.90820 0.93550 0.25700
H 	H 	0.67710 0.93780 0.98860 0.23500
H 	H 	0.64280 0.89440 0.02060 0.23200
C 	C 	0.64030 0.69360 0.72770 0.48100
C 	C 	0.87580 0.93020 0.60970 -0.80000
H 	H 	0.89440 0.92620 0.66140 0.24100
H 	H 	0.89890 0.95060 0.58530 0.24400
H 	H 	0.86820 0.89410 0.58740 0.24300
C 	C 	0.74600 0.86420 0.01920 -1.00500
H 	H 	0.77190 0.83670 0.01220 0.29000
H 	H 	0.74050 0.86040 0.06790 0.28500
H 	H 	0.76010 0.90060 0.01390 0.29800
C 	C 	0.58120 0.68090 0.69950 -0.76000
H 	H 	0.55980 0.71160 0.70960 0.23400
H 	H 	0.57250 0.64820 0.72360 0.22100
H 	H 	0.57260 0.67470 0.64690 0.22600
C 	C 	0.64360 0.69520 0.80900 -0.73200
H 	H 	0.60910 0.70840 0.81580 0.22000
H 	H 	0.67280 0.71980 0.83360 0.21400
H 	H 	0.65090 0.65860 0.82950 0.20700
C 	C 	0.79480 0.96500 0.52330 -0.83300
H 	H 	0.81270 0.99280 0.50080 0.25500
H 	H 	0.75700 0.97540 0.51780 0.24600
H 	H 	0.79610 0.92990 0.49960 0.26100
C 	C 	0.88540 0.73500 0.72750 -0.68100
H 	H 	0.88330 0.75610 0.68320 0.21100
H 	H 	0.85780 0.70640 0.71720 0.20300
H 	H 	0.92140 0.71840 0.74430 0.19000
C 	C 	0.67660 0.06970 0.69030 -0.66100
H 	H 	0.71580 0.06420 0.70000 0.19700
H 	H 	0.66840 0.10860 0.68400 0.18100
H 	H 	0.65810 0.05010 0.64590 0.19000
C 	C 	0.58670 0.95090 0.48460 -0.67400
H 	H 	0.57320 0.97460 0.51740 0.19900
H 	H 	0.57130 0.96250 0.43420 0.19400
H 	H 	0.62630 0.95330 0.49650 0.20100
C 	C 	0.51240 0.88930 0.49930 -0.71200
H 	H 	0.50950 0.90910 0.54280 0.22300
H 	H 	0.50170 0.85120 0.50270 0.20800
H 	H 	0.48840 0.90610 0.45600 0.20200
C 	C 	0.67440 0.65190 0.70660 -0.82200
H 	H 	0.71250 0.65880 0.73150 0.24400
H 	H 	0.66950 0.65310 0.65380 0.25300
H 	H 	0.66400 0.61580 0.72040 0.24100
C 	C 	0.66550 0.80760 0.96620 -1.05400
H 	H 	0.63750 0.80350 0.92010 0.32300
H 	H 	0.64850 0.80740 0.00670 0.30200
H 	H 	0.69120 0.77740 0.97190 0.29500
N 	N 	0.55206 0.87355 0.74158 -0.18500
N 	N 	0.82843 0.94735 0.86100 -0.21500
C 	C 	0.92697 0.99120 0.94040 0.08700
N 	N 	0.73728 0.77981 0.55450 -0.18600
O 	O 	0.65401 0.86285 0.83922 -0.38700
O 	O 	0.63333 0.95380 0.74066 -0.39000
O 	O 	0.74216 0.88046 0.87697 -0.37700
O 	O 	0.59524 0.88197 0.62246 -0.39800
O 	O 	0.72044 0.97616 0.78356 -0.39500
O 	O 	0.81671 0.84362 0.80090 -0.39600
O 	O 	0.68340 0.75812 0.66564 -0.38900
O 	O 	0.62283 0.78851 0.72135 -0.39200
O 	O 	0.79272 0.79424 0.70037 -0.38800
O 	O 	0.76206 0.88765 0.60748 -0.38600
O 	O 	0.70584 0.86854 0.71938 -0.68800
O 	O 	0.65270 0.85118 0.56212 -0.39300
O 	O 	0.79485 0.93759 0.70741 -0.38700
Fe	Fe	0.63459 0.87108 0.72886 1.22300
Fe	Fe	0.76159 0.90516 0.78471 1.22700
Fe	Fe	0.71988 0.82734 0.64172 1.21900
Co	Co	0.36541 0.87108 0.77114 1.20100
Co	Co	0.23841 0.90516 0.71529 1.20500
Co	Co	0.28012 0.82734 0.85828 1.19800
C 	C 	0.80301 0.36695 0.61320 0.12000
C 	C 	0.98410 0.40900 0.79300 0.02500
C 	C 	0.96202 0.33745 0.71278 0.01000
H 	H 	0.97590 0.44590 0.81610 -0.00200
H 	H 	0.93620 0.31050 0.68700 -0.00000
C 	C 	0.03689 0.40909 0.78541 -0.02900
C 	C 	0.01506 0.33753 0.70511 -0.02000
H 	H 	0.05990 0.44010 0.80140 0.01800
H 	H 	0.02400 0.32000 0.66260 0.01800
C 	C 	0.85004 0.25182 0.79783 0.17600
C 	C 	0.64113 0.42092 0.58206 0.06400
H 	H 	0.65370 0.38700 0.56890 -0.01200
C 	C 	0.84270 0.54806 0.74570 0.38200
C 	C 	0.89128 0.37268 0.93500 0.19900
C 	C 	0.82888 0.48828 0.73990 0.19500
C 	C 	0.74658 0.22810 0.93540 -0.00000
H 	H 	0.74380 0.21150 0.88950 0.01300
C 	C 	0.67576 0.30622 0.73990 0.19500
C 	C 	0.62440 0.27300 0.71300 0.41900
C 	C 	0.59153 0.44080 0.54070 -0.16500
H 	H 	0.57060 0.42070 0.50040 0.05700
C 	C 	0.51999 0.51350 0.52090 -0.09500
H 	H 	0.51440 0.55120 0.52700 0.03900
C 	C 	0.76616 0.30180 0.01040 -0.00000
H 	H 	0.77750 0.33850 0.01930 0.01200
C 	C 	0.80540 0.35660 0.53500 0.66200
C 	C 	0.60625 0.51930 0.61600 -0.17000
H 	H 	0.59610 0.55450 0.62850 0.05600
C 	C 	0.67680 0.46050 0.89810 0.51200
C 	C 	0.93020 0.39140 0.00620 0.40000
C 	C 	0.65460 0.49651 0.65450 0.07000
H 	H 	0.67690 0.51650 0.69380 -0.01800
C 	C 	0.57640 0.31300 0.69640 -0.69500
H 	H 	0.57850 0.33610 0.73890 0.20900
H 	H 	0.54230 0.29250 0.68490 0.19800
H 	H 	0.57780 0.33570 0.65470 0.22100
C 	C 	0.81130 0.57770 0.67750 -0.67300
H 	H 	0.77230 0.57260 0.67140 0.21100
H 	H 	0.82130 0.56290 0.63510 0.20100
H 	H 	0.81990 0.61660 0.68210 0.19500
C 	C 	0.71057 0.42640 0.85780 0.16400
C 	C 	0.92320 0.36010 0.07040 -0.70800
H 	H 	0.94520 0.37670 0.11520 0.20100
H 	H 	0.93490 0.32230 0.06730 0.20900
H 	H 	0.88500 0.36060 0.07070 0.22400
C 	C 	0.66450 0.51640 0.86510 -0.79500
H 	H 	0.64430 0.51290 0.81390 0.24500
H 	H 	0.69850 0.53590 0.86840 0.22800
H 	H 	0.64270 0.53670 0.89150 0.23000
C 	C 	0.62660 0.24310 0.64770 -0.74600
H 	H 	0.64960 0.21090 0.66140 0.20800
H 	H 	0.64170 0.26670 0.61640 0.22500
H 	H 	0.58990 0.23180 0.62130 0.21000
C 	C 	0.90260 0.55740 0.75500 -0.67900
H 	H 	0.91280 0.54330 0.71240 0.20300
H 	H 	0.92340 0.53850 0.79870 0.20800
H 	H 	0.91040 0.59650 0.75990 0.19000
C 	C 	0.84350 0.40370 0.52130 -0.82200
H 	H 	0.87400 0.40820 0.56450 0.25800
H 	H 	0.82290 0.43780 0.51140 0.23600
H 	H 	0.85720 0.39440 0.47940 0.23100
C 	C 	0.85970 0.19360 0.77230 0.48400
C 	C 	0.62420 0.43020 0.89030 -0.80400
H 	H 	0.60560 0.42620 0.83860 0.24200
H 	H 	0.60110 0.45060 0.91470 0.24500
H 	H 	0.63180 0.39410 0.91260 0.24400
C 	C 	0.75400 0.36420 0.48080 -1.00800
H 	H 	0.72810 0.33670 0.48780 0.29000
H 	H 	0.75950 0.36040 0.43210 0.28600
H 	H 	0.73990 0.40060 0.48610 0.29900
C 	C 	0.91880 0.18090 0.80050 -0.76100
H 	H 	0.94020 0.21160 0.79040 0.23500
H 	H 	0.92750 0.14820 0.77640 0.22200
H 	H 	0.92740 0.17470 0.85310 0.22600
C 	C 	0.85640 0.19520 0.69100 -0.73400
H 	H 	0.89090 0.20840 0.68420 0.22100
H 	H 	0.82720 0.21980 0.66640 0.21500
H 	H 	0.84910 0.15860 0.67050 0.20800
C 	C 	0.70520 0.46500 0.97670 -0.83900
H 	H 	0.68730 0.49280 0.99920 0.25600
H 	H 	0.74300 0.47540 0.98220 0.24800
H 	H 	0.70390 0.42990 0.00040 0.26300
C 	C 	0.61460 0.23500 0.77250 -0.68300
H 	H 	0.61670 0.25610 0.81680 0.21200
H 	H 	0.64220 0.20640 0.78280 0.20400
H 	H 	0.57860 0.21840 0.75570 0.19100
C 	C 	0.82340 0.56970 0.80970 -0.66300
H 	H 	0.78420 0.56420 0.80000 0.19800
H 	H 	0.83160 0.60860 0.81600 0.18200
H 	H 	0.84190 0.55010 0.85410 0.19200
C 	C 	0.91330 0.45090 0.01540 -0.66000
H 	H 	0.92680 0.47460 0.98260 0.19400
H 	H 	0.92870 0.46250 0.06580 0.19100
H 	H 	0.87370 0.45330 0.00350 0.19800
C 	C 	0.98760 0.38930 0.00070 -0.68300
H 	H 	0.99050 0.40910 0.95720 0.21400
H 	H 	0.99830 0.35120 0.99730 0.19900
H 	H 	0.01160 0.40610 0.04400 0.19300
C 	C 	0.82560 0.15190 0.79340 -0.82500
H 	H 	0.78750 0.15880 0.76850 0.24500
H 	H 	0.83050 0.15310 0.84620 0.25400
H 	H 	0.83600 0.11580 0.77960 0.24100
C 	C 	0.83450 0.30760 0.53380 -1.05400
H 	H 	0.86250 0.30350 0.57990 0.32300
H 	H 	0.85150 0.30740 0.49330 0.30200
H 	H 	0.80880 0.27740 0.52810 0.29500
N 	N 	0.94794 0.37355 0.75842 -0.18300
N 	N 	0.67157 0.44735 0.63900 -0.21300
C 	C 	0.57303 0.49120 0.55960 0.08700
N 	N 	0.76272 0.27981 0.94550 -0.18600
O 	O 	0.84599 0.36285 0.66078 -0.38400
O 	O 	0.86667 0.45380 0.75934 -0.38800
O 	O 	0.75784 0.38046 0.62303 -0.37400
O 	O 	0.90476 0.38197 0.87754 -0.39600
O 	O 	0.77956 0.47616 0.71644 -0.39200
O 	O 	0.68329 0.34362 0.69910 -0.39300
O 	O 	0.81660 0.25812 0.83436 -0.38700
O 	O 	0.87717 0.28851 0.77865 -0.38900
O 	O 	0.70728 0.29424 0.79963 -0.38500
O 	O 	0.73794 0.38765 0.89252 -0.38300
O 	O 	0.79416 0.36854 0.78062 -0.67900
O 	O 	0.84730 0.35118 0.93788 -0.39200
O 	O 	0.70515 0.43759 0.79259 -0.38400
C 	C 	0.30301 0.86695 0.61320 0.12000
C 	C 	0.48410 0.90900 0.79300 0.02700
C 	C 	0.46202 0.83745 0.71278 0.01000
H 	H 	0.47590 0.94590 0.81610 -0.00300
H 	H 	0.43620 0.81050 0.68700 -0.00100
C 	C 	0.53689 0.90909 0.78541 -0.03000
C 	C 	0.51506 0.83753 0.70511 -0.02100
H 	H 	0.55990 0.94010 0.80140 0.01800
H 	H 	0.52400 0.82000 0.66260 0.01800
C 	C 	0.35004 0.75182 0.79783 0.17600
C 	C 	0.14113 0.92092 0.58206 0.06400
H 	H 	0.15370 0.88700 0.56890 -0.01200
C 	C 	0.34270 0.04806 0.74570 0.38300
C 	C 	0.39128 0.87268 0.93500 0.19600
C 	C 	0.32888 0.98828 0.73990 0.19500
C 	C 	0.24658 0.72810 0.93540 -0.00100
H 	H 	0.24380 0.71150 0.88950 0.01300
C 	C 	0.17576 0.80622 0.73990 0.19500
C 	C 	0.12440 0.77300 0.71300 0.42000
C 	C 	0.09153 0.94080 0.54070 -0.16500
H 	H 	0.07060 0.92070 0.50040 0.05700
C 	C 	0.01999 0.01350 0.52090 -0.09500
H 	H 	0.01440 0.05120 0.52700 0.03900
C 	C 	0.26616 0.80180 0.01040 -0.00300
H 	H 	0.27750 0.83850 0.01930 0.01200
C 	C 	0.30540 0.85660 0.53500 0.66200
C 	C 	0.10625 0.01930 0.61600 -0.17000
H 	H 	0.09610 0.05450 0.62850 0.05600
C 	C 	0.17680 0.96050 0.89810 0.51000
C 	C 	0.43020 0.89140 0.00620 0.41100
C 	C 	0.15460 0.99651 0.65450 0.07000
H 	H 	0.17690 0.01650 0.69380 -0.01800
C 	C 	0.07640 0.81300 0.69640 -0.69600
H 	H 	0.07850 0.83610 0.73890 0.20900
H 	H 	0.04230 0.79250 0.68490 0.19800
H 	H 	0.07780 0.83570 0.65470 0.22200
C 	C 	0.31130 0.07770 0.67750 -0.67300
H 	H 	0.27230 0.07260 0.67140 0.21100
H 	H 	0.32130 0.06290 0.63510 0.20100
H 	H 	0.31990 0.11660 0.68210 0.19500
C 	C 	0.21057 0.92640 0.85780 0.16500
C 	C 	0.42320 0.86010 0.07040 -0.71800
H 	H 	0.44520 0.87670 0.11520 0.20300
H 	H 	0.43490 0.82230 0.06730 0.21100
H 	H 	0.38500 0.86060 0.07070 0.22600
C 	C 	0.16450 0.01640 0.86510 -0.79300
H 	H 	0.14430 0.01290 0.81390 0.24500
H 	H 	0.19850 0.03590 0.86840 0.22800
H 	H 	0.14270 0.03670 0.89150 0.23000
C 	C 	0.12660 0.74310 0.64770 -0.74700
H 	H 	0.14960 0.71090 0.66140 0.20800
H 	H 	0.14170 0.76670 0.61640 0.22500
H 	H 	0.08990 0.73180 0.62130 0.21000
C 	C 	0.40260 0.05740 0.75500 -0.67900
H 	H 	0.41280 0.04330 0.71240 0.20300
H 	H 	0.42340 0.03850 0.79870 0.20800
H 	H 	0.41040 0.09650 0.75990 0.19000
C 	C 	0.34350 0.90370 0.52130 -0.82200
H 	H 	0.37400 0.90820 0.56450 0.25800
H 	H 	0.32290 0.93780 0.51140 0.23600
H 	H 	0.35720 0.89440 0.47940 0.23100
C 	C 	0.35970 0.69360 0.77230 0.48400
C 	C 	0.12420 0.93020 0.89030 -0.80300
H 	H 	0.10560 0.92620 0.83860 0.24200
H 	H 	0.10110 0.95060 0.91470 0.24500
H 	H 	0.13180 0.89410 0.91260 0.24400
C 	C 	0.25400 0.86420 0.48080 -1.00800
H 	H 	0.22810 0.83670 0.48780 0.29000
H 	H 	0.25950 0.86040 0.43210 0.28600
H 	H 	0.23990 0.90060 0.48610 0.29900
C 	C 	0.41880 0.68090 0.80050 -0.76200
H 	H 	0.44020 0.71160 0.79040 0.23500
H 	H 	0.42750 0.64820 0.77640 0.22200
H 	H 	0.42740 0.67470 0.85310 0.22700
C 	C 	0.35640 0.69520 0.69100 -0.73500
H 	H 	0.39090 0.70840 0.68420 0.22100
H 	H 	0.32720 0.71980 0.66640 0.21500
H 	H 	0.34910 0.65860 0.67050 0.20800
C 	C 	0.20520 0.96500 0.97670 -0.83200
H 	H 	0.18730 0.99280 0.99920 0.25500
H 	H 	0.24300 0.97540 0.98220 0.24600
H 	H 	0.20390 0.92990 0.00040 0.25900
C 	C 	0.11460 0.73500 0.77250 -0.68400
H 	H 	0.11670 0.75610 0.81680 0.21300
H 	H 	0.14220 0.70640 0.78280 0.20400
H 	H 	0.07860 0.71840 0.75570 0.19200
C 	C 	0.32340 0.06970 0.80970 -0.66300
H 	H 	0.28420 0.06420 0.80000 0.19800
H 	H 	0.33160 0.10860 0.81600 0.18200
H 	H 	0.34190 0.05010 0.85410 0.19200
C 	C 	0.41330 0.95090 0.01540 -0.67500
H 	H 	0.42680 0.97460 0.98260 0.20000
H 	H 	0.42870 0.96250 0.06580 0.19400
H 	H 	0.37370 0.95330 0.00350 0.20100
C 	C 	0.48760 0.88930 0.00070 -0.71200
H 	H 	0.49050 0.90910 0.95720 0.22400
H 	H 	0.49830 0.85120 0.99730 0.20800
H 	H 	0.51160 0.90610 0.04400 0.20200
C 	C 	0.32560 0.65190 0.79340 -0.82500
H 	H 	0.28750 0.65880 0.76850 0.24500
H 	H 	0.33050 0.65310 0.84620 0.25400
H 	H 	0.33600 0.61580 0.77960 0.24100
C 	C 	0.33450 0.80760 0.53380 -1.05500
H 	H 	0.36250 0.80350 0.57990 0.32300
H 	H 	0.35150 0.80740 0.49330 0.30200
H 	H 	0.30880 0.77740 0.52810 0.29500
N 	N 	0.44794 0.87355 0.75842 -0.18400
N 	N 	0.17157 0.94735 0.63900 -0.21300
C 	C 	0.07303 0.99120 0.55960 0.08700
N 	N 	0.26272 0.77981 0.94550 -0.18400
O 	O 	0.34599 0.86285 0.66078 -0.38400
O 	O 	0.36667 0.95380 0.75934 -0.38800
O 	O 	0.25784 0.88046 0.62303 -0.37400
O 	O 	0.40476 0.88197 0.87754 -0.39500
O 	O 	0.27956 0.97616 0.71644 -0.39200
O 	O 	0.18329 0.84362 0.69910 -0.39300
O 	O 	0.31660 0.75812 0.83436 -0.38600
O 	O 	0.37717 0.78851 0.77865 -0.38900
O 	O 	0.20728 0.79424 0.79963 -0.38500
O 	O 	0.23794 0.88765 0.89252 -0.38300
O 	O 	0.29416 0.86854 0.78062 -0.67900
O 	O 	0.34730 0.85118 0.93788 -0.39100
O 	O 	0.20515 0.93759 0.79259 -0.38400
C 	C 	0.80301 0.63305 0.11320 0.12300
C 	C 	0.98410 0.59100 0.29300 0.02800
C 	C 	0.96202 0.66255 0.21278 0.01300
H 	H 	0.97590 0.55410 0.31610 -0.00300
H 	H 	0.93620 0.68950 0.18700 -0.00200
C 	C 	0.03689 0.59091 0.28541 -0.03200
C 	C 	0.01506 0.66247 0.20511 -0.02300
H 	H 	0.05990 0.55990 0.30140 0.01900
H 	H 	0.02400 0.68000 0.16260 0.02000
C 	C 	0.85004 0.74818 0.29783 0.17700
C 	C 	0.64113 0.57908 0.08206 0.06500
H 	H 	0.65370 0.61300 0.06890 -0.01300
C 	C 	0.84270 0.45194 0.24570 0.38000
C 	C 	0.89128 0.62732 0.43500 0.19700
C 	C 	0.82888 0.51172 0.23990 0.19600
C 	C 	0.74658 0.77190 0.43540 -0.00100
H 	H 	0.74380 0.78850 0.38950 0.01200
C 	C 	0.67576 0.69378 0.23990 0.19600
C 	C 	0.62440 0.72700 0.21300 0.41700
C 	C 	0.59153 0.55920 0.04070 -0.16600
H 	H 	0.57060 0.57930 0.00040 0.05800
C 	C 	0.51999 0.48650 0.02090 -0.09500
H 	H 	0.51440 0.44880 0.02700 0.03900
C 	C 	0.76616 0.69820 0.51040 -0.00200
H 	H 	0.77750 0.66150 0.51930 0.01100
C 	C 	0.80540 0.64340 0.03500 0.65400
C 	C 	0.60625 0.48070 0.11600 -0.17100
H 	H 	0.59610 0.44550 0.12850 0.05600
C 	C 	0.67680 0.53950 0.39810 0.50800
C 	C 	0.93020 0.60860 0.50620 0.41000
C 	C 	0.65460 0.50349 0.15450 0.07100
H 	H 	0.67690 0.48350 0.19380 -0.01900
C 	C 	0.57640 0.68700 0.19640 -0.69300
H 	H 	0.57850 0.66390 0.23890 0.20800
H 	H 	0.54230 0.70750 0.18490 0.19700
H 	H 	0.57780 0.66430 0.15470 0.22100
C 	C 	0.81130 0.42230 0.17750 -0.67100
H 	H 	0.77230 0.42740 0.17140 0.21100
H 	H 	0.82130 0.43710 0.13510 0.20100
H 	H 	0.81990 0.38340 0.18210 0.19500
C 	C 	0.71057 0.57360 0.35780 0.16600
C 	C 	0.92320 0.63990 0.57040 -0.71600
H 	H 	0.94520 0.62330 0.61520 0.20300
H 	H 	0.93490 0.67770 0.56730 0.21000
H 	H 	0.88500 0.63940 0.57070 0.22500
C 	C 	0.66450 0.48360 0.36510 -0.79200
H 	H 	0.64430 0.48710 0.31390 0.24400
H 	H 	0.69850 0.46410 0.36840 0.22700
H 	H 	0.64270 0.46330 0.39150 0.22900
C 	C 	0.62660 0.75690 0.14770 -0.74400
H 	H 	0.64960 0.78910 0.16140 0.20700
H 	H 	0.64170 0.73330 0.11640 0.22400
H 	H 	0.58990 0.76820 0.12130 0.21000
C 	C 	0.90260 0.44260 0.25500 -0.67700
H 	H 	0.91280 0.45670 0.21240 0.20300
H 	H 	0.92340 0.46150 0.29870 0.20700
H 	H 	0.91040 0.40350 0.25990 0.19000
C 	C 	0.84350 0.59630 0.02130 -0.81200
H 	H 	0.87400 0.59180 0.06450 0.25500
H 	H 	0.82290 0.56220 0.01140 0.23300
H 	H 	0.85720 0.60560 0.97940 0.22800
C 	C 	0.85970 0.80640 0.27230 0.48200
C 	C 	0.62420 0.56980 0.39030 -0.80100
H 	H 	0.60560 0.57380 0.33860 0.24100
H 	H 	0.60110 0.54940 0.41470 0.24400
H 	H 	0.63180 0.60590 0.41260 0.24300
C 	C 	0.75400 0.63580 0.98080 -1.00200
H 	H 	0.72810 0.66330 0.98780 0.28800
H 	H 	0.75950 0.63960 0.93210 0.28400
H 	H 	0.73990 0.59940 0.98610 0.29700
C 	C 	0.91880 0.81910 0.30050 -0.76100
H 	H 	0.94020 0.78840 0.29040 0.23500
H 	H 	0.92750 0.85180 0.27640 0.22200
H 	H 	0.92740 0.82530 0.35310 0.22600
C 	C 	0.85640 0.80480 0.19100 -0.73400
H 	H 	0.89090 0.79160 0.18420 0.22100
H 	H 	0.82720 0.78020 0.16640 0.21400
H 	H 	0.84910 0.84140 0.17050 0.20800
C 	C 	0.70520 0.53500 0.47670 -0.83400
H 	H 	0.68730 0.50720 0.49920 0.25500
H 	H 	0.74300 0.52460 0.48220 0.24600
H 	H 	0.70390 0.57010 0.50040 0.26100
C 	C 	0.61460 0.76500 0.27250 -0.68100
H 	H 	0.61670 0.74390 0.31680 0.21100
H 	H 	0.64220 0.79360 0.28280 0.20300
H 	H 	0.57860 0.78160 0.25570 0.19000
C 	C 	0.82340 0.43030 0.30970 -0.66100
H 	H 	0.78420 0.43580 0.30000 0.19700
H 	H 	0.83160 0.39140 0.31600 0.18100
H 	H 	0.84190 0.44990 0.35410 0.19100
C 	C 	0.91330 0.54910 0.51540 -0.67400
H 	H 	0.92680 0.52540 0.48260 0.19900
H 	H 	0.92870 0.53750 0.56580 0.19400
H 	H 	0.87370 0.54670 0.50350 0.20100
C 	C 	0.98760 0.61070 0.50070 -0.71200
H 	H 	0.99050 0.59090 0.45720 0.22300
H 	H 	0.99830 0.64880 0.49730 0.20800
H 	H 	0.01160 0.59390 0.54400 0.20200
C 	C 	0.82560 0.84810 0.29340 -0.82300
H 	H 	0.78750 0.84120 0.26850 0.24400
H 	H 	0.83050 0.84690 0.34620 0.25300
H 	H 	0.83600 0.88420 0.27960 0.24100
C 	C 	0.83450 0.69240 0.03380 -1.04200
H 	H 	0.86250 0.69650 0.07990 0.32000
H 	H 	0.85150 0.69260 0.99330 0.29700
H 	H 	0.80880 0.72260 0.02810 0.29200
N 	N 	0.94794 0.62645 0.25842 -0.18600
N 	N 	0.67157 0.55265 0.13900 -0.21500
C 	C 	0.57303 0.50880 0.05960 0.08800
N 	N 	0.76272 0.72019 0.44550 -0.18600
O 	O 	0.84599 0.63715 0.16078 -0.38800
O 	O 	0.86667 0.54620 0.25934 -0.39000
O 	O 	0.75784 0.61954 0.12303 -0.37700
O 	O 	0.90476 0.61803 0.37754 -0.39800
O 	O 	0.77956 0.52384 0.21644 -0.39500
O 	O 	0.68329 0.65638 0.19910 -0.39600
O 	O 	0.81660 0.74188 0.33436 -0.38900
O 	O 	0.87717 0.71149 0.27865 -0.39200
O 	O 	0.70728 0.70576 0.29963 -0.38800
O 	O 	0.73794 0.61235 0.39252 -0.38600
O 	O 	0.79416 0.63146 0.28062 -0.68800
O 	O 	0.84730 0.64882 0.43788 -0.39300
O 	O 	0.70515 0.56241 0.29259 -0.38700
Fe	Fe	0.86541 0.62892 0.27114 1.22300
Fe	Fe	0.73841 0.59484 0.21529 1.22700
Fe	Fe	0.78012 0.67266 0.35828 1.21900
Co	Co	0.13459 0.62892 0.22886 1.20100
Co	Co	0.26159 0.59484 0.28471 1.20500
Co	Co	0.21988 0.67266 0.14172 1.19800
C 	C 	0.30301 0.13305 0.11320 0.12100
C 	C 	0.48410 0.09100 0.29300 0.02700
C 	C 	0.46202 0.16255 0.21278 0.01100
H 	H 	0.47590 0.05410 0.31610 -0.00300
H 	H 	0.43620 0.18950 0.18700 -0.00200
C 	C 	0.53689 0.09091 0.28541 -0.03100
C 	C 	0.51506 0.16247 0.20511 -0.02100
H 	H 	0.55990 0.05990 0.30140 0.01900
H 	H 	0.52400 0.18000 0.16260 0.01900
C 	C 	0.35004 0.24818 0.29783 0.17700
C 	C 	0.14113 0.07908 0.08206 0.06500
H 	H 	0.15370 0.11300 0.06890 -0.01300
C 	C 	0.34270 0.95194 0.24570 0.38000
C 	C 	0.39128 0.12732 0.43500 0.19700
C 	C 	0.32888 0.01172 0.23990 0.19600
C 	C 	0.24658 0.27190 0.43540 -0.00100
H 	H 	0.24380 0.28850 0.38950 0.01200
C 	C 	0.17576 0.19378 0.23990 0.19700
C 	C 	0.12440 0.22700 0.21300 0.41600
C 	C 	0.09153 0.05920 0.04070 -0.16600
H 	H 	0.07060 0.07930 0.00040 0.05700
C 	C 	0.01999 0.98650 0.02090 -0.09500
H 	H 	0.01440 0.94880 0.02700 0.03900
C 	C 	0.26616 0.19820 0.51040 -0.00200
H 	H 	0.27750 0.16150 0.51930 0.01100
C 	C 	0.30540 0.14340 0.03500 0.65900
C 	C 	0.10625 0.98070 0.11600 -0.17000
H 	H 	0.09610 0.94550 0.12850 0.05600
C 	C 	0.17680 0.03950 0.39810 0.50800
C 	C 	0.43020 0.10860 0.50620 0.41000
C 	C 	0.15460 0.00349 0.15450 0.07000
H 	H 	0.17690 0.98350 0.19380 -0.01900
C 	C 	0.07640 0.18700 0.19640 -0.69200
H 	H 	0.07850 0.16390 0.23890 0.20800
H 	H 	0.04230 0.20750 0.18490 0.19700
H 	H 	0.07780 0.16430 0.15470 0.22000
C 	C 	0.31130 0.92230 0.17750 -0.67100
H 	H 	0.27230 0.92740 0.17140 0.21100
H 	H 	0.32130 0.93710 0.13510 0.20000
H 	H 	0.31990 0.88340 0.18210 0.19400
C 	C 	0.21057 0.07360 0.35780 0.16600
C 	C 	0.42320 0.13990 0.57040 -0.71600
H 	H 	0.44520 0.12330 0.61520 0.20300
H 	H 	0.43490 0.17770 0.56730 0.21000
H 	H 	0.38500 0.13940 0.57070 0.22600
C 	C 	0.16450 0.98360 0.36510 -0.79100
H 	H 	0.14430 0.98710 0.31390 0.24400
H 	H 	0.19850 0.96410 0.36840 0.22700
H 	H 	0.14270 0.96330 0.39150 0.22900
C 	C 	0.12660 0.25690 0.14770 -0.74300
H 	H 	0.14960 0.28910 0.16140 0.20700
H 	H 	0.14170 0.23330 0.11640 0.22300
H 	H 	0.08990 0.26820 0.12130 0.20900
C 	C 	0.40260 0.94260 0.25500 -0.67700
H 	H 	0.41280 0.95670 0.21240 0.20200
H 	H 	0.42340 0.96150 0.29870 0.20700
H 	H 	0.41040 0.90350 0.25990 0.18900
C 	C 	0.34350 0.09630 0.02130 -0.82300
H 	H 	0.37400 0.09180 0.06450 0.25700
H 	H 	0.32290 0.06220 0.01140 0.23500
H 	H 	0.35720 0.10560 0.97940 0.23200
C 	C 	0.35970 0.30640 0.27230 0.48100
C 	C 	0.12420 0.06980 0.39030 -0.80000
H 	H 	0.10560 0.07380 0.33860 0.24100
H 	H 	0.10110 0.04940 0.41470 0.24400
H 	H 	0.13180 0.10590 0.41260 0.24300
C 	C 	0.25400 0.13580 0.98080 -1.00500
H 	H 	0.22810 0.16330 0.98780 0.29000
H 	H 	0.25950 0.13960 0.93210 0.28500
H 	H 	0.23990 0.09940 0.98610 0.29800
C 	C 	0.41880 0.31910 0.30050 -0.76000
H 	H 	0.44020 0.28840 0.29040 0.23400
H 	H 	0.42750 0.35180 0.27640 0.22100
H 	H 	0.42740 0.32530 0.35310 0.22600
C 	C 	0.35640 0.30480 0.19100 -0.73200
H 	H 	0.39090 0.29160 0.18420 0.22000
H 	H 	0.32720 0.28020 0.16640 0.21400
H 	H 	0.34910 0.34140 0.17050 0.20700
C 	C 	0.20520 0.03500 0.47670 -0.83300
H 	H 	0.18730 0.00720 0.49920 0.25500
H 	H 	0.24300 0.02460 0.48220 0.24600
H 	H 	0.20390 0.07010 0.50040 0.26100
C 	C 	0.11460 0.26500 0.27250 -0.68100
H 	H 	0.11670 0.24390 0.31680 0.21100
H 	H 	0.14220 0.29360 0.28280 0.20300
H 	H 	0.07860 0.28160 0.25570 0.19000
C 	C 	0.32340 0.93030 0.30970 -0.66100
H 	H 	0.28420 0.93580 0.30000 0.19700
H 	H 	0.33160 0.89140 0.31600 0.18100
H 	H 	0.34190 0.94990 0.35410 0.19000
C 	C 	0.41330 0.04910 0.51540 -0.67400
H 	H 	0.42680 0.02540 0.48260 0.19900
H 	H 	0.42870 0.03750 0.56580 0.19400
H 	H 	0.37370 0.04670 0.50350 0.20100
C 	C 	0.48760 0.11070 0.50070 -0.71200
H 	H 	0.49050 0.09090 0.45720 0.22300
H 	H 	0.49830 0.14880 0.49730 0.20800
H 	H 	0.51160 0.09390 0.54400 0.20200
C 	C 	0.32560 0.34810 0.29340 -0.82200
H 	H 	0.28750 0.34120 0.26850 0.24400
H 	H 	0.33050 0.34690 0.34620 0.25300
H 	H 	0.33600 0.38420 0.27960 0.24100
C 	C 	0.33450 0.19240 0.03380 -1.05400
H 	H 	0.36250 0.19650 0.07990 0.32300
H 	H 	0.35150 0.19260 0.99330 0.30200
H 	H 	0.30880 0.22260 0.02810 0.29500
N 	N 	0.44794 0.12645 0.25842 -0.18500
N 	N 	0.17157 0.05265 0.13900 -0.21500
C 	C 	0.07303 0.00880 0.05960 0.08700
N 	N 	0.26272 0.22019 0.44550 -0.18600
O 	O 	0.34599 0.13715 0.16078 -0.38700
O 	O 	0.36667 0.04620 0.25934 -0.39000
O 	O 	0.25784 0.11954 0.12303 -0.37700
O 	O 	0.40476 0.11803 0.37754 -0.39800
O 	O 	0.27956 0.02384 0.21644 -0.39500
O 	O 	0.18329 0.15638 0.19910 -0.39600
O 	O 	0.31660 0.24188 0.33436 -0.38900
O 	O 	0.37717 0.21149 0.27865 -0.39200
O 	O 	0.20728 0.20576 0.29963 -0.38800
O 	O 	0.23794 0.11235 0.39252 -0.38600
O 	O 	0.29416 0.13146 0.28062 -0.68800
O 	O 	0.34730 0.14882 0.43788 -0.39300
O 	O 	0.20515 0.06241 0.29259 -0.38700
Fe	Fe	0.36541 0.12892 0.27114 1.22300
Fe	Fe	0.23841 0.09484 0.21529 1.22700
Fe	Fe	0.28012 0.17266 0.35828 1.21900
Co	Co	0.63459 0.12892 0.22886 1.20100
Co	Co	0.76159 0.09484 0.28471 1.20500
Co	Co	0.71988 0.17266 0.14172 1.19800
C 	C 	0.19699 0.63305 0.38680 0.12000
C 	C 	0.01590 0.59100 0.20700 0.02500
C 	C 	0.03798 0.66255 0.28722 0.01000
H 	H 	0.02410 0.55410 0.18390 -0.00200
H 	H 	0.06380 0.68950 0.31300 -0.00000
C 	C 	0.96311 0.59091 0.21459 -0.02900
C 	C 	0.98494 0.66247 0.29489 -0.02000
H 	H 	0.94010 0.55990 0.19860 0.01800
H 	H 	0.97600 0.68000 0.33740 0.01800
C 	C 	0.14996 0.74818 0.20217 0.17600
C 	C 	0.35887 0.57908 0.41794 0.06400
H 	H 	0.34630 0.61300 0.43110 -0.01200
C 	C 	0.15730 0.45194 0.25430 0.38200
C 	C 	0.10872 0.62732 0.06500 0.19900
C 	C 	0.17112 0.51172 0.26010 0.19500
C 	C 	0.25342 0.77190 0.06460 -0.00000
H 	H 	0.25620 0.78850 0.11050 0.01300
C 	C 	0.32424 0.69378 0.26010 0.19500
C 	C 	0.37560 0.72700 0.28700 0.41900
C 	C 	0.40847 0.55920 0.45930 -0.16500
H 	H 	0.42940 0.57930 0.49960 0.05700
C 	C 	0.48001 0.48650 0.47910 -0.09500
H 	H 	0.48560 0.44880 0.47300 0.03900
C 	C 	0.23384 0.69820 0.98960 -0.00000
H 	H 	0.22250 0.66150 0.98070 0.01200
C 	C 	0.19460 0.64340 0.46500 0.66200
C 	C 	0.39375 0.48070 0.38400 -0.17000
H 	H 	0.40390 0.44550 0.37150 0.05600
C 	C 	0.32320 0.53950 0.10190 0.51200
C 	C 	0.06980 0.60860 0.99380 0.40000
C 	C 	0.34540 0.50349 0.34550 0.07000
H 	H 	0.32310 0.48350 0.30620 -0.01800
C 	C 	0.42360 0.68700 0.30360 -0.69500
H 	H 	0.42150 0.66390 0.26110 0.20900
H 	H 	0.45770 0.70750 0.31510 0.19800
H 	H 	0.42220 0.66430 0.34530 0.22100
C 	C 	0.18870 0.42230 0.32250 -0.67300
H 	H 	0.22770 0.42740 0.32860 0.21100
H 	H 	0.17870 0.43710 0.36490 0.20100
H 	H 	0.18010 0.38340 0.31790 0.19500
C 	C 	0.28943 0.57360 0.14220 0.16400
C 	C 	0.07680 0.63990 0.92960 -0.70800
H 	H 	0.05480 0.62330 0.88480 0.20100
H 	H 	0.06510 0.67770 0.93270 0.20900
H 	H 	0.11500 0.63940 0.92930 0.22400
C 	C 	0.33550 0.48360 0.13490 -0.79500
H 	H 	0.35570 0.48710 0.18610 0.24500
H 	H 	0.30150 0.46410 0.13160 0.22800
H 	H 	0.35730 0.46330 0.10850 0.23000
C 	C 	0.37340 0.75690 0.35230 -0.74600
H 	H 	0.35040 0.78910 0.33860 0.20800
H 	H 	0.35830 0.73330 0.38360 0.22500
H 	H 	0.41010 0.76820 0.37870 0.21000
C 	C 	0.09740 0.44260 0.24500 -0.67900
H 	H 	0.08720 0.45670 0.28760 0.20300
H 	H 	0.07660 0.46150 0.20130 0.20800
H 	H 	0.08960 0.40350 0.24010 0.19000
C 	C 	0.15650 0.59630 0.47870 -0.82200
H 	H 	0.12600 0.59180 0.43550 0.25800
H 	H 	0.17710 0.56220 0.48860 0.23600
H 	H 	0.14280 0.60560 0.52060 0.23100
C 	C 	0.14030 0.80640 0.22770 0.48400
C 	C 	0.37580 0.56980 0.10970 -0.80400
H 	H 	0.39440 0.57380 0.16140 0.24200
H 	H 	0.39890 0.54940 0.08530 0.24500
H 	H 	0.36820 0.60590 0.08740 0.24400
C 	C 	0.24600 0.63580 0.51920 -1.00800
H 	H 	0.27190 0.66330 0.51220 0.29000
H 	H 	0.24050 0.63960 0.56790 0.28600
H 	H 	0.26010 0.59940 0.51390 0.29900
C 	C 	0.08120 0.81910 0.19950 -0.76100
H 	H 	0.05980 0.78840 0.20960 0.23500
H 	H 	0.07250 0.85180 0.22360 0.22200
H 	H 	0.07260 0.82530 0.14690 0.22600
C 	C 	0.14360 0.80480 0.30900 -0.73400
H 	H 	0.10910 0.79160 0.31580 0.22100
H 	H 	0.17280 0.78020 0.33360 0.21500
H 	H 	0.15090 0.84140 0.32950 0.20800
C 	C 	0.29480 0.53500 0.02330 -0.83900
H 	H 	0.31270 0.50720 0.00080 0.25600
H 	H 	0.25700 0.52460 0.01780 0.24800
H 	H 	0.29610 0.57010 0.99960 0.26300
C 	C 	0.38540 0.76500 0.22750 -0.68300
H 	H 	0.38330 0.74390 0.18320 0.21200
H 	H 	0.35780 0.79360 0.21720 0.20400
H 	H 	0.42140 0.78160 0.24430 0.19100
C 	C 	0.17660 0.43030 0.19030 -0.66300
H 	H 	0.21580 0.43580 0.20000 0.19800
H 	H 	0.16840 0.39140 0.18400 0.18200
H 	H 	0.15810 0.44990 0.14590 0.19200
C 	C 	0.08670 0.54910 0.98460 -0.66000
H 	H 	0.07320 0.52540 0.01740 0.19400
H 	H 	0.07130 0.53750 0.93420 0.19100
H 	H 	0.12630 0.54670 0.99650 0.19800
C 	C 	0.01240 0.61070 0.99930 -0.68300
H 	H 	0.00950 0.59090 0.04280 0.21400
H 	H 	0.00170 0.64880 0.00270 0.19900
H 	H 	0.98840 0.59390 0.95600 0.19300
C 	C 	0.17440 0.84810 0.20660 -0.82500
H 	H 	0.21250 0.84120 0.23150 0.24500
H 	H 	0.16950 0.84690 0.15380 0.25400
H 	H 	0.16400 0.88420 0.22040 0.24100
C 	C 	0.16550 0.69240 0.46620 -1.05400
H 	H 	0.13750 0.69650 0.42010 0.32300
H 	H 	0.14850 0.69260 0.50670 0.30200
H 	H 	0.19120 0.72260 0.47190 0.29500
N 	N 	0.05206 0.62645 0.24158 -0.18300
N 	N 	0.32843 0.55265 0.36100 -0.21300
C 	C 	0.42697 0.50880 0.44040 0.08700
N 	N 	0.23728 0.72019 0.05450 -0.18600
O 	O 	0.15401 0.63715 0.33922 -0.38400
O 	O 	0.13333 0.54620 0.24066 -0.38800
O 	O 	0.24216 0.61954 0.37697 -0.37400
O 	O 	0.09524 0.61803 0.12246 -0.39600
O 	O 	0.22044 0.52384 0.28356 -0.39200
O 	O 	0.31671 0.65638 0.30090 -0.39300
O 	O 	0.18340 0.74188 0.16564 -0.38700
O 	O 	0.12283 0.71149 0.22135 -0.38900
O 	O 	0.29272 0.70576 0.20037 -0.38500
O 	O 	0.26206 0.61235 0.10748 -0.38300
O 	O 	0.20584 0.63146 0.21938 -0.67900
O 	O 	0.15270 0.64882 0.06212 -0.39200
O 	O 	0.29485 0.56241 0.20741 -0.38400
C 	C 	0.69699 0.13305 0.38680 0.12000
C 	C 	0.51590 0.09100 0.20700 0.02700
C 	C 	0.53798 0.16255 0.28722 0.01000
H 	H 	0.52410 0.05410 0.18390 -0.00300
H 	H 	0.56380 0.18950 0.31300 -0.00100
C 	C 	0.46311 0.09091 0.21459 -0.03000
C 	C 	0.48494 0.16247 0.29489 -0.02100
H 	H 	0.44010 0.05990 0.19860 0.01800
H 	H 	0.47600 0.18000 0.33740 0.01800
C 	C 	0.64996 0.24818 0.20217 0.17600
C 	C 	0.85887 0.07908 0.41794 0.06400
H 	H 	0.84630 0.11300 0.43110 -0.01200
C 	C 	0.65730 0.95194 0.25430 0.38300
C 	C 	0.60872 0.12732 0.06500 0.19600
C 	C 	0.67112 0.01172 0.26010 0.19500
C 	C 	0.75342 0.27190 0.06460 -0.00100
H 	H 	0.75620 0.28850 0.11050 0.01300
C 	C 	0.82424 0.19378 0.26010 0.19500
C 	C 	0.87560 0.22700 0.28700 0.42000
C 	C 	0.90847 0.05920 0.45930 -0.16500
H 	H 	0.92940 0.07930 0.49960 0.05700
C 	C 	0.98001 0.98650 0.47910 -0.09500
H 	H 	0.98560 0.94880 0.47300 0.03900
C 	C 	0.73384 0.19820 0.98960 -0.00300
H 	H 	0.72250 0.16150 0.98070 0.01200
C 	C 	0.69460 0.14340 0.46500 0.66200
C 	C 	0.89375 0.98070 0.38400 -0.17000
H 	H 	0.90390 0.94550 0.37150 0.05600
C 	C 	0.82320 0.03950 0.10190 0.51000
C 	C 	0.56980 0.10860 0.99380 0.41100
C 	C 	0.84540 0.00349 0.34550 0.07000
H 	H 	0.82310 0.98350 0.30620 -0.01800
C 	C 	0.92360 0.18700 0.30360 -0.69600
H 	H 	0.92150 0.16390 0.26110 0.20900
H 	H 	0.95770 0.20750 0.31510 0.19800
H 	H 	0.92220 0.16430 0.34530 0.22200
C 	C 	0.68870 0.92230 0.32250 -0.67300
H 	H 	0.72770 0.92740 0.32860 0.21100
H 	H 	0.67870 0.93710 0.36490 0.20100
H 	H 	0.68010 0.88340 0.31790 0.19500
C 	C 	0.78943 0.07360 0.14220 0.16500
C 	C 	0.57680 0.13990 0.92960 -0.71800
H 	H 	0.55480 0.12330 0.88480 0.20300
H 	H 	0.56510 0.17770 0.93270 0.21100
H 	H 	0.61500 0.13940 0.92930 0.22600
C 	C 	0.83550 0.98360 0.13490 -0.79300
H 	H 	0.85570 0.98710 0.18610 0.24500
H 	H 	0.80150 0.96410 0.13160 0.22800
H 	H 	0.85730 0.96330 0.10850 0.23000
C 	C 	0.87340 0.25690 0.35230 -0.74700
H 	H 	0.85040 0.28910 0.33860 0.20800
H 	H 	0.85830 0.23330 0.38360 0.22500
H 	H 	0.91010 0.26820 0.37870 0.21000
C 	C 	0.59740 0.94260 0.24500 -0.67900
H 	H 	0.58720 0.95670 0.28760 0.20300
H 	H 	0.57660 0.96150 0.20130 0.20800
H 	H 	0.58960 0.90350 0.24010 0.19000
C 	C 	0.65650 0.09630 0.47870 -0.82200
H 	H 	0.62600 0.09180 0.43550 0.25800
H 	H 	0.67710 0.06220 0.48860 0.23600
H 	H 	0.64280 0.10560 0.52060 0.23100
C 	C 	0.64030 0.30640 0.22770 0.48400
C 	C 	0.87580 0.06980 0.10970 -0.80300
H 	H 	0.89440 0.07380 0.16140 0.24200
H 	H 	0.89890 0.04940 0.08530 0.24500
H 	H 	0.86820 0.10590 0.08740 0.24400
C 	C 	0.74600 0.13580 0.51920 -1.00800
H 	H 	0.77190 0.16330 0.51220 0.29000
H 	H 	0.74050 0.13960 0.56790 0.28600
H 	H 	0.76010 0.09940 0.51390 0.29900
C 	C 	0.58120 0.31910 0.19950 -0.76200
H 	H 	0.55980 0.28840 0.20960 0.23500
H 	H 	0.57250 0.35180 0.22360 0.22200
H 	H 	0.57260 0.32530 0.14690 0.22700
C 	C 	0.64360 0.30480 0.30900 -0.73500
H 	H 	0.60910 0.29160 0.31580 0.22100
H 	H 	0.67280 0.28020 0.33360 0.21500
H 	H 	0.65090 0.34140 0.32950 0.20800
C 	C 	0.79480 0.03500 0.02330 -0.83200
H 	H 	0.81270 0.00720 0.00080 0.25500
H 	H 	0.75700 0.02460 0.01780 0.24600
H 	H 	0.79610 0.07010 0.99960 0.25900
C 	C 	0.88540 0.26500 0.22750 -0.68400
H 	H 	0.88330 0.24390 0.18320 0.21300
H 	H 	0.85780 0.29360 0.21720 0.20400
H 	H 	0.92140 0.28160 0.24430 0.19200
C 	C 	0.67660 0.93030 0.19030 -0.66300
H 	H 	0.71580 0.93580 0.20000 0.19800
H 	H 	0.66840 0.89140 0.18400 0.18200
H 	H 	0.65810 0.94990 0.14590 0.19200
C 	C 	0.58670 0.04910 0.98460 -0.67500
H 	H 	0.57320 0.02540 0.01740 0.20000
H 	H 	0.57130 0.03750 0.93420 0.19400
H 	H 	0.62630 0.04670 0.99650 0.20100
C 	C 	0.51240 0.11070 0.99930 -0.71200
H 	H 	0.50950 0.09090 0.04280 0.22400
H 	H 	0.50170 0.14880 0.00270 0.20800
H 	H 	0.48840 0.09390 0.95600 0.20200
C 	C 	0.67440 0.34810 0.20660 -0.82500
H 	H 	0.71250 0.34120 0.23150 0.24500
H 	H 	0.66950 0.34690 0.15380 0.25400
H 	H 	0.66400 0.38420 0.22040 0.24100
C 	C 	0.66550 0.19240 0.46620 -1.05500
H 	H 	0.63750 0.19650 0.42010 0.32300
H 	H 	0.64850 0.19260 0.50670 0.30200
H 	H 	0.69120 0.22260 0.47190 0.29500
N 	N 	0.55206 0.12645 0.24158 -0.18400
N 	N 	0.82843 0.05265 0.36100 -0.21300
C 	C 	0.92697 0.00880 0.44040 0.08700
N 	N 	0.73728 0.22019 0.05450 -0.18400
O 	O 	0.65401 0.13715 0.33922 -0.38400
O 	O 	0.63333 0.04620 0.24066 -0.38800
O 	O 	0.74216 0.11954 0.37697 -0.37400
O 	O 	0.59524 0.11803 0.12246 -0.39500
O 	O 	0.72044 0.02384 0.28356 -0.39200
O 	O 	0.81671 0.15638 0.30090 -0.39300
O 	O 	0.68340 0.24188 0.16564 -0.38600
O 	O 	0.62283 0.21149 0.22135 -0.38900
O 	O 	0.79272 0.20576 0.20037 -0.38500
O 	O 	0.76206 0.11235 0.10748 -0.38300
O 	O 	0.70584 0.13146 0.21938 -0.67900
O 	O 	0.65270 0.14882 0.06212 -0.39100
O 	O 	0.79485 0.06241 0.20741 -0.38400
