data_crystal

_cell_length_a 10.72500
_cell_length_b 15.20400
_cell_length_c 17.35410
_cell_angle_alpha 90.00000
_cell_angle_beta  99.41300
_cell_angle_gamma 90.00000

_symmetry_space_group_name_	'P 1'
_symmetry_space_group_name_H-M	'P 1'

loop_
_symmetry_equiv_pos_as_xyz
  x,y,z

loop_
_atom_site_label
_atom_site_type_symbol
_atom_site_fract_x
_atom_site_fract_y
_atom_site_fract_z
_atom_site_charge
Ba	Ba	0.17907 0.02779 0.44326 2.06100
V 	V 	0.19038 0.40854 0.34275 1.78600
O 	O 	0.00860 0.37620 0.34110 -0.71000
O 	O 	0.84040 0.40060 0.39950 -0.50200
O 	O 	0.12390 0.51250 0.41290 -0.48400
O 	O 	0.93840 0.56710 0.43510 -0.29200
O 	O 	0.02650 0.07410 0.16420 -0.63200
O 	O 	0.14550 0.96850 0.12540 -0.61500
O 	O 	0.21770 0.10650 0.28840 -0.44400
O 	O 	0.33180 0.00440 0.23910 -0.47200
O 	O 	0.23260 0.34730 0.44640 -0.64500
O 	O 	0.15650 0.21210 0.41410 -0.51800
O 	O 	0.21920 0.32880 0.28620 -0.69000
O 	O 	0.04980 0.88700 0.49940 -1.33100
H 	H 	0.02500 0.85500 0.46300 0.45500
H 	H 	0.09000 0.86100 0.53100 0.55300
C 	C 	0.94320 0.42150 0.38240 0.48300
C 	C 	0.00510 0.51000 0.41270 0.05600
C 	C 	0.12490 0.03130 0.17130 0.27000
C 	C 	0.23340 0.05020 0.23990 0.18700
C 	C 	0.21610 0.26560 0.45920 0.29700
Ba	Ba	0.67907 0.52779 0.44326 2.16900
V 	V 	0.69038 0.90854 0.34275 1.78800
O 	O 	0.50860 0.87620 0.34110 -0.62400
O 	O 	0.34040 0.90060 0.39950 -0.46900
O 	O 	0.62390 0.01250 0.41290 -0.52200
O 	O 	0.43840 0.06710 0.43510 -0.38800
O 	O 	0.52650 0.57410 0.16420 -0.60300
O 	O 	0.64550 0.46850 0.12540 -0.60400
O 	O 	0.71770 0.60650 0.28840 -0.44800
O 	O 	0.83180 0.50440 0.23910 -0.45500
O 	O 	0.73260 0.84730 0.44640 -0.64700
O 	O 	0.65650 0.71210 0.41410 -0.52000
O 	O 	0.71920 0.82880 0.28620 -0.68900
O 	O 	0.54980 0.38700 0.49940 -1.31800
H 	H 	0.52500 0.35500 0.46300 0.47800
H 	H 	0.59000 0.36100 0.53100 0.55900
C 	C 	0.44320 0.92150 0.38240 0.30500
C 	C 	0.50510 0.01000 0.41270 0.24500
C 	C 	0.62490 0.53130 0.17130 0.27600
C 	C 	0.73340 0.55020 0.23990 0.19100
C 	C 	0.71610 0.76560 0.45920 0.30900
Ba	Ba	0.82093 0.02779 0.05674 2.22900
V 	V 	0.80962 0.40854 0.15725 1.78800
O 	O 	0.99140 0.37620 0.15890 -0.50100
O 	O 	0.15960 0.40060 0.10050 -0.42800
O 	O 	0.87610 0.51250 0.08710 -0.55600
O 	O 	0.06160 0.56710 0.06490 -0.49700
O 	O 	0.97350 0.07410 0.33580 -0.53500
O 	O 	0.85450 0.96850 0.37460 -0.58200
O 	O 	0.78230 0.10650 0.21160 -0.43200
O 	O 	0.66820 0.00440 0.26090 -0.47400
O 	O 	0.76740 0.34730 0.05360 -0.64100
O 	O 	0.84350 0.21210 0.08590 -0.48800
O 	O 	0.78080 0.32880 0.21380 -0.67400
O 	O 	0.95020 0.88700 0.00060 -1.28500
H 	H 	0.97500 0.85500 0.03700 0.49300
H 	H 	0.91000 0.86100 0.96900 0.55300
C 	C 	0.05680 0.42150 0.11760 0.11200
C 	C 	0.99490 0.51000 0.08730 0.43900
C 	C 	0.87510 0.03130 0.32870 0.26300
C 	C 	0.76660 0.05020 0.26010 0.20100
C 	C 	0.78390 0.26560 0.04080 0.29400
Ba	Ba	0.32093 0.52779 0.05674 2.13400
V 	V 	0.30962 0.90854 0.15725 1.78800
O 	O 	0.49140 0.87620 0.15890 -0.62300
O 	O 	0.65960 0.90060 0.10050 -0.46800
O 	O 	0.37610 0.01250 0.08710 -0.51700
O 	O 	0.56160 0.06710 0.06490 -0.39900
O 	O 	0.47350 0.57410 0.33580 -0.60600
O 	O 	0.35450 0.46850 0.37460 -0.60500
O 	O 	0.28230 0.60650 0.21160 -0.45900
O 	O 	0.16820 0.50440 0.26090 -0.48800
O 	O 	0.26740 0.84730 0.05360 -0.64300
O 	O 	0.34350 0.71210 0.08590 -0.51700
O 	O 	0.28080 0.82880 0.21380 -0.70700
O 	O 	0.45020 0.38700 0.00060 -1.32300
H 	H 	0.47500 0.35500 0.03700 0.47600
H 	H 	0.41000 0.36100 0.96900 0.55800
C 	C 	0.55680 0.92150 0.11760 0.31000
C 	C 	0.49490 0.01000 0.08730 0.24200
C 	C 	0.37510 0.53130 0.32870 0.27100
C 	C 	0.26660 0.55020 0.26010 0.19300
C 	C 	0.28390 0.76560 0.04080 0.30000
Ba	Ba	0.82093 0.97221 0.55674 2.25100
V 	V 	0.80962 0.59146 0.65725 1.78800
O 	O 	0.99140 0.62380 0.65890 -0.50200
O 	O 	0.15960 0.59940 0.60050 -0.42800
O 	O 	0.87610 0.48750 0.58710 -0.55600
O 	O 	0.06160 0.43290 0.56490 -0.49600
O 	O 	0.97350 0.92590 0.83580 -0.53400
O 	O 	0.85450 0.03150 0.87460 -0.57800
O 	O 	0.78230 0.89350 0.71160 -0.43400
O 	O 	0.66820 0.99560 0.76090 -0.47500
O 	O 	0.76740 0.65270 0.55360 -0.64100
O 	O 	0.84350 0.78790 0.58590 -0.49000
O 	O 	0.78080 0.67120 0.71380 -0.67400
O 	O 	0.95020 0.11300 0.50060 -1.30600
H 	H 	0.97500 0.14500 0.53700 0.49800
H 	H 	0.91000 0.13900 0.46900 0.56500
C 	C 	0.05680 0.57850 0.61760 0.11400
C 	C 	0.99490 0.49000 0.58730 0.43800
C 	C 	0.87510 0.96870 0.82870 0.25900
C 	C 	0.76660 0.94980 0.76010 0.20200
C 	C 	0.78390 0.73440 0.54080 0.29800
Ba	Ba	0.32093 0.47221 0.55674 2.13500
V 	V 	0.30962 0.09146 0.65725 1.78800
O 	O 	0.49140 0.12380 0.65890 -0.62200
O 	O 	0.65960 0.09940 0.60050 -0.47200
O 	O 	0.37610 0.98750 0.58710 -0.51600
O 	O 	0.56160 0.93290 0.56490 -0.39900
O 	O 	0.47350 0.42590 0.83580 -0.60600
O 	O 	0.35450 0.53150 0.87460 -0.60500
O 	O 	0.28230 0.39350 0.71160 -0.45900
O 	O 	0.16820 0.49560 0.76090 -0.48800
O 	O 	0.26740 0.15270 0.55360 -0.64600
O 	O 	0.34350 0.28790 0.58590 -0.51700
O 	O 	0.28080 0.17120 0.71380 -0.70700
O 	O 	0.45020 0.61300 0.50060 -1.31200
H 	H 	0.47500 0.64500 0.53700 0.47300
H 	H 	0.41000 0.63900 0.46900 0.55000
C 	C 	0.55680 0.07850 0.61760 0.30500
C 	C 	0.49490 0.99000 0.58730 0.24500
C 	C 	0.37510 0.46870 0.82870 0.27100
C 	C 	0.26660 0.44980 0.76010 0.19300
C 	C 	0.28390 0.23440 0.54080 0.29800
Ba	Ba	0.17907 0.97221 0.94326 2.04500
V 	V 	0.19038 0.59146 0.84275 1.78700
O 	O 	0.00860 0.62380 0.84110 -0.70700
O 	O 	0.84040 0.59940 0.89950 -0.50200
O 	O 	0.12390 0.48750 0.91290 -0.48400
O 	O 	0.93840 0.43290 0.93510 -0.29300
O 	O 	0.02650 0.92590 0.66420 -0.63300
O 	O 	0.14550 0.03150 0.62540 -0.61900
O 	O 	0.21770 0.89350 0.78840 -0.44300
O 	O 	0.33180 0.99560 0.73910 -0.47100
O 	O 	0.23260 0.65270 0.94640 -0.64400
O 	O 	0.15650 0.78790 0.91410 -0.51700
O 	O 	0.21920 0.67120 0.78620 -0.69100
O 	O 	0.04980 0.11300 0.99940 -1.30000
H 	H 	0.02500 0.14500 0.96300 0.44700
H 	H 	0.09000 0.13900 0.03100 0.53400
C 	C 	0.94320 0.57850 0.88240 0.47900
C 	C 	0.00510 0.49000 0.91270 0.06000
C 	C 	0.12490 0.96870 0.67130 0.27400
C 	C 	0.23340 0.94980 0.73990 0.18500
C 	C 	0.21610 0.73440 0.95920 0.29500
Ba	Ba	0.67907 0.47221 0.94326 2.17200
V 	V 	0.69038 0.09146 0.84275 1.78900
O 	O 	0.50860 0.12380 0.84110 -0.62400
O 	O 	0.34040 0.09940 0.89950 -0.46500
O 	O 	0.62390 0.98750 0.91290 -0.52300
O 	O 	0.43840 0.93290 0.93510 -0.38700
O 	O 	0.52650 0.42590 0.66420 -0.60300
O 	O 	0.64550 0.53150 0.62540 -0.60400
O 	O 	0.71770 0.39350 0.78840 -0.44800
O 	O 	0.83180 0.49560 0.73910 -0.45500
O 	O 	0.73260 0.15270 0.94640 -0.64400
O 	O 	0.65650 0.28790 0.91410 -0.52000
O 	O 	0.71920 0.17120 0.78620 -0.69000
O 	O 	0.54980 0.61300 0.99940 -1.32100
H 	H 	0.52500 0.64500 0.96300 0.47900
H 	H 	0.59000 0.63900 0.03100 0.56200
C 	C 	0.44320 0.07850 0.88240 0.30900
C 	C 	0.50510 0.99000 0.91270 0.24100
C 	C 	0.62490 0.46870 0.67130 0.27600
C 	C 	0.73340 0.44980 0.73990 0.19100
C 	C 	0.71610 0.23440 0.95920 0.31300
Ba	Ba	0.00000 0.22059 0.25000 1.87300
Ba	Ba	0.50000 0.72059 0.25000 2.07600
Ba	Ba	0.00000 0.77941 0.75000 1.87500
Ba	Ba	0.50000 0.27941 0.75000 2.07600
