data_crystal

_cell_length_a 23.86200
_cell_length_b 8.59300
_cell_length_c 19.05840
_cell_angle_alpha 90.00000
_cell_angle_beta  90.00000
_cell_angle_gamma 90.00000

_symmetry_space_group_name_	'P 1'
_symmetry_space_group_name_H-M	'P 1'

loop_
_symmetry_equiv_pos_as_xyz
  x,y,z

loop_
_atom_site_label
_atom_site_type_symbol
_atom_site_fract_x
_atom_site_fract_y
_atom_site_fract_z
_atom_site_charge
Co	Co	0.34376 0.69733 0.48375 1.05700
P 	P 	0.59872 0.47340 0.13466 0.23400
N 	N 	0.40300 0.88020 0.48230 -0.27000
N 	N 	0.58470 0.15680 0.47240 -0.13300
N 	N 	0.77970 0.97360 0.48220 -0.27000
C 	C 	0.39080 0.02770 0.46470 0.05300
H 	H 	0.35300 0.05370 0.45450 -0.03600
C 	C 	0.43140 0.14420 0.46060 -0.12100
H 	H 	0.42080 0.24840 0.45050 0.05400
C 	C 	0.48640 0.10710 0.47150 0.04900
C 	C 	0.49920 0.95380 0.49070 -0.12100
H 	H 	0.53670 0.92480 0.50150 0.07800
C 	C 	0.45710 0.84710 0.49370 0.06300
H 	H 	0.46660 0.74250 0.50440 -0.01400
C 	C 	0.53440 0.21840 0.46120 0.07600
C 	C 	0.52780 0.37030 0.43710 -0.13000
H 	H 	0.49140 0.41210 0.43050 0.06000
C 	C 	0.57430 0.45980 0.42290 0.07300
C 	C 	0.62640 0.39340 0.43130 -0.13000
H 	H 	0.65930 0.44960 0.41920 0.06100
C 	C 	0.63020 0.24190 0.45800 0.06700
C 	C 	0.68440 0.16120 0.46860 0.05000
C 	C 	0.73050 0.18190 0.42690 -0.13500
H 	H 	0.73040 0.26200 0.39250 0.06100
C 	C 	0.77650 0.08950 0.43390 0.06000
H 	H 	0.80770 0.10690 0.40390 -0.03400
C 	C 	0.73620 0.96000 0.52510 0.06700
H 	H 	0.73840 0.88600 0.56210 -0.03500
C 	C 	0.68830 0.04630 0.51930 -0.13000
H 	H 	0.65770 0.02750 0.55010 0.07300
C 	C 	0.57150 0.62170 0.39340 -0.02400
C 	C 	0.52510 0.67150 0.35650 -0.03000
H 	H 	0.49270 0.60740 0.35380 0.02100
C 	C 	0.52570 0.81790 0.32270 -0.06800
H 	H 	0.49360 0.85230 0.29780 0.04500
C 	C 	0.57210 0.91000 0.32560 0.01800
C 	C 	0.61740 0.86350 0.36470 -0.06500
H 	H 	0.64970 0.92800 0.36700 0.05100
C 	C 	0.61650 0.72240 0.40100 -0.03000
H 	H 	0.64680 0.69530 0.43100 0.02400
C 	C 	0.57650 0.05450 0.28170 0.04000
C 	C 	0.53550 0.16530 0.27980 -0.08900
H 	H 	0.50290 0.15270 0.30790 0.05600
C 	C 	0.54070 0.29740 0.23720 -0.00200
H 	H 	0.51250 0.37530 0.23770 0.02600
C 	C 	0.58830 0.31430 0.19310 -0.07500
C 	C 	0.62790 0.19650 0.19550 0.01100
H 	H 	0.65950 0.20330 0.16530 0.00400
C 	C 	0.62380 0.07090 0.23930 -0.09900
H 	H 	0.65290 0.99540 0.24080 0.06100
C 	C 	0.53480 0.58700 0.13290 -0.03600
C 	C 	0.48470 0.51620 0.11640 -0.03400
H 	H 	0.48460 0.40990 0.10260 0.04200
C 	C 	0.43490 0.59610 0.11930 -0.03700
H 	H 	0.40050 0.54470 0.10950 0.03900
C 	C 	0.43550 0.75430 0.13690 -0.03400
H 	H 	0.40140 0.81120 0.13870 0.03700
C 	C 	0.48510 0.82700 0.15140 -0.03700
H 	H 	0.48520 0.93480 0.16240 0.04200
C 	C 	0.53470 0.74690 0.15010 -0.03400
H 	H 	0.56880 0.79860 0.16080 0.04500
C 	C 	0.65540 0.58960 0.17050 -0.03700
C 	C 	0.68140 0.69560 0.12800 -0.04400
H 	H 	0.66800 0.71340 0.08180 0.04500
C 	C 	0.72820 0.77810 0.15310 -0.03700
H 	H 	0.74790 0.84800 0.12340 0.03200
C 	C 	0.74540 0.75520 0.22310 -0.05200
H 	H 	0.77620 0.81280 0.24120 0.02500
C 	C 	0.71840 0.65150 0.26490 -0.03000
H 	H 	0.73130 0.63480 0.31140 0.01300
C 	C 	0.67190 0.56890 0.24030 -0.05100
H 	H 	0.65200 0.50010 0.27030 0.04600
O 	O 	0.61360 0.41940 0.06330 -0.39700
Co	Co	0.65624 0.30267 0.98375 1.05000
P 	P 	0.40128 0.52660 0.63466 0.23500
N 	N 	0.59700 0.11980 0.98230 -0.26900
N 	N 	0.41530 0.84320 0.97240 -0.13900
N 	N 	0.22030 0.02640 0.98220 -0.28300
C 	C 	0.60920 0.97230 0.96470 0.05300
H 	H 	0.64700 0.94630 0.95450 -0.04000
C 	C 	0.56860 0.85580 0.96060 -0.13000
H 	H 	0.57920 0.75160 0.95050 0.05300
C 	C 	0.51360 0.89290 0.97150 0.05800
C 	C 	0.50080 0.04620 0.99070 -0.15700
H 	H 	0.46330 0.07520 0.00150 0.11000
C 	C 	0.54290 0.15290 0.99370 0.03500
H 	H 	0.53340 0.25750 0.00440 0.01400
C 	C 	0.46560 0.78160 0.96120 0.06700
C 	C 	0.47220 0.62970 0.93710 -0.13000
H 	H 	0.50860 0.58790 0.93050 0.05600
C 	C 	0.42570 0.54020 0.92290 0.07100
C 	C 	0.37360 0.60660 0.93130 -0.13600
H 	H 	0.34070 0.55040 0.91920 0.06100
C 	C 	0.36980 0.75810 0.95800 0.07300
C 	C 	0.31560 0.83880 0.96860 0.01300
C 	C 	0.26950 0.81810 0.92690 -0.12000
H 	H 	0.26960 0.73800 0.89250 0.05500
C 	C 	0.22350 0.91050 0.93390 0.04600
H 	H 	0.19230 0.89310 0.90390 -0.03200
C 	C 	0.26380 0.04000 0.02510 0.08300
H 	H 	0.26160 0.11400 0.06210 -0.03400
C 	C 	0.31170 0.95370 0.01930 -0.09400
H 	H 	0.34230 0.97250 0.05010 0.06700
C 	C 	0.42850 0.37830 0.89340 -0.02800
C 	C 	0.47490 0.32850 0.85650 -0.03000
H 	H 	0.50730 0.39260 0.85380 0.02000
C 	C 	0.47430 0.18210 0.82270 -0.07000
H 	H 	0.50640 0.14770 0.79780 0.04600
C 	C 	0.42790 0.09000 0.82560 0.02000
C 	C 	0.38260 0.13650 0.86470 -0.06900
H 	H 	0.35030 0.07200 0.86700 0.05100
C 	C 	0.38350 0.27760 0.90100 -0.03000
H 	H 	0.35320 0.30470 0.93100 0.01900
C 	C 	0.42350 0.94550 0.78170 0.04100
C 	C 	0.46450 0.83470 0.77980 -0.09000
H 	H 	0.49710 0.84730 0.80790 0.05700
C 	C 	0.45930 0.70260 0.73720 -0.00100
H 	H 	0.48750 0.62470 0.73770 0.02600
C 	C 	0.41170 0.68570 0.69310 -0.07700
C 	C 	0.37210 0.80350 0.69550 0.01200
H 	H 	0.34050 0.79670 0.66530 0.00100
C 	C 	0.37620 0.92910 0.73930 -0.10200
H 	H 	0.34710 0.00460 0.74080 0.06100
C 	C 	0.46520 0.41300 0.63290 -0.03900
C 	C 	0.51530 0.48380 0.61640 -0.03600
H 	H 	0.51540 0.59010 0.60260 0.03900
C 	C 	0.56510 0.40390 0.61930 -0.04000
H 	H 	0.59950 0.45530 0.60950 0.03600
C 	C 	0.56450 0.24570 0.63690 -0.03700
H 	H 	0.59860 0.18880 0.63870 0.03500
C 	C 	0.51490 0.17300 0.65140 -0.04000
H 	H 	0.51480 0.06520 0.66240 0.04000
C 	C 	0.46530 0.25310 0.65010 -0.03600
H 	H 	0.43120 0.20140 0.66080 0.04400
C 	C 	0.34460 0.41040 0.67050 -0.04000
C 	C 	0.31860 0.30440 0.62800 -0.04300
H 	H 	0.33200 0.28660 0.58180 0.03800
C 	C 	0.27180 0.22190 0.65310 -0.03900
H 	H 	0.25210 0.15200 0.62340 0.02900
C 	C 	0.25460 0.24480 0.72310 -0.05200
H 	H 	0.22380 0.18720 0.74120 0.02400
C 	C 	0.28160 0.34850 0.76490 -0.03100
H 	H 	0.26870 0.36520 0.81140 0.01200
C 	C 	0.32810 0.43110 0.74030 -0.05000
H 	H 	0.34800 0.49990 0.77030 0.04600
O 	O 	0.38640 0.58060 0.56330 -0.40900
Co	Co	0.84376 0.80267 0.48375 1.05800
P 	P 	0.09872 0.02660 0.13466 0.23400
N 	N 	0.90300 0.61980 0.48230 -0.26900
N 	N 	0.08470 0.34320 0.47240 -0.13200
N 	N 	0.27970 0.52640 0.48220 -0.27000
C 	C 	0.89080 0.47230 0.46470 0.05300
H 	H 	0.85300 0.44630 0.45450 -0.03500
C 	C 	0.93140 0.35580 0.46060 -0.12100
H 	H 	0.92080 0.25160 0.45050 0.05400
C 	C 	0.98640 0.39290 0.47150 0.04800
C 	C 	0.99920 0.54620 0.49070 -0.12200
H 	H 	0.03670 0.57520 0.50150 0.07900
C 	C 	0.95710 0.65290 0.49370 0.06400
H 	H 	0.96660 0.75750 0.50440 -0.01500
C 	C 	0.03440 0.28160 0.46120 0.07600
C 	C 	0.02780 0.12970 0.43710 -0.12800
H 	H 	0.99140 0.08790 0.43050 0.05900
C 	C 	0.07430 0.04020 0.42290 0.07300
C 	C 	0.12640 0.10660 0.43130 -0.13000
H 	H 	0.15930 0.05040 0.41920 0.06100
C 	C 	0.13020 0.25810 0.45800 0.06700
C 	C 	0.18440 0.33880 0.46860 0.05000
C 	C 	0.23050 0.31810 0.42690 -0.13500
H 	H 	0.23040 0.23800 0.39250 0.06100
C 	C 	0.27650 0.41050 0.43390 0.05900
H 	H 	0.30770 0.39310 0.40390 -0.03400
C 	C 	0.23620 0.54000 0.52510 0.06800
H 	H 	0.23840 0.61400 0.56210 -0.03500
C 	C 	0.18830 0.45370 0.51930 -0.13200
H 	H 	0.15770 0.47250 0.55010 0.07300
C 	C 	0.07150 0.87830 0.39340 -0.02500
C 	C 	0.02510 0.82850 0.35650 -0.02900
H 	H 	0.99270 0.89260 0.35380 0.02000
C 	C 	0.02570 0.68210 0.32270 -0.06700
H 	H 	0.99360 0.64770 0.29780 0.04400
C 	C 	0.07210 0.59000 0.32560 0.01900
C 	C 	0.11740 0.63650 0.36470 -0.06600
H 	H 	0.14970 0.57200 0.36700 0.05100
C 	C 	0.11650 0.77760 0.40100 -0.03000
H 	H 	0.14680 0.80470 0.43100 0.02400
C 	C 	0.07650 0.44550 0.28170 0.04100
C 	C 	0.03550 0.33470 0.27980 -0.08900
H 	H 	0.00290 0.34730 0.30790 0.05700
C 	C 	0.04070 0.20260 0.23720 -0.00200
H 	H 	0.01250 0.12470 0.23770 0.02600
C 	C 	0.08830 0.18570 0.19310 -0.07500
C 	C 	0.12790 0.30350 0.19550 0.01200
H 	H 	0.15950 0.29670 0.16530 0.00400
C 	C 	0.12380 0.42910 0.23930 -0.10100
H 	H 	0.15290 0.50460 0.24080 0.06200
C 	C 	0.03480 0.91300 0.13290 -0.03400
C 	C 	0.98470 0.98380 0.11640 -0.03800
H 	H 	0.98460 0.09010 0.10260 0.04300
C 	C 	0.93490 0.90390 0.11930 -0.03600
H 	H 	0.90050 0.95530 0.10950 0.03900
C 	C 	0.93550 0.74570 0.13690 -0.03500
H 	H 	0.90140 0.68880 0.13870 0.03700
C 	C 	0.98510 0.67300 0.15140 -0.03900
H 	H 	0.98520 0.56520 0.16240 0.04200
C 	C 	0.03470 0.75310 0.15010 -0.03300
H 	H 	0.06880 0.70140 0.16080 0.04500
C 	C 	0.15540 0.91040 0.17050 -0.03700
C 	C 	0.18140 0.80440 0.12800 -0.04400
H 	H 	0.16800 0.78660 0.08180 0.04500
C 	C 	0.22820 0.72190 0.15310 -0.03700
H 	H 	0.24790 0.65200 0.12340 0.03200
C 	C 	0.24540 0.74480 0.22310 -0.05200
H 	H 	0.27620 0.68720 0.24120 0.02500
C 	C 	0.21840 0.84850 0.26490 -0.03000
H 	H 	0.23130 0.86520 0.31140 0.01300
C 	C 	0.17190 0.93110 0.24030 -0.05100
H 	H 	0.15200 0.99990 0.27030 0.04600
O 	O 	0.11360 0.08060 0.06330 -0.39700
Co	Co	0.15624 0.19733 0.98375 1.04900
P 	P 	0.90128 0.97340 0.63466 0.23500
N 	N 	0.09700 0.38020 0.98230 -0.26800
N 	N 	0.91530 0.65680 0.97240 -0.13900
N 	N 	0.72030 0.47360 0.98220 -0.28200
C 	C 	0.10920 0.52770 0.96470 0.05200
H 	H 	0.14700 0.55370 0.95450 -0.03900
C 	C 	0.06860 0.64420 0.96060 -0.12800
H 	H 	0.07920 0.74840 0.95050 0.05200
C 	C 	0.01360 0.60710 0.97150 0.05600
C 	C 	0.00080 0.45380 0.99070 -0.15300
H 	H 	0.96330 0.42480 0.00150 0.10800
C 	C 	0.04290 0.34710 0.99370 0.03200
H 	H 	0.03340 0.24250 0.00440 0.01500
C 	C 	0.96560 0.71840 0.96120 0.06800
C 	C 	0.97220 0.87030 0.93710 -0.13100
H 	H 	0.00860 0.91210 0.93050 0.05600
C 	C 	0.92570 0.95980 0.92290 0.07100
C 	C 	0.87360 0.89340 0.93130 -0.13700
H 	H 	0.84070 0.94960 0.91920 0.06100
C 	C 	0.86980 0.74190 0.95800 0.07300
C 	C 	0.81560 0.66120 0.96860 0.01300
C 	C 	0.76950 0.68190 0.92690 -0.11900
H 	H 	0.76960 0.76200 0.89250 0.05500
C 	C 	0.72350 0.58950 0.93390 0.04500
H 	H 	0.69230 0.60690 0.90390 -0.03200
C 	C 	0.76380 0.46000 0.02510 0.08100
H 	H 	0.76160 0.38600 0.06210 -0.03400
C 	C 	0.81170 0.54630 0.01930 -0.09400
H 	H 	0.84230 0.52750 0.05010 0.06700
C 	C 	0.92850 0.12170 0.89340 -0.02800
C 	C 	0.97490 0.17150 0.85650 -0.03000
H 	H 	0.00730 0.10740 0.85380 0.02000
C 	C 	0.97430 0.31790 0.82270 -0.07100
H 	H 	0.00640 0.35230 0.79780 0.04600
C 	C 	0.92790 0.41000 0.82560 0.02000
C 	C 	0.88260 0.36350 0.86470 -0.06900
H 	H 	0.85030 0.42800 0.86700 0.05100
C 	C 	0.88350 0.22240 0.90100 -0.03000
H 	H 	0.85320 0.19530 0.93100 0.01900
C 	C 	0.92350 0.55450 0.78170 0.04000
C 	C 	0.96450 0.66530 0.77980 -0.09000
H 	H 	0.99710 0.65270 0.80790 0.05600
C 	C 	0.95930 0.79740 0.73720 -0.00100
H 	H 	0.98750 0.87530 0.73770 0.02500
C 	C 	0.91170 0.81430 0.69310 -0.07700
C 	C 	0.87210 0.69650 0.69550 0.01200
H 	H 	0.84050 0.70330 0.66530 0.00100
C 	C 	0.87620 0.57090 0.73930 -0.10200
H 	H 	0.84710 0.49540 0.74080 0.06100
C 	C 	0.96520 0.08700 0.63290 -0.03900
C 	C 	0.01530 0.01620 0.61640 -0.03500
H 	H 	0.01540 0.90990 0.60260 0.03900
C 	C 	0.06510 0.09610 0.61930 -0.04000
H 	H 	0.09950 0.04470 0.60950 0.03600
C 	C 	0.06450 0.25430 0.63690 -0.03700
H 	H 	0.09860 0.31120 0.63870 0.03500
C 	C 	0.01490 0.32700 0.65140 -0.03900
H 	H 	0.01480 0.43480 0.66240 0.04000
C 	C 	0.96530 0.24690 0.65010 -0.03700
H 	H 	0.93120 0.29860 0.66080 0.04400
C 	C 	0.84460 0.08960 0.67050 -0.03900
C 	C 	0.81860 0.19560 0.62800 -0.04300
H 	H 	0.83200 0.21340 0.58180 0.03800
C 	C 	0.77180 0.27810 0.65310 -0.03900
H 	H 	0.75210 0.34800 0.62340 0.02800
C 	C 	0.75460 0.25520 0.72310 -0.05200
H 	H 	0.72380 0.31280 0.74120 0.02400
C 	C 	0.78160 0.15150 0.76490 -0.03000
H 	H 	0.76870 0.13480 0.81140 0.01200
C 	C 	0.82810 0.06890 0.74030 -0.05000
H 	H 	0.84800 0.00010 0.77030 0.04600
O 	O 	0.88640 0.91940 0.56330 -0.40900
