data_crystal

_cell_length_a 24.66630
_cell_length_b 24.66630
_cell_length_c 17.63140
_cell_angle_alpha 90.00000
_cell_angle_beta  90.00000
_cell_angle_gamma 90.00000

_symmetry_space_group_name_	'P 1'
_symmetry_space_group_name_H-M	'P 1'

loop_
_symmetry_equiv_pos_as_xyz
  x,y,z

loop_
_atom_site_label
_atom_site_type_symbol
_atom_site_fract_x
_atom_site_fract_y
_atom_site_fract_z
_atom_site_charge
Ni	Ni	0.25915 0.01862 0.02529 1.00800
O 	O 	0.30204 0.86192 0.96500 -0.32700
O 	O 	0.25859 0.18571 0.03860 -0.31700
N 	N 	0.18531 0.01434 0.99043 -0.18800
N 	N 	0.26397 0.94360 0.99867 -0.31100
N 	N 	0.24342 0.09399 0.03830 -0.30900
N 	N 	0.35685 0.93279 0.99479 -0.33500
H 	H 	0.35660 0.96030 0.01540 0.11300
N 	N 	0.32947 0.12794 0.02270 -0.29100
H 	H 	0.33830 0.09670 0.03630 0.06900
C 	C 	0.16799 0.95770 0.00346 -0.11400
H 	H 	0.13380 0.95040 0.97590 0.05100
H 	H 	0.16150 0.95170 0.05820 0.02700
C 	C 	0.21196 0.91991 0.97563 -0.05000
H 	H 	0.20750 0.88350 0.99840 0.03100
H 	H 	0.21030 0.91640 0.91970 0.02700
C 	C 	0.30670 0.91043 0.98614 0.26300
C 	C 	0.40658 0.90144 0.98955 0.42400
H 	H 	0.40150 0.87330 0.94940 -0.09900
C 	C 	0.42052 0.87276 0.06298 -0.69900
H 	H 	0.39060 0.84870 0.07740 0.21000
H 	H 	0.42640 0.89970 0.10300 0.19000
H 	H 	0.45360 0.85130 0.05600 0.19400
C 	C 	0.45128 0.93921 0.96399 -0.70600
H 	H 	0.44070 0.95680 0.91640 0.21000
H 	H 	0.48470 0.91840 0.95610 0.20300
H 	H 	0.45750 0.96690 0.00300 0.19000
C 	C 	0.15593 0.05267 0.04036 -0.11600
H 	H 	0.15470 0.03840 0.09280 0.02300
H 	H 	0.11820 0.05740 0.02220 0.05200
C 	C 	0.18536 0.10655 0.03904 -0.04600
H 	H 	0.17520 0.12750 0.99330 0.03700
H 	H 	0.17600 0.12820 0.08450 0.02900
C 	C 	0.27578 0.13759 0.03502 0.25200
C 	C 	0.37095 0.16868 0.03261 0.34800
H 	H 	0.35510 0.20580 0.02750 -0.02400
C 	C 	0.40420 0.16530 0.10010 -0.48300
H 	H 	0.38190 0.17290 0.14490 -0.04700
H 	H 	0.43360 0.19200 0.09690 0.13400
H 	H 	0.41970 0.12880 0.10420 0.11700
C 	C 	0.41290 0.15560 0.95990 0.10100
H 	H 	0.39260 0.15710 0.91220 -0.05200
H 	H 	0.42860 0.11940 0.96610 -0.01000
H 	H 	0.44190 0.18270 0.95890 -0.02600
C 	C 	0.17893 0.02962 0.90933 -0.23100
H 	H 	0.19060 0.06720 0.90210 0.05700
H 	H 	0.14080 0.02610 0.89460 0.07300
H 	H 	0.20120 0.00560 0.87780 0.03000
C 	C 	0.37060 0.18430 0.12430 0.23400
C 	C 	0.42110 0.15260 0.00810 -0.58600
H 	H 	0.36040 0.20020 0.00420 -0.06500
H 	H 	0.33390 0.19530 0.13940 -0.07400
H 	H 	0.39590 0.21430 0.13350 -0.03300
H 	H 	0.38170 0.15270 0.15400 0.04700
H 	H 	0.41950 0.14390 0.95400 0.12000
H 	H 	0.43260 0.12050 0.03660 0.16000
H 	H 	0.44720 0.18200 0.01630 0.16300
Ni	Ni	0.75915 0.51862 0.52529 1.00900
O 	O 	0.80204 0.36192 0.46500 -0.32600
O 	O 	0.75859 0.68571 0.53860 -0.31600
N 	N 	0.68531 0.51434 0.49043 -0.18700
N 	N 	0.76397 0.44360 0.49867 -0.31000
N 	N 	0.74342 0.59399 0.53830 -0.30800
N 	N 	0.85685 0.43279 0.49479 -0.33400
H 	H 	0.85660 0.46030 0.51540 0.11400
N 	N 	0.82947 0.62794 0.52270 -0.29000
H 	H 	0.83830 0.59670 0.53630 0.06900
C 	C 	0.66799 0.45770 0.50346 -0.11300
H 	H 	0.63380 0.45040 0.47590 0.05200
H 	H 	0.66150 0.45170 0.55820 0.02800
C 	C 	0.71196 0.41991 0.47563 -0.04900
H 	H 	0.70750 0.38350 0.49840 0.03200
H 	H 	0.71030 0.41640 0.41970 0.02800
C 	C 	0.80670 0.41043 0.48614 0.26400
C 	C 	0.90658 0.40144 0.48955 0.42500
H 	H 	0.90150 0.37330 0.44940 -0.09800
C 	C 	0.92052 0.37276 0.56298 -0.69800
H 	H 	0.89060 0.34870 0.57740 0.21100
H 	H 	0.92640 0.39970 0.60300 0.19100
H 	H 	0.95360 0.35130 0.55600 0.19600
C 	C 	0.95128 0.43921 0.46399 -0.70500
H 	H 	0.94070 0.45680 0.41640 0.21000
H 	H 	0.98470 0.41840 0.45610 0.20400
H 	H 	0.95750 0.46690 0.50300 0.19000
C 	C 	0.65593 0.55267 0.54036 -0.11600
H 	H 	0.65470 0.53840 0.59280 0.02300
H 	H 	0.61820 0.55740 0.52220 0.05200
C 	C 	0.68536 0.60655 0.53904 -0.04600
H 	H 	0.67520 0.62750 0.49330 0.03700
H 	H 	0.67600 0.62820 0.58450 0.02900
C 	C 	0.77578 0.63759 0.53502 0.25200
C 	C 	0.87095 0.66868 0.53261 0.34800
H 	H 	0.85510 0.70580 0.52750 -0.02400
C 	C 	0.90420 0.66530 0.60010 -0.48300
H 	H 	0.88190 0.67290 0.64490 -0.04700
H 	H 	0.93360 0.69200 0.59690 0.13400
H 	H 	0.91970 0.62880 0.60420 0.11800
C 	C 	0.91290 0.65560 0.45990 0.10100
H 	H 	0.89260 0.65710 0.41220 -0.05200
H 	H 	0.92860 0.61940 0.46610 -0.01000
H 	H 	0.94190 0.68270 0.45890 -0.02500
C 	C 	0.67893 0.52962 0.40933 -0.23100
H 	H 	0.69060 0.56720 0.40210 0.05700
H 	H 	0.64080 0.52610 0.39460 0.07300
H 	H 	0.70120 0.50560 0.37780 0.03000
C 	C 	0.87060 0.68430 0.62430 0.23400
C 	C 	0.92110 0.65260 0.50810 -0.58600
H 	H 	0.86040 0.70020 0.50420 -0.06500
H 	H 	0.83390 0.69530 0.63940 -0.07400
H 	H 	0.89590 0.71430 0.63350 -0.03300
H 	H 	0.88170 0.65270 0.65400 0.04700
H 	H 	0.91950 0.64390 0.45400 0.12000
H 	H 	0.93260 0.62050 0.53660 0.16000
H 	H 	0.94720 0.68200 0.51630 0.16300
Ni	Ni	0.74085 0.98138 0.02529 1.00900
O 	O 	0.69796 0.13808 0.96500 -0.32600
O 	O 	0.74141 0.81429 0.03860 -0.31600
N 	N 	0.81469 0.98566 0.99043 -0.18700
N 	N 	0.73603 0.05640 0.99867 -0.31000
N 	N 	0.75658 0.90601 0.03830 -0.30800
N 	N 	0.64315 0.06721 0.99479 -0.33400
H 	H 	0.64340 0.03970 0.01540 0.11400
N 	N 	0.67053 0.87206 0.02270 -0.29000
H 	H 	0.66170 0.90330 0.03630 0.07000
C 	C 	0.83201 0.04230 0.00346 -0.11300
H 	H 	0.86620 0.04960 0.97590 0.05200
H 	H 	0.83850 0.04830 0.05820 0.02800
C 	C 	0.78804 0.08009 0.97563 -0.04900
H 	H 	0.79250 0.11650 0.99840 0.03200
H 	H 	0.78970 0.08360 0.91970 0.02800
C 	C 	0.69330 0.08957 0.98614 0.26400
C 	C 	0.59342 0.09856 0.98955 0.42500
H 	H 	0.59850 0.12670 0.94940 -0.09800
C 	C 	0.57948 0.12724 0.06298 -0.69800
H 	H 	0.60940 0.15130 0.07740 0.21100
H 	H 	0.57360 0.10030 0.10300 0.19100
H 	H 	0.54640 0.14870 0.05600 0.19500
C 	C 	0.54872 0.06079 0.96399 -0.70500
H 	H 	0.55930 0.04320 0.91640 0.21000
H 	H 	0.51530 0.08160 0.95610 0.20300
H 	H 	0.54250 0.03310 0.00300 0.19000
C 	C 	0.84407 0.94733 0.04036 -0.11600
H 	H 	0.84530 0.96160 0.09280 0.02300
H 	H 	0.88180 0.94260 0.02220 0.05200
C 	C 	0.81464 0.89345 0.03904 -0.04600
H 	H 	0.82480 0.87250 0.99330 0.03700
H 	H 	0.82400 0.87180 0.08450 0.02900
C 	C 	0.72422 0.86241 0.03502 0.25200
C 	C 	0.62905 0.83132 0.03261 0.34800
H 	H 	0.64490 0.79420 0.02750 -0.02400
C 	C 	0.59580 0.83470 0.10010 -0.48300
H 	H 	0.61810 0.82710 0.14490 -0.04700
H 	H 	0.56640 0.80800 0.09690 0.13400
H 	H 	0.58030 0.87120 0.10420 0.11700
C 	C 	0.58710 0.84440 0.95990 0.10100
H 	H 	0.60740 0.84290 0.91220 -0.05200
H 	H 	0.57140 0.88060 0.96610 -0.01000
H 	H 	0.55810 0.81730 0.95890 -0.02600
C 	C 	0.82107 0.97038 0.90933 -0.23100
H 	H 	0.80940 0.93280 0.90210 0.05700
H 	H 	0.85920 0.97390 0.89460 0.07300
H 	H 	0.79880 0.99440 0.87780 0.03000
C 	C 	0.62940 0.81570 0.12430 0.23400
C 	C 	0.57890 0.84740 0.00810 -0.58600
H 	H 	0.63960 0.79980 0.00420 -0.06500
H 	H 	0.66610 0.80470 0.13940 -0.07400
H 	H 	0.60410 0.78570 0.13350 -0.03300
H 	H 	0.61830 0.84730 0.15400 0.04700
H 	H 	0.58050 0.85610 0.95400 0.12000
H 	H 	0.56740 0.87950 0.03660 0.16000
H 	H 	0.55280 0.81800 0.01630 0.16300
Ni	Ni	0.24085 0.48138 0.52529 1.00900
O 	O 	0.19796 0.63808 0.46500 -0.32600
O 	O 	0.24141 0.31429 0.53860 -0.31600
N 	N 	0.31469 0.48566 0.49043 -0.18700
N 	N 	0.23603 0.55640 0.49867 -0.31000
N 	N 	0.25658 0.40601 0.53830 -0.30800
N 	N 	0.14315 0.56721 0.49479 -0.33400
H 	H 	0.14340 0.53970 0.51540 0.11400
N 	N 	0.17053 0.37206 0.52270 -0.29000
H 	H 	0.16170 0.40330 0.53630 0.06900
C 	C 	0.33201 0.54230 0.50346 -0.11300
H 	H 	0.36620 0.54960 0.47590 0.05200
H 	H 	0.33850 0.54830 0.55820 0.02800
C 	C 	0.28804 0.58009 0.47563 -0.04900
H 	H 	0.29250 0.61650 0.49840 0.03200
H 	H 	0.28970 0.58360 0.41970 0.02800
C 	C 	0.19330 0.58957 0.48614 0.26400
C 	C 	0.09342 0.59856 0.48955 0.42500
H 	H 	0.09850 0.62670 0.44940 -0.09800
C 	C 	0.07948 0.62724 0.56298 -0.69800
H 	H 	0.10940 0.65130 0.57740 0.21100
H 	H 	0.07360 0.60030 0.60300 0.19100
H 	H 	0.04640 0.64870 0.55600 0.19600
C 	C 	0.04872 0.56079 0.46399 -0.70500
H 	H 	0.05930 0.54320 0.41640 0.21000
H 	H 	0.01530 0.58160 0.45610 0.20400
H 	H 	0.04250 0.53310 0.50300 0.19000
C 	C 	0.34407 0.44733 0.54036 -0.11600
H 	H 	0.34530 0.46160 0.59280 0.02300
H 	H 	0.38180 0.44260 0.52220 0.05200
C 	C 	0.31464 0.39345 0.53904 -0.04600
H 	H 	0.32480 0.37250 0.49330 0.03700
H 	H 	0.32400 0.37180 0.58450 0.02900
C 	C 	0.22422 0.36241 0.53502 0.25200
C 	C 	0.12905 0.33132 0.53261 0.34800
H 	H 	0.14490 0.29420 0.52750 -0.02400
C 	C 	0.09580 0.33470 0.60010 -0.48300
H 	H 	0.11810 0.32710 0.64490 -0.04700
H 	H 	0.06640 0.30800 0.59690 0.13400
H 	H 	0.08030 0.37120 0.60420 0.11800
C 	C 	0.08710 0.34440 0.45990 0.10100
H 	H 	0.10740 0.34290 0.41220 -0.05200
H 	H 	0.07140 0.38060 0.46610 -0.01000
H 	H 	0.05810 0.31730 0.45890 -0.02500
C 	C 	0.32107 0.47038 0.40933 -0.23100
H 	H 	0.30940 0.43280 0.40210 0.05700
H 	H 	0.35920 0.47390 0.39460 0.07300
H 	H 	0.29880 0.49440 0.37780 0.03000
C 	C 	0.12940 0.31570 0.62430 0.23400
C 	C 	0.07890 0.34740 0.50810 -0.58600
H 	H 	0.13960 0.29980 0.50420 -0.06500
H 	H 	0.16610 0.30470 0.63940 -0.07400
H 	H 	0.10410 0.28570 0.63350 -0.03300
H 	H 	0.11830 0.34730 0.65400 0.04700
H 	H 	0.08050 0.35610 0.45400 0.12000
H 	H 	0.06740 0.37950 0.53660 0.16000
H 	H 	0.05280 0.31800 0.51630 0.16300
Ni	Ni	0.01862 0.74085 0.97471 1.00900
O 	O 	0.86192 0.69796 0.03500 -0.32600
O 	O 	0.18571 0.74141 0.96140 -0.31600
N 	N 	0.01434 0.81469 0.00957 -0.18700
N 	N 	0.94360 0.73603 0.00133 -0.31000
N 	N 	0.09399 0.75658 0.96170 -0.30800
N 	N 	0.93279 0.64315 0.00521 -0.33400
H 	H 	0.96030 0.64340 0.98460 0.11400
N 	N 	0.12794 0.67053 0.97730 -0.29000
H 	H 	0.09670 0.66170 0.96370 0.07000
C 	C 	0.95770 0.83201 0.99654 -0.11300
H 	H 	0.95040 0.86620 0.02410 0.05200
H 	H 	0.95170 0.83850 0.94180 0.02800
C 	C 	0.91991 0.78804 0.02437 -0.04900
H 	H 	0.88350 0.79250 0.00160 0.03200
H 	H 	0.91640 0.78970 0.08030 0.02800
C 	C 	0.91043 0.69330 0.01386 0.26400
C 	C 	0.90144 0.59342 0.01045 0.42500
H 	H 	0.87330 0.59850 0.05060 -0.09800
C 	C 	0.87276 0.57948 0.93702 -0.69800
H 	H 	0.84870 0.60940 0.92260 0.21100
H 	H 	0.89970 0.57360 0.89700 0.19100
H 	H 	0.85130 0.54640 0.94400 0.19500
C 	C 	0.93921 0.54872 0.03601 -0.70500
H 	H 	0.95680 0.55930 0.08360 0.21000
H 	H 	0.91840 0.51530 0.04390 0.20300
H 	H 	0.96690 0.54250 0.99700 0.19000
C 	C 	0.05267 0.84407 0.95964 -0.11600
H 	H 	0.03840 0.84530 0.90720 0.02300
H 	H 	0.05740 0.88180 0.97780 0.05200
C 	C 	0.10655 0.81464 0.96096 -0.04600
H 	H 	0.12750 0.82480 0.00670 0.03700
H 	H 	0.12820 0.82400 0.91550 0.02900
C 	C 	0.13759 0.72422 0.96498 0.25200
C 	C 	0.16868 0.62905 0.96739 0.34800
H 	H 	0.20580 0.64490 0.97250 -0.02400
C 	C 	0.16530 0.59580 0.89990 -0.48300
H 	H 	0.17290 0.61810 0.85510 -0.04700
H 	H 	0.19200 0.56640 0.90310 0.13400
H 	H 	0.12880 0.58030 0.89580 0.11700
C 	C 	0.15560 0.58710 0.04010 0.10100
H 	H 	0.15710 0.60740 0.08780 -0.05200
H 	H 	0.11940 0.57140 0.03390 -0.01000
H 	H 	0.18270 0.55810 0.04110 -0.02600
C 	C 	0.02962 0.82107 0.09067 -0.23100
H 	H 	0.06720 0.80940 0.09790 0.05700
H 	H 	0.02610 0.85920 0.10540 0.07300
H 	H 	0.00560 0.79880 0.12220 0.03000
C 	C 	0.18430 0.62940 0.87570 0.23400
C 	C 	0.15260 0.57890 0.99190 -0.58600
H 	H 	0.20020 0.63960 0.99580 -0.06500
H 	H 	0.19530 0.66610 0.86060 -0.07400
H 	H 	0.21430 0.60410 0.86650 -0.03300
H 	H 	0.15270 0.61830 0.84600 0.04700
H 	H 	0.14390 0.58050 0.04600 0.12000
H 	H 	0.12050 0.56740 0.96340 0.16000
H 	H 	0.18200 0.55280 0.98370 0.16300
Ni	Ni	0.51862 0.24085 0.47471 1.00900
O 	O 	0.36192 0.19796 0.53500 -0.32600
O 	O 	0.68571 0.24141 0.46140 -0.31600
N 	N 	0.51434 0.31469 0.50957 -0.18700
N 	N 	0.44360 0.23603 0.50133 -0.31000
N 	N 	0.59399 0.25658 0.46170 -0.30800
N 	N 	0.43279 0.14315 0.50521 -0.33400
H 	H 	0.46030 0.14340 0.48460 0.11400
N 	N 	0.62794 0.17053 0.47730 -0.29000
H 	H 	0.59670 0.16170 0.46370 0.06900
C 	C 	0.45770 0.33201 0.49654 -0.11300
H 	H 	0.45040 0.36620 0.52410 0.05200
H 	H 	0.45170 0.33850 0.44180 0.02800
C 	C 	0.41991 0.28804 0.52437 -0.04900
H 	H 	0.38350 0.29250 0.50160 0.03200
H 	H 	0.41640 0.28970 0.58030 0.02800
C 	C 	0.41043 0.19330 0.51386 0.26400
C 	C 	0.40144 0.09342 0.51045 0.42500
H 	H 	0.37330 0.09850 0.55060 -0.09800
C 	C 	0.37276 0.07948 0.43702 -0.69800
H 	H 	0.34870 0.10940 0.42260 0.21100
H 	H 	0.39970 0.07360 0.39700 0.19100
H 	H 	0.35130 0.04640 0.44400 0.19600
C 	C 	0.43921 0.04872 0.53601 -0.70500
H 	H 	0.45680 0.05930 0.58360 0.21000
H 	H 	0.41840 0.01530 0.54390 0.20400
H 	H 	0.46690 0.04250 0.49700 0.19000
C 	C 	0.55267 0.34407 0.45964 -0.11600
H 	H 	0.53840 0.34530 0.40720 0.02300
H 	H 	0.55740 0.38180 0.47780 0.05200
C 	C 	0.60655 0.31464 0.46096 -0.04600
H 	H 	0.62750 0.32480 0.50670 0.03700
H 	H 	0.62820 0.32400 0.41550 0.02900
C 	C 	0.63759 0.22422 0.46498 0.25200
C 	C 	0.66868 0.12905 0.46739 0.34800
H 	H 	0.70580 0.14490 0.47250 -0.02400
C 	C 	0.66530 0.09580 0.39990 -0.48300
H 	H 	0.67290 0.11810 0.35510 -0.04700
H 	H 	0.69200 0.06640 0.40310 0.13400
H 	H 	0.62880 0.08030 0.39580 0.11800
C 	C 	0.65560 0.08710 0.54010 0.10100
H 	H 	0.65710 0.10740 0.58780 -0.05200
H 	H 	0.61940 0.07140 0.53390 -0.01000
H 	H 	0.68270 0.05810 0.54110 -0.02500
C 	C 	0.52962 0.32107 0.59067 -0.23100
H 	H 	0.56720 0.30940 0.59790 0.05700
H 	H 	0.52610 0.35920 0.60540 0.07300
H 	H 	0.50560 0.29880 0.62220 0.03000
C 	C 	0.68430 0.12940 0.37570 0.23400
C 	C 	0.65260 0.07890 0.49190 -0.58600
H 	H 	0.70020 0.13960 0.49580 -0.06500
H 	H 	0.69530 0.16610 0.36060 -0.07400
H 	H 	0.71430 0.10410 0.36650 -0.03300
H 	H 	0.65270 0.11830 0.34600 0.04700
H 	H 	0.64390 0.08050 0.54600 0.12000
H 	H 	0.62050 0.06740 0.46340 0.16000
H 	H 	0.68200 0.05280 0.48370 0.16300
Ni	Ni	0.98138 0.25915 0.97471 1.00900
O 	O 	0.13808 0.30204 0.03500 -0.32600
O 	O 	0.81429 0.25859 0.96140 -0.31600
N 	N 	0.98566 0.18531 0.00957 -0.18700
N 	N 	0.05640 0.26397 0.00133 -0.31000
N 	N 	0.90601 0.24342 0.96170 -0.30800
N 	N 	0.06721 0.35685 0.00521 -0.33400
H 	H 	0.03970 0.35660 0.98460 0.11400
N 	N 	0.87206 0.32947 0.97730 -0.29000
H 	H 	0.90330 0.33830 0.96370 0.07000
C 	C 	0.04230 0.16799 0.99654 -0.11300
H 	H 	0.04960 0.13380 0.02410 0.05200
H 	H 	0.04830 0.16150 0.94180 0.02800
C 	C 	0.08009 0.21196 0.02437 -0.04900
H 	H 	0.11650 0.20750 0.00160 0.03200
H 	H 	0.08360 0.21030 0.08030 0.02800
C 	C 	0.08957 0.30670 0.01386 0.26400
C 	C 	0.09856 0.40658 0.01045 0.42500
H 	H 	0.12670 0.40150 0.05060 -0.09800
C 	C 	0.12724 0.42052 0.93702 -0.69800
H 	H 	0.15130 0.39060 0.92260 0.21100
H 	H 	0.10030 0.42640 0.89700 0.19100
H 	H 	0.14870 0.45360 0.94400 0.19500
C 	C 	0.06079 0.45128 0.03601 -0.70500
H 	H 	0.04320 0.44070 0.08360 0.21000
H 	H 	0.08160 0.48470 0.04390 0.20300
H 	H 	0.03310 0.45750 0.99700 0.19000
C 	C 	0.94733 0.15593 0.95964 -0.11600
H 	H 	0.96160 0.15470 0.90720 0.02300
H 	H 	0.94260 0.11820 0.97780 0.05200
C 	C 	0.89345 0.18536 0.96096 -0.04600
H 	H 	0.87250 0.17520 0.00670 0.03700
H 	H 	0.87180 0.17600 0.91550 0.02900
C 	C 	0.86241 0.27578 0.96498 0.25200
C 	C 	0.83132 0.37095 0.96739 0.34800
H 	H 	0.79420 0.35510 0.97250 -0.02400
C 	C 	0.83470 0.40420 0.89990 -0.48300
H 	H 	0.82710 0.38190 0.85510 -0.04700
H 	H 	0.80800 0.43360 0.90310 0.13400
H 	H 	0.87120 0.41970 0.89580 0.11700
C 	C 	0.84440 0.41290 0.04010 0.10100
H 	H 	0.84290 0.39260 0.08780 -0.05200
H 	H 	0.88060 0.42860 0.03390 -0.01000
H 	H 	0.81730 0.44190 0.04110 -0.02600
C 	C 	0.97038 0.17893 0.09067 -0.23100
H 	H 	0.93280 0.19060 0.09790 0.05700
H 	H 	0.97390 0.14080 0.10540 0.07300
H 	H 	0.99440 0.20120 0.12220 0.03000
C 	C 	0.81570 0.37060 0.87570 0.23400
C 	C 	0.84740 0.42110 0.99190 -0.58600
H 	H 	0.79980 0.36040 0.99580 -0.06500
H 	H 	0.80470 0.33390 0.86060 -0.07400
H 	H 	0.78570 0.39590 0.86650 -0.03300
H 	H 	0.84730 0.38170 0.84600 0.04700
H 	H 	0.85610 0.41950 0.04600 0.12000
H 	H 	0.87950 0.43260 0.96340 0.16000
H 	H 	0.81800 0.44720 0.98370 0.16300
Ni	Ni	0.48138 0.75915 0.47471 1.00900
O 	O 	0.63808 0.80204 0.53500 -0.32600
O 	O 	0.31429 0.75859 0.46140 -0.31600
N 	N 	0.48566 0.68531 0.50957 -0.18700
N 	N 	0.55640 0.76397 0.50133 -0.31000
N 	N 	0.40601 0.74342 0.46170 -0.30800
N 	N 	0.56721 0.85685 0.50521 -0.33400
H 	H 	0.53970 0.85660 0.48460 0.11400
N 	N 	0.37206 0.82947 0.47730 -0.29000
H 	H 	0.40330 0.83830 0.46370 0.06900
C 	C 	0.54230 0.66799 0.49654 -0.11300
H 	H 	0.54960 0.63380 0.52410 0.05200
H 	H 	0.54830 0.66150 0.44180 0.02800
C 	C 	0.58009 0.71196 0.52437 -0.04900
H 	H 	0.61650 0.70750 0.50160 0.03200
H 	H 	0.58360 0.71030 0.58030 0.02800
C 	C 	0.58957 0.80670 0.51386 0.26400
C 	C 	0.59856 0.90658 0.51045 0.42500
H 	H 	0.62670 0.90150 0.55060 -0.09800
C 	C 	0.62724 0.92052 0.43702 -0.69800
H 	H 	0.65130 0.89060 0.42260 0.21100
H 	H 	0.60030 0.92640 0.39700 0.19100
H 	H 	0.64870 0.95360 0.44400 0.19600
C 	C 	0.56079 0.95128 0.53601 -0.70500
H 	H 	0.54320 0.94070 0.58360 0.21000
H 	H 	0.58160 0.98470 0.54390 0.20400
H 	H 	0.53310 0.95750 0.49700 0.19000
C 	C 	0.44733 0.65593 0.45964 -0.11600
H 	H 	0.46160 0.65470 0.40720 0.02300
H 	H 	0.44260 0.61820 0.47780 0.05200
C 	C 	0.39345 0.68536 0.46096 -0.04600
H 	H 	0.37250 0.67520 0.50670 0.03700
H 	H 	0.37180 0.67600 0.41550 0.02900
C 	C 	0.36241 0.77578 0.46498 0.25200
C 	C 	0.33132 0.87095 0.46739 0.34800
H 	H 	0.29420 0.85510 0.47250 -0.02400
C 	C 	0.33470 0.90420 0.39990 -0.48300
H 	H 	0.32710 0.88190 0.35510 -0.04700
H 	H 	0.30800 0.93360 0.40310 0.13400
H 	H 	0.37120 0.91970 0.39580 0.11800
C 	C 	0.34440 0.91290 0.54010 0.10100
H 	H 	0.34290 0.89260 0.58780 -0.05200
H 	H 	0.38060 0.92860 0.53390 -0.01000
H 	H 	0.31730 0.94190 0.54110 -0.02500
C 	C 	0.47038 0.67893 0.59067 -0.23100
H 	H 	0.43280 0.69060 0.59790 0.05700
H 	H 	0.47390 0.64080 0.60540 0.07300
H 	H 	0.49440 0.70120 0.62220 0.03000
C 	C 	0.31570 0.87060 0.37570 0.23400
C 	C 	0.34740 0.92110 0.49190 -0.58600
H 	H 	0.29980 0.86040 0.49580 -0.06500
H 	H 	0.30470 0.83390 0.36060 -0.07400
H 	H 	0.28570 0.89590 0.36650 -0.03300
H 	H 	0.34730 0.88170 0.34600 0.04700
H 	H 	0.35610 0.91950 0.54600 0.12000
H 	H 	0.37950 0.93260 0.46340 0.16000
H 	H 	0.31800 0.94720 0.48370 0.16300
Ni	Ni	0.24085 0.01862 0.72471 1.00900
O 	O 	0.19796 0.86192 0.78500 -0.32600
O 	O 	0.24141 0.18571 0.71140 -0.31600
N 	N 	0.31469 0.01434 0.75957 -0.18700
N 	N 	0.23603 0.94360 0.75133 -0.31000
N 	N 	0.25658 0.09399 0.71170 -0.30800
N 	N 	0.14315 0.93279 0.75521 -0.33400
H 	H 	0.14340 0.96030 0.73460 0.11400
N 	N 	0.17053 0.12794 0.72730 -0.29000
H 	H 	0.16170 0.09670 0.71370 0.07000
C 	C 	0.33201 0.95770 0.74654 -0.11300
H 	H 	0.36620 0.95040 0.77410 0.05200
H 	H 	0.33850 0.95170 0.69180 0.02800
C 	C 	0.28804 0.91991 0.77437 -0.04900
H 	H 	0.29250 0.88350 0.75160 0.03200
H 	H 	0.28970 0.91640 0.83030 0.02800
C 	C 	0.19330 0.91043 0.76386 0.26400
C 	C 	0.09342 0.90144 0.76045 0.42600
H 	H 	0.09850 0.87330 0.80060 -0.09800
C 	C 	0.07948 0.87276 0.68702 -0.69800
H 	H 	0.10940 0.84870 0.67260 0.21100
H 	H 	0.07360 0.89970 0.64700 0.19100
H 	H 	0.04640 0.85130 0.69400 0.19600
C 	C 	0.04872 0.93921 0.78601 -0.70500
H 	H 	0.05930 0.95680 0.83360 0.21100
H 	H 	0.01530 0.91840 0.79390 0.20400
H 	H 	0.04250 0.96690 0.74700 0.19000
C 	C 	0.34407 0.05267 0.70964 -0.11600
H 	H 	0.34530 0.03840 0.65720 0.02300
H 	H 	0.38180 0.05740 0.72780 0.05200
C 	C 	0.31464 0.10655 0.71096 -0.04600
H 	H 	0.32480 0.12750 0.75670 0.03700
H 	H 	0.32400 0.12820 0.66550 0.02900
C 	C 	0.22422 0.13759 0.71498 0.25200
C 	C 	0.12905 0.16868 0.71739 0.34800
H 	H 	0.14490 0.20580 0.72250 -0.02400
C 	C 	0.09580 0.16530 0.64990 -0.48300
H 	H 	0.11810 0.17290 0.60510 -0.04700
H 	H 	0.06640 0.19200 0.65310 0.13400
H 	H 	0.08030 0.12880 0.64580 0.11800
C 	C 	0.08710 0.15560 0.79010 0.10100
H 	H 	0.10740 0.15710 0.83780 -0.05200
H 	H 	0.07140 0.11940 0.78390 -0.01000
H 	H 	0.05810 0.18270 0.79110 -0.02500
C 	C 	0.32107 0.02962 0.84067 -0.23100
H 	H 	0.30940 0.06720 0.84790 0.05700
H 	H 	0.35920 0.02610 0.85540 0.07300
H 	H 	0.29880 0.00560 0.87220 0.03000
C 	C 	0.12940 0.18430 0.62570 0.23400
C 	C 	0.07890 0.15260 0.74190 -0.58600
H 	H 	0.13960 0.20020 0.74580 -0.06500
H 	H 	0.16610 0.19530 0.61060 -0.07400
H 	H 	0.10410 0.21430 0.61650 -0.03300
H 	H 	0.11830 0.15270 0.59600 0.04700
H 	H 	0.08050 0.14390 0.79600 0.12000
H 	H 	0.06740 0.12050 0.71340 0.16000
H 	H 	0.05280 0.18200 0.73370 0.16300
Ni	Ni	0.74085 0.51862 0.22471 1.00900
O 	O 	0.69796 0.36192 0.28500 -0.32600
O 	O 	0.74141 0.68571 0.21140 -0.31600
N 	N 	0.81469 0.51434 0.25957 -0.18700
N 	N 	0.73603 0.44360 0.25133 -0.31000
N 	N 	0.75658 0.59399 0.21170 -0.30800
N 	N 	0.64315 0.43279 0.25521 -0.33400
H 	H 	0.64340 0.46030 0.23460 0.11400
N 	N 	0.67053 0.62794 0.22730 -0.29000
H 	H 	0.66170 0.59670 0.21370 0.06900
C 	C 	0.83201 0.45770 0.24654 -0.11300
H 	H 	0.86620 0.45040 0.27410 0.05200
H 	H 	0.83850 0.45170 0.19180 0.02800
C 	C 	0.78804 0.41991 0.27437 -0.04900
H 	H 	0.79250 0.38350 0.25160 0.03200
H 	H 	0.78970 0.41640 0.33030 0.02800
C 	C 	0.69330 0.41043 0.26386 0.26400
C 	C 	0.59342 0.40144 0.26045 0.42500
H 	H 	0.59850 0.37330 0.30060 -0.09800
C 	C 	0.57948 0.37276 0.18702 -0.69800
H 	H 	0.60940 0.34870 0.17260 0.21000
H 	H 	0.57360 0.39970 0.14700 0.19000
H 	H 	0.54640 0.35130 0.19400 0.19500
C 	C 	0.54872 0.43921 0.28601 -0.70400
H 	H 	0.55930 0.45680 0.33360 0.21000
H 	H 	0.51530 0.41840 0.29390 0.20300
H 	H 	0.54250 0.46690 0.24700 0.19000
C 	C 	0.84407 0.55267 0.20964 -0.11600
H 	H 	0.84530 0.53840 0.15720 0.02300
H 	H 	0.88180 0.55740 0.22780 0.05200
C 	C 	0.81464 0.60655 0.21096 -0.04600
H 	H 	0.82480 0.62750 0.25670 0.03700
H 	H 	0.82400 0.62820 0.16550 0.02900
C 	C 	0.72422 0.63759 0.21498 0.25200
C 	C 	0.62905 0.66868 0.21739 0.34800
H 	H 	0.64490 0.70580 0.22250 -0.02400
C 	C 	0.59580 0.66530 0.14990 -0.48300
H 	H 	0.61810 0.67290 0.10510 -0.04700
H 	H 	0.56640 0.69200 0.15310 0.13300
H 	H 	0.58030 0.62880 0.14580 0.11700
C 	C 	0.58710 0.65560 0.29010 0.10100
H 	H 	0.60740 0.65710 0.33780 -0.05200
H 	H 	0.57140 0.61940 0.28390 -0.01000
H 	H 	0.55810 0.68270 0.29110 -0.02600
C 	C 	0.82107 0.52962 0.34067 -0.23100
H 	H 	0.80940 0.56720 0.34790 0.05700
H 	H 	0.85920 0.52610 0.35540 0.07300
H 	H 	0.79880 0.50560 0.37220 0.03000
C 	C 	0.62940 0.68430 0.12570 0.23400
C 	C 	0.57890 0.65260 0.24190 -0.58600
H 	H 	0.63960 0.70020 0.24580 -0.06500
H 	H 	0.66610 0.69530 0.11060 -0.07400
H 	H 	0.60410 0.71430 0.11650 -0.03300
H 	H 	0.61830 0.65270 0.09600 0.04700
H 	H 	0.58050 0.64390 0.29600 0.12000
H 	H 	0.56740 0.62050 0.21340 0.16000
H 	H 	0.55280 0.68200 0.23370 0.16300
Ni	Ni	0.75915 0.98138 0.72471 1.00900
O 	O 	0.80204 0.13808 0.78500 -0.32600
O 	O 	0.75859 0.81429 0.71140 -0.31600
N 	N 	0.68531 0.98566 0.75957 -0.18700
N 	N 	0.76397 0.05640 0.75133 -0.31000
N 	N 	0.74342 0.90601 0.71170 -0.30800
N 	N 	0.85685 0.06721 0.75521 -0.33400
H 	H 	0.85660 0.03970 0.73460 0.11400
N 	N 	0.82947 0.87206 0.72730 -0.29000
H 	H 	0.83830 0.90330 0.71370 0.07000
C 	C 	0.66799 0.04230 0.74654 -0.11300
H 	H 	0.63380 0.04960 0.77410 0.05200
H 	H 	0.66150 0.04830 0.69180 0.02800
C 	C 	0.71196 0.08009 0.77437 -0.04900
H 	H 	0.70750 0.11650 0.75160 0.03200
H 	H 	0.71030 0.08360 0.83030 0.02800
C 	C 	0.80670 0.08957 0.76386 0.26400
C 	C 	0.90658 0.09856 0.76045 0.42600
H 	H 	0.90150 0.12670 0.80060 -0.09800
C 	C 	0.92052 0.12724 0.68702 -0.69800
H 	H 	0.89060 0.15130 0.67260 0.21100
H 	H 	0.92640 0.10030 0.64700 0.19100
H 	H 	0.95360 0.14870 0.69400 0.19600
C 	C 	0.95128 0.06079 0.78601 -0.70500
H 	H 	0.94070 0.04320 0.83360 0.21100
H 	H 	0.98470 0.08160 0.79390 0.20400
H 	H 	0.95750 0.03310 0.74700 0.19000
C 	C 	0.65593 0.94733 0.70964 -0.11600
H 	H 	0.65470 0.96160 0.65720 0.02300
H 	H 	0.61820 0.94260 0.72780 0.05200
C 	C 	0.68536 0.89345 0.71096 -0.04600
H 	H 	0.67520 0.87250 0.75670 0.03700
H 	H 	0.67600 0.87180 0.66550 0.02900
C 	C 	0.77578 0.86241 0.71498 0.25200
C 	C 	0.87095 0.83132 0.71739 0.34800
H 	H 	0.85510 0.79420 0.72250 -0.02400
C 	C 	0.90420 0.83470 0.64990 -0.48300
H 	H 	0.88190 0.82710 0.60510 -0.04700
H 	H 	0.93360 0.80800 0.65310 0.13400
H 	H 	0.91970 0.87120 0.64580 0.11800
C 	C 	0.91290 0.84440 0.79010 0.10100
H 	H 	0.89260 0.84290 0.83780 -0.05200
H 	H 	0.92860 0.88060 0.78390 -0.01000
H 	H 	0.94190 0.81730 0.79110 -0.02500
C 	C 	0.67893 0.97038 0.84067 -0.23100
H 	H 	0.69060 0.93280 0.84790 0.05700
H 	H 	0.64080 0.97390 0.85540 0.07300
H 	H 	0.70120 0.99440 0.87220 0.03000
C 	C 	0.87060 0.81570 0.62570 0.23400
C 	C 	0.92110 0.84740 0.74190 -0.58600
H 	H 	0.86040 0.79980 0.74580 -0.06500
H 	H 	0.83390 0.80470 0.61060 -0.07400
H 	H 	0.89590 0.78570 0.61650 -0.03300
H 	H 	0.88170 0.84730 0.59600 0.04700
H 	H 	0.91950 0.85610 0.79600 0.12000
H 	H 	0.93260 0.87950 0.71340 0.16000
H 	H 	0.94720 0.81800 0.73370 0.16300
Ni	Ni	0.25915 0.48138 0.22471 1.00900
O 	O 	0.30204 0.63808 0.28500 -0.32600
O 	O 	0.25859 0.31429 0.21140 -0.31600
N 	N 	0.18531 0.48566 0.25957 -0.18700
N 	N 	0.26397 0.55640 0.25133 -0.31000
N 	N 	0.24342 0.40601 0.21170 -0.30800
N 	N 	0.35685 0.56721 0.25521 -0.33400
H 	H 	0.35660 0.53970 0.23460 0.11400
N 	N 	0.32947 0.37206 0.22730 -0.29000
H 	H 	0.33830 0.40330 0.21370 0.06900
C 	C 	0.16799 0.54230 0.24654 -0.11300
H 	H 	0.13380 0.54960 0.27410 0.05200
H 	H 	0.16150 0.54830 0.19180 0.02800
C 	C 	0.21196 0.58009 0.27437 -0.04900
H 	H 	0.20750 0.61650 0.25160 0.03200
H 	H 	0.21030 0.58360 0.33030 0.02800
C 	C 	0.30670 0.58957 0.26386 0.26400
C 	C 	0.40658 0.59856 0.26045 0.42500
H 	H 	0.40150 0.62670 0.30060 -0.09800
C 	C 	0.42052 0.62724 0.18702 -0.69800
H 	H 	0.39060 0.65130 0.17260 0.21000
H 	H 	0.42640 0.60030 0.14700 0.19000
H 	H 	0.45360 0.64870 0.19400 0.19500
C 	C 	0.45128 0.56079 0.28601 -0.70400
H 	H 	0.44070 0.54320 0.33360 0.21000
H 	H 	0.48470 0.58160 0.29390 0.20300
H 	H 	0.45750 0.53310 0.24700 0.19000
C 	C 	0.15593 0.44733 0.20964 -0.11600
H 	H 	0.15470 0.46160 0.15720 0.02300
H 	H 	0.11820 0.44260 0.22780 0.05200
C 	C 	0.18536 0.39345 0.21096 -0.04600
H 	H 	0.17520 0.37250 0.25670 0.03700
H 	H 	0.17600 0.37180 0.16550 0.02900
C 	C 	0.27578 0.36241 0.21498 0.25200
C 	C 	0.37095 0.33132 0.21739 0.34800
H 	H 	0.35510 0.29420 0.22250 -0.02400
C 	C 	0.40420 0.33470 0.14990 -0.48300
H 	H 	0.38190 0.32710 0.10510 -0.04700
H 	H 	0.43360 0.30800 0.15310 0.13300
H 	H 	0.41970 0.37120 0.14580 0.11700
C 	C 	0.41290 0.34440 0.29010 0.10100
H 	H 	0.39260 0.34290 0.33780 -0.05200
H 	H 	0.42860 0.38060 0.28390 -0.01000
H 	H 	0.44190 0.31730 0.29110 -0.02600
C 	C 	0.17893 0.47038 0.34067 -0.23100
H 	H 	0.19060 0.43280 0.34790 0.05700
H 	H 	0.14080 0.47390 0.35540 0.07300
H 	H 	0.20120 0.49440 0.37220 0.03000
C 	C 	0.37060 0.31570 0.12570 0.23400
C 	C 	0.42110 0.34740 0.24190 -0.58600
H 	H 	0.36040 0.29980 0.24580 -0.06500
H 	H 	0.33390 0.30470 0.11060 -0.07400
H 	H 	0.39590 0.28570 0.11650 -0.03300
H 	H 	0.38170 0.34730 0.09600 0.04700
H 	H 	0.41950 0.35610 0.29600 0.12000
H 	H 	0.43260 0.37950 0.21340 0.16000
H 	H 	0.44720 0.31800 0.23370 0.16300
Ni	Ni	0.48138 0.74085 0.77529 1.00900
O 	O 	0.63808 0.69796 0.71500 -0.32600
O 	O 	0.31429 0.74141 0.78860 -0.31600
N 	N 	0.48566 0.81469 0.74043 -0.18700
N 	N 	0.55640 0.73603 0.74867 -0.31000
N 	N 	0.40601 0.75658 0.78830 -0.30800
N 	N 	0.56721 0.64315 0.74479 -0.33400
H 	H 	0.53970 0.64340 0.76540 0.11400
N 	N 	0.37206 0.67053 0.77270 -0.29000
H 	H 	0.40330 0.66170 0.78630 0.06900
C 	C 	0.54230 0.83201 0.75346 -0.11300
H 	H 	0.54960 0.86620 0.72590 0.05200
H 	H 	0.54830 0.83850 0.80820 0.02800
C 	C 	0.58009 0.78804 0.72563 -0.04900
H 	H 	0.61650 0.79250 0.74840 0.03200
H 	H 	0.58360 0.78970 0.66970 0.02800
C 	C 	0.58957 0.69330 0.73614 0.26400
C 	C 	0.59856 0.59342 0.73955 0.42500
H 	H 	0.62670 0.59850 0.69940 -0.09800
C 	C 	0.62724 0.57948 0.81298 -0.69800
H 	H 	0.65130 0.60940 0.82740 0.21000
H 	H 	0.60030 0.57360 0.85300 0.19000
H 	H 	0.64870 0.54640 0.80600 0.19500
C 	C 	0.56079 0.54872 0.71399 -0.70400
H 	H 	0.54320 0.55930 0.66640 0.21000
H 	H 	0.58160 0.51530 0.70610 0.20300
H 	H 	0.53310 0.54250 0.75300 0.19000
C 	C 	0.44733 0.84407 0.79036 -0.11600
H 	H 	0.46160 0.84530 0.84280 0.02300
H 	H 	0.44260 0.88180 0.77220 0.05200
C 	C 	0.39345 0.81464 0.78904 -0.04600
H 	H 	0.37250 0.82480 0.74330 0.03700
H 	H 	0.37180 0.82400 0.83450 0.02900
C 	C 	0.36241 0.72422 0.78502 0.25200
C 	C 	0.33132 0.62905 0.78261 0.34800
H 	H 	0.29420 0.64490 0.77750 -0.02400
C 	C 	0.33470 0.59580 0.85010 -0.48300
H 	H 	0.32710 0.61810 0.89490 -0.04700
H 	H 	0.30800 0.56640 0.84690 0.13300
H 	H 	0.37120 0.58030 0.85420 0.11700
C 	C 	0.34440 0.58710 0.70990 0.10100
H 	H 	0.34290 0.60740 0.66220 -0.05200
H 	H 	0.38060 0.57140 0.71610 -0.01000
H 	H 	0.31730 0.55810 0.70890 -0.02600
C 	C 	0.47038 0.82107 0.65933 -0.23100
H 	H 	0.43280 0.80940 0.65210 0.05700
H 	H 	0.47390 0.85920 0.64460 0.07300
H 	H 	0.49440 0.79880 0.62780 0.03000
C 	C 	0.31570 0.62940 0.87430 0.23400
C 	C 	0.34740 0.57890 0.75810 -0.58600
H 	H 	0.29980 0.63960 0.75420 -0.06500
H 	H 	0.30470 0.66610 0.88940 -0.07400
H 	H 	0.28570 0.60410 0.88350 -0.03300
H 	H 	0.34730 0.61830 0.90400 0.04700
H 	H 	0.35610 0.58050 0.70400 0.12000
H 	H 	0.37950 0.56740 0.78660 0.16000
H 	H 	0.31800 0.55280 0.76630 0.16300
Ni	Ni	0.98138 0.24085 0.27529 1.00900
O 	O 	0.13808 0.19796 0.21500 -0.32600
O 	O 	0.81429 0.24141 0.28860 -0.31600
N 	N 	0.98566 0.31469 0.24043 -0.18700
N 	N 	0.05640 0.23603 0.24867 -0.31000
N 	N 	0.90601 0.25658 0.28830 -0.30800
N 	N 	0.06721 0.14315 0.24479 -0.33400
H 	H 	0.03970 0.14340 0.26540 0.11400
N 	N 	0.87206 0.17053 0.27270 -0.29000
H 	H 	0.90330 0.16170 0.28630 0.07000
C 	C 	0.04230 0.33201 0.25346 -0.11300
H 	H 	0.04960 0.36620 0.22590 0.05200
H 	H 	0.04830 0.33850 0.30820 0.02800
C 	C 	0.08009 0.28804 0.22563 -0.04900
H 	H 	0.11650 0.29250 0.24840 0.03200
H 	H 	0.08360 0.28970 0.16970 0.02800
C 	C 	0.08957 0.19330 0.23614 0.26400
C 	C 	0.09856 0.09342 0.23955 0.42600
H 	H 	0.12670 0.09850 0.19940 -0.09800
C 	C 	0.12724 0.07948 0.31298 -0.69800
H 	H 	0.15130 0.10940 0.32740 0.21100
H 	H 	0.10030 0.07360 0.35300 0.19100
H 	H 	0.14870 0.04640 0.30600 0.19600
C 	C 	0.06079 0.04872 0.21399 -0.70500
H 	H 	0.04320 0.05930 0.16640 0.21100
H 	H 	0.08160 0.01530 0.20610 0.20400
H 	H 	0.03310 0.04250 0.25300 0.19000
C 	C 	0.94733 0.34407 0.29036 -0.11600
H 	H 	0.96160 0.34530 0.34280 0.02300
H 	H 	0.94260 0.38180 0.27220 0.05200
C 	C 	0.89345 0.31464 0.28904 -0.04600
H 	H 	0.87250 0.32480 0.24330 0.03700
H 	H 	0.87180 0.32400 0.33450 0.02900
C 	C 	0.86241 0.22422 0.28502 0.25200
C 	C 	0.83132 0.12905 0.28261 0.34800
H 	H 	0.79420 0.14490 0.27750 -0.02400
C 	C 	0.83470 0.09580 0.35010 -0.48300
H 	H 	0.82710 0.11810 0.39490 -0.04700
H 	H 	0.80800 0.06640 0.34690 0.13400
H 	H 	0.87120 0.08030 0.35420 0.11800
C 	C 	0.84440 0.08710 0.20990 0.10100
H 	H 	0.84290 0.10740 0.16220 -0.05200
H 	H 	0.88060 0.07140 0.21610 -0.01000
H 	H 	0.81730 0.05810 0.20890 -0.02500
C 	C 	0.97038 0.32107 0.15933 -0.23100
H 	H 	0.93280 0.30940 0.15210 0.05700
H 	H 	0.97390 0.35920 0.14460 0.07300
H 	H 	0.99440 0.29880 0.12780 0.03000
C 	C 	0.81570 0.12940 0.37430 0.23400
C 	C 	0.84740 0.07890 0.25810 -0.58600
H 	H 	0.79980 0.13960 0.25420 -0.06500
H 	H 	0.80470 0.16610 0.38940 -0.07400
H 	H 	0.78570 0.10410 0.38350 -0.03300
H 	H 	0.84730 0.11830 0.40400 0.04700
H 	H 	0.85610 0.08050 0.20400 0.12000
H 	H 	0.87950 0.06740 0.28660 0.16000
H 	H 	0.81800 0.05280 0.26630 0.16300
Ni	Ni	0.51862 0.25915 0.77529 1.00900
O 	O 	0.36192 0.30204 0.71500 -0.32600
O 	O 	0.68571 0.25859 0.78860 -0.31600
N 	N 	0.51434 0.18531 0.74043 -0.18700
N 	N 	0.44360 0.26397 0.74867 -0.31000
N 	N 	0.59399 0.24342 0.78830 -0.30800
N 	N 	0.43279 0.35685 0.74479 -0.33400
H 	H 	0.46030 0.35660 0.76540 0.11400
N 	N 	0.62794 0.32947 0.77270 -0.29000
H 	H 	0.59670 0.33830 0.78630 0.06900
C 	C 	0.45770 0.16799 0.75346 -0.11300
H 	H 	0.45040 0.13380 0.72590 0.05200
H 	H 	0.45170 0.16150 0.80820 0.02800
C 	C 	0.41991 0.21196 0.72563 -0.04900
H 	H 	0.38350 0.20750 0.74840 0.03200
H 	H 	0.41640 0.21030 0.66970 0.02800
C 	C 	0.41043 0.30670 0.73614 0.26400
C 	C 	0.40144 0.40658 0.73955 0.42500
H 	H 	0.37330 0.40150 0.69940 -0.09800
C 	C 	0.37276 0.42052 0.81298 -0.69800
H 	H 	0.34870 0.39060 0.82740 0.21000
H 	H 	0.39970 0.42640 0.85300 0.19000
H 	H 	0.35130 0.45360 0.80600 0.19500
C 	C 	0.43921 0.45128 0.71399 -0.70400
H 	H 	0.45680 0.44070 0.66640 0.21000
H 	H 	0.41840 0.48470 0.70610 0.20300
H 	H 	0.46690 0.45750 0.75300 0.19000
C 	C 	0.55267 0.15593 0.79036 -0.11600
H 	H 	0.53840 0.15470 0.84280 0.02300
H 	H 	0.55740 0.11820 0.77220 0.05200
C 	C 	0.60655 0.18536 0.78904 -0.04600
H 	H 	0.62750 0.17520 0.74330 0.03700
H 	H 	0.62820 0.17600 0.83450 0.02900
C 	C 	0.63759 0.27578 0.78502 0.25200
C 	C 	0.66868 0.37095 0.78261 0.34800
H 	H 	0.70580 0.35510 0.77750 -0.02400
C 	C 	0.66530 0.40420 0.85010 -0.48300
H 	H 	0.67290 0.38190 0.89490 -0.04700
H 	H 	0.69200 0.43360 0.84690 0.13300
H 	H 	0.62880 0.41970 0.85420 0.11700
C 	C 	0.65560 0.41290 0.70990 0.10100
H 	H 	0.65710 0.39260 0.66220 -0.05200
H 	H 	0.61940 0.42860 0.71610 -0.01000
H 	H 	0.68270 0.44190 0.70890 -0.02600
C 	C 	0.52962 0.17893 0.65933 -0.23100
H 	H 	0.56720 0.19060 0.65210 0.05700
H 	H 	0.52610 0.14080 0.64460 0.07300
H 	H 	0.50560 0.20120 0.62780 0.03000
C 	C 	0.68430 0.37060 0.87430 0.23400
C 	C 	0.65260 0.42110 0.75810 -0.58600
H 	H 	0.70020 0.36040 0.75420 -0.06500
H 	H 	0.69530 0.33390 0.88940 -0.07400
H 	H 	0.71430 0.39590 0.88350 -0.03300
H 	H 	0.65270 0.38170 0.90400 0.04700
H 	H 	0.64390 0.41950 0.70400 0.12000
H 	H 	0.62050 0.43260 0.78660 0.16000
H 	H 	0.68200 0.44720 0.76630 0.16300
Ni	Ni	0.01862 0.75915 0.27529 1.00900
O 	O 	0.86192 0.80204 0.21500 -0.32600
O 	O 	0.18571 0.75859 0.28860 -0.31600
N 	N 	0.01434 0.68531 0.24043 -0.18700
N 	N 	0.94360 0.76397 0.24867 -0.31000
N 	N 	0.09399 0.74342 0.28830 -0.30800
N 	N 	0.93279 0.85685 0.24479 -0.33400
H 	H 	0.96030 0.85660 0.26540 0.11400
N 	N 	0.12794 0.82947 0.27270 -0.29000
H 	H 	0.09670 0.83830 0.28630 0.07000
C 	C 	0.95770 0.66799 0.25346 -0.11300
H 	H 	0.95040 0.63380 0.22590 0.05200
H 	H 	0.95170 0.66150 0.30820 0.02800
C 	C 	0.91991 0.71196 0.22563 -0.04900
H 	H 	0.88350 0.70750 0.24840 0.03200
H 	H 	0.91640 0.71030 0.16970 0.02800
C 	C 	0.91043 0.80670 0.23614 0.26400
C 	C 	0.90144 0.90658 0.23955 0.42600
H 	H 	0.87330 0.90150 0.19940 -0.09800
C 	C 	0.87276 0.92052 0.31298 -0.69800
H 	H 	0.84870 0.89060 0.32740 0.21100
H 	H 	0.89970 0.92640 0.35300 0.19100
H 	H 	0.85130 0.95360 0.30600 0.19600
C 	C 	0.93921 0.95128 0.21399 -0.70500
H 	H 	0.95680 0.94070 0.16640 0.21100
H 	H 	0.91840 0.98470 0.20610 0.20400
H 	H 	0.96690 0.95750 0.25300 0.19000
C 	C 	0.05267 0.65593 0.29036 -0.11600
H 	H 	0.03840 0.65470 0.34280 0.02300
H 	H 	0.05740 0.61820 0.27220 0.05200
C 	C 	0.10655 0.68536 0.28904 -0.04600
H 	H 	0.12750 0.67520 0.24330 0.03700
H 	H 	0.12820 0.67600 0.33450 0.02900
C 	C 	0.13759 0.77578 0.28502 0.25200
C 	C 	0.16868 0.87095 0.28261 0.34800
H 	H 	0.20580 0.85510 0.27750 -0.02400
C 	C 	0.16530 0.90420 0.35010 -0.48300
H 	H 	0.17290 0.88190 0.39490 -0.04700
H 	H 	0.19200 0.93360 0.34690 0.13400
H 	H 	0.12880 0.91970 0.35420 0.11800
C 	C 	0.15560 0.91290 0.20990 0.10100
H 	H 	0.15710 0.89260 0.16220 -0.05200
H 	H 	0.11940 0.92860 0.21610 -0.01000
H 	H 	0.18270 0.94190 0.20890 -0.02500
C 	C 	0.02962 0.67893 0.15933 -0.23100
H 	H 	0.06720 0.69060 0.15210 0.05700
H 	H 	0.02610 0.64080 0.14460 0.07300
H 	H 	0.00560 0.70120 0.12780 0.03000
C 	C 	0.18430 0.87060 0.37430 0.23400
C 	C 	0.15260 0.92110 0.25810 -0.58600
H 	H 	0.20020 0.86040 0.25420 -0.06500
H 	H 	0.19530 0.83390 0.38940 -0.07400
H 	H 	0.21430 0.89590 0.38350 -0.03300
H 	H 	0.15270 0.88170 0.40400 0.04700
H 	H 	0.14390 0.91950 0.20400 0.12000
H 	H 	0.12050 0.93260 0.28660 0.16000
H 	H 	0.18200 0.94720 0.26630 0.16300
K 	K 	0.25000 0.79833 0.87500 0.65600
K 	K 	0.75000 0.29833 0.37500 0.65600
K 	K 	0.75000 0.20167 0.87500 0.65600
K 	K 	0.25000 0.70167 0.37500 0.65600
K 	K 	0.79833 0.75000 0.12500 0.65600
K 	K 	0.29833 0.25000 0.62500 0.65600
K 	K 	0.20167 0.25000 0.12500 0.65600
K 	K 	0.70167 0.75000 0.62500 0.65600
