data_crystal

_cell_length_a 16.80200
_cell_length_b 16.80200
_cell_length_c 13.96000
_cell_angle_alpha 90.00000
_cell_angle_beta  90.00000
_cell_angle_gamma 120.00000

_symmetry_space_group_name_	'P 1'
_symmetry_space_group_name_H-M	'P 1'

loop_
_symmetry_equiv_pos_as_xyz
  x,y,z

loop_
_atom_site_label
_atom_site_type_symbol
_atom_site_fract_x
_atom_site_fract_y
_atom_site_fract_z
_atom_site_charge
O 	O 	0.77773 0.42457 0.18150 -0.40900
N 	N 	0.11230 0.50644 0.41281 -0.15700
N 	N 	0.22851 0.56156 0.51762 -0.22600
C 	C 	0.96669 0.45860 0.33121 -0.14500
H 	H 	0.93470 0.42650 0.38550 0.09600
C 	C 	0.06175 0.50556 0.33055 0.16100
C 	C 	0.19114 0.57979 0.44469 0.09500
H 	H 	0.21640 0.63790 0.41720 -0.01000
C 	C 	0.17000 0.46820 0.53650 0.07200
C 	C 	0.17540 0.41200 0.60640 -0.11800
H 	H 	0.22330 0.43460 0.65060 0.08500
C 	C 	0.10670 0.32130 0.60720 -0.00400
H 	H 	0.10890 0.28190 0.65250 0.02900
C 	C 	0.03380 0.28650 0.54200 -0.03800
H 	H 	0.98840 0.22500 0.54580 0.04300
C 	C 	0.02770 0.34140 0.47210 -0.08300
H 	H 	0.97990 0.31820 0.42790 0.06300
C 	C 	0.09630 0.43250 0.47140 0.05500
O 	O 	0.57543 0.35316 0.18150 -0.40900
N 	N 	0.49356 0.60586 0.41281 -0.15700
N 	N 	0.43844 0.66695 0.51762 -0.22600
C 	C 	0.54140 0.50809 0.33121 -0.14600
H 	H 	0.57350 0.50820 0.38550 0.09600
C 	C 	0.49444 0.55619 0.33055 0.16200
C 	C 	0.42021 0.61135 0.44469 0.09500
H 	H 	0.36210 0.57850 0.41720 -0.01000
C 	C 	0.53180 0.70180 0.53650 0.07200
C 	C 	0.58800 0.76340 0.60640 -0.11800
H 	H 	0.56540 0.78870 0.65060 0.08500
C 	C 	0.67870 0.78540 0.60720 -0.00300
H 	H 	0.71810 0.82700 0.65250 0.02900
C 	C 	0.71350 0.74730 0.54200 -0.03800
H 	H 	0.77500 0.76340 0.54580 0.04300
C 	C 	0.65860 0.68630 0.47210 -0.08200
H 	H 	0.68180 0.66170 0.42790 0.06300
C 	C 	0.56750 0.66380 0.47140 0.05500
O 	O 	0.64684 0.22227 0.18150 -0.40900
N 	N 	0.39414 0.88770 0.41281 -0.15700
N 	N 	0.33305 0.77149 0.51762 -0.22600
C 	C 	0.49191 0.03331 0.33121 -0.14500
H 	H 	0.49180 0.06530 0.38550 0.09600
C 	C 	0.44381 0.93825 0.33055 0.16100
C 	C 	0.38865 0.80886 0.44469 0.09500
H 	H 	0.42150 0.78360 0.41720 -0.01000
C 	C 	0.29820 0.83000 0.53650 0.07200
C 	C 	0.23660 0.82460 0.60640 -0.11800
H 	H 	0.21130 0.77670 0.65060 0.08500
C 	C 	0.21460 0.89330 0.60720 -0.00400
H 	H 	0.17300 0.89110 0.65250 0.02900
C 	C 	0.25270 0.96620 0.54200 -0.03800
H 	H 	0.23660 0.01160 0.54580 0.04300
C 	C 	0.31370 0.97230 0.47210 -0.08300
H 	H 	0.33830 0.02010 0.42790 0.06300
C 	C 	0.33620 0.90370 0.47140 0.05500
O 	O 	0.57543 0.22227 0.31850 -0.40900
N 	N 	0.49356 0.88770 0.08719 -0.15700
N 	N 	0.43844 0.77149 0.98238 -0.22500
C 	C 	0.54140 0.03331 0.16879 -0.14500
H 	H 	0.57350 0.06530 0.11450 0.09600
C 	C 	0.49444 0.93825 0.16945 0.16100
C 	C 	0.42021 0.80886 0.05531 0.09500
H 	H 	0.36210 0.78360 0.08280 -0.01000
C 	C 	0.53180 0.83000 0.96350 0.07100
C 	C 	0.58800 0.82460 0.89360 -0.11700
H 	H 	0.56540 0.77670 0.84940 0.08500
C 	C 	0.67870 0.89330 0.89280 -0.00600
H 	H 	0.71810 0.89110 0.84750 0.03000
C 	C 	0.71350 0.96620 0.95800 -0.03400
H 	H 	0.77500 0.01160 0.95420 0.04100
C 	C 	0.65860 0.97230 0.02790 -0.08600
H 	H 	0.68180 0.02010 0.07210 0.06400
C 	C 	0.56750 0.90370 0.02860 0.05600
O 	O 	0.64684 0.42457 0.31850 -0.40900
N 	N 	0.39414 0.50644 0.08719 -0.15700
N 	N 	0.33305 0.56156 0.98238 -0.22500
C 	C 	0.49191 0.45860 0.16879 -0.14600
H 	H 	0.49180 0.42650 0.11450 0.09600
C 	C 	0.44381 0.50556 0.16945 0.16200
C 	C 	0.38865 0.57979 0.05531 0.09500
H 	H 	0.42150 0.63790 0.08280 -0.01000
C 	C 	0.29820 0.46820 0.96350 0.07200
C 	C 	0.23660 0.41200 0.89360 -0.11900
H 	H 	0.21130 0.43460 0.84940 0.08500
C 	C 	0.21460 0.32130 0.89280 -0.00300
H 	H 	0.17300 0.28190 0.84750 0.02900
C 	C 	0.25270 0.28650 0.95800 -0.03800
H 	H 	0.23660 0.22500 0.95420 0.04300
C 	C 	0.31370 0.34140 0.02790 -0.08200
H 	H 	0.33830 0.31820 0.07210 0.06300
C 	C 	0.33620 0.43250 0.02860 0.05500
O 	O 	0.77773 0.35316 0.31850 -0.40900
N 	N 	0.11230 0.60586 0.08719 -0.15700
N 	N 	0.22851 0.66695 0.98238 -0.22500
C 	C 	0.96669 0.50809 0.16879 -0.14500
H 	H 	0.93470 0.50820 0.11450 0.09600
C 	C 	0.06175 0.55619 0.16945 0.16100
C 	C 	0.19114 0.61135 0.05531 0.09500
H 	H 	0.21640 0.57850 0.08280 -0.01000
C 	C 	0.17000 0.70180 0.96350 0.07200
C 	C 	0.17540 0.76340 0.89360 -0.11700
H 	H 	0.22330 0.78870 0.84940 0.08500
C 	C 	0.10670 0.78540 0.89280 -0.00600
H 	H 	0.10890 0.82700 0.84750 0.03000
C 	C 	0.03380 0.74730 0.95800 -0.03300
H 	H 	0.98840 0.76340 0.95420 0.04100
C 	C 	0.02770 0.68630 0.02790 -0.08700
H 	H 	0.97990 0.66170 0.07210 0.06500
C 	C 	0.09630 0.66380 0.02860 0.05600
O 	O 	0.22227 0.57543 0.81850 -0.40900
N 	N 	0.88770 0.49356 0.58719 -0.15700
N 	N 	0.77149 0.43844 0.48238 -0.22600
C 	C 	0.03331 0.54140 0.66879 -0.14500
H 	H 	0.06530 0.57350 0.61450 0.09600
C 	C 	0.93825 0.49444 0.66945 0.16100
C 	C 	0.80886 0.42021 0.55531 0.09500
H 	H 	0.78360 0.36210 0.58280 -0.01000
C 	C 	0.83000 0.53180 0.46350 0.07200
C 	C 	0.82460 0.58800 0.39360 -0.11800
H 	H 	0.77670 0.56540 0.34940 0.08500
C 	C 	0.89330 0.67870 0.39280 -0.00400
H 	H 	0.89110 0.71810 0.34750 0.02900
C 	C 	0.96620 0.71350 0.45800 -0.03800
H 	H 	0.01160 0.77500 0.45420 0.04300
C 	C 	0.97230 0.65860 0.52790 -0.08300
H 	H 	0.02010 0.68180 0.57210 0.06300
C 	C 	0.90370 0.56750 0.52860 0.05500
O 	O 	0.42457 0.64684 0.81850 -0.40900
N 	N 	0.50644 0.39414 0.58719 -0.15700
N 	N 	0.56156 0.33305 0.48238 -0.22600
C 	C 	0.45860 0.49191 0.66879 -0.14600
H 	H 	0.42650 0.49180 0.61450 0.09600
C 	C 	0.50556 0.44381 0.66945 0.16200
C 	C 	0.57979 0.38865 0.55531 0.09500
H 	H 	0.63790 0.42150 0.58280 -0.01000
C 	C 	0.46820 0.29820 0.46350 0.07200
C 	C 	0.41200 0.23660 0.39360 -0.11800
H 	H 	0.43460 0.21130 0.34940 0.08500
C 	C 	0.32130 0.21460 0.39280 -0.00300
H 	H 	0.28190 0.17300 0.34750 0.02900
C 	C 	0.28650 0.25270 0.45800 -0.03800
H 	H 	0.22500 0.23660 0.45420 0.04300
C 	C 	0.34140 0.31370 0.52790 -0.08200
H 	H 	0.31820 0.33830 0.57210 0.06300
C 	C 	0.43250 0.33620 0.52860 0.05500
O 	O 	0.35316 0.77773 0.81850 -0.40900
N 	N 	0.60586 0.11230 0.58719 -0.15700
N 	N 	0.66695 0.22851 0.48238 -0.22600
C 	C 	0.50809 0.96669 0.66879 -0.14500
H 	H 	0.50820 0.93470 0.61450 0.09600
C 	C 	0.55619 0.06175 0.66945 0.16100
C 	C 	0.61135 0.19114 0.55531 0.09500
H 	H 	0.57850 0.21640 0.58280 -0.01000
C 	C 	0.70180 0.17000 0.46350 0.07200
C 	C 	0.76340 0.17540 0.39360 -0.11800
H 	H 	0.78870 0.22330 0.34940 0.08500
C 	C 	0.78540 0.10670 0.39280 -0.00400
H 	H 	0.82700 0.10890 0.34750 0.02900
C 	C 	0.74730 0.03380 0.45800 -0.03800
H 	H 	0.76340 0.98840 0.45420 0.04300
C 	C 	0.68630 0.02770 0.52790 -0.08300
H 	H 	0.66170 0.97990 0.57210 0.06300
C 	C 	0.66380 0.09630 0.52860 0.05500
O 	O 	0.42457 0.77773 0.68150 -0.40900
N 	N 	0.50644 0.11230 0.91281 -0.15700
N 	N 	0.56156 0.22851 0.01762 -0.22500
C 	C 	0.45860 0.96669 0.83121 -0.14500
H 	H 	0.42650 0.93470 0.88550 0.09600
C 	C 	0.50556 0.06175 0.83055 0.16100
C 	C 	0.57979 0.19114 0.94469 0.09500
H 	H 	0.63790 0.21640 0.91720 -0.01000
C 	C 	0.46820 0.17000 0.03650 0.07100
C 	C 	0.41200 0.17540 0.10640 -0.11700
H 	H 	0.43460 0.22330 0.15060 0.08500
C 	C 	0.32130 0.10670 0.10720 -0.00600
H 	H 	0.28190 0.10890 0.15250 0.03000
C 	C 	0.28650 0.03380 0.04200 -0.03400
H 	H 	0.22500 0.98840 0.04580 0.04100
C 	C 	0.34140 0.02770 0.97210 -0.08600
H 	H 	0.31820 0.97990 0.92790 0.06400
C 	C 	0.43250 0.09630 0.97140 0.05600
O 	O 	0.35316 0.57543 0.68150 -0.40900
N 	N 	0.60586 0.49356 0.91281 -0.15700
N 	N 	0.66695 0.43844 0.01762 -0.22500
C 	C 	0.50809 0.54140 0.83121 -0.14600
H 	H 	0.50820 0.57350 0.88550 0.09600
C 	C 	0.55619 0.49444 0.83055 0.16200
C 	C 	0.61135 0.42021 0.94469 0.09500
H 	H 	0.57850 0.36210 0.91720 -0.01000
C 	C 	0.70180 0.53180 0.03650 0.07200
C 	C 	0.76340 0.58800 0.10640 -0.11900
H 	H 	0.78870 0.56540 0.15060 0.08500
C 	C 	0.78540 0.67870 0.10720 -0.00300
H 	H 	0.82700 0.71810 0.15250 0.02900
C 	C 	0.74730 0.71350 0.04200 -0.03800
H 	H 	0.76340 0.77500 0.04580 0.04300
C 	C 	0.68630 0.65860 0.97210 -0.08200
H 	H 	0.66170 0.68180 0.92790 0.06300
C 	C 	0.66380 0.56750 0.97140 0.05500
O 	O 	0.22227 0.64684 0.68150 -0.40900
N 	N 	0.88770 0.39414 0.91281 -0.15700
N 	N 	0.77149 0.33305 0.01762 -0.22500
C 	C 	0.03331 0.49191 0.83121 -0.14500
H 	H 	0.06530 0.49180 0.88550 0.09600
C 	C 	0.93825 0.44381 0.83055 0.16100
C 	C 	0.80886 0.38865 0.94469 0.09500
H 	H 	0.78360 0.42150 0.91720 -0.01000
C 	C 	0.83000 0.29820 0.03650 0.07200
C 	C 	0.82460 0.23660 0.10640 -0.11700
H 	H 	0.77670 0.21130 0.15060 0.08500
C 	C 	0.89330 0.21460 0.10720 -0.00600
H 	H 	0.89110 0.17300 0.15250 0.03000
C 	C 	0.96620 0.25270 0.04200 -0.03300
H 	H 	0.01160 0.23660 0.04580 0.04100
C 	C 	0.97230 0.31370 0.97210 -0.08700
H 	H 	0.02010 0.33830 0.92790 0.06500
C 	C 	0.90370 0.33620 0.97140 0.05600
Ni	Ni	0.66667 0.33333 0.10348 1.10600
Ni	Ni	0.66667 0.33333 0.39652 1.10600
Ni	Ni	0.33333 0.66667 0.89652 1.10600
Ni	Ni	0.33333 0.66667 0.60348 1.10600
C 	C 	0.81550 0.40775 0.25000 0.33200
C 	C 	0.91950 0.45975 0.25000 0.01300
C 	C 	0.11000 0.55500 0.25000 -0.21200
H 	H 	0.17390 0.58695 0.25000 0.10900
C 	C 	0.59225 0.40775 0.25000 0.33200
C 	C 	0.54025 0.45975 0.25000 0.01400
C 	C 	0.44500 0.55500 0.25000 -0.21300
H 	H 	0.41305 0.58695 0.25000 0.10900
C 	C 	0.59225 0.18450 0.25000 0.33200
C 	C 	0.54025 0.08050 0.25000 0.01300
C 	C 	0.44500 0.89000 0.25000 -0.21200
H 	H 	0.41305 0.82610 0.25000 0.10900
C 	C 	0.18450 0.59225 0.75000 0.33200
C 	C 	0.08050 0.54025 0.75000 0.01300
C 	C 	0.89000 0.44500 0.75000 -0.21200
H 	H 	0.82610 0.41305 0.75000 0.10900
C 	C 	0.40775 0.59225 0.75000 0.33200
C 	C 	0.45975 0.54025 0.75000 0.01400
C 	C 	0.55500 0.44500 0.75000 -0.21300
H 	H 	0.58695 0.41305 0.75000 0.10900
C 	C 	0.40775 0.81550 0.75000 0.33200
C 	C 	0.45975 0.91950 0.75000 0.01300
C 	C 	0.55500 0.11000 0.75000 -0.21200
H 	H 	0.58695 0.17390 0.75000 0.10900
