data_crystal

_cell_length_a 16.94600
_cell_length_b 16.94600
_cell_length_c 13.83800
_cell_angle_alpha 90.00000
_cell_angle_beta  90.00000
_cell_angle_gamma 120.00000

_symmetry_space_group_name_	'P 1'
_symmetry_space_group_name_H-M	'P 1'

loop_
_symmetry_equiv_pos_as_xyz
  x,y,z

loop_
_atom_site_label
_atom_site_type_symbol
_atom_site_fract_x
_atom_site_fract_y
_atom_site_fract_z
_atom_site_charge
O 	O 	0.77676 0.42349 0.68060 -0.40600
N 	N 	0.10978 0.50620 0.91394 -0.15600
N 	N 	0.22825 0.56156 0.01593 -0.22400
C 	C 	0.96433 0.45838 0.83254 -0.14400
H 	H 	0.93290 0.42730 0.88780 0.09500
C 	C 	0.05799 0.50473 0.83107 0.16000
C 	C 	0.18970 0.57876 0.94307 0.09400
H 	H 	0.21490 0.63570 0.91390 -0.01000
C 	C 	0.16902 0.46955 0.03803 0.07000
C 	C 	0.17459 0.41404 0.10852 -0.11700
H 	H 	0.22360 0.43640 0.15110 0.08400
C 	C 	0.10540 0.32534 0.11310 -0.00600
H 	H 	0.10740 0.28720 0.16010 0.03000
C 	C 	0.03140 0.29040 0.04840 -0.03400
H 	H 	0.98600 0.22960 0.05340 0.04100
C 	C 	0.02462 0.34387 0.97801 -0.08500
H 	H 	0.97580 0.32090 0.93520 0.06400
C 	C 	0.09435 0.43375 0.97421 0.05600
O 	O 	0.57651 0.35327 0.68060 -0.40600
N 	N 	0.49380 0.60358 0.91394 -0.15600
N 	N 	0.43844 0.66669 0.01593 -0.22500
C 	C 	0.54162 0.50595 0.83254 -0.14500
H 	H 	0.57270 0.50560 0.88780 0.09600
C 	C 	0.49527 0.55326 0.83107 0.16100
C 	C 	0.42124 0.61094 0.94307 0.09400
H 	H 	0.36430 0.57920 0.91390 -0.01000
C 	C 	0.53045 0.69947 0.03803 0.07100
C 	C 	0.58596 0.76055 0.10852 -0.11800
H 	H 	0.56360 0.78720 0.15110 0.08500
C 	C 	0.67466 0.78006 0.11310 -0.00300
H 	H 	0.71280 0.82020 0.16010 0.02900
C 	C 	0.70960 0.74100 0.04840 -0.03700
H 	H 	0.77040 0.75640 0.05340 0.04300
C 	C 	0.65613 0.68075 0.97801 -0.08200
H 	H 	0.67910 0.65490 0.93520 0.06300
C 	C 	0.56625 0.66060 0.97421 0.05500
O 	O 	0.64673 0.22324 0.68060 -0.40600
N 	N 	0.39642 0.89022 0.91394 -0.15600
N 	N 	0.33331 0.77175 0.01593 -0.22400
C 	C 	0.49405 0.03567 0.83254 -0.14400
H 	H 	0.49440 0.06710 0.88780 0.09500
C 	C 	0.44674 0.94201 0.83107 0.16000
C 	C 	0.38906 0.81030 0.94307 0.09400
H 	H 	0.42080 0.78510 0.91390 -0.01000
C 	C 	0.30053 0.83098 0.03803 0.07000
C 	C 	0.23945 0.82541 0.10852 -0.11600
H 	H 	0.21280 0.77640 0.15110 0.08400
C 	C 	0.21994 0.89460 0.11310 -0.00600
H 	H 	0.17980 0.89260 0.16010 0.03000
C 	C 	0.25900 0.96860 0.04840 -0.03300
H 	H 	0.24360 0.01400 0.05340 0.04100
C 	C 	0.31925 0.97538 0.97801 -0.08600
H 	H 	0.34510 0.02420 0.93520 0.06400
C 	C 	0.33940 0.90565 0.97421 0.05600
O 	O 	0.57651 0.22324 0.81940 -0.40600
N 	N 	0.49380 0.89022 0.58606 -0.15600
N 	N 	0.43844 0.77175 0.48407 -0.22500
C 	C 	0.54162 0.03567 0.66746 -0.14400
H 	H 	0.57270 0.06710 0.61220 0.09500
C 	C 	0.49527 0.94201 0.66893 0.16000
C 	C 	0.42124 0.81030 0.55693 0.09500
H 	H 	0.36430 0.78510 0.58610 -0.01000
C 	C 	0.53045 0.83098 0.46197 0.07100
C 	C 	0.58596 0.82541 0.39148 -0.11800
H 	H 	0.56360 0.77640 0.34890 0.08500
C 	C 	0.67466 0.89460 0.38690 -0.00400
H 	H 	0.71280 0.89260 0.33990 0.02900
C 	C 	0.70960 0.96860 0.45160 -0.03700
H 	H 	0.77040 0.01400 0.44660 0.04300
C 	C 	0.65613 0.97538 0.52199 -0.08200
H 	H 	0.67910 0.02420 0.56480 0.06300
C 	C 	0.56625 0.90565 0.52579 0.05500
O 	O 	0.64673 0.42349 0.81940 -0.40600
N 	N 	0.39642 0.50620 0.58606 -0.15600
N 	N 	0.33331 0.56156 0.48407 -0.22500
C 	C 	0.49405 0.45838 0.66746 -0.14500
H 	H 	0.49440 0.42730 0.61220 0.09600
C 	C 	0.44674 0.50473 0.66893 0.16100
C 	C 	0.38906 0.57876 0.55693 0.09500
H 	H 	0.42080 0.63570 0.58610 -0.01000
C 	C 	0.30053 0.46955 0.46197 0.07100
C 	C 	0.23945 0.41404 0.39148 -0.11800
H 	H 	0.21280 0.43640 0.34890 0.08500
C 	C 	0.21994 0.32534 0.38690 -0.00300
H 	H 	0.17980 0.28720 0.33990 0.02900
C 	C 	0.25900 0.29040 0.45160 -0.03700
H 	H 	0.24360 0.22960 0.44660 0.04300
C 	C 	0.31925 0.34387 0.52199 -0.08200
H 	H 	0.34510 0.32090 0.56480 0.06300
C 	C 	0.33940 0.43375 0.52579 0.05500
O 	O 	0.77676 0.35327 0.81940 -0.40600
N 	N 	0.10978 0.60358 0.58606 -0.15600
N 	N 	0.22825 0.66669 0.48407 -0.22500
C 	C 	0.96433 0.50595 0.66746 -0.14400
H 	H 	0.93290 0.50560 0.61220 0.09500
C 	C 	0.05799 0.55326 0.66893 0.16000
C 	C 	0.18970 0.61094 0.55693 0.09500
H 	H 	0.21490 0.57920 0.58610 -0.01000
C 	C 	0.16902 0.69947 0.46197 0.07100
C 	C 	0.17459 0.76055 0.39148 -0.11800
H 	H 	0.22360 0.78720 0.34890 0.08500
C 	C 	0.10540 0.78006 0.38690 -0.00400
H 	H 	0.10740 0.82020 0.33990 0.02900
C 	C 	0.03140 0.74100 0.45160 -0.03700
H 	H 	0.98600 0.75640 0.44660 0.04300
C 	C 	0.02462 0.68075 0.52199 -0.08200
H 	H 	0.97580 0.65490 0.56480 0.06300
C 	C 	0.09435 0.66060 0.52579 0.05500
O 	O 	0.22324 0.57651 0.31940 -0.40600
N 	N 	0.89022 0.49380 0.08606 -0.15600
N 	N 	0.77175 0.43844 0.98407 -0.22400
C 	C 	0.03567 0.54162 0.16746 -0.14400
H 	H 	0.06710 0.57270 0.11220 0.09500
C 	C 	0.94201 0.49527 0.16893 0.16000
C 	C 	0.81030 0.42124 0.05693 0.09400
H 	H 	0.78510 0.36430 0.08610 -0.01000
C 	C 	0.83098 0.53045 0.96197 0.07000
C 	C 	0.82541 0.58596 0.89148 -0.11700
H 	H 	0.77640 0.56360 0.84890 0.08400
C 	C 	0.89460 0.67466 0.88690 -0.00600
H 	H 	0.89260 0.71280 0.83990 0.03000
C 	C 	0.96860 0.70960 0.95160 -0.03400
H 	H 	0.01400 0.77040 0.94660 0.04100
C 	C 	0.97538 0.65613 0.02199 -0.08500
H 	H 	0.02420 0.67910 0.06480 0.06400
C 	C 	0.90565 0.56625 0.02579 0.05600
O 	O 	0.42349 0.64673 0.31940 -0.40600
N 	N 	0.50620 0.39642 0.08606 -0.15600
N 	N 	0.56156 0.33331 0.98407 -0.22500
C 	C 	0.45838 0.49405 0.16746 -0.14500
H 	H 	0.42730 0.49440 0.11220 0.09600
C 	C 	0.50473 0.44674 0.16893 0.16100
C 	C 	0.57876 0.38906 0.05693 0.09400
H 	H 	0.63570 0.42080 0.08610 -0.01000
C 	C 	0.46955 0.30053 0.96197 0.07100
C 	C 	0.41404 0.23945 0.89148 -0.11800
H 	H 	0.43640 0.21280 0.84890 0.08500
C 	C 	0.32534 0.21994 0.88690 -0.00300
H 	H 	0.28720 0.17980 0.83990 0.02900
C 	C 	0.29040 0.25900 0.95160 -0.03700
H 	H 	0.22960 0.24360 0.94660 0.04300
C 	C 	0.34387 0.31925 0.02199 -0.08200
H 	H 	0.32090 0.34510 0.06480 0.06300
C 	C 	0.43375 0.33940 0.02579 0.05500
O 	O 	0.35327 0.77676 0.31940 -0.40600
N 	N 	0.60358 0.10978 0.08606 -0.15600
N 	N 	0.66669 0.22825 0.98407 -0.22400
C 	C 	0.50595 0.96433 0.16746 -0.14400
H 	H 	0.50560 0.93290 0.11220 0.09500
C 	C 	0.55326 0.05799 0.16893 0.16000
C 	C 	0.61094 0.18970 0.05693 0.09400
H 	H 	0.57920 0.21490 0.08610 -0.01000
C 	C 	0.69947 0.16902 0.96197 0.07000
C 	C 	0.76055 0.17459 0.89148 -0.11600
H 	H 	0.78720 0.22360 0.84890 0.08400
C 	C 	0.78006 0.10540 0.88690 -0.00600
H 	H 	0.82020 0.10740 0.83990 0.03000
C 	C 	0.74100 0.03140 0.95160 -0.03300
H 	H 	0.75640 0.98600 0.94660 0.04100
C 	C 	0.68075 0.02462 0.02199 -0.08600
H 	H 	0.65490 0.97580 0.06480 0.06400
C 	C 	0.66060 0.09435 0.02579 0.05600
O 	O 	0.42349 0.77676 0.18060 -0.40600
N 	N 	0.50620 0.10978 0.41394 -0.15600
N 	N 	0.56156 0.22825 0.51593 -0.22500
C 	C 	0.45838 0.96433 0.33254 -0.14400
H 	H 	0.42730 0.93290 0.38780 0.09500
C 	C 	0.50473 0.05799 0.33107 0.16000
C 	C 	0.57876 0.18970 0.44307 0.09500
H 	H 	0.63570 0.21490 0.41390 -0.01000
C 	C 	0.46955 0.16902 0.53803 0.07100
C 	C 	0.41404 0.17459 0.60852 -0.11800
H 	H 	0.43640 0.22360 0.65110 0.08500
C 	C 	0.32534 0.10540 0.61310 -0.00400
H 	H 	0.28720 0.10740 0.66010 0.02900
C 	C 	0.29040 0.03140 0.54840 -0.03700
H 	H 	0.22960 0.98600 0.55340 0.04300
C 	C 	0.34387 0.02462 0.47801 -0.08200
H 	H 	0.32090 0.97580 0.43520 0.06300
C 	C 	0.43375 0.09435 0.47421 0.05500
O 	O 	0.35327 0.57651 0.18060 -0.40600
N 	N 	0.60358 0.49380 0.41394 -0.15600
N 	N 	0.66669 0.43844 0.51593 -0.22500
C 	C 	0.50595 0.54162 0.33254 -0.14500
H 	H 	0.50560 0.57270 0.38780 0.09600
C 	C 	0.55326 0.49527 0.33107 0.16100
C 	C 	0.61094 0.42124 0.44307 0.09500
H 	H 	0.57920 0.36430 0.41390 -0.01000
C 	C 	0.69947 0.53045 0.53803 0.07100
C 	C 	0.76055 0.58596 0.60852 -0.11800
H 	H 	0.78720 0.56360 0.65110 0.08500
C 	C 	0.78006 0.67466 0.61310 -0.00300
H 	H 	0.82020 0.71280 0.66010 0.02900
C 	C 	0.74100 0.70960 0.54840 -0.03700
H 	H 	0.75640 0.77040 0.55340 0.04300
C 	C 	0.68075 0.65613 0.47801 -0.08200
H 	H 	0.65490 0.67910 0.43520 0.06300
C 	C 	0.66060 0.56625 0.47421 0.05500
O 	O 	0.22324 0.64673 0.18060 -0.40600
N 	N 	0.89022 0.39642 0.41394 -0.15600
N 	N 	0.77175 0.33331 0.51593 -0.22500
C 	C 	0.03567 0.49405 0.33254 -0.14400
H 	H 	0.06710 0.49440 0.38780 0.09500
C 	C 	0.94201 0.44674 0.33107 0.16000
C 	C 	0.81030 0.38906 0.44307 0.09500
H 	H 	0.78510 0.42080 0.41390 -0.01000
C 	C 	0.83098 0.30053 0.53803 0.07100
C 	C 	0.82541 0.23945 0.60852 -0.11800
H 	H 	0.77640 0.21280 0.65110 0.08500
C 	C 	0.89460 0.21994 0.61310 -0.00400
H 	H 	0.89260 0.17980 0.66010 0.02900
C 	C 	0.96860 0.25900 0.54840 -0.03700
H 	H 	0.01400 0.24360 0.55340 0.04300
C 	C 	0.97538 0.31925 0.47801 -0.08200
H 	H 	0.02420 0.34510 0.43520 0.06300
C 	C 	0.90565 0.33940 0.47421 0.05500
Ni	Ni	0.66667 0.33333 0.60159 1.10500
Ni	Ni	0.66667 0.33333 0.89841 1.10500
Ni	Ni	0.33333 0.66667 0.39841 1.10500
Ni	Ni	0.33333 0.66667 0.10159 1.10500
C 	C 	0.81497 0.40749 0.75000 0.32800
C 	C 	0.91714 0.45857 0.75000 0.01000
C 	C 	0.10640 0.55320 0.75000 -0.21200
H 	H 	0.16980 0.58490 0.75000 0.10900
C 	C 	0.59252 0.40749 0.75000 0.32800
C 	C 	0.54143 0.45857 0.75000 0.01100
C 	C 	0.44680 0.55320 0.75000 -0.21200
H 	H 	0.41510 0.58490 0.75000 0.10900
C 	C 	0.59251 0.18503 0.75000 0.32800
C 	C 	0.54143 0.08286 0.75000 0.01000
C 	C 	0.44680 0.89360 0.75000 -0.21200
H 	H 	0.41510 0.83020 0.75000 0.10900
C 	C 	0.18503 0.59252 0.25000 0.32800
C 	C 	0.08286 0.54143 0.25000 0.01000
C 	C 	0.89360 0.44680 0.25000 -0.21200
H 	H 	0.83020 0.41510 0.25000 0.10900
C 	C 	0.40748 0.59251 0.25000 0.32800
C 	C 	0.45857 0.54143 0.25000 0.01100
C 	C 	0.55320 0.44680 0.25000 -0.21200
H 	H 	0.58490 0.41510 0.25000 0.10900
C 	C 	0.40749 0.81497 0.25000 0.32800
C 	C 	0.45857 0.91714 0.25000 0.01000
C 	C 	0.55320 0.10640 0.25000 -0.21200
H 	H 	0.58490 0.16980 0.25000 0.10900
