data_crystal

_cell_length_a 17.87200
_cell_length_b 28.46200
_cell_length_c 14.14640
_cell_angle_alpha 90.00000
_cell_angle_beta  91.66200
_cell_angle_gamma 90.00000

_symmetry_space_group_name_	'P 1'
_symmetry_space_group_name_H-M	'P 1'

loop_
_symmetry_equiv_pos_as_xyz
  x,y,z

loop_
_atom_site_label
_atom_site_type_symbol
_atom_site_fract_x
_atom_site_fract_y
_atom_site_fract_z
_atom_site_charge
Mn	Mn	0.00218 0.17519 0.60456 1.28100
O 	O 	0.03466 0.11471 0.68520 -0.44300
N 	N 	0.95190 0.23137 0.50780 -0.23500
N 	N 	0.10684 0.17359 0.51460 -0.23700
O 	O 	0.90020 0.18700 0.67547 -0.44100
O 	O 	0.06967 0.22247 0.68703 -0.44800
N 	N 	0.94980 0.11692 0.51030 -0.23300
C 	C 	0.88620 0.21244 0.74600 0.34500
C 	C 	0.80860 0.23188 0.74870 -0.00100
C 	C 	0.97710 0.01820 0.82890 -0.13200
C 	C 	0.78530 0.25480 0.82950 -0.13800
C 	C 	0.75950 0.22737 0.67020 -0.13800
H 	H 	0.96250 0.03450 0.88230 0.09100
C 	C 	0.97640 0.96951 0.82730 0.16100
H 	H 	0.81770 0.25770 0.88170 0.09100
C 	C 	0.71470 0.27307 0.83210 0.15400
H 	H 	0.77470 0.21210 0.61590 0.09300
C 	C 	0.68880 0.24569 0.67430 0.15500
N 	N 	0.95305 0.94333 0.90920 -0.15600
N 	N 	0.68918 0.29800 0.91400 -0.15600
C 	C 	0.66490 0.26969 0.75430 -0.20400
N 	N 	0.63770 0.24308 0.59450 -0.15700
C 	C 	0.98380 0.90182 0.93920 0.10000
C 	C 	0.89310 0.95195 0.96670 0.05600
C 	C 	0.72870 0.32958 0.97050 0.05900
C 	C 	0.61720 0.29859 0.94370 0.09600
H 	H 	0.61740 0.28300 0.75570 0.10600
C 	C 	0.59330 0.27901 0.56340 0.09400
C 	C 	0.61800 0.20524 0.53890 0.06000
H 	H 	0.02510 0.88820 0.91160 -0.01800
C 	C 	0.89170 0.91386 0.02990 0.06900
C 	C 	0.84010 0.98801 0.96770 -0.08500
C 	C 	0.67700 0.34701 0.03410 0.06400
C 	C 	0.80270 0.34510 0.97140 -0.08800
H 	H 	0.57910 0.28070 0.91570 -0.01500
H 	H 	0.59490 0.30870 0.59080 -0.01400
C 	C 	0.56290 0.22163 0.47480 0.06800
C 	C 	0.63900 0.15900 0.54200 -0.08700
C 	C 	0.83770 0.91120 0.09900 -0.11500
C 	C 	0.78560 0.98410 0.03490 -0.03300
H 	H 	0.84130 0.01310 0.92570 0.06400
C 	C 	0.69780 0.38053 0.10150 -0.11500
C 	C 	0.82180 0.37920 0.03740 -0.03200
H 	H 	0.83730 0.33330 0.92980 0.06400
C 	C 	0.52910 0.19120 0.41040 -0.11800
H 	H 	0.67550 0.14830 0.58510 0.06400
C 	C 	0.60380 0.12910 0.47850 -0.03500
H 	H 	0.83670 0.88650 0.14200 0.07900
C 	C 	0.78580 0.94710 0.10020 -0.00600
H 	H 	0.74800 0.00670 0.03680 0.04200
C 	C 	0.77070 0.39600 0.10280 -0.00800
H 	H 	0.66370 0.39200 0.14410 0.07700
H 	H 	0.87010 0.39130 0.03850 0.04200
C 	C 	0.55090 0.14540 0.41220 -0.00400
H 	H 	0.49260 0.20170 0.36720 0.07800
H 	H 	0.61570 0.09730 0.47990 0.04100
H 	H 	0.74950 0.94670 0.14610 0.03000
H 	H 	0.78640 0.41800 0.14780 0.03100
H 	H 	0.53000 0.12450 0.36820 0.02900
Mn	Mn	0.50218 0.67519 0.60456 1.28400
O 	O 	0.53466 0.61471 0.68520 -0.44200
N 	N 	0.45190 0.73137 0.50780 -0.23700
N 	N 	0.60684 0.67359 0.51460 -0.23600
O 	O 	0.40020 0.68700 0.67547 -0.44100
O 	O 	0.56967 0.72247 0.68703 -0.44600
N 	N 	0.44980 0.61692 0.51030 -0.23200
C 	C 	0.38620 0.71244 0.74600 0.34600
C 	C 	0.30860 0.73188 0.74870 -0.00200
C 	C 	0.47710 0.51820 0.82890 -0.13600
C 	C 	0.28530 0.75480 0.82950 -0.13800
C 	C 	0.25950 0.72737 0.67020 -0.13700
H 	H 	0.46250 0.53450 0.88230 0.09100
C 	C 	0.47640 0.46951 0.82730 0.15600
H 	H 	0.31770 0.75770 0.88170 0.09100
C 	C 	0.21470 0.77307 0.83210 0.15400
H 	H 	0.27470 0.71210 0.61590 0.09300
C 	C 	0.18880 0.74569 0.67430 0.15400
N 	N 	0.45305 0.44333 0.90920 -0.15500
N 	N 	0.18918 0.79800 0.91400 -0.15600
C 	C 	0.16490 0.76969 0.75430 -0.20400
N 	N 	0.13770 0.74308 0.59450 -0.15600
C 	C 	0.48380 0.40182 0.93920 0.09400
C 	C 	0.39310 0.45195 0.96670 0.05600
C 	C 	0.22870 0.82958 0.97050 0.06000
C 	C 	0.11720 0.79859 0.94370 0.09900
H 	H 	0.11740 0.78300 0.75570 0.10600
C 	C 	0.09330 0.77901 0.56340 0.09400
C 	C 	0.11800 0.70524 0.53890 0.05400
H 	H 	0.52510 0.38820 0.91160 -0.01400
C 	C 	0.39170 0.41386 0.02990 0.06700
C 	C 	0.34010 0.48801 0.96770 -0.08100
C 	C 	0.17700 0.84701 0.03410 0.06200
C 	C 	0.30270 0.84510 0.97140 -0.08400
H 	H 	0.07910 0.78070 0.91570 -0.01700
H 	H 	0.09490 0.80870 0.59080 -0.01500
C 	C 	0.06290 0.72163 0.47480 0.07700
C 	C 	0.13900 0.65900 0.54200 -0.07700
C 	C 	0.33770 0.41120 0.09900 -0.11700
C 	C 	0.28560 0.48410 0.03490 -0.03900
H 	H 	0.34130 0.51310 0.92570 0.06200
C 	C 	0.19780 0.88053 0.10150 -0.11600
C 	C 	0.32180 0.87920 0.03740 -0.03700
H 	H 	0.33730 0.83330 0.92980 0.06300
C 	C 	0.02910 0.69120 0.41040 -0.14300
H 	H 	0.17550 0.64830 0.58510 0.06000
C 	C 	0.10380 0.62910 0.47850 -0.04900
H 	H 	0.33670 0.38650 0.14200 0.07900
C 	C 	0.28580 0.44710 0.10020 -0.00400
H 	H 	0.24800 0.50670 0.03680 0.04200
C 	C 	0.27070 0.89600 0.10280 -0.00700
H 	H 	0.16370 0.89200 0.14410 0.07700
H 	H 	0.37010 0.89130 0.03850 0.04200
C 	C 	0.05090 0.64540 0.41220 0.01400
H 	H 	0.99260 0.70170 0.36720 0.09100
H 	H 	0.11570 0.59730 0.47990 0.04500
H 	H 	0.24950 0.44670 0.14610 0.02900
H 	H 	0.28640 0.91800 0.14780 0.03000
H 	H 	0.03000 0.62450 0.36820 0.02100
Mn	Mn	0.99782 0.17519 0.89544 1.28600
O 	O 	0.96534 0.11471 0.81480 -0.43700
N 	N 	0.04810 0.23137 0.99220 -0.23900
N 	N 	0.89316 0.17359 0.98540 -0.23600
O 	O 	0.09980 0.18700 0.82453 -0.44300
O 	O 	0.93033 0.22247 0.81297 -0.44500
N 	N 	0.05020 0.11692 0.98970 -0.22900
C 	C 	0.11380 0.21244 0.75400 0.34600
C 	C 	0.19140 0.23188 0.75130 -0.00200
C 	C 	0.02290 0.01820 0.67110 -0.13600
C 	C 	0.21470 0.25480 0.67050 -0.13800
C 	C 	0.24050 0.22737 0.82980 -0.13800
H 	H 	0.03750 0.03450 0.61770 0.09000
C 	C 	0.02360 0.96951 0.67270 0.15500
H 	H 	0.18230 0.25770 0.61830 0.09100
C 	C 	0.28530 0.27307 0.66790 0.15400
H 	H 	0.22530 0.21210 0.88410 0.09300
C 	C 	0.31120 0.24569 0.82570 0.15500
N 	N 	0.04695 0.94333 0.59080 -0.15300
N 	N 	0.31082 0.29800 0.58600 -0.15600
C 	C 	0.33510 0.26969 0.74570 -0.20400
N 	N 	0.36230 0.24308 0.90550 -0.15700
C 	C 	0.01620 0.90182 0.56080 0.08300
C 	C 	0.10690 0.95195 0.53330 0.05600
C 	C 	0.27130 0.32958 0.52950 0.05900
C 	C 	0.38280 0.29859 0.55630 0.09700
H 	H 	0.38260 0.28300 0.74430 0.10600
C 	C 	0.40670 0.27901 0.93660 0.09500
C 	C 	0.38200 0.20524 0.96110 0.06000
H 	H 	0.97490 0.88820 0.58840 -0.00600
C 	C 	0.10830 0.91386 0.47010 0.06600
C 	C 	0.15990 0.98801 0.53230 -0.08300
C 	C 	0.32300 0.34701 0.46590 0.06300
C 	C 	0.19730 0.34510 0.52860 -0.08500
H 	H 	0.42090 0.28070 0.58430 -0.01500
H 	H 	0.40510 0.30870 0.90920 -0.01400
C 	C 	0.43710 0.22163 0.02520 0.06700
C 	C 	0.36100 0.15900 0.95800 -0.08600
C 	C 	0.16230 0.91120 0.40100 -0.11700
C 	C 	0.21440 0.98410 0.46510 -0.03700
H 	H 	0.15870 0.01310 0.57430 0.06200
C 	C 	0.30220 0.38053 0.39850 -0.11600
C 	C 	0.17820 0.37920 0.46260 -0.03600
H 	H 	0.16270 0.33330 0.57020 0.06200
C 	C 	0.47090 0.19120 0.08960 -0.11900
H 	H 	0.32450 0.14830 0.91490 0.06400
C 	C 	0.39620 0.12910 0.02150 -0.03700
H 	H 	0.16330 0.88650 0.35800 0.07900
C 	C 	0.21420 0.94710 0.39980 -0.00500
H 	H 	0.25200 0.00670 0.46320 0.04200
C 	C 	0.22930 0.39600 0.39720 -0.00700
H 	H 	0.33630 0.39200 0.35590 0.07800
H 	H 	0.12990 0.39130 0.46150 0.04000
C 	C 	0.44910 0.14540 0.08780 -0.00300
H 	H 	0.50740 0.20170 0.13280 0.07800
H 	H 	0.38430 0.09730 0.02010 0.04100
H 	H 	0.25050 0.94670 0.35390 0.02900
H 	H 	0.21360 0.41800 0.35220 0.02900
H 	H 	0.47000 0.12450 0.13180 0.02900
Mn	Mn	0.49782 0.67519 0.89544 1.28400
O 	O 	0.46534 0.61471 0.81480 -0.44200
N 	N 	0.54810 0.73137 0.99220 -0.23800
N 	N 	0.39316 0.67359 0.98540 -0.23500
O 	O 	0.59980 0.68700 0.82453 -0.44100
O 	O 	0.43033 0.72247 0.81297 -0.44600
N 	N 	0.55020 0.61692 0.98970 -0.23200
C 	C 	0.61380 0.71244 0.75400 0.34600
C 	C 	0.69140 0.73188 0.75130 -0.00100
C 	C 	0.52290 0.51820 0.67110 -0.13600
C 	C 	0.71470 0.75480 0.67050 -0.13800
C 	C 	0.74050 0.72737 0.82980 -0.13800
H 	H 	0.53750 0.53450 0.61770 0.09100
C 	C 	0.52360 0.46951 0.67270 0.15600
H 	H 	0.68230 0.75770 0.61830 0.09100
C 	C 	0.78530 0.77307 0.66790 0.15500
H 	H 	0.72530 0.71210 0.88410 0.09300
C 	C 	0.81120 0.74569 0.82570 0.15500
N 	N 	0.54695 0.44333 0.59080 -0.15500
N 	N 	0.81082 0.79800 0.58600 -0.15600
C 	C 	0.83510 0.76969 0.74570 -0.20500
N 	N 	0.86230 0.74308 0.90550 -0.15800
C 	C 	0.51620 0.40182 0.56080 0.09400
C 	C 	0.60690 0.45195 0.53330 0.05700
C 	C 	0.77130 0.82958 0.52950 0.05900
C 	C 	0.88280 0.79859 0.55630 0.09700
H 	H 	0.88260 0.78300 0.74430 0.10700
C 	C 	0.90670 0.77901 0.93660 0.09200
C 	C 	0.88200 0.70524 0.96110 0.06700
H 	H 	0.47490 0.38820 0.58840 -0.01400
C 	C 	0.60830 0.41386 0.47010 0.06700
C 	C 	0.65990 0.48801 0.53230 -0.08200
C 	C 	0.82300 0.84701 0.46590 0.06400
C 	C 	0.69730 0.84510 0.52860 -0.08500
H 	H 	0.92090 0.78070 0.58430 -0.01400
H 	H 	0.90510 0.80870 0.90920 -0.01300
C 	C 	0.93710 0.72163 0.02520 0.05800
C 	C 	0.86100 0.65900 0.95800 -0.10100
C 	C 	0.66230 0.41120 0.40100 -0.11600
C 	C 	0.71440 0.48410 0.46510 -0.03700
H 	H 	0.65870 0.51310 0.57430 0.06300
C 	C 	0.80220 0.88053 0.39850 -0.11600
C 	C 	0.67820 0.87920 0.46260 -0.03500
H 	H 	0.66270 0.83330 0.57020 0.06300
C 	C 	0.97090 0.69120 0.08960 -0.08800
H 	H 	0.82450 0.64830 0.91490 0.06900
C 	C 	0.89620 0.62910 0.02150 -0.01600
H 	H 	0.66330 0.38650 0.35800 0.07900
C 	C 	0.71420 0.44710 0.39980 -0.00500
H 	H 	0.75200 0.50670 0.46320 0.04300
C 	C 	0.72930 0.89600 0.39720 -0.00700
H 	H 	0.83630 0.89200 0.35590 0.07800
H 	H 	0.62990 0.89130 0.46150 0.04100
C 	C 	0.94910 0.64540 0.08780 -0.02500
H 	H 	0.00740 0.70170 0.13280 0.06200
H 	H 	0.88430 0.59730 0.02010 0.03500
H 	H 	0.75050 0.44670 0.35390 0.03000
H 	H 	0.71360 0.91800 0.35220 0.03000
H 	H 	0.97000 0.62450 0.13180 0.03900
Mn	Mn	0.99782 0.82481 0.39544 1.28700
O 	O 	0.96534 0.88529 0.31480 -0.43500
N 	N 	0.04810 0.76863 0.49220 -0.24100
N 	N 	0.89316 0.82641 0.48540 -0.23500
O 	O 	0.09980 0.81300 0.32453 -0.44300
O 	O 	0.93033 0.77753 0.31297 -0.44400
N 	N 	0.05020 0.88308 0.48970 -0.23200
C 	C 	0.11380 0.78756 0.25400 0.34600
C 	C 	0.19140 0.76812 0.25130 -0.00200
C 	C 	0.02290 0.98180 0.17110 -0.13600
C 	C 	0.21470 0.74520 0.17050 -0.13800
C 	C 	0.24050 0.77263 0.32980 -0.13700
H 	H 	0.03750 0.96550 0.11770 0.09000
C 	C 	0.02360 0.03049 0.17270 0.15600
H 	H 	0.18230 0.74230 0.11830 0.09000
C 	C 	0.28530 0.72693 0.16790 0.15400
H 	H 	0.22530 0.78790 0.38410 0.09300
C 	C 	0.31120 0.75431 0.32570 0.15500
N 	N 	0.04695 0.05667 0.09080 -0.15200
N 	N 	0.31082 0.70200 0.08600 -0.15600
C 	C 	0.33510 0.73031 0.24570 -0.20400
N 	N 	0.36230 0.75692 0.40550 -0.15700
C 	C 	0.01620 0.09818 0.06080 0.07600
C 	C 	0.10690 0.04805 0.03330 0.05500
C 	C 	0.27130 0.67042 0.02950 0.05900
C 	C 	0.38280 0.70141 0.05630 0.09600
H 	H 	0.38260 0.71700 0.24430 0.10600
C 	C 	0.40670 0.72099 0.43660 0.09400
C 	C 	0.38200 0.79476 0.46110 0.06000
H 	H 	0.97490 0.11180 0.08840 -0.00200
C 	C 	0.10830 0.08614 0.97010 0.06800
C 	C 	0.15990 0.01199 0.03230 -0.08600
C 	C 	0.32300 0.65299 0.96590 0.06400
C 	C 	0.19730 0.65490 0.02860 -0.08800
H 	H 	0.42090 0.71930 0.08430 -0.01500
H 	H 	0.40510 0.69130 0.40920 -0.01400
C 	C 	0.43710 0.77837 0.52520 0.06800
C 	C 	0.36100 0.84100 0.45800 -0.08700
C 	C 	0.16230 0.08880 0.90100 -0.11600
C 	C 	0.21440 0.01590 0.96510 -0.03400
H 	H 	0.15870 0.98690 0.07430 0.06300
C 	C 	0.30220 0.61947 0.89850 -0.11500
C 	C 	0.17820 0.62080 0.96260 -0.03200
H 	H 	0.16270 0.66670 0.07020 0.06300
C 	C 	0.47090 0.80880 0.58960 -0.11800
H 	H 	0.32450 0.85170 0.41490 0.06400
C 	C 	0.39620 0.87090 0.52150 -0.03500
H 	H 	0.16330 0.11350 0.85800 0.07900
C 	C 	0.21420 0.05290 0.89980 -0.00600
H 	H 	0.25200 0.99330 0.96320 0.04200
C 	C 	0.22930 0.60400 0.89720 -0.00900
H 	H 	0.33630 0.60800 0.85590 0.07700
H 	H 	0.12990 0.60870 0.96150 0.03900
C 	C 	0.44910 0.85460 0.58780 -0.00400
H 	H 	0.50740 0.79830 0.63280 0.07800
H 	H 	0.38430 0.90270 0.52010 0.04100
H 	H 	0.25050 0.05330 0.85390 0.03000
H 	H 	0.21360 0.58200 0.85220 0.03000
H 	H 	0.47000 0.87550 0.63180 0.02900
Mn	Mn	0.49782 0.32481 0.39544 1.28400
O 	O 	0.46534 0.38529 0.31480 -0.44200
N 	N 	0.54810 0.26863 0.49220 -0.23700
N 	N 	0.39316 0.32641 0.48540 -0.23600
O 	O 	0.59980 0.31300 0.32453 -0.44100
O 	O 	0.43033 0.27753 0.31297 -0.44600
N 	N 	0.55020 0.38308 0.48970 -0.23200
C 	C 	0.61380 0.28756 0.25400 0.34600
C 	C 	0.69140 0.26812 0.25130 -0.00100
C 	C 	0.52290 0.48180 0.17110 -0.13600
C 	C 	0.71470 0.24520 0.17050 -0.13800
C 	C 	0.74050 0.27263 0.32980 -0.13800
H 	H 	0.53750 0.46550 0.11770 0.09100
C 	C 	0.52360 0.53049 0.17270 0.15600
H 	H 	0.68230 0.24230 0.11830 0.09100
C 	C 	0.78530 0.22693 0.16790 0.15500
H 	H 	0.72530 0.28790 0.38410 0.09300
C 	C 	0.81120 0.25431 0.32570 0.15600
N 	N 	0.54695 0.55667 0.09080 -0.15500
N 	N 	0.81082 0.20200 0.08600 -0.15600
C 	C 	0.83510 0.23031 0.24570 -0.20500
N 	N 	0.86230 0.25692 0.40550 -0.15800
C 	C 	0.51620 0.59818 0.06080 0.09400
C 	C 	0.60690 0.54805 0.03330 0.05700
C 	C 	0.77130 0.17042 0.02950 0.06000
C 	C 	0.88280 0.20141 0.05630 0.09900
H 	H 	0.88260 0.21700 0.24430 0.10800
C 	C 	0.90670 0.22099 0.43660 0.09500
C 	C 	0.88200 0.29476 0.46110 0.06600
H 	H 	0.47490 0.61180 0.08840 -0.01400
C 	C 	0.60830 0.58614 0.97010 0.06700
C 	C 	0.65990 0.51199 0.03230 -0.08100
C 	C 	0.82300 0.15299 0.96590 0.06200
C 	C 	0.69730 0.15490 0.02860 -0.08400
H 	H 	0.92090 0.21930 0.08430 -0.01400
H 	H 	0.90510 0.19130 0.40920 -0.01400
C 	C 	0.93710 0.27837 0.52520 0.06000
C 	C 	0.86100 0.34100 0.45800 -0.09400
C 	C 	0.66230 0.58880 0.90100 -0.11700
C 	C 	0.71440 0.51590 0.96510 -0.03900
H 	H 	0.65870 0.48690 0.07430 0.06200
C 	C 	0.80220 0.11947 0.89850 -0.11600
C 	C 	0.67820 0.12080 0.96260 -0.03700
H 	H 	0.66270 0.16670 0.07020 0.06300
C 	C 	0.97090 0.30880 0.58960 -0.09700
H 	H 	0.82450 0.35170 0.41490 0.06700
C 	C 	0.89620 0.37090 0.52150 -0.02400
H 	H 	0.66330 0.61350 0.85800 0.07900
C 	C 	0.71420 0.55290 0.89980 -0.00400
H 	H 	0.75200 0.49330 0.96320 0.04300
C 	C 	0.72930 0.10400 0.89720 -0.00700
H 	H 	0.83630 0.10800 0.85590 0.07800
H 	H 	0.62990 0.10870 0.96150 0.04200
C 	C 	0.94910 0.35460 0.58780 -0.01800
H 	H 	0.00740 0.29830 0.63280 0.06700
H 	H 	0.88430 0.40270 0.52010 0.03800
H 	H 	0.75050 0.55330 0.85390 0.02900
H 	H 	0.71360 0.08200 0.85220 0.03000
H 	H 	0.97000 0.37550 0.63180 0.03600
Mn	Mn	0.00218 0.82481 0.10456 1.28200
O 	O 	0.03466 0.88529 0.18520 -0.44200
N 	N 	0.95190 0.76863 0.00780 -0.23200
N 	N 	0.10684 0.82641 0.01460 -0.23700
O 	O 	0.90020 0.81300 0.17547 -0.43900
O 	O 	0.06967 0.77753 0.18703 -0.44800
N 	N 	0.94980 0.88308 0.01030 -0.23000
C 	C 	0.88620 0.78756 0.24600 0.34500
C 	C 	0.80860 0.76812 0.24870 -0.00100
C 	C 	0.97710 0.98180 0.32890 -0.13000
C 	C 	0.78530 0.74520 0.32950 -0.13800
C 	C 	0.75950 0.77263 0.17020 -0.13800
H 	H 	0.96250 0.96550 0.38230 0.09100
C 	C 	0.97640 0.03049 0.32730 0.16400
H 	H 	0.81770 0.74230 0.38170 0.09100
C 	C 	0.71470 0.72693 0.33210 0.15500
H 	H 	0.77470 0.78790 0.11590 0.09300
C 	C 	0.68880 0.75431 0.17430 0.15500
N 	N 	0.95305 0.05667 0.40920 -0.15700
N 	N 	0.68918 0.70200 0.41400 -0.15600
C 	C 	0.66490 0.73031 0.25430 -0.20500
N 	N 	0.63770 0.75692 0.09450 -0.15700
C 	C 	0.98380 0.09818 0.43920 0.10800
C 	C 	0.89310 0.04805 0.46670 0.05800
C 	C 	0.72870 0.67042 0.47050 0.05900
C 	C 	0.61720 0.70141 0.44370 0.09700
H 	H 	0.61740 0.71700 0.25570 0.10600
C 	C 	0.59330 0.72099 0.06340 0.09500
C 	C 	0.61800 0.79476 0.03890 0.06000
H 	H 	0.02510 0.11180 0.41160 -0.02200
C 	C 	0.89170 0.08614 0.52990 0.06700
C 	C 	0.84010 0.01199 0.46770 -0.08300
C 	C 	0.67700 0.65299 0.53410 0.06400
C 	C 	0.80270 0.65490 0.47140 -0.08400
H 	H 	0.57910 0.71930 0.41570 -0.01500
H 	H 	0.59490 0.69130 0.09080 -0.01400
C 	C 	0.56290 0.77837 0.97480 0.06700
C 	C 	0.63900 0.84100 0.04200 -0.08500
C 	C 	0.83770 0.08880 0.59900 -0.11600
C 	C 	0.78560 0.01590 0.53490 -0.03600
H 	H 	0.84130 0.98690 0.42570 0.06300
C 	C 	0.69780 0.61947 0.60150 -0.11600
C 	C 	0.82180 0.62080 0.53740 -0.03600
H 	H 	0.83730 0.66670 0.42980 0.06300
C 	C 	0.52910 0.80880 0.91040 -0.11900
H 	H 	0.67550 0.85170 0.08510 0.06300
C 	C 	0.60380 0.87090 0.97850 -0.03700
H 	H 	0.83670 0.11350 0.64200 0.07900
C 	C 	0.78580 0.05290 0.60020 -0.00500
H 	H 	0.74800 0.99330 0.53680 0.04200
C 	C 	0.77070 0.60400 0.60280 -0.00600
H 	H 	0.66370 0.60800 0.64410 0.07800
H 	H 	0.87010 0.60870 0.53850 0.04300
C 	C 	0.55090 0.85460 0.91220 -0.00300
H 	H 	0.49260 0.79830 0.86720 0.07800
H 	H 	0.61570 0.90270 0.97990 0.04100
H 	H 	0.74950 0.05330 0.64610 0.03000
H 	H 	0.78640 0.58200 0.64780 0.03000
H 	H 	0.53000 0.87550 0.86820 0.02900
Mn	Mn	0.50218 0.32481 0.10456 1.28400
O 	O 	0.53466 0.38529 0.18520 -0.44200
N 	N 	0.45190 0.26863 0.00780 -0.23800
N 	N 	0.60684 0.32641 0.01460 -0.23500
O 	O 	0.40020 0.31300 0.17547 -0.44200
O 	O 	0.56967 0.27753 0.18703 -0.44600
N 	N 	0.44980 0.38308 0.01030 -0.23200
C 	C 	0.38620 0.28756 0.24600 0.34600
C 	C 	0.30860 0.26812 0.24870 -0.00200
C 	C 	0.47710 0.48180 0.32890 -0.13600
C 	C 	0.28530 0.24520 0.32950 -0.13800
C 	C 	0.25950 0.27263 0.17020 -0.13700
H 	H 	0.46250 0.46550 0.38230 0.09100
C 	C 	0.47640 0.53049 0.32730 0.15600
H 	H 	0.31770 0.24230 0.38170 0.09100
C 	C 	0.21470 0.22693 0.33210 0.15400
H 	H 	0.27470 0.28790 0.11590 0.09300
C 	C 	0.18880 0.25431 0.17430 0.15400
N 	N 	0.45305 0.55667 0.40920 -0.15500
N 	N 	0.18918 0.20200 0.41400 -0.15600
C 	C 	0.16490 0.23031 0.25430 -0.20400
N 	N 	0.13770 0.25692 0.09450 -0.15600
C 	C 	0.48380 0.59818 0.43920 0.09400
C 	C 	0.39310 0.54805 0.46670 0.05700
C 	C 	0.22870 0.17042 0.47050 0.05900
C 	C 	0.11720 0.20141 0.44370 0.09700
H 	H 	0.11740 0.21700 0.25570 0.10500
C 	C 	0.09330 0.22099 0.06340 0.09100
C 	C 	0.11800 0.29476 0.03890 0.05500
H 	H 	0.52510 0.61180 0.41160 -0.01400
C 	C 	0.39170 0.58614 0.52990 0.06700
C 	C 	0.34010 0.51199 0.46770 -0.08300
C 	C 	0.17700 0.15299 0.53410 0.06300
C 	C 	0.30270 0.15490 0.47140 -0.08500
H 	H 	0.07910 0.21930 0.41570 -0.01700
H 	H 	0.09490 0.19130 0.09080 -0.01400
C 	C 	0.06290 0.27837 0.97480 0.07500
C 	C 	0.13900 0.34100 0.04200 -0.08400
C 	C 	0.33770 0.58880 0.59900 -0.11600
C 	C 	0.28560 0.51590 0.53490 -0.03700
H 	H 	0.34130 0.48690 0.42570 0.06200
C 	C 	0.19780 0.11947 0.60150 -0.11600
C 	C 	0.32180 0.12080 0.53740 -0.03600
H 	H 	0.33730 0.16670 0.42980 0.06300
C 	C 	0.02910 0.30880 0.91040 -0.13400
H 	H 	0.17550 0.35170 0.08510 0.06200
C 	C 	0.10380 0.37090 0.97850 -0.04000
H 	H 	0.33670 0.61350 0.64200 0.07900
C 	C 	0.28580 0.55290 0.60020 -0.00500
H 	H 	0.24800 0.49330 0.53680 0.04200
C 	C 	0.27070 0.10400 0.60280 -0.00700
H 	H 	0.16370 0.10800 0.64410 0.07800
H 	H 	0.37010 0.10870 0.53850 0.04100
C 	C 	0.05090 0.35460 0.91220 0.00600
H 	H 	0.99260 0.29830 0.86720 0.08600
H 	H 	0.11570 0.40270 0.97990 0.04200
H 	H 	0.24950 0.55330 0.64610 0.02900
H 	H 	0.28640 0.08200 0.64780 0.03000
H 	H 	0.03000 0.37550 0.86820 0.02400
C 	C 	0.00000 0.09460 0.75000 0.33600
C 	C 	0.00000 0.04220 0.75000 -0.00400
C 	C 	0.00000 0.94450 0.75000 -0.21700
H 	H 	0.00000 0.91180 0.75000 0.10900
C 	C 	0.50000 0.59460 0.75000 0.34000
C 	C 	0.50000 0.54220 0.75000 0.00000
C 	C 	0.50000 0.44450 0.75000 -0.21100
H 	H 	0.50000 0.41180 0.75000 0.10900
C 	C 	0.00000 0.90540 0.25000 0.33400
C 	C 	-0.00000 0.95780 0.25000 -0.00600
C 	C 	0.00000 0.05550 0.25000 -0.22100
H 	H 	0.00000 0.08820 0.25000 0.11000
C 	C 	0.50000 0.40540 0.25000 0.34000
C 	C 	0.50000 0.45780 0.25000 0.00000
C 	C 	0.50000 0.55550 0.25000 -0.21100
H 	H 	0.50000 0.58820 0.25000 0.10900
