data_crystal

_cell_length_a 17.03300
_cell_length_b 17.03300
_cell_length_c 13.92800
_cell_angle_alpha 90.00000
_cell_angle_beta  90.00000
_cell_angle_gamma 120.00000

_symmetry_space_group_name_	'P 1'
_symmetry_space_group_name_H-M	'P 1'

loop_
_symmetry_equiv_pos_as_xyz
  x,y,z

loop_
_atom_site_label
_atom_site_type_symbol
_atom_site_fract_x
_atom_site_fract_y
_atom_site_fract_z
_atom_site_charge
N 	N 	0.77330 0.33490 0.38570 -0.23000
C 	C 	0.81000 0.38400 0.45900 0.12000
C 	C 	0.83240 0.29890 0.36580 0.04300
N 	N 	0.88910 0.39440 0.48860 -0.16600
H 	H 	0.78260 0.41180 0.49110 -0.02000
C 	C 	0.82330 0.23890 0.29330 -0.08400
C 	C 	0.90800 0.33670 0.43010 0.09900
C 	C 	0.94090 0.44710 0.56990 0.15100
H 	H 	0.78350 0.22190 0.24170 0.07200
C 	C 	0.88500 0.20830 0.31150 -0.05300
C 	C 	0.96130 0.30790 0.43630 -0.15300
C 	C 	0.03760 0.49630 0.57010 -0.13500
C 	C 	0.89380 0.45080 0.65310 -0.22300
H 	H 	0.87580 0.15660 0.27930 0.04400
C 	C 	0.95530 0.24780 0.37120 0.02300
H 	H 	0.00440 0.32750 0.48500 0.08700
H 	H 	0.06970 0.49870 0.51510 0.09200
C 	C 	0.08190 0.53920 0.65020 0.01100
C 	C 	0.94160 0.49560 0.73030 0.18200
H 	H 	0.83090 0.42250 0.65340 0.11300
H 	H 	0.00100 0.23310 0.36740 0.01900
C 	C 	0.18420 0.59150 0.65440 0.33900
C 	C 	0.03200 0.54040 0.73360 -0.15900
N 	N 	0.89090 0.49310 0.81360 -0.15200
O 	O 	0.22310 0.57690 0.58010 -0.41400
O 	O 	0.22010 0.64450 0.71820 -0.42900
H 	H 	0.06240 0.57190 0.78860 0.10200
C 	C 	0.81180 0.41760 0.84340 0.07000
C 	C 	0.90020 0.56100 0.87230 0.04500
N 	N 	0.22970 0.66950 0.41500 -0.22400
H 	H 	0.78950 0.35960 0.81850 0.00200
C 	C 	0.82950 0.52810 0.93520 0.11300
C 	C 	0.98030 0.65750 0.87890 -0.07800
C 	C 	0.82400 0.58630 0.00150 -0.15200
C 	C 	0.97060 0.71080 0.95050 -0.00400
H 	H 	0.03090 0.67930 0.83930 0.06300
H 	H 	0.77030 0.56630 0.03550 0.08700
C 	C 	0.89580 0.67350 0.01890 -0.03500
H 	H 	0.01360 0.77210 0.95420 0.03900
H 	H 	0.89610 0.70650 0.07220 0.03300
N 	N 	0.66510 0.43840 0.38570 -0.23100
C 	C 	0.61600 0.42600 0.45900 0.11900
C 	C 	0.70110 0.53350 0.36580 0.04200
N 	N 	0.60560 0.49470 0.48860 -0.16700
H 	H 	0.58820 0.37080 0.49110 -0.02100
C 	C 	0.76110 0.58440 0.29330 -0.08500
C 	C 	0.66330 0.57130 0.43010 0.09800
C 	C 	0.55290 0.49380 0.56990 0.15200
H 	H 	0.77810 0.56160 0.24170 0.07200
C 	C 	0.79170 0.67670 0.31150 -0.05300
C 	C 	0.69210 0.65340 0.43630 -0.15200
C 	C 	0.50370 0.54130 0.57010 -0.13700
C 	C 	0.54920 0.44300 0.65310 -0.22400
H 	H 	0.84340 0.71920 0.27930 0.04400
C 	C 	0.75220 0.70750 0.37120 0.02300
H 	H 	0.67250 0.67690 0.48500 0.08600
H 	H 	0.50130 0.57100 0.51510 0.09200
C 	C 	0.46080 0.54270 0.65020 0.01200
C 	C 	0.50440 0.44600 0.73030 0.18400
H 	H 	0.57750 0.40840 0.65340 0.11400
H 	H 	0.76690 0.76790 0.36740 0.01900
C 	C 	0.40850 0.59270 0.65440 0.33900
C 	C 	0.45960 0.49160 0.73360 -0.16100
N 	N 	0.50690 0.39780 0.81360 -0.15200
O 	O 	0.42310 0.64620 0.58010 -0.41400
O 	O 	0.35550 0.57560 0.71820 -0.42900
H 	H 	0.42810 0.49050 0.78860 0.10200
C 	C 	0.58240 0.39420 0.84340 0.07000
C 	C 	0.43900 0.33920 0.87230 0.04500
N 	N 	0.33050 0.56020 0.41500 -0.22400
H 	H 	0.64040 0.42990 0.81850 0.00200
C 	C 	0.47190 0.30140 0.93520 0.11300
C 	C 	0.34250 0.32280 0.87890 -0.07800
C 	C 	0.41370 0.23770 0.00150 -0.15200
C 	C 	0.28920 0.25980 0.95050 -0.00300
H 	H 	0.32070 0.35160 0.83930 0.06300
H 	H 	0.43370 0.20400 0.03550 0.08700
C 	C 	0.32650 0.22230 0.01890 -0.03600
H 	H 	0.22790 0.24150 0.95420 0.03800
H 	H 	0.29350 0.18960 0.07220 0.03400
N 	N 	0.56160 0.22670 0.38570 -0.23100
C 	C 	0.57400 0.19000 0.45900 0.11900
C 	C 	0.46650 0.16760 0.36580 0.04200
N 	N 	0.50530 0.11090 0.48860 -0.16700
H 	H 	0.62920 0.21740 0.49110 -0.02100
C 	C 	0.41560 0.17670 0.29330 -0.08500
C 	C 	0.42870 0.09200 0.43010 0.09800
C 	C 	0.50620 0.05910 0.56990 0.15100
H 	H 	0.43840 0.21650 0.24170 0.07200
C 	C 	0.32330 0.11500 0.31150 -0.05300
C 	C 	0.34660 0.03870 0.43630 -0.15300
C 	C 	0.45870 0.96240 0.57010 -0.13500
C 	C 	0.55700 0.10620 0.65310 -0.22300
H 	H 	0.28080 0.12420 0.27930 0.04300
C 	C 	0.29250 0.04470 0.37120 0.02300
H 	H 	0.32310 0.99560 0.48500 0.08700
H 	H 	0.42900 0.93030 0.51510 0.09200
C 	C 	0.45730 0.91810 0.65020 0.01100
C 	C 	0.55400 0.05840 0.73030 0.18200
H 	H 	0.59160 0.16910 0.65340 0.11300
H 	H 	0.23210 0.99900 0.36740 0.02000
C 	C 	0.40730 0.81580 0.65440 0.33900
C 	C 	0.50840 0.96800 0.73360 -0.15900
N 	N 	0.60220 0.10910 0.81360 -0.15200
O 	O 	0.35380 0.77690 0.58010 -0.41400
O 	O 	0.42440 0.77990 0.71820 -0.42900
H 	H 	0.50950 0.93760 0.78860 0.10200
C 	C 	0.60580 0.18820 0.84340 0.07000
C 	C 	0.66080 0.09980 0.87230 0.04500
N 	N 	0.43980 0.77030 0.41500 -0.22400
H 	H 	0.57010 0.21050 0.81850 0.00200
C 	C 	0.69860 0.17050 0.93520 0.11300
C 	C 	0.67720 0.01970 0.87890 -0.07800
C 	C 	0.76230 0.17600 0.00150 -0.15200
C 	C 	0.74020 0.02940 0.95050 -0.00600
H 	H 	0.64840 0.96910 0.83930 0.06300
H 	H 	0.79600 0.22970 0.03550 0.08700
C 	C 	0.77770 0.10420 0.01890 -0.03300
H 	H 	0.75850 0.98640 0.95420 0.04000
H 	H 	0.81040 0.10390 0.07220 0.03300
N 	N 	0.33490 0.77330 0.88570 -0.23000
C 	C 	0.38400 0.81000 0.95900 0.11900
C 	C 	0.29890 0.83240 0.86580 0.03900
N 	N 	0.39440 0.88910 0.98860 -0.15000
H 	H 	0.41180 0.78260 0.99110 -0.01200
C 	C 	0.23890 0.82330 0.79330 -0.07800
C 	C 	0.33670 0.90800 0.93010 0.10700
C 	C 	0.44710 0.94090 0.06990 0.11600
H 	H 	0.22190 0.78350 0.74170 0.07000
C 	C 	0.20830 0.88500 0.81150 -0.05900
C 	C 	0.30790 0.96130 0.93630 -0.15700
C 	C 	0.49630 0.03760 0.07010 -0.12100
C 	C 	0.45080 0.89380 0.15310 -0.20800
H 	H 	0.15660 0.87580 0.77930 0.04900
C 	C 	0.24780 0.95530 0.87120 0.03500
H 	H 	0.32750 0.00440 0.98500 0.09900
H 	H 	0.49870 0.06970 0.01510 0.07500
C 	C 	0.53920 0.08190 0.15020 -0.00200
C 	C 	0.49560 0.94160 0.23030 0.17000
H 	H 	0.42250 0.83090 0.15340 0.10100
H 	H 	0.23310 0.00100 0.86740 0.02000
C 	C 	0.59150 0.18420 0.15440 0.34300
C 	C 	0.54040 0.03200 0.23360 -0.15100
N 	N 	0.49310 0.89090 0.31360 -0.15200
O 	O 	0.57690 0.22310 0.08010 -0.42200
O 	O 	0.64450 0.22010 0.21820 -0.43100
H 	H 	0.57190 0.06240 0.28860 0.09700
C 	C 	0.41760 0.81180 0.34340 0.06600
C 	C 	0.56100 0.90020 0.37230 0.04600
N 	N 	0.66950 0.22970 0.91500 -0.22100
H 	H 	0.35960 0.78950 0.31850 -0.00000
C 	C 	0.52810 0.82950 0.43520 0.07800
C 	C 	0.65750 0.98030 0.37890 -0.07100
C 	C 	0.58630 0.82400 0.50150 -0.11900
C 	C 	0.71080 0.97060 0.45050 -0.04200
H 	H 	0.67930 0.03090 0.33930 0.05800
H 	H 	0.56630 0.77030 0.53550 0.08200
C 	C 	0.67350 0.89580 0.51890 -0.00500
H 	H 	0.77210 0.01360 0.45420 0.04400
H 	H 	0.70650 0.89610 0.57220 0.03000
N 	N 	0.43840 0.66510 0.88570 -0.23000
C 	C 	0.42600 0.61600 0.95900 0.11900
C 	C 	0.53350 0.70110 0.86580 0.03900
N 	N 	0.49470 0.60560 0.98860 -0.15000
H 	H 	0.37080 0.58820 0.99110 -0.01200
C 	C 	0.58440 0.76110 0.79330 -0.07800
C 	C 	0.57130 0.66330 0.93010 0.10800
C 	C 	0.49380 0.55290 0.06990 0.11600
H 	H 	0.56160 0.77810 0.74170 0.07000
C 	C 	0.67670 0.79170 0.81150 -0.05900
C 	C 	0.65340 0.69210 0.93630 -0.15900
C 	C 	0.54130 0.50370 0.07010 -0.12000
C 	C 	0.44300 0.54920 0.15310 -0.20800
H 	H 	0.71920 0.84340 0.77930 0.04900
C 	C 	0.70750 0.75220 0.87120 0.03500
H 	H 	0.67690 0.67250 0.98500 0.10000
H 	H 	0.57100 0.50130 0.01510 0.07500
C 	C 	0.54270 0.46080 0.15020 -0.00200
C 	C 	0.44600 0.50440 0.23030 0.17000
H 	H 	0.40840 0.57750 0.15340 0.10100
H 	H 	0.76790 0.76690 0.86740 0.02100
C 	C 	0.59270 0.40850 0.15440 0.34300
C 	C 	0.49160 0.45960 0.23360 -0.15000
N 	N 	0.39780 0.50690 0.31360 -0.15200
O 	O 	0.64620 0.42310 0.08010 -0.42200
O 	O 	0.57560 0.35550 0.21820 -0.43100
H 	H 	0.49050 0.42810 0.28860 0.09700
C 	C 	0.39420 0.58240 0.34340 0.06500
C 	C 	0.33920 0.43900 0.37230 0.04600
N 	N 	0.56020 0.33050 0.91500 -0.22100
H 	H 	0.42990 0.64040 0.31850 -0.00000
C 	C 	0.30140 0.47190 0.43520 0.07800
C 	C 	0.32280 0.34250 0.37890 -0.07100
C 	C 	0.23770 0.41370 0.50150 -0.11900
C 	C 	0.25980 0.28920 0.45050 -0.04300
H 	H 	0.35160 0.32070 0.33930 0.05800
H 	H 	0.20400 0.43370 0.53550 0.08200
C 	C 	0.22230 0.32650 0.51890 -0.00500
H 	H 	0.24150 0.22790 0.45420 0.04400
H 	H 	0.18960 0.29350 0.57220 0.03000
N 	N 	0.22670 0.56160 0.88570 -0.23000
C 	C 	0.19000 0.57400 0.95900 0.11900
C 	C 	0.16760 0.46650 0.86580 0.03900
N 	N 	0.11090 0.50530 0.98860 -0.15000
H 	H 	0.21740 0.62920 0.99110 -0.01200
C 	C 	0.17670 0.41560 0.79330 -0.07800
C 	C 	0.09200 0.42870 0.93010 0.10700
C 	C 	0.05910 0.50620 0.06990 0.11600
H 	H 	0.21650 0.43840 0.74170 0.07000
C 	C 	0.11500 0.32330 0.81150 -0.05900
C 	C 	0.03870 0.34660 0.93630 -0.15700
C 	C 	0.96240 0.45870 0.07010 -0.12100
C 	C 	0.10620 0.55700 0.15310 -0.20800
H 	H 	0.12420 0.28080 0.77930 0.04900
C 	C 	0.04470 0.29250 0.87120 0.03600
H 	H 	0.99560 0.32310 0.98500 0.09900
H 	H 	0.93030 0.42900 0.01510 0.07500
C 	C 	0.91810 0.45730 0.15020 -0.00200
C 	C 	0.05840 0.55400 0.23030 0.17000
H 	H 	0.16910 0.59160 0.15340 0.10100
H 	H 	0.99900 0.23210 0.86740 0.02000
C 	C 	0.81580 0.40730 0.15440 0.34300
C 	C 	0.96800 0.50840 0.23360 -0.15100
N 	N 	0.10910 0.60220 0.31360 -0.15200
O 	O 	0.77690 0.35380 0.08010 -0.42200
O 	O 	0.77990 0.42440 0.21820 -0.43100
H 	H 	0.93760 0.50950 0.28860 0.09700
C 	C 	0.18820 0.60580 0.34340 0.06600
C 	C 	0.09980 0.66080 0.37230 0.04600
N 	N 	0.77030 0.43980 0.91500 -0.22100
H 	H 	0.21050 0.57010 0.31850 -0.00000
C 	C 	0.17050 0.69860 0.43520 0.07800
C 	C 	0.01970 0.67720 0.37890 -0.07100
C 	C 	0.17600 0.76230 0.50150 -0.11900
C 	C 	0.02940 0.74020 0.45050 -0.04200
H 	H 	0.96910 0.64840 0.33930 0.05700
H 	H 	0.22970 0.79600 0.53550 0.08200
C 	C 	0.10420 0.77770 0.51890 -0.00500
H 	H 	0.98640 0.75850 0.45420 0.04400
H 	H 	0.10390 0.81040 0.57220 0.03000
Co	Co	0.66667 0.33333 0.29820 1.16400
Co	Co	0.33333 0.66667 0.79820 1.16400
Co	Co	0.33333 0.66667 0.50328 1.17100
Co	Co	0.66667 0.33333 0.00328 1.16000
