data_crystal

_cell_length_a 17.20300
_cell_length_b 17.20300
_cell_length_c 14.04500
_cell_angle_alpha 90.00000
_cell_angle_beta  90.00000
_cell_angle_gamma 120.00000

_symmetry_space_group_name_	'P 1'
_symmetry_space_group_name_H-M	'P 1'

loop_
_symmetry_equiv_pos_as_xyz
  x,y,z

loop_
_atom_site_label
_atom_site_type_symbol
_atom_site_fract_x
_atom_site_fract_y
_atom_site_fract_z
_atom_site_charge
O 	O 	0.78342 0.42654 0.18241 -0.44500
N 	N 	0.11140 0.50260 0.40810 -0.15600
N 	N 	0.22680 0.55680 0.51120 -0.23100
C 	C 	0.96900 0.45770 0.32950 -0.14100
H 	H 	0.93800 0.42440 0.38280 0.09400
C 	C 	0.06180 0.50410 0.32860 0.16500
C 	C 	0.18800 0.57550 0.44130 0.09100
H 	H 	0.21050 0.63300 0.41670 -0.01100
C 	C 	0.09990 0.42900 0.46180 0.05800
C 	C 	0.03730 0.33770 0.45720 -0.08300
H 	H 	0.99020 0.31490 0.41380 0.06400
C 	C 	0.04870 0.28250 0.52030 -0.03400
H 	H 	0.00850 0.22100 0.51890 0.04100
C 	C 	0.11890 0.31690 0.58600 -0.00700
H 	H 	0.12350 0.27790 0.62850 0.03100
C 	C 	0.18210 0.40760 0.58980 -0.11400
H 	H 	0.22900 0.42990 0.63340 0.07900
C 	C 	0.17240 0.46420 0.52560 0.06700
O 	O 	0.57346 0.35688 0.18241 -0.44500
N 	N 	0.49740 0.60880 0.40810 -0.15600
N 	N 	0.44320 0.67000 0.51120 -0.23100
C 	C 	0.54230 0.51130 0.32950 -0.14100
H 	H 	0.57560 0.51360 0.38280 0.09400
C 	C 	0.49590 0.55770 0.32860 0.16500
C 	C 	0.42450 0.61250 0.44130 0.09000
H 	H 	0.36700 0.57750 0.41670 -0.01200
C 	C 	0.57100 0.67090 0.46180 0.05600
C 	C 	0.66230 0.69960 0.45720 -0.08400
H 	H 	0.68510 0.67530 0.41380 0.06300
C 	C 	0.71750 0.76620 0.52030 -0.03500
H 	H 	0.77900 0.78750 0.51890 0.04000
C 	C 	0.68310 0.80200 0.58600 -0.00800
H 	H 	0.72210 0.84560 0.62850 0.03000
C 	C 	0.59240 0.77450 0.58980 -0.11500
H 	H 	0.57010 0.79910 0.63340 0.07800
C 	C 	0.53580 0.70820 0.52560 0.06600
O 	O 	0.64312 0.21658 0.18241 -0.44600
N 	N 	0.39120 0.88860 0.40810 -0.15700
N 	N 	0.33000 0.77320 0.51120 -0.23200
C 	C 	0.48870 0.03100 0.32950 -0.14200
H 	H 	0.48640 0.06200 0.38280 0.09300
C 	C 	0.44230 0.93820 0.32860 0.16400
C 	C 	0.38750 0.81200 0.44130 0.09000
H 	H 	0.42250 0.78950 0.41670 -0.01200
C 	C 	0.32910 0.90010 0.46180 0.05700
C 	C 	0.30040 0.96270 0.45720 -0.08400
H 	H 	0.32470 0.00980 0.41380 0.06300
C 	C 	0.23380 0.95130 0.52030 -0.03500
H 	H 	0.21250 0.99150 0.51890 0.04000
C 	C 	0.19800 0.88110 0.58600 -0.00800
H 	H 	0.15440 0.87650 0.62850 0.03000
C 	C 	0.22550 0.81790 0.58980 -0.11500
H 	H 	0.20090 0.77100 0.63340 0.07800
C 	C 	0.29180 0.82760 0.52560 0.06600
O 	O 	0.57346 0.21658 0.31759 -0.44600
N 	N 	0.49740 0.88860 0.09190 -0.15700
N 	N 	0.44320 0.77320 0.98880 -0.23200
C 	C 	0.54230 0.03100 0.17050 -0.14200
H 	H 	0.57560 0.06200 0.11720 0.09300
C 	C 	0.49590 0.93820 0.17140 0.16400
C 	C 	0.42450 0.81200 0.05870 0.08900
H 	H 	0.36700 0.78950 0.08330 -0.01200
C 	C 	0.57100 0.90010 0.03820 0.05700
C 	C 	0.66230 0.96270 0.04280 -0.08400
H 	H 	0.68510 0.00980 0.08620 0.06300
C 	C 	0.71750 0.95130 0.97970 -0.03500
H 	H 	0.77900 0.99150 0.98110 0.04000
C 	C 	0.68310 0.88110 0.91400 -0.00800
H 	H 	0.72210 0.87650 0.87150 0.03000
C 	C 	0.59240 0.81790 0.91020 -0.11500
H 	H 	0.57010 0.77100 0.86660 0.07800
C 	C 	0.53580 0.82760 0.97440 0.06600
O 	O 	0.64312 0.42654 0.31759 -0.44600
N 	N 	0.39120 0.50260 0.09190 -0.15700
N 	N 	0.33000 0.55680 0.98880 -0.23200
C 	C 	0.48870 0.45770 0.17050 -0.14200
H 	H 	0.48640 0.42440 0.11720 0.09300
C 	C 	0.44230 0.50410 0.17140 0.16400
C 	C 	0.38750 0.57550 0.05870 0.08900
H 	H 	0.42250 0.63300 0.08330 -0.01200
C 	C 	0.32910 0.42900 0.03820 0.05600
C 	C 	0.30040 0.33770 0.04280 -0.08400
H 	H 	0.32470 0.31490 0.08620 0.06300
C 	C 	0.23380 0.28250 0.97970 -0.03500
H 	H 	0.21250 0.22100 0.98110 0.04000
C 	C 	0.19800 0.31690 0.91400 -0.00800
H 	H 	0.15440 0.27790 0.87150 0.03000
C 	C 	0.22550 0.40760 0.91020 -0.11500
H 	H 	0.20090 0.42990 0.86660 0.07800
C 	C 	0.29180 0.46420 0.97440 0.06600
O 	O 	0.78342 0.35688 0.31759 -0.44600
N 	N 	0.11140 0.60880 0.09190 -0.15700
N 	N 	0.22680 0.67000 0.98880 -0.23200
C 	C 	0.96900 0.51130 0.17050 -0.14200
H 	H 	0.93800 0.51360 0.11720 0.09300
C 	C 	0.06180 0.55770 0.17140 0.16400
C 	C 	0.18800 0.61250 0.05870 0.08900
H 	H 	0.21050 0.57750 0.08330 -0.01200
C 	C 	0.09990 0.67090 0.03820 0.05700
C 	C 	0.03730 0.69960 0.04280 -0.08400
H 	H 	0.99020 0.67530 0.08620 0.06300
C 	C 	0.04870 0.76620 0.97970 -0.03500
H 	H 	0.00850 0.78750 0.98110 0.04000
C 	C 	0.11890 0.80200 0.91400 -0.00800
H 	H 	0.12350 0.84560 0.87150 0.03000
C 	C 	0.18210 0.77450 0.91020 -0.11500
H 	H 	0.22900 0.79910 0.86660 0.07800
C 	C 	0.17240 0.70820 0.97440 0.06600
O 	O 	0.21658 0.57346 0.81759 -0.44600
N 	N 	0.88860 0.49740 0.59190 -0.15700
N 	N 	0.77320 0.44320 0.48880 -0.23200
C 	C 	0.03100 0.54230 0.67050 -0.14200
H 	H 	0.06200 0.57560 0.61720 0.09300
C 	C 	0.93820 0.49590 0.67140 0.16400
C 	C 	0.81200 0.42450 0.55870 0.09000
H 	H 	0.78950 0.36700 0.58330 -0.01200
C 	C 	0.90010 0.57100 0.53820 0.05700
C 	C 	0.96270 0.66230 0.54280 -0.08400
H 	H 	0.00980 0.68510 0.58620 0.06300
C 	C 	0.95130 0.71750 0.47970 -0.03500
H 	H 	0.99150 0.77900 0.48110 0.04000
C 	C 	0.88110 0.68310 0.41400 -0.00800
H 	H 	0.87650 0.72210 0.37150 0.03000
C 	C 	0.81790 0.59240 0.41020 -0.11500
H 	H 	0.77100 0.57010 0.36660 0.07800
C 	C 	0.82760 0.53580 0.47440 0.06600
O 	O 	0.42654 0.64312 0.81759 -0.44600
N 	N 	0.50260 0.39120 0.59190 -0.15700
N 	N 	0.55680 0.33000 0.48880 -0.23200
C 	C 	0.45770 0.48870 0.67050 -0.14200
H 	H 	0.42440 0.48640 0.61720 0.09300
C 	C 	0.50410 0.44230 0.67140 0.16400
C 	C 	0.57550 0.38750 0.55870 0.09000
H 	H 	0.63300 0.42250 0.58330 -0.01200
C 	C 	0.42900 0.32910 0.53820 0.05600
C 	C 	0.33770 0.30040 0.54280 -0.08400
H 	H 	0.31490 0.32470 0.58620 0.06300
C 	C 	0.28250 0.23380 0.47970 -0.03500
H 	H 	0.22100 0.21250 0.48110 0.04000
C 	C 	0.31690 0.19800 0.41400 -0.00800
H 	H 	0.27790 0.15440 0.37150 0.03000
C 	C 	0.40760 0.22550 0.41020 -0.11500
H 	H 	0.42990 0.20090 0.36660 0.07800
C 	C 	0.46420 0.29180 0.47440 0.06600
O 	O 	0.35688 0.78342 0.81759 -0.44600
N 	N 	0.60880 0.11140 0.59190 -0.15700
N 	N 	0.67000 0.22680 0.48880 -0.23200
C 	C 	0.51130 0.96900 0.67050 -0.14200
H 	H 	0.51360 0.93800 0.61720 0.09300
C 	C 	0.55770 0.06180 0.67140 0.16400
C 	C 	0.61250 0.18800 0.55870 0.09000
H 	H 	0.57750 0.21050 0.58330 -0.01200
C 	C 	0.67090 0.09990 0.53820 0.05700
C 	C 	0.69960 0.03730 0.54280 -0.08400
H 	H 	0.67530 0.99020 0.58620 0.06300
C 	C 	0.76620 0.04870 0.47970 -0.03500
H 	H 	0.78750 0.00850 0.48110 0.04000
C 	C 	0.80200 0.11890 0.41400 -0.00800
H 	H 	0.84560 0.12350 0.37150 0.03000
C 	C 	0.77450 0.18210 0.41020 -0.11500
H 	H 	0.79910 0.22900 0.36660 0.07800
C 	C 	0.70820 0.17240 0.47440 0.06600
O 	O 	0.42654 0.78342 0.68241 -0.44600
N 	N 	0.50260 0.11140 0.90810 -0.15700
N 	N 	0.55680 0.22680 0.01120 -0.23200
C 	C 	0.45770 0.96900 0.82950 -0.14200
H 	H 	0.42440 0.93800 0.88280 0.09300
C 	C 	0.50410 0.06180 0.82860 0.16400
C 	C 	0.57550 0.18800 0.94130 0.08900
H 	H 	0.63300 0.21050 0.91670 -0.01200
C 	C 	0.42900 0.09990 0.96180 0.05700
C 	C 	0.33770 0.03730 0.95720 -0.08400
H 	H 	0.31490 0.99020 0.91380 0.06300
C 	C 	0.28250 0.04870 0.02030 -0.03500
H 	H 	0.22100 0.00850 0.01890 0.04000
C 	C 	0.31690 0.11890 0.08600 -0.00800
H 	H 	0.27790 0.12350 0.12850 0.03000
C 	C 	0.40760 0.18210 0.08980 -0.11500
H 	H 	0.42990 0.22900 0.13340 0.07800
C 	C 	0.46420 0.17240 0.02560 0.06600
O 	O 	0.35688 0.57346 0.68241 -0.44600
N 	N 	0.60880 0.49740 0.90810 -0.15700
N 	N 	0.67000 0.44320 0.01120 -0.23200
C 	C 	0.51130 0.54230 0.82950 -0.14200
H 	H 	0.51360 0.57560 0.88280 0.09300
C 	C 	0.55770 0.49590 0.82860 0.16400
C 	C 	0.61250 0.42450 0.94130 0.08900
H 	H 	0.57750 0.36700 0.91670 -0.01200
C 	C 	0.67090 0.57100 0.96180 0.05600
C 	C 	0.69960 0.66230 0.95720 -0.08400
H 	H 	0.67530 0.68510 0.91380 0.06300
C 	C 	0.76620 0.71750 0.02030 -0.03500
H 	H 	0.78750 0.77900 0.01890 0.04000
C 	C 	0.80200 0.68310 0.08600 -0.00800
H 	H 	0.84560 0.72210 0.12850 0.03000
C 	C 	0.77450 0.59240 0.08980 -0.11500
H 	H 	0.79910 0.57010 0.13340 0.07800
C 	C 	0.70820 0.53580 0.02560 0.06600
O 	O 	0.21658 0.64312 0.68241 -0.44600
N 	N 	0.88860 0.39120 0.90810 -0.15700
N 	N 	0.77320 0.33000 0.01120 -0.23200
C 	C 	0.03100 0.48870 0.82950 -0.14200
H 	H 	0.06200 0.48640 0.88280 0.09300
C 	C 	0.93820 0.44230 0.82860 0.16400
C 	C 	0.81200 0.38750 0.94130 0.08900
H 	H 	0.78950 0.42250 0.91670 -0.01200
C 	C 	0.90010 0.32910 0.96180 0.05700
C 	C 	0.96270 0.30040 0.95720 -0.08400
H 	H 	0.00980 0.32470 0.91380 0.06300
C 	C 	0.95130 0.23380 0.02030 -0.03500
H 	H 	0.99150 0.21250 0.01890 0.04000
C 	C 	0.88110 0.19800 0.08600 -0.00800
H 	H 	0.87650 0.15440 0.12850 0.03000
C 	C 	0.81790 0.22550 0.08980 -0.11500
H 	H 	0.77100 0.20090 0.13340 0.07800
C 	C 	0.82760 0.29180 0.02560 0.06600
Mn	Mn	0.66667 0.33333 0.10599 1.28500
Mn	Mn	0.66667 0.33333 0.39401 1.28500
Mn	Mn	0.33333 0.66667 0.89401 1.28500
Mn	Mn	0.33333 0.66667 0.60599 1.28500
C 	C 	0.82090 0.41045 0.25000 0.34300
C 	C 	0.92210 0.46105 0.25000 0.00500
C 	C 	0.10850 0.55425 0.25000 -0.21800
H 	H 	0.17090 0.58545 0.25000 0.11100
C 	C 	0.58955 0.41045 0.25000 0.34300
C 	C 	0.53895 0.46105 0.25000 0.00500
C 	C 	0.44575 0.55425 0.25000 -0.21800
H 	H 	0.41455 0.58545 0.25000 0.11100
C 	C 	0.58955 0.17910 0.25000 0.34300
C 	C 	0.53895 0.07790 0.25000 0.00500
C 	C 	0.44575 0.89150 0.25000 -0.21800
H 	H 	0.41455 0.82910 0.25000 0.11100
C 	C 	0.17910 0.58955 0.75000 0.34300
C 	C 	0.07790 0.53895 0.75000 0.00500
C 	C 	0.89150 0.44575 0.75000 -0.21800
H 	H 	0.82910 0.41455 0.75000 0.11100
C 	C 	0.41045 0.58955 0.75000 0.34300
C 	C 	0.46105 0.53895 0.75000 0.00500
C 	C 	0.55425 0.44575 0.75000 -0.21800
H 	H 	0.58545 0.41455 0.75000 0.11100
C 	C 	0.41045 0.82090 0.75000 0.34300
C 	C 	0.46105 0.92210 0.75000 0.00500
C 	C 	0.55425 0.10850 0.75000 -0.21800
H 	H 	0.58545 0.17090 0.75000 0.11100
