data_crystal

_cell_length_a 17.48500
_cell_length_b 17.48500
_cell_length_c 14.01900
_cell_angle_alpha 90.00000
_cell_angle_beta  90.00000
_cell_angle_gamma 120.00000

_symmetry_space_group_name_	'P 1'
_symmetry_space_group_name_H-M	'P 1'

loop_
_symmetry_equiv_pos_as_xyz
  x,y,z

loop_
_atom_site_label
_atom_site_type_symbol
_atom_site_fract_x
_atom_site_fract_y
_atom_site_fract_z
_atom_site_charge
O 	O 	0.64231 0.42297 0.68097 -0.44200
N 	N 	0.40154 0.50610 0.91160 -0.15800
N 	N 	0.33668 0.55960 0.00725 -0.23200
C 	C 	0.49540 0.45860 0.83100 -0.14200
H 	H 	0.49570 0.42840 0.88550 0.09400
C 	C 	0.44950 0.50330 0.83000 0.16500
C 	C 	0.39300 0.57570 0.93780 0.09700
H 	H 	0.42450 0.63080 0.90880 -0.01400
C 	C 	0.34500 0.43640 0.97020 0.05900
C 	C 	0.32480 0.34960 0.97640 -0.08500
H 	H 	0.35140 0.32700 0.93680 0.06400
C 	C 	0.26340 0.29800 0.04410 -0.03400
H 	H 	0.24740 0.23880 0.04960 0.04200
C 	C 	0.22480 0.33230 0.10450 -0.00500
H 	H 	0.18470 0.29580 0.15040 0.03100
C 	C 	0.24420 0.41860 0.09820 -0.11500
H 	H 	0.21780 0.44110 0.13830 0.07700
C 	C 	0.30510 0.47080 0.02930 0.06500
O 	O 	0.57703 0.21934 0.68097 -0.44200
N 	N 	0.49390 0.89544 0.91160 -0.15800
N 	N 	0.44040 0.77708 0.00725 -0.23100
C 	C 	0.54140 0.03680 0.83100 -0.14200
H 	H 	0.57160 0.06730 0.88550 0.09400
C 	C 	0.49670 0.94620 0.83000 0.16400
C 	C 	0.42430 0.81730 0.93780 0.09700
H 	H 	0.36920 0.79370 0.90880 -0.01400
C 	C 	0.56360 0.90860 0.97020 0.06000
C 	C 	0.65040 0.97520 0.97640 -0.08800
H 	H 	0.67300 0.02440 0.93680 0.06500
C 	C 	0.70200 0.96540 0.04410 -0.03100
H 	H 	0.76120 0.00860 0.04960 0.04000
C 	C 	0.66770 0.89250 0.10450 -0.00800
H 	H 	0.70420 0.88890 0.15040 0.03100
C 	C 	0.58140 0.82560 0.09820 -0.11400
H 	H 	0.55890 0.77670 0.13830 0.07600
C 	C 	0.52920 0.83430 0.02930 0.06300
O 	O 	0.78066 0.35769 0.68097 -0.44300
N 	N 	0.10456 0.59846 0.91160 -0.15900
N 	N 	0.22292 0.66332 0.00725 -0.23200
C 	C 	0.96320 0.50460 0.83100 -0.14300
H 	H 	0.93270 0.50430 0.88550 0.09300
C 	C 	0.05380 0.55050 0.83000 0.16300
C 	C 	0.18270 0.60700 0.93780 0.09600
H 	H 	0.20630 0.57550 0.90880 -0.01500
C 	C 	0.09140 0.65500 0.97020 0.06000
C 	C 	0.02480 0.67520 0.97640 -0.09000
H 	H 	0.97560 0.64860 0.93680 0.06500
C 	C 	0.03460 0.73660 0.04410 -0.03100
H 	H 	0.99140 0.75260 0.04960 0.04000
C 	C 	0.10750 0.77520 0.10450 -0.00800
H 	H 	0.11110 0.81530 0.15040 0.03100
C 	C 	0.17440 0.75580 0.09820 -0.11400
H 	H 	0.22330 0.78220 0.13830 0.07600
C 	C 	0.16570 0.69490 0.02930 0.06300
O 	O 	0.57703 0.35769 0.81903 -0.44300
N 	N 	0.49390 0.59846 0.58840 -0.15900
N 	N 	0.44040 0.66332 0.49275 -0.23300
C 	C 	0.54140 0.50460 0.66900 -0.14300
H 	H 	0.57160 0.50430 0.61450 0.09300
C 	C 	0.49670 0.55050 0.67000 0.16400
C 	C 	0.42430 0.60700 0.56220 0.09600
H 	H 	0.36920 0.57550 0.59120 -0.01500
C 	C 	0.56360 0.65500 0.52980 0.05900
C 	C 	0.65040 0.67520 0.52360 -0.08600
H 	H 	0.67300 0.64860 0.56320 0.06300
C 	C 	0.70200 0.73660 0.45590 -0.03500
H 	H 	0.76120 0.75260 0.45040 0.04100
C 	C 	0.66770 0.77520 0.39550 -0.00600
H 	H 	0.70420 0.81530 0.34960 0.03000
C 	C 	0.58140 0.75580 0.40180 -0.11600
H 	H 	0.55890 0.78220 0.36170 0.07600
C 	C 	0.52920 0.69490 0.47070 0.06300
O 	O 	0.78066 0.42297 0.81903 -0.44300
N 	N 	0.10456 0.50610 0.58840 -0.15900
N 	N 	0.22292 0.55960 0.49275 -0.23300
C 	C 	0.96320 0.45860 0.66900 -0.14300
H 	H 	0.93270 0.42840 0.61450 0.09300
C 	C 	0.05380 0.50330 0.67000 0.16400
C 	C 	0.18270 0.57570 0.56220 0.09600
H 	H 	0.20630 0.63080 0.59120 -0.01500
C 	C 	0.09140 0.43640 0.52980 0.05900
C 	C 	0.02480 0.34960 0.52360 -0.08600
H 	H 	0.97560 0.32700 0.56320 0.06300
C 	C 	0.03460 0.29800 0.45590 -0.03400
H 	H 	0.99140 0.23880 0.45040 0.04100
C 	C 	0.10750 0.33230 0.39550 -0.00600
H 	H 	0.11110 0.29580 0.34960 0.03000
C 	C 	0.17440 0.41860 0.40180 -0.11600
H 	H 	0.22330 0.44110 0.36170 0.07600
C 	C 	0.16570 0.47080 0.47070 0.06300
O 	O 	0.64231 0.21934 0.81903 -0.44300
N 	N 	0.40154 0.89544 0.58840 -0.15900
N 	N 	0.33668 0.77708 0.49275 -0.23300
C 	C 	0.49540 0.03680 0.66900 -0.14300
H 	H 	0.49570 0.06730 0.61450 0.09300
C 	C 	0.44950 0.94620 0.67000 0.16400
C 	C 	0.39300 0.81730 0.56220 0.09600
H 	H 	0.42450 0.79370 0.59120 -0.01500
C 	C 	0.34500 0.90860 0.52980 0.05900
C 	C 	0.32480 0.97520 0.52360 -0.08600
H 	H 	0.35140 0.02440 0.56320 0.06300
C 	C 	0.26340 0.96540 0.45590 -0.03500
H 	H 	0.24740 0.00860 0.45040 0.04100
C 	C 	0.22480 0.89250 0.39550 -0.00600
H 	H 	0.18470 0.88890 0.34960 0.03000
C 	C 	0.24420 0.82560 0.40180 -0.11600
H 	H 	0.21780 0.77670 0.36170 0.07600
C 	C 	0.30510 0.83430 0.47070 0.06300
O 	O 	0.35769 0.57703 0.31903 -0.44300
N 	N 	0.59846 0.49390 0.08840 -0.15900
N 	N 	0.66332 0.44040 0.99275 -0.23300
C 	C 	0.50460 0.54140 0.16900 -0.14300
H 	H 	0.50430 0.57160 0.11450 0.09300
C 	C 	0.55050 0.49670 0.17000 0.16400
C 	C 	0.60700 0.42430 0.06220 0.09600
H 	H 	0.57550 0.36920 0.09120 -0.01500
C 	C 	0.65500 0.56360 0.02980 0.05800
C 	C 	0.67520 0.65040 0.02360 -0.08600
H 	H 	0.64860 0.67300 0.06320 0.06300
C 	C 	0.73660 0.70200 0.95590 -0.03500
H 	H 	0.75260 0.76120 0.95040 0.04100
C 	C 	0.77520 0.66770 0.89550 -0.00600
H 	H 	0.81530 0.70420 0.84960 0.03000
C 	C 	0.75580 0.58140 0.90180 -0.11600
H 	H 	0.78220 0.55890 0.86170 0.07600
C 	C 	0.69490 0.52920 0.97070 0.06400
O 	O 	0.42297 0.78066 0.31903 -0.44300
N 	N 	0.50610 0.10456 0.08840 -0.15900
N 	N 	0.55960 0.22292 0.99275 -0.23200
C 	C 	0.45860 0.96320 0.16900 -0.14300
H 	H 	0.42840 0.93270 0.11450 0.09300
C 	C 	0.50330 0.05380 0.17000 0.16300
C 	C 	0.57570 0.18270 0.06220 0.09600
H 	H 	0.63080 0.20630 0.09120 -0.01500
C 	C 	0.43640 0.09140 0.02980 0.05900
C 	C 	0.34960 0.02480 0.02360 -0.08900
H 	H 	0.32700 0.97560 0.06320 0.06400
C 	C 	0.29800 0.03460 0.95590 -0.03200
H 	H 	0.23880 0.99140 0.95040 0.04000
C 	C 	0.33230 0.10750 0.89550 -0.00800
H 	H 	0.29580 0.11110 0.84960 0.03100
C 	C 	0.41860 0.17440 0.90180 -0.11400
H 	H 	0.44110 0.22330 0.86170 0.07600
C 	C 	0.47080 0.16570 0.97070 0.06300
O 	O 	0.21934 0.64231 0.31903 -0.44300
N 	N 	0.89544 0.40154 0.08840 -0.15900
N 	N 	0.77708 0.33668 0.99275 -0.23200
C 	C 	0.03680 0.49540 0.16900 -0.14300
H 	H 	0.06730 0.49570 0.11450 0.09300
C 	C 	0.94620 0.44950 0.17000 0.16300
C 	C 	0.81730 0.39300 0.06220 0.09600
H 	H 	0.79370 0.42450 0.09120 -0.01500
C 	C 	0.90860 0.34500 0.02980 0.06000
C 	C 	0.97520 0.32480 0.02360 -0.09000
H 	H 	0.02440 0.35140 0.06320 0.06500
C 	C 	0.96540 0.26340 0.95590 -0.03100
H 	H 	0.00860 0.24740 0.95040 0.04000
C 	C 	0.89250 0.22480 0.89550 -0.00800
H 	H 	0.88890 0.18470 0.84960 0.03100
C 	C 	0.82560 0.24420 0.90180 -0.11400
H 	H 	0.77670 0.21780 0.86170 0.07600
C 	C 	0.83430 0.30510 0.97070 0.06300
O 	O 	0.42297 0.64231 0.18097 -0.44300
N 	N 	0.50610 0.40154 0.41160 -0.15900
N 	N 	0.55960 0.33668 0.50725 -0.23300
C 	C 	0.45860 0.49540 0.33100 -0.14300
H 	H 	0.42840 0.49570 0.38550 0.09300
C 	C 	0.50330 0.44950 0.33000 0.16400
C 	C 	0.57570 0.39300 0.43780 0.09600
H 	H 	0.63080 0.42450 0.40880 -0.01500
C 	C 	0.43640 0.34500 0.47020 0.05900
C 	C 	0.34960 0.32480 0.47640 -0.08600
H 	H 	0.32700 0.35140 0.43680 0.06300
C 	C 	0.29800 0.26340 0.54410 -0.03500
H 	H 	0.23880 0.24740 0.54960 0.04100
C 	C 	0.33230 0.22480 0.60450 -0.00600
H 	H 	0.29580 0.18470 0.65040 0.03000
C 	C 	0.41860 0.24420 0.59820 -0.11600
H 	H 	0.44110 0.21780 0.63830 0.07600
C 	C 	0.47080 0.30510 0.52930 0.06300
O 	O 	0.21934 0.57703 0.18097 -0.44300
N 	N 	0.89544 0.49390 0.41160 -0.15900
N 	N 	0.77708 0.44040 0.50725 -0.23300
C 	C 	0.03680 0.54140 0.33100 -0.14300
H 	H 	0.06730 0.57160 0.38550 0.09300
C 	C 	0.94620 0.49670 0.33000 0.16400
C 	C 	0.81730 0.42430 0.43780 0.09600
H 	H 	0.79370 0.36920 0.40880 -0.01500
C 	C 	0.90860 0.56360 0.47020 0.05900
C 	C 	0.97520 0.65040 0.47640 -0.08600
H 	H 	0.02440 0.67300 0.43680 0.06300
C 	C 	0.96540 0.70200 0.54410 -0.03400
H 	H 	0.00860 0.76120 0.54960 0.04100
C 	C 	0.89250 0.66770 0.60450 -0.00600
H 	H 	0.88890 0.70420 0.65040 0.03000
C 	C 	0.82560 0.58140 0.59820 -0.11600
H 	H 	0.77670 0.55890 0.63830 0.07600
C 	C 	0.83430 0.52920 0.52930 0.06300
O 	O 	0.35769 0.78066 0.18097 -0.44300
N 	N 	0.59846 0.10456 0.41160 -0.15900
N 	N 	0.66332 0.22292 0.50725 -0.23300
C 	C 	0.50460 0.96320 0.33100 -0.14300
H 	H 	0.50430 0.93270 0.38550 0.09300
C 	C 	0.55050 0.05380 0.33000 0.16400
C 	C 	0.60700 0.18270 0.43780 0.09600
H 	H 	0.57550 0.20630 0.40880 -0.01500
C 	C 	0.65500 0.09140 0.47020 0.05900
C 	C 	0.67520 0.02480 0.47640 -0.08600
H 	H 	0.64860 0.97560 0.43680 0.06300
C 	C 	0.73660 0.03460 0.54410 -0.03500
H 	H 	0.75260 0.99140 0.54960 0.04100
C 	C 	0.77520 0.10750 0.60450 -0.00600
H 	H 	0.81530 0.11110 0.65040 0.03000
C 	C 	0.75580 0.17440 0.59820 -0.11600
H 	H 	0.78220 0.22330 0.63830 0.07600
C 	C 	0.69490 0.16570 0.52930 0.06300
Mn	Mn	0.66667 0.33333 0.60147 1.28300
Mn	Mn	0.66667 0.33333 0.89853 1.28300
Mn	Mn	0.33333 0.66667 0.39853 1.28300
Mn	Mn	0.33333 0.66667 0.10147 1.28300
C 	C 	0.59097 0.40903 0.75000 0.34300
C 	C 	0.54143 0.45857 0.75000 0.00500
C 	C 	0.45026 0.54974 0.75000 -0.21900
H 	H 	0.41960 0.58040 0.75000 0.11100
C 	C 	0.59097 0.18194 0.75000 0.34400
C 	C 	0.54143 0.08286 0.75000 0.00400
C 	C 	0.45026 0.90052 0.75000 -0.21900
H 	H 	0.41960 0.83920 0.75000 0.11100
C 	C 	0.81806 0.40903 0.75000 0.34400
C 	C 	0.91714 0.45857 0.75000 0.00400
C 	C 	0.09948 0.54974 0.75000 -0.21900
H 	H 	0.16080 0.58040 0.75000 0.11100
C 	C 	0.40903 0.59097 0.25000 0.34300
C 	C 	0.45857 0.54143 0.25000 0.00500
C 	C 	0.54974 0.45026 0.25000 -0.21900
H 	H 	0.58040 0.41960 0.25000 0.11100
C 	C 	0.40903 0.81806 0.25000 0.34400
C 	C 	0.45857 0.91714 0.25000 0.00400
C 	C 	0.54974 0.09948 0.25000 -0.21900
H 	H 	0.58040 0.16080 0.25000 0.11100
C 	C 	0.18194 0.59097 0.25000 0.34400
C 	C 	0.08286 0.54143 0.25000 0.00400
C 	C 	0.90052 0.45026 0.25000 -0.21900
H 	H 	0.83920 0.41960 0.25000 0.11100
