data_crystal

_cell_length_a 26.20030
_cell_length_b 26.20030
_cell_length_c 9.80140
_cell_angle_alpha 90.00000
_cell_angle_beta  90.00000
_cell_angle_gamma 120.00000

_symmetry_space_group_name_	'P 1'
_symmetry_space_group_name_H-M	'P 1'

loop_
_symmetry_equiv_pos_as_xyz
  x,y,z

loop_
_atom_site_label
_atom_site_type_symbol
_atom_site_fract_x
_atom_site_fract_y
_atom_site_fract_z
_atom_site_charge
N 	N 	0.44740 0.00330 0.13780 -0.25900
C 	C 	0.39640 0.88140 0.01040 0.05900
H 	H 	0.37590 0.90190 0.01200 -0.04800
C 	C 	0.36520 0.82140 0.00910 -0.15100
H 	H 	0.32420 0.80180 0.00930 0.06400
C 	C 	0.41520 0.00870 0.21010 -0.17600
N 	N 	0.11407 0.33663 0.47113 -0.23100
C 	C 	0.06307 0.21473 0.34373 0.10700
H 	H 	0.04257 0.23523 0.34533 -0.05700
C 	C 	0.03187 0.15473 0.34243 -0.23100
H 	H 	0.99087 0.13513 0.34263 0.11400
C 	C 	0.08187 0.34203 0.54343 -0.12200
N 	N 	0.78073 0.66997 0.80447 -0.23900
C 	C 	0.72973 0.54807 0.67707 0.07200
H 	H 	0.70923 0.56857 0.67867 -0.03300
C 	C 	0.69853 0.48807 0.67577 -0.14800
H 	H 	0.65753 0.46847 0.67597 0.07300
C 	C 	0.74853 0.67537 0.87677 -0.05800
N 	N 	0.99670 0.44410 0.13780 -0.24400
C 	C 	0.11860 0.51500 0.01040 0.05900
H 	H 	0.09810 0.47400 0.01200 -0.05600
C 	C 	0.17860 0.54380 0.00910 -0.15300
H 	H 	0.19820 0.52240 0.00930 0.06400
C 	C 	0.99130 0.40650 0.21010 -0.14800
N 	N 	0.66337 0.77743 0.47113 -0.23100
C 	C 	0.78527 0.84833 0.34373 0.05100
H 	H 	0.76477 0.80733 0.34533 -0.03000
C 	C 	0.84527 0.87713 0.34243 -0.11800
H 	H 	0.86487 0.85573 0.34263 0.06000
C 	C 	0.65797 0.73983 0.54343 -0.11400
N 	N 	0.33003 0.11077 0.80447 -0.23900
C 	C 	0.45193 0.18167 0.67707 0.07200
H 	H 	0.43143 0.14067 0.67867 -0.03600
C 	C 	0.51193 0.21047 0.67577 -0.14900
H 	H 	0.53153 0.18907 0.67597 0.07100
C 	C 	0.32463 0.07317 0.87677 -0.06600
N 	N 	0.55590 0.55260 0.13780 -0.25300
C 	C 	0.48500 0.60360 0.01040 0.06000
H 	H 	0.52600 0.62410 0.01200 -0.05300
C 	C 	0.45620 0.63480 0.00910 -0.15300
H 	H 	0.47760 0.67580 0.00930 0.06500
C 	C 	0.59350 0.58480 0.21010 -0.16200
N 	N 	0.22257 0.88593 0.47113 -0.23200
C 	C 	0.15167 0.93693 0.34373 0.03600
H 	H 	0.19267 0.95743 0.34533 -0.01600
C 	C 	0.12287 0.96813 0.34243 -0.07700
H 	H 	0.14427 0.00913 0.34263 0.02400
C 	C 	0.26017 0.91813 0.54343 -0.10400
N 	N 	0.88923 0.21927 0.80447 -0.24100
C 	C 	0.81833 0.27027 0.67707 0.07100
H 	H 	0.85933 0.29077 0.67867 -0.03000
C 	C 	0.78953 0.30147 0.67577 -0.14800
H 	H 	0.81093 0.34247 0.67597 0.07400
C 	C 	0.92683 0.25147 0.87677 -0.04300
N 	N 	0.00330 0.44740 0.86220 -0.19900
C 	C 	0.88140 0.39640 0.98960 0.08700
H 	H 	0.90190 0.37590 0.98800 -0.00200
C 	C 	0.82140 0.36520 0.99090 -0.13500
H 	H 	0.80180 0.32420 0.99070 0.09100
C 	C 	0.00870 0.41520 0.78990 -0.11100
N 	N 	0.66997 0.78073 0.19553 -0.23400
C 	C 	0.54807 0.72973 0.32293 0.07800
H 	H 	0.56857 0.70923 0.32133 -0.03300
C 	C 	0.48807 0.69853 0.32423 -0.14500
H 	H 	0.46847 0.65753 0.32403 0.08300
C 	C 	0.67537 0.74853 0.12323 -0.16600
N 	N 	0.33663 0.11407 0.52887 -0.23500
C 	C 	0.21473 0.06307 0.65627 0.12700
H 	H 	0.23523 0.04257 0.65467 -0.05200
C 	C 	0.15473 0.03187 0.65757 -0.23600
H 	H 	0.13513 0.99087 0.65737 0.13900
C 	C 	0.34203 0.08187 0.45657 -0.15900
N 	N 	0.44410 0.99670 0.86220 -0.18500
C 	C 	0.51500 0.11860 0.98960 0.08600
H 	H 	0.47400 0.09810 0.98800 -0.01000
C 	C 	0.54380 0.17860 0.99090 -0.13800
H 	H 	0.52240 0.19820 0.99070 0.09100
C 	C 	0.40650 0.99130 0.78990 -0.08500
N 	N 	0.11077 0.33003 0.19553 -0.23400
C 	C 	0.18167 0.45193 0.32293 0.07800
H 	H 	0.14067 0.43143 0.32133 -0.03600
C 	C 	0.21047 0.51193 0.32423 -0.14500
H 	H 	0.18907 0.53153 0.32403 0.08100
C 	C 	0.07317 0.32463 0.12323 -0.17500
N 	N 	0.77743 0.66337 0.52887 -0.23500
C 	C 	0.84833 0.78527 0.65627 0.06900
H 	H 	0.80733 0.76477 0.65467 -0.02400
C 	C 	0.87713 0.84527 0.65757 -0.11800
H 	H 	0.85573 0.86487 0.65737 0.08000
C 	C 	0.73983 0.65797 0.45657 -0.14900
N 	N 	0.55260 0.55590 0.86220 -0.19400
C 	C 	0.60360 0.48500 0.98960 0.08700
H 	H 	0.62410 0.52600 0.98800 -0.00700
C 	C 	0.63480 0.45620 0.99090 -0.13700
H 	H 	0.67580 0.47760 0.99070 0.09100
C 	C 	0.58480 0.59350 0.78990 -0.10000
N 	N 	0.21927 0.88923 0.19553 -0.23700
C 	C 	0.27027 0.81833 0.32293 0.07700
H 	H 	0.29077 0.85933 0.32133 -0.03000
C 	C 	0.30147 0.78953 0.32423 -0.14400
H 	H 	0.34247 0.81093 0.32403 0.08400
C 	C 	0.25147 0.92683 0.12323 -0.14800
N 	N 	0.88593 0.22257 0.52887 -0.23500
C 	C 	0.93693 0.15167 0.65627 0.06000
H 	H 	0.95743 0.19267 0.65467 -0.01400
C 	C 	0.96813 0.12287 0.65757 -0.09100
H 	H 	0.00913 0.14427 0.65737 0.05300
C 	C 	0.91813 0.26017 0.45657 -0.14100
N 	N 	0.55260 0.99670 0.86220 -0.18500
C 	C 	0.60360 0.11860 0.98960 0.08600
H 	H 	0.62410 0.09810 0.98800 -0.01000
C 	C 	0.63480 0.17860 0.99090 -0.13800
H 	H 	0.67580 0.19820 0.99070 0.09100
C 	C 	0.58480 0.99130 0.78990 -0.08500
N 	N 	0.21927 0.33003 0.19553 -0.23500
C 	C 	0.27027 0.45193 0.32293 0.07800
H 	H 	0.29077 0.43143 0.32133 -0.03300
C 	C 	0.30147 0.51193 0.32423 -0.14500
H 	H 	0.34247 0.53153 0.32403 0.08300
C 	C 	0.25147 0.32463 0.12323 -0.16800
N 	N 	0.88593 0.66337 0.52887 -0.23500
C 	C 	0.93693 0.78527 0.65627 0.04400
H 	H 	0.95743 0.76477 0.65467 -0.00800
C 	C 	0.96813 0.84527 0.65757 -0.06200
H 	H 	0.00913 0.86487 0.65737 0.04400
C 	C 	0.91813 0.65797 0.45657 -0.14000
N 	N 	0.00330 0.55590 0.86220 -0.19900
C 	C 	0.88140 0.48500 0.98960 0.08700
H 	H 	0.90190 0.52600 0.98800 -0.00200
C 	C 	0.82140 0.45620 0.99090 -0.13500
H 	H 	0.80180 0.47760 0.99070 0.09100
C 	C 	0.00870 0.59350 0.78990 -0.11200
N 	N 	0.66997 0.88923 0.19553 -0.23600
C 	C 	0.54807 0.81833 0.32293 0.07700
H 	H 	0.56857 0.85933 0.32133 -0.03000
C 	C 	0.48807 0.78953 0.32423 -0.14400
H 	H 	0.46847 0.81093 0.32403 0.08400
C 	C 	0.67537 0.92683 0.12323 -0.14700
N 	N 	0.33663 0.22257 0.52887 -0.23500
C 	C 	0.21473 0.15167 0.65627 0.09900
H 	H 	0.23523 0.19267 0.65467 -0.03500
C 	C 	0.15473 0.12287 0.65757 -0.17300
H 	H 	0.13513 0.14427 0.65737 0.09700
C 	C 	0.34203 0.26017 0.45657 -0.15000
N 	N 	0.44410 0.44740 0.86220 -0.19400
C 	C 	0.51500 0.39640 0.98960 0.08700
H 	H 	0.47400 0.37590 0.98800 -0.00600
C 	C 	0.54380 0.36520 0.99090 -0.13700
H 	H 	0.52240 0.32420 0.99070 0.09100
C 	C 	0.40650 0.41520 0.78990 -0.10000
N 	N 	0.11077 0.78073 0.19553 -0.23400
C 	C 	0.18167 0.72973 0.32293 0.07800
H 	H 	0.14067 0.70923 0.32133 -0.03600
C 	C 	0.21047 0.69853 0.32423 -0.14500
H 	H 	0.18907 0.65753 0.32403 0.08100
C 	C 	0.07317 0.74853 0.12323 -0.17400
N 	N 	0.77743 0.11407 0.52887 -0.23400
C 	C 	0.84833 0.06307 0.65627 0.11300
H 	H 	0.80733 0.04257 0.65467 -0.04700
C 	C 	0.87713 0.03187 0.65757 -0.21100
H 	H 	0.85573 0.99087 0.65737 0.13100
C 	C 	0.73983 0.08187 0.45657 -0.15800
N 	N 	0.99670 0.55260 0.13780 -0.24400
C 	C 	0.11860 0.60360 0.01040 0.05900
H 	H 	0.09810 0.62410 0.01200 -0.05600
C 	C 	0.17860 0.63480 0.00910 -0.15300
H 	H 	0.19820 0.67580 0.00930 0.06500
C 	C 	0.99130 0.58480 0.21010 -0.14900
N 	N 	0.66337 0.88593 0.47113 -0.23200
C 	C 	0.78527 0.93693 0.34373 0.02200
H 	H 	0.76477 0.95743 0.34533 -0.01100
C 	C 	0.84527 0.96813 0.34243 -0.05200
H 	H 	0.86487 0.00913 0.34263 0.01600
C 	C 	0.65797 0.91813 0.54343 -0.10400
N 	N 	0.33003 0.21927 0.80447 -0.23900
C 	C 	0.45193 0.27027 0.67707 0.07100
H 	H 	0.43143 0.29077 0.67867 -0.03300
C 	C 	0.51193 0.30147 0.67577 -0.14800
H 	H 	0.53153 0.34247 0.67597 0.07300
C 	C 	0.32463 0.25147 0.87677 -0.05800
N 	N 	0.55590 0.00330 0.13780 -0.25800
C 	C 	0.48500 0.88140 0.01040 0.06000
H 	H 	0.52600 0.90190 0.01200 -0.04700
C 	C 	0.45620 0.82140 0.00910 -0.15100
H 	H 	0.47760 0.80180 0.00930 0.06500
C 	C 	0.59350 0.00870 0.21010 -0.17600
N 	N 	0.22257 0.33663 0.47113 -0.23100
C 	C 	0.15167 0.21473 0.34373 0.08200
H 	H 	0.19267 0.23523 0.34533 -0.04100
C 	C 	0.12287 0.15473 0.34243 -0.17500
H 	H 	0.14427 0.13513 0.34263 0.07600
C 	C 	0.26017 0.34203 0.54343 -0.11400
N 	N 	0.88923 0.66997 0.80447 -0.24100
C 	C 	0.81833 0.54807 0.67707 0.07100
H 	H 	0.85933 0.56857 0.67867 -0.03000
C 	C 	0.78953 0.48807 0.67577 -0.14700
H 	H 	0.81093 0.46847 0.67597 0.07400
C 	C 	0.92683 0.67537 0.87677 -0.04300
N 	N 	0.44740 0.44410 0.13780 -0.25300
C 	C 	0.39640 0.51500 0.01040 0.05900
H 	H 	0.37590 0.47400 0.01200 -0.05300
C 	C 	0.36520 0.54380 0.00910 -0.15300
H 	H 	0.32420 0.52240 0.00930 0.06400
C 	C 	0.41520 0.40650 0.21010 -0.16200
N 	N 	0.11407 0.77743 0.47113 -0.23100
C 	C 	0.06307 0.84833 0.34373 0.09000
H 	H 	0.04257 0.80733 0.34533 -0.05000
C 	C 	0.03187 0.87713 0.34243 -0.20000
H 	H 	0.99087 0.85573 0.34263 0.10400
C 	C 	0.08187 0.73983 0.54343 -0.12200
N 	N 	0.78073 0.11077 0.80447 -0.23900
C 	C 	0.72973 0.18167 0.67707 0.07200
H 	H 	0.70923 0.14067 0.67867 -0.03600
C 	C 	0.69853 0.21047 0.67577 -0.14900
H 	H 	0.65753 0.18907 0.67597 0.07100
C 	C 	0.74853 0.07317 0.87677 -0.06600
N 	N 	0.45630 0.91260 0.00950 -0.26900
C 	C 	0.39470 0.78940 0.00730 0.04800
C 	C 	0.36210 0.72420 0.00470 0.08400
N 	N 	0.12297 0.24593 0.34283 -0.27300
C 	C 	0.06137 0.12273 0.34063 0.08800
C 	C 	0.02877 0.05753 0.33803 0.04700
N 	N 	0.78963 0.57927 0.67617 -0.26200
C 	C 	0.72803 0.45607 0.67397 0.05400
C 	C 	0.69543 0.39087 0.67137 0.08800
N 	N 	0.08740 0.54370 0.00950 -0.28000
C 	C 	0.21060 0.60530 0.00730 0.04800
C 	C 	0.27580 0.63790 0.00470 0.08400
N 	N 	0.75407 0.87703 0.34283 -0.25100
C 	C 	0.87727 0.93863 0.34063 0.00900
C 	C 	0.94247 0.97123 0.33803 0.13100
N 	N 	0.42073 0.21037 0.67617 -0.26200
C 	C 	0.54393 0.27197 0.67397 0.05400
C 	C 	0.60913 0.30457 0.67137 0.08800
N 	N 	0.45630 0.54370 0.00950 -0.27800
C 	C 	0.39470 0.60530 0.00730 0.04800
C 	C 	0.36210 0.63790 0.00470 0.08400
N 	N 	0.12297 0.87703 0.34283 -0.26100
C 	C 	0.06137 0.93863 0.34063 0.04500
C 	C 	0.02877 0.97123 0.33803 0.09300
N 	N 	0.78963 0.21037 0.67617 -0.26200
C 	C 	0.72803 0.27197 0.67397 0.05400
C 	C 	0.69543 0.30457 0.67137 0.08800
N 	N 	0.91260 0.45630 0.99050 -0.22300
C 	C 	0.78940 0.39470 0.99270 0.07100
C 	C 	0.72420 0.36210 0.99530 0.11000
N 	N 	0.57927 0.78963 0.32383 -0.26300
C 	C 	0.45607 0.72803 0.32603 0.06700
C 	C 	0.39087 0.69543 0.32863 0.10500
N 	N 	0.24593 0.12297 0.65717 -0.27300
C 	C 	0.12273 0.06137 0.65937 0.11200
C 	C 	0.05753 0.02877 0.66197 0.06300
N 	N 	0.54370 0.08740 0.99050 -0.23300
C 	C 	0.60530 0.21060 0.99270 0.07100
C 	C 	0.63790 0.27580 0.99530 0.11000
N 	N 	0.21037 0.42073 0.32383 -0.26400
C 	C 	0.27197 0.54393 0.32603 0.06700
C 	C 	0.30457 0.60913 0.32863 0.10500
N 	N 	0.87703 0.75407 0.65717 -0.25200
C 	C 	0.93863 0.87727 0.65937 0.03500
C 	C 	0.97123 0.94247 0.66197 0.14500
N 	N 	0.54370 0.45630 0.99050 -0.23000
C 	C 	0.60530 0.39470 0.99270 0.07100
C 	C 	0.63790 0.36210 0.99530 0.11000
N 	N 	0.21037 0.78963 0.32383 -0.26300
C 	C 	0.27197 0.72803 0.32603 0.06700
C 	C 	0.30457 0.69543 0.32863 0.10500
N 	N 	0.87703 0.12297 0.65717 -0.26300
C 	C 	0.93863 0.06137 0.65937 0.07500
C 	C 	0.97123 0.02877 0.66197 0.10200
Ag	Ag	0.36940 0.03606 0.33333 0.43400
Ag	Ag	0.96394 0.33333 0.33333 0.45000
Ag	Ag	0.66667 0.63060 0.33333 0.44300
Ag	Ag	0.03606 0.36940 0.66667 0.46600
Ag	Ag	0.70273 0.70273 -0.00000 0.38900
Ag	Ag	0.33333 0.96394 0.66667 0.48100
Ag	Ag	0.00000 0.29727 -0.00000 0.37500
Ag	Ag	0.63060 0.66667 0.66667 0.47300
Ag	Ag	0.29727 0.00000 -0.00000 0.37200
Ag	Ag	0.63060 0.96394 0.66667 0.48100
Ag	Ag	0.29727 0.29727 -0.00000 0.38700
Ag	Ag	0.03606 0.66667 0.66667 0.46600
Ag	Ag	0.70273 0.00000 -0.00000 0.37300
Ag	Ag	0.36940 0.33333 0.33333 0.44200
Ag	Ag	0.33333 0.36940 0.66667 0.47300
Ag	Ag	-0.00000 0.70273 -0.00000 0.37600
Ag	Ag	0.96394 0.63060 0.33333 0.45000
Ag	Ag	0.66667 0.03606 0.33333 0.43500
Fe	Fe	0.50000 0.00000 -0.00000 1.08000
Fe	Fe	0.16667 0.33333 0.33333 1.16300
Fe	Fe	0.83333 0.66667 0.66667 1.16700
Fe	Fe	0.00000 0.50000 -0.00000 1.08300
Fe	Fe	0.66667 0.83333 0.33333 1.16400
Fe	Fe	0.33333 0.16667 0.66667 1.16600
Fe	Fe	0.50000 0.50000 -0.00000 1.09600
Fe	Fe	0.16667 0.83333 0.33333 1.16300
Fe	Fe	0.83333 0.16667 0.66667 1.16700
N 	N 	0.39370 0.69685 0.00560 -0.14600
N 	N 	0.06037 0.03018 0.33893 -0.15600
N 	N 	0.72703 0.36352 0.67227 -0.14300
N 	N 	0.30315 0.69685 0.00560 -0.14600
N 	N 	0.96982 0.03018 0.33893 -0.14800
N 	N 	0.63648 0.36352 0.67227 -0.14400
N 	N 	0.30315 0.60630 0.00560 -0.14600
N 	N 	0.96982 0.93963 0.33893 -0.13800
N 	N 	0.63648 0.27297 0.67227 -0.14400
N 	N 	0.69685 0.39370 0.99440 -0.13400
N 	N 	0.36352 0.72703 0.32773 -0.13600
N 	N 	0.03018 0.06037 0.66107 -0.14100
N 	N 	0.69685 0.30315 0.99440 -0.13400
N 	N 	0.36352 0.63648 0.32773 -0.13600
N 	N 	0.03018 0.96982 0.66107 -0.13200
N 	N 	0.60630 0.30315 0.99440 -0.13400
N 	N 	0.27297 0.63648 0.32773 -0.13700
N 	N 	0.93963 0.96982 0.66107 -0.12500
