data_crystal

_cell_length_a 26.89130
_cell_length_b 26.89130
_cell_length_c 10.00690
_cell_angle_alpha 90.00000
_cell_angle_beta  90.00000
_cell_angle_gamma 120.00000

_symmetry_space_group_name_	'P 1'
_symmetry_space_group_name_H-M	'P 1'

loop_
_symmetry_equiv_pos_as_xyz
  x,y,z

loop_
_atom_site_label
_atom_site_type_symbol
_atom_site_fract_x
_atom_site_fract_y
_atom_site_fract_z
_atom_site_charge
N 	N 	0.44160 0.99990 0.14680 -0.20100
C 	C 	0.47990 0.87570 0.00390 0.06900
H 	H 	0.51980 0.89570 0.00450 -0.05300
C 	C 	0.45200 0.81660 0.00350 -0.16300
H 	H 	0.47290 0.79760 0.00400 0.06800
C 	C 	0.41180 0.00810 0.21240 -0.21100
N 	N 	0.10827 0.33323 0.48013 -0.21600
C 	C 	0.14657 0.20903 0.33723 0.08600
H 	H 	0.18647 0.22903 0.33783 -0.04600
C 	C 	0.11867 0.14993 0.33683 -0.18100
H 	H 	0.13957 0.13093 0.33733 0.07700
C 	C 	0.07847 0.34143 0.54573 -0.13100
N 	N 	0.77493 0.66657 0.81347 -0.22300
C 	C 	0.81323 0.54237 0.67057 0.07900
H 	H 	0.85313 0.56237 0.67117 -0.03500
C 	C 	0.78533 0.48327 0.67017 -0.15700
H 	H 	0.80623 0.46427 0.67067 0.07700
C 	C 	0.74513 0.67477 0.87907 -0.06800
N 	N 	0.00010 0.44170 0.14680 -0.25300
C 	C 	0.12430 0.60420 0.00390 0.07000
H 	H 	0.10430 0.62410 0.00450 -0.05800
C 	C 	0.18340 0.63540 0.00350 -0.16400
H 	H 	0.20240 0.67530 0.00400 0.06900
C 	C 	0.99190 0.40370 0.21240 -0.14300
N 	N 	0.66677 0.77503 0.48013 -0.21500
C 	C 	0.79097 0.93753 0.33723 0.03100
H 	H 	0.77097 0.95743 0.33783 -0.01700
C 	C 	0.85007 0.96873 0.33683 -0.06400
H 	H 	0.86907 0.00863 0.33733 0.02100
C 	C 	0.65857 0.73703 0.54573 -0.12400
N 	N 	0.33343 0.10837 0.81347 -0.22300
C 	C 	0.45763 0.27087 0.67057 0.07900
H 	H 	0.43763 0.29077 0.67117 -0.03700
C 	C 	0.51673 0.30207 0.67017 -0.15800
H 	H 	0.53573 0.34197 0.67067 0.07600
C 	C 	0.32523 0.07037 0.87907 -0.07600
N 	N 	0.55830 0.55840 0.14680 -0.23400
C 	C 	0.39580 0.52010 0.00390 0.07000
H 	H 	0.37590 0.48020 0.00450 -0.05700
C 	C 	0.36460 0.54800 0.00350 -0.16300
H 	H 	0.32470 0.52710 0.00400 0.06800
C 	C 	0.59630 0.58820 0.21240 -0.17000
N 	N 	0.22497 0.89173 0.48013 -0.21500
C 	C 	0.06247 0.85343 0.33723 0.08700
H 	H 	0.04257 0.81353 0.33783 -0.04900
C 	C 	0.03127 0.88133 0.33683 -0.18800
H 	H 	0.99137 0.86043 0.33733 0.09500
C 	C 	0.26297 0.92153 0.54573 -0.11400
N 	N 	0.89163 0.22507 0.81347 -0.22500
C 	C 	0.72913 0.18677 0.67057 0.08000
H 	H 	0.70923 0.14687 0.67117 -0.04000
C 	C 	0.69793 0.21467 0.67017 -0.15800
H 	H 	0.65803 0.19377 0.67067 0.07500
C 	C 	0.92963 0.25487 0.87907 -0.05600
N 	N 	0.99990 0.44160 0.85320 -0.16200
C 	C 	0.87570 0.47990 0.99610 0.09300
H 	H 	0.89570 0.51980 0.99550 -0.00900
C 	C 	0.81660 0.45200 0.99650 -0.14500
H 	H 	0.79760 0.47290 0.99600 0.09300
C 	C 	0.00810 0.41180 0.78760 -0.13500
N 	N 	0.66657 0.77493 0.18653 -0.21900
C 	C 	0.54237 0.81323 0.32943 0.08600
H 	H 	0.56237 0.85313 0.32883 -0.03500
C 	C 	0.48327 0.78533 0.32983 -0.15400
H 	H 	0.46427 0.80623 0.32933 0.08700
C 	C 	0.67477 0.74513 0.12093 -0.17300
N 	N 	0.33323 0.10827 0.51987 -0.21900
C 	C 	0.20903 0.14657 0.66277 0.10700
H 	H 	0.22903 0.18647 0.66217 -0.03900
C 	C 	0.14993 0.11867 0.66317 -0.18400
H 	H 	0.13093 0.13957 0.66267 0.10000
C 	C 	0.34143 0.07847 0.45427 -0.16600
N 	N 	0.44170 0.00010 0.85320 -0.21100
C 	C 	0.60420 0.12430 0.99610 0.09200
H 	H 	0.62410 0.10430 0.99550 -0.01400
C 	C 	0.63540 0.18340 0.99650 -0.14600
H 	H 	0.67530 0.20240 0.99600 0.09300
C 	C 	0.40370 0.99190 0.78760 -0.07100
N 	N 	0.10837 0.33343 0.18653 -0.21900
C 	C 	0.27087 0.45763 0.32943 0.08600
H 	H 	0.29077 0.43763 0.32883 -0.03800
C 	C 	0.30207 0.51673 0.32983 -0.15500
H 	H 	0.34197 0.53573 0.32933 0.08600
C 	C 	0.07037 0.32523 0.12093 -0.18100
N 	N 	0.77503 0.66677 0.51987 -0.21900
C 	C 	0.93753 0.79097 0.66277 0.06100
H 	H 	0.95743 0.77097 0.66217 -0.01700
C 	C 	0.96873 0.85007 0.66317 -0.09000
H 	H 	0.00863 0.86907 0.66267 0.05700
C 	C 	0.73703 0.65857 0.45427 -0.15700
N 	N 	0.55840 0.55830 0.85320 -0.18400
C 	C 	0.52010 0.39580 0.99610 0.09300
H 	H 	0.48020 0.37590 0.99550 -0.01100
C 	C 	0.54800 0.36460 0.99650 -0.14600
H 	H 	0.52710 0.32470 0.99600 0.09300
C 	C 	0.58820 0.59630 0.78760 -0.10900
N 	N 	0.22507 0.89163 0.18653 -0.22100
C 	C 	0.18677 0.72913 0.32943 0.08700
H 	H 	0.14687 0.70923 0.32883 -0.03900
C 	C 	0.21467 0.69793 0.32983 -0.15500
H 	H 	0.19377 0.65803 0.32933 0.08500
C 	C 	0.25487 0.92963 0.12093 -0.15500
N 	N 	0.89173 0.22497 0.51987 -0.21900
C 	C 	0.85343 0.06247 0.66277 0.12100
H 	H 	0.81353 0.04257 0.66217 -0.05000
C 	C 	0.88133 0.03127 0.66317 -0.22100
H 	H 	0.86043 0.99137 0.66267 0.13200
C 	C 	0.92153 0.26297 0.45427 -0.15000
N 	N 	0.55840 0.00010 0.85320 -0.21100
C 	C 	0.52010 0.12430 0.99610 0.09200
H 	H 	0.48020 0.10430 0.99550 -0.01400
C 	C 	0.54800 0.18340 0.99650 -0.14600
H 	H 	0.52710 0.20240 0.99600 0.09300
C 	C 	0.58820 0.99190 0.78760 -0.07100
N 	N 	0.22507 0.33343 0.18653 -0.21900
C 	C 	0.18677 0.45763 0.32943 0.08700
H 	H 	0.14687 0.43763 0.32883 -0.03900
C 	C 	0.21467 0.51673 0.32983 -0.15500
H 	H 	0.19377 0.53573 0.32933 0.08500
C 	C 	0.25487 0.32523 0.12093 -0.17500
N 	N 	0.89173 0.66677 0.51987 -0.21900
C 	C 	0.85343 0.79097 0.66277 0.07900
H 	H 	0.81353 0.77097 0.66217 -0.02800
C 	C 	0.88133 0.85007 0.66317 -0.13200
H 	H 	0.86043 0.86907 0.66267 0.08400
C 	C 	0.92153 0.65857 0.45427 -0.15000
N 	N 	0.99990 0.55830 0.85320 -0.16200
C 	C 	0.87570 0.39580 0.99610 0.09300
H 	H 	0.89570 0.37590 0.99550 -0.00900
C 	C 	0.81660 0.36460 0.99650 -0.14500
H 	H 	0.79760 0.32470 0.99600 0.09300
C 	C 	0.00810 0.59630 0.78760 -0.13500
N 	N 	0.66657 0.89163 0.18653 -0.22100
C 	C 	0.54237 0.72913 0.32943 0.08600
H 	H 	0.56237 0.70923 0.32883 -0.03800
C 	C 	0.48327 0.69793 0.32983 -0.15400
H 	H 	0.46427 0.65803 0.32933 0.08500
C 	C 	0.67477 0.92963 0.12093 -0.15500
N 	N 	0.33323 0.22497 0.51987 -0.21900
C 	C 	0.20903 0.06247 0.66277 0.13300
H 	H 	0.22903 0.04257 0.66217 -0.05500
C 	C 	0.14993 0.03127 0.66317 -0.24200
H 	H 	0.13093 0.99137 0.66267 0.13900
C 	C 	0.34143 0.26297 0.45427 -0.15700
N 	N 	0.44170 0.44160 0.85320 -0.18400
C 	C 	0.60420 0.47990 0.99610 0.09300
H 	H 	0.62410 0.51980 0.99550 -0.01200
C 	C 	0.63540 0.45200 0.99650 -0.14600
H 	H 	0.67530 0.47290 0.99600 0.09300
C 	C 	0.40370 0.41180 0.78760 -0.10800
N 	N 	0.10837 0.77493 0.18653 -0.21900
C 	C 	0.27087 0.81323 0.32943 0.08600
H 	H 	0.29077 0.85313 0.32883 -0.03500
C 	C 	0.30207 0.78533 0.32983 -0.15400
H 	H 	0.34197 0.80623 0.32933 0.08700
C 	C 	0.07037 0.74513 0.12093 -0.17900
N 	N 	0.77503 0.10827 0.51987 -0.21900
C 	C 	0.93753 0.14657 0.66277 0.07800
H 	H 	0.95743 0.18647 0.66217 -0.02300
C 	C 	0.96873 0.11867 0.66317 -0.12000
H 	H 	0.00863 0.13957 0.66267 0.06600
C 	C 	0.73703 0.07847 0.45427 -0.16600
N 	N 	0.00010 0.55840 0.14680 -0.25300
C 	C 	0.12430 0.52010 0.00390 0.07000
H 	H 	0.10430 0.48020 0.00450 -0.05900
C 	C 	0.18340 0.54800 0.00350 -0.16400
H 	H 	0.20240 0.52710 0.00400 0.06800
C 	C 	0.99190 0.58820 0.21240 -0.14300
N 	N 	0.66677 0.89173 0.48013 -0.21500
C 	C 	0.79097 0.85343 0.33723 0.05800
H 	H 	0.77097 0.81353 0.33783 -0.03400
C 	C 	0.85007 0.88133 0.33683 -0.12600
H 	H 	0.86907 0.86043 0.33733 0.06200
C 	C 	0.65857 0.92153 0.54573 -0.11400
N 	N 	0.33343 0.22507 0.81347 -0.22400
C 	C 	0.45763 0.18677 0.67057 0.08000
H 	H 	0.43763 0.14687 0.67117 -0.04000
C 	C 	0.51673 0.21467 0.67017 -0.15800
H 	H 	0.53573 0.19377 0.67067 0.07500
C 	C 	0.32523 0.25487 0.87907 -0.06800
N 	N 	0.55830 0.99990 0.14680 -0.20000
C 	C 	0.39580 0.87570 0.00390 0.07000
H 	H 	0.37590 0.89570 0.00450 -0.05200
C 	C 	0.36460 0.81660 0.00350 -0.16200
H 	H 	0.32470 0.79760 0.00400 0.06900
C 	C 	0.59630 0.00810 0.21240 -0.21000
N 	N 	0.22497 0.33323 0.48013 -0.21600
C 	C 	0.06247 0.20903 0.33723 0.10500
H 	H 	0.04257 0.22903 0.33783 -0.05600
C 	C 	0.03127 0.14993 0.33683 -0.22100
H 	H 	0.99137 0.13093 0.33733 0.10600
C 	C 	0.26297 0.34143 0.54573 -0.12400
N 	N 	0.89163 0.66657 0.81347 -0.22500
C 	C 	0.72913 0.54237 0.67057 0.07900
H 	H 	0.70923 0.56237 0.67117 -0.03700
C 	C 	0.69793 0.48327 0.67017 -0.15700
H 	H 	0.65803 0.46427 0.67067 0.07600
C 	C 	0.92963 0.67477 0.87907 -0.05600
N 	N 	0.44160 0.44170 0.14680 -0.23400
C 	C 	0.47990 0.60420 0.00390 0.07000
H 	H 	0.51980 0.62410 0.00450 -0.05700
C 	C 	0.45200 0.63540 0.00350 -0.16300
H 	H 	0.47290 0.67530 0.00400 0.06900
C 	C 	0.41180 0.40370 0.21240 -0.17000
N 	N 	0.10827 0.77503 0.48013 -0.21500
C 	C 	0.14657 0.93753 0.33723 0.04200
H 	H 	0.18647 0.95743 0.33783 -0.02100
C 	C 	0.11867 0.96873 0.33683 -0.08400
H 	H 	0.13957 0.00863 0.33733 0.02700
C 	C 	0.07847 0.73703 0.54573 -0.13000
N 	N 	0.77493 0.10837 0.81347 -0.22300
C 	C 	0.81323 0.27087 0.67057 0.07900
H 	H 	0.85313 0.29077 0.67117 -0.03500
C 	C 	0.78533 0.30207 0.67017 -0.15700
H 	H 	0.80623 0.34197 0.67067 0.07700
C 	C 	0.74513 0.07037 0.87907 -0.07500
Ag	Ag	0.36885 0.03552 0.33333 0.44000
Ag	Ag	0.96448 0.33333 0.33333 0.45000
Ag	Ag	0.66667 0.63115 0.33333 0.44500
Ag	Ag	0.03552 0.36885 0.66667 0.46900
Ag	Ag	0.70218 0.70218 -0.00000 0.39400
Ag	Ag	0.33333 0.96448 0.66667 0.48000
Ag	Ag	-0.00000 0.29782 -0.00000 0.38300
Ag	Ag	0.63115 0.66667 0.66667 0.47300
Ag	Ag	0.29782 0.00000 -0.00000 0.37700
Ag	Ag	0.63115 0.96448 0.66667 0.48000
Ag	Ag	0.29782 0.29782 -0.00000 0.39200
Ag	Ag	0.03552 0.66667 0.66667 0.46900
Ag	Ag	0.70218 0.00000 -0.00000 0.37800
Ag	Ag	0.36885 0.33333 0.33333 0.44500
Ag	Ag	0.33333 0.36885 0.66667 0.47300
Ag	Ag	-0.00000 0.70218 -0.00000 0.38400
Ag	Ag	0.96448 0.63115 0.33333 0.45000
Ag	Ag	0.66667 0.03552 0.33333 0.44000
Fe	Fe	0.50000 0.00000 -0.00000 1.03000
Fe	Fe	0.16667 0.33333 0.33333 1.10700
Fe	Fe	0.83333 0.66667 0.66667 1.11200
Fe	Fe	-0.00000 0.50000 -0.00000 1.03700
Fe	Fe	0.66667 0.83333 0.33333 1.10800
Fe	Fe	0.33333 0.16667 0.66667 1.11000
Fe	Fe	0.50000 0.50000 -0.00000 1.04600
Fe	Fe	0.16667 0.83333 0.33333 1.10800
Fe	Fe	0.83333 0.16667 0.66667 1.11100
N 	N 	0.45275 0.90550 0.00360 -0.25900
C 	C 	0.39295 0.78590 0.00220 0.05900
C 	C 	0.36135 0.72270 0.00170 0.08200
N 	N 	0.11942 0.23883 0.33693 -0.26100
C 	C 	0.05962 0.11923 0.33553 0.09000
C 	C 	0.02802 0.05603 0.33503 0.05300
N 	N 	0.78608 0.57217 0.67027 -0.25100
C 	C 	0.72628 0.45257 0.66887 0.06400
C 	C 	0.69468 0.38937 0.66837 0.08500
N 	N 	0.09450 0.54725 0.00360 -0.26800
C 	C 	0.21410 0.60705 0.00220 0.05900
C 	C 	0.27730 0.63865 0.00170 0.08100
N 	N 	0.76117 0.88058 0.33693 -0.24000
C 	C 	0.88077 0.94038 0.33553 0.01700
C 	C 	0.94397 0.97198 0.33503 0.12700
N 	N 	0.42783 0.21392 0.67027 -0.25100
C 	C 	0.54743 0.27372 0.66887 0.06400
C 	C 	0.61063 0.30532 0.66837 0.08500
N 	N 	0.45275 0.54725 0.00360 -0.26600
C 	C 	0.39295 0.60705 0.00220 0.05900
C 	C 	0.36135 0.63865 0.00170 0.08100
N 	N 	0.11942 0.88058 0.33693 -0.24800
C 	C 	0.05962 0.94038 0.33553 0.04500
C 	C 	0.02802 0.97198 0.33503 0.09900
N 	N 	0.78608 0.21392 0.67027 -0.25100
C 	C 	0.72628 0.27372 0.66887 0.06400
C 	C 	0.69468 0.30532 0.66837 0.08500
N 	N 	0.90550 0.45275 0.99640 -0.21800
C 	C 	0.78590 0.39295 0.99780 0.07800
C 	C 	0.72270 0.36135 0.99830 0.10600
N 	N 	0.57217 0.78608 0.32973 -0.25200
C 	C 	0.45257 0.72628 0.33113 0.07600
C 	C 	0.38937 0.69468 0.33163 0.10100
N 	N 	0.23883 0.11942 0.66307 -0.26200
C 	C 	0.11923 0.05962 0.66447 0.12100
C 	C 	0.05603 0.02802 0.66497 0.06100
N 	N 	0.54725 0.09450 0.99640 -0.22400
C 	C 	0.60705 0.21410 0.99780 0.07900
C 	C 	0.63865 0.27730 0.99830 0.10500
N 	N 	0.21392 0.42783 0.32973 -0.25300
C 	C 	0.27372 0.54743 0.33113 0.07600
C 	C 	0.30532 0.61063 0.33163 0.10000
N 	N 	0.88058 0.76117 0.66307 -0.24200
C 	C 	0.94038 0.88077 0.66447 0.05000
C 	C 	0.97198 0.94397 0.66497 0.13300
N 	N 	0.54725 0.45275 0.99640 -0.22200
C 	C 	0.60705 0.39295 0.99780 0.07900
C 	C 	0.63865 0.36135 0.99830 0.10600
N 	N 	0.21392 0.78608 0.32973 -0.25200
C 	C 	0.27372 0.72628 0.33113 0.07600
C 	C 	0.30532 0.69468 0.33163 0.10100
N 	N 	0.88058 0.11942 0.66307 -0.25400
C 	C 	0.94038 0.05962 0.66447 0.09200
C 	C 	0.97198 0.02802 0.66497 0.09100
N 	N 	0.30397 0.69603 0.00260 -0.14500
N 	N 	0.97064 0.02936 0.33593 -0.15000
N 	N 	0.63730 0.36270 0.66927 -0.14300
N 	N 	0.30397 0.60794 0.00260 -0.14500
N 	N 	0.97064 0.94127 0.33593 -0.14200
N 	N 	0.63730 0.27461 0.66927 -0.14300
N 	N 	0.39206 0.69603 0.00260 -0.14500
N 	N 	0.05873 0.02936 0.33593 -0.15700
N 	N 	0.72539 0.36270 0.66927 -0.14300
N 	N 	0.69603 0.30397 0.99740 -0.13400
N 	N 	0.36270 0.63730 0.33073 -0.13600
N 	N 	0.02936 0.97064 0.66407 -0.12900
N 	N 	0.60794 0.30397 0.99740 -0.13400
N 	N 	0.27461 0.63730 0.33073 -0.13600
N 	N 	0.94127 0.97064 0.66407 -0.12300
N 	N 	0.69603 0.39206 0.99740 -0.13400
N 	N 	0.36270 0.72539 0.33073 -0.13600
N 	N 	0.02936 0.05873 0.66407 -0.13700
