data_crystal

_cell_length_a 26.88240
_cell_length_b 26.88240
_cell_length_c 10.20720
_cell_angle_alpha 90.00000
_cell_angle_beta  90.00000
_cell_angle_gamma 120.00000

_symmetry_space_group_name_	'P 1'
_symmetry_space_group_name_H-M	'P 1'

loop_
_symmetry_equiv_pos_as_xyz
  x,y,z

loop_
_atom_site_label
_atom_site_type_symbol
_atom_site_fract_x
_atom_site_fract_y
_atom_site_fract_z
_atom_site_charge
N 	N 	0.43990 0.99810 0.85700 -0.17300
C 	C 	0.39560 0.87580 0.00980 0.06600
H 	H 	0.37580 0.89590 0.00970 -0.04800
C 	C 	0.36450 0.81670 0.00950 -0.15200
H 	H 	0.32460 0.79790 0.01030 0.06700
C 	C 	0.40240 0.99060 0.78940 -0.09600
N 	N 	0.10657 0.33143 0.19033 -0.21900
C 	C 	0.06227 0.20913 0.34313 0.10800
H 	H 	0.04247 0.22923 0.34303 -0.05800
C 	C 	0.03117 0.15003 0.34283 -0.22800
H 	H 	0.99127 0.13123 0.34363 0.11200
C 	C 	0.06907 0.32393 0.12273 -0.18300
N 	N 	0.77323 0.66477 0.52367 -0.21800
C 	C 	0.72893 0.54247 0.67647 0.07500
H 	H 	0.70913 0.56257 0.67637 -0.03500
C 	C 	0.69783 0.48337 0.67617 -0.14900
H 	H 	0.65793 0.46457 0.67697 0.07400
C 	C 	0.73573 0.65727 0.45607 -0.15700
N 	N 	0.00190 0.44180 0.85700 -0.18700
C 	C 	0.12420 0.51980 0.00980 0.06400
H 	H 	0.10410 0.47990 0.00970 -0.05700
C 	C 	0.18330 0.54780 0.00950 -0.15600
H 	H 	0.20210 0.52670 0.01030 0.06600
C 	C 	0.00940 0.41180 0.78940 -0.12000
N 	N 	0.66857 0.77513 0.19033 -0.21800
C 	C 	0.79087 0.85313 0.34313 0.05400
H 	H 	0.77077 0.81323 0.34303 -0.03200
C 	C 	0.84997 0.88113 0.34283 -0.12000
H 	H 	0.86877 0.86003 0.34363 0.06100
C 	C 	0.67607 0.74513 0.12273 -0.17400
N 	N 	0.33523 0.10847 0.52367 -0.21900
C 	C 	0.45753 0.18647 0.67647 0.07500
H 	H 	0.43743 0.14657 0.67637 -0.03700
C 	C 	0.51663 0.21447 0.67617 -0.15000
H 	H 	0.53543 0.19337 0.67697 0.07200
C 	C 	0.34273 0.07847 0.45607 -0.16700
N 	N 	0.55820 0.56010 0.85700 -0.18200
C 	C 	0.48020 0.60440 0.00980 0.06500
H 	H 	0.52010 0.62420 0.00970 -0.05400
C 	C 	0.45220 0.63550 0.00950 -0.15500
H 	H 	0.47330 0.67540 0.01030 0.06600
C 	C 	0.58820 0.59760 0.78940 -0.11000
N 	N 	0.22487 0.89343 0.19033 -0.22100
C 	C 	0.14687 0.93773 0.34313 0.04200
H 	H 	0.18677 0.95753 0.34303 -0.02000
C 	C 	0.11887 0.96883 0.34283 -0.08400
H 	H 	0.13997 0.00873 0.34363 0.02800
C 	C 	0.25487 0.93093 0.12273 -0.15700
N 	N 	0.89153 0.22677 0.52367 -0.21900
C 	C 	0.81353 0.27107 0.67647 0.07400
H 	H 	0.85343 0.29087 0.67637 -0.03200
C 	C 	0.78553 0.30217 0.67617 -0.14900
H 	H 	0.80663 0.34207 0.67697 0.07500
C 	C 	0.92153 0.26427 0.45607 -0.14900
N 	N 	0.99810 0.43990 0.14300 -0.22700
C 	C 	0.87580 0.39560 0.99020 0.08800
H 	H 	0.89590 0.37580 0.99030 -0.00600
C 	C 	0.81670 0.36450 0.99050 -0.13700
H 	H 	0.79790 0.32460 0.98970 0.09000
C 	C 	0.99060 0.40240 0.21060 -0.15800
N 	N 	0.66477 0.77323 0.47633 -0.21500
C 	C 	0.54247 0.72893 0.32353 0.08100
H 	H 	0.56257 0.70913 0.32363 -0.03600
C 	C 	0.48337 0.69783 0.32383 -0.14700
H 	H 	0.46457 0.65793 0.32303 0.08200
C 	C 	0.65727 0.73573 0.54393 -0.12500
N 	N 	0.33143 0.10657 0.80967 -0.22300
C 	C 	0.20913 0.06227 0.65687 0.12600
H 	H 	0.22923 0.04247 0.65697 -0.05300
C 	C 	0.15003 0.03117 0.65717 -0.23300
H 	H 	0.13123 0.99127 0.65637 0.13500
C 	C 	0.32393 0.06907 0.87727 -0.07800
N 	N 	0.44180 0.00190 0.14300 -0.24000
C 	C 	0.51980 0.12420 0.99020 0.08700
H 	H 	0.47990 0.10410 0.99030 -0.01200
C 	C 	0.54780 0.18330 0.99050 -0.13900
H 	H 	0.52670 0.20210 0.98970 0.09000
C 	C 	0.41180 0.00940 0.21060 -0.18300
N 	N 	0.10847 0.33523 0.47633 -0.21500
C 	C 	0.18647 0.45753 0.32353 0.08100
H 	H 	0.14657 0.43743 0.32363 -0.03800
C 	C 	0.21447 0.51663 0.32383 -0.14700
H 	H 	0.19337 0.53543 0.32303 0.08100
C 	C 	0.07847 0.34273 0.54393 -0.13300
N 	N 	0.77513 0.66857 0.80967 -0.22200
C 	C 	0.85313 0.79087 0.65687 0.07100
H 	H 	0.81323 0.77077 0.65697 -0.02600
C 	C 	0.88113 0.84997 0.65717 -0.12000
H 	H 	0.86003 0.86877 0.65637 0.08000
C 	C 	0.74513 0.67607 0.87727 -0.06900
N 	N 	0.56010 0.55820 0.14300 -0.23500
C 	C 	0.60440 0.48020 0.99020 0.08800
H 	H 	0.62420 0.52010 0.99030 -0.01000
C 	C 	0.63550 0.45220 0.99050 -0.13800
H 	H 	0.67540 0.47330 0.98970 0.09000
C 	C 	0.59760 0.58820 0.21060 -0.17000
N 	N 	0.22677 0.89153 0.47633 -0.21500
C 	C 	0.27107 0.81353 0.32353 0.08000
H 	H 	0.29087 0.85343 0.32363 -0.03300
C 	C 	0.30217 0.78553 0.32383 -0.14600
H 	H 	0.34207 0.80663 0.32303 0.08400
C 	C 	0.26427 0.92153 0.54393 -0.11600
N 	N 	0.89343 0.22487 0.80967 -0.22400
C 	C 	0.93773 0.14687 0.65687 0.06500
H 	H 	0.95753 0.18677 0.65697 -0.01700
C 	C 	0.96883 0.11887 0.65717 -0.09800
H 	H 	0.00873 0.13997 0.65637 0.05500
C 	C 	0.93093 0.25487 0.87727 -0.05500
N 	N 	0.56010 0.00190 0.14300 -0.24000
C 	C 	0.60440 0.12420 0.99020 0.08700
H 	H 	0.62420 0.10410 0.99030 -0.01200
C 	C 	0.63550 0.18330 0.99050 -0.13900
H 	H 	0.67540 0.20210 0.98970 0.09000
C 	C 	0.59760 0.00940 0.21060 -0.18300
N 	N 	0.22677 0.33523 0.47633 -0.21500
C 	C 	0.27107 0.45753 0.32353 0.08000
H 	H 	0.29087 0.43743 0.32363 -0.03600
C 	C 	0.30217 0.51663 0.32383 -0.14700
H 	H 	0.34207 0.53543 0.32303 0.08300
C 	C 	0.26427 0.34273 0.54393 -0.12600
N 	N 	0.89343 0.66857 0.80967 -0.22400
C 	C 	0.93773 0.79087 0.65687 0.04900
H 	H 	0.95753 0.77077 0.65697 -0.01200
C 	C 	0.96883 0.84997 0.65717 -0.06900
H 	H 	0.00873 0.86877 0.65637 0.04600
C 	C 	0.93093 0.67607 0.87727 -0.05500
N 	N 	0.99810 0.55820 0.14300 -0.22700
C 	C 	0.87580 0.48020 0.99020 0.08800
H 	H 	0.89590 0.52010 0.99030 -0.00600
C 	C 	0.81670 0.45220 0.99050 -0.13700
H 	H 	0.79790 0.47330 0.98970 0.09000
C 	C 	0.99060 0.58820 0.21060 -0.15800
N 	N 	0.66477 0.89153 0.47633 -0.21500
C 	C 	0.54247 0.81353 0.32353 0.08000
H 	H 	0.56257 0.85343 0.32363 -0.03300
C 	C 	0.48337 0.78553 0.32383 -0.14600
H 	H 	0.46457 0.80663 0.32303 0.08400
C 	C 	0.65727 0.92153 0.54393 -0.11600
N 	N 	0.33143 0.22487 0.80967 -0.22300
C 	C 	0.20913 0.14687 0.65687 0.10100
H 	H 	0.22923 0.18677 0.65697 -0.03700
C 	C 	0.15003 0.11887 0.65717 -0.17400
H 	H 	0.13123 0.13997 0.65637 0.09600
C 	C 	0.32393 0.25487 0.87727 -0.07000
N 	N 	0.44180 0.43990 0.14300 -0.23500
C 	C 	0.51980 0.39560 0.99020 0.08800
H 	H 	0.47990 0.37580 0.99030 -0.01000
C 	C 	0.54780 0.36450 0.99050 -0.13800
H 	H 	0.52670 0.32460 0.98970 0.09000
C 	C 	0.41180 0.40240 0.21060 -0.17000
N 	N 	0.10847 0.77323 0.47633 -0.21500
C 	C 	0.18647 0.72893 0.32353 0.08100
H 	H 	0.14657 0.70913 0.32363 -0.03800
C 	C 	0.21447 0.69783 0.32383 -0.14700
H 	H 	0.19337 0.65793 0.32303 0.08100
C 	C 	0.07847 0.73573 0.54393 -0.13300
N 	N 	0.77513 0.10657 0.80967 -0.22200
C 	C 	0.85313 0.06227 0.65687 0.11200
H 	H 	0.81323 0.04247 0.65697 -0.04700
C 	C 	0.88113 0.03117 0.65717 -0.20800
H 	H 	0.86003 0.99127 0.65637 0.12700
C 	C 	0.74513 0.06907 0.87727 -0.07700
N 	N 	0.00190 0.56010 0.85700 -0.18700
C 	C 	0.12420 0.60440 0.00980 0.06400
H 	H 	0.10410 0.62420 0.00970 -0.05700
C 	C 	0.18330 0.63550 0.00950 -0.15600
H 	H 	0.20210 0.67540 0.01030 0.06600
C 	C 	0.00940 0.59760 0.78940 -0.12000
N 	N 	0.66857 0.89343 0.19033 -0.22000
C 	C 	0.79087 0.93773 0.34313 0.02800
H 	H 	0.77077 0.95753 0.34303 -0.01500
C 	C 	0.84997 0.96883 0.34283 -0.06000
H 	H 	0.86877 0.00873 0.34363 0.02100
C 	C 	0.67607 0.93093 0.12273 -0.15600
N 	N 	0.33523 0.22677 0.52367 -0.21900
C 	C 	0.45753 0.27107 0.67647 0.07400
H 	H 	0.43743 0.29087 0.67637 -0.03500
C 	C 	0.51663 0.30217 0.67617 -0.15000
H 	H 	0.53543 0.34207 0.67697 0.07400
C 	C 	0.34273 0.26427 0.45607 -0.15800
N 	N 	0.55820 0.99810 0.85700 -0.17400
C 	C 	0.48020 0.87580 0.00980 0.06500
H 	H 	0.52010 0.89590 0.00970 -0.04900
C 	C 	0.45220 0.81670 0.00950 -0.15300
H 	H 	0.47330 0.79790 0.01030 0.06600
C 	C 	0.58820 0.99060 0.78940 -0.09700
N 	N 	0.22487 0.33143 0.19033 -0.21900
C 	C 	0.14687 0.20913 0.34313 0.08500
H 	H 	0.18677 0.22923 0.34303 -0.04400
C 	C 	0.11887 0.15003 0.34283 -0.17600
H 	H 	0.13997 0.13123 0.34363 0.07700
C 	C 	0.25487 0.32393 0.12273 -0.17600
N 	N 	0.89153 0.66477 0.52367 -0.21800
C 	C 	0.81353 0.54247 0.67647 0.07400
H 	H 	0.85343 0.56257 0.67637 -0.03200
C 	C 	0.78553 0.48337 0.67617 -0.14900
H 	H 	0.80663 0.46457 0.67697 0.07500
C 	C 	0.92153 0.65727 0.45607 -0.14900
N 	N 	0.43990 0.44180 0.85700 -0.18200
C 	C 	0.39560 0.51980 0.00980 0.06500
H 	H 	0.37580 0.47990 0.00970 -0.05500
C 	C 	0.36450 0.54780 0.00950 -0.15500
H 	H 	0.32460 0.52670 0.01030 0.06600
C 	C 	0.40240 0.41180 0.78940 -0.11000
N 	N 	0.10657 0.77513 0.19033 -0.21800
C 	C 	0.06227 0.85313 0.34313 0.09000
H 	H 	0.04247 0.81323 0.34303 -0.05100
C 	C 	0.03117 0.88113 0.34283 -0.19700
H 	H 	0.99127 0.86003 0.34363 0.10200
C 	C 	0.06907 0.74513 0.12273 -0.18200
N 	N 	0.77323 0.10847 0.52367 -0.21800
C 	C 	0.72893 0.18647 0.67647 0.07500
H 	H 	0.70913 0.14657 0.67637 -0.03700
C 	C 	0.69783 0.21447 0.67617 -0.15000
H 	H 	0.65793 0.19337 0.67697 0.07200
C 	C 	0.73573 0.07847 0.45607 -0.16600
Ag	Ag	0.33333 0.96482 0.66667 0.48200
Ag	Ag	-0.00000 0.29815 -0.00000 0.38200
Ag	Ag	0.03518 0.36852 0.66667 0.46800
Ag	Ag	0.70185 0.70185 -0.00000 0.39500
Ag	Ag	0.63148 0.66667 0.66667 0.47400
Ag	Ag	0.29815 0.00000 -0.00000 0.37900
Ag	Ag	0.96482 0.33333 0.33333 0.45400
Ag	Ag	0.36852 0.03518 0.33333 0.44000
Ag	Ag	0.66667 0.63148 0.33333 0.44700
Ag	Ag	0.66667 0.03518 0.33333 0.44000
Ag	Ag	0.96482 0.63148 0.33333 0.45400
Ag	Ag	0.36852 0.33333 0.33333 0.44700
Ag	Ag	0.03518 0.66667 0.66667 0.46800
Ag	Ag	0.70185 0.00000 -0.00000 0.38000
Ag	Ag	0.63148 0.96482 0.66667 0.48200
Ag	Ag	0.29815 0.29815 -0.00000 0.39300
Ag	Ag	0.33333 0.36852 0.66667 0.47400
Ag	Ag	0.00000 0.70185 -0.00000 0.38300
Fe	Fe	0.50000 0.00000 -0.00000 1.03000
Fe	Fe	0.16667 0.33333 0.33333 1.10500
Fe	Fe	0.83333 0.66667 0.66667 1.11000
Fe	Fe	0.00000 0.50000 -0.00000 1.03200
Fe	Fe	0.66667 0.83333 0.33333 1.10600
Fe	Fe	0.33333 0.16667 0.66667 1.10900
Fe	Fe	0.50000 0.50000 -0.00000 1.04400
Fe	Fe	0.16667 0.83333 0.33333 1.10600
Fe	Fe	0.83333 0.16667 0.66667 1.10900
N 	N 	0.45265 0.90530 0.01020 -0.25600
C 	C 	0.39265 0.78530 0.00790 0.05000
C 	C 	0.36155 0.72310 0.00760 0.08400
N 	N 	0.11932 0.23863 0.34353 -0.26000
C 	C 	0.05932 0.11863 0.34123 0.08900
C 	C 	0.02822 0.05643 0.34093 0.04900
N 	N 	0.78598 0.57197 0.67687 -0.24800
C 	C 	0.72598 0.45197 0.67457 0.05600
C 	C 	0.69488 0.38977 0.67427 0.08700
N 	N 	0.09470 0.54735 0.01020 -0.26500
C 	C 	0.21470 0.60735 0.00790 0.05100
C 	C 	0.27690 0.63845 0.00760 0.08300
N 	N 	0.76137 0.88068 0.34353 -0.23700
C 	C 	0.88137 0.94068 0.34123 0.01100
C 	C 	0.94357 0.97178 0.34093 0.12900
N 	N 	0.42803 0.21402 0.67687 -0.24800
C 	C 	0.54803 0.27402 0.67457 0.05600
C 	C 	0.61023 0.30512 0.67427 0.08700
N 	N 	0.45265 0.54735 0.01020 -0.26300
C 	C 	0.39265 0.60735 0.00790 0.05100
C 	C 	0.36155 0.63845 0.00760 0.08400
N 	N 	0.11932 0.88068 0.34353 -0.24700
C 	C 	0.05932 0.94068 0.34123 0.04600
C 	C 	0.02822 0.97178 0.34093 0.09300
N 	N 	0.78598 0.21402 0.67687 -0.24800
C 	C 	0.72598 0.27402 0.67457 0.05600
C 	C 	0.69488 0.30512 0.67427 0.08700
N 	N 	0.90530 0.45265 0.98980 -0.21500
C 	C 	0.78530 0.39265 0.99210 0.07000
C 	C 	0.72310 0.36155 0.99240 0.10700
N 	N 	0.57197 0.78598 0.32313 -0.24900
C 	C 	0.45197 0.72598 0.32543 0.06700
C 	C 	0.38977 0.69488 0.32573 0.10200
N 	N 	0.23863 0.11932 0.65647 -0.26000
C 	C 	0.11863 0.05932 0.65877 0.11200
C 	C 	0.05643 0.02822 0.65907 0.06200
N 	N 	0.54735 0.09470 0.98980 -0.22300
C 	C 	0.60735 0.21470 0.99210 0.07100
C 	C 	0.63845 0.27690 0.99240 0.10600
N 	N 	0.21402 0.42803 0.32313 -0.25000
C 	C 	0.27402 0.54803 0.32543 0.06700
C 	C 	0.30512 0.61023 0.32573 0.10100
N 	N 	0.88068 0.76137 0.65647 -0.23800
C 	C 	0.94068 0.88137 0.65877 0.03500
C 	C 	0.97178 0.94357 0.65907 0.14000
N 	N 	0.54735 0.45265 0.98980 -0.22000
C 	C 	0.60735 0.39265 0.99210 0.07100
C 	C 	0.63845 0.36155 0.99240 0.10600
N 	N 	0.21402 0.78598 0.32313 -0.25000
C 	C 	0.27402 0.72598 0.32543 0.06700
C 	C 	0.30512 0.69488 0.32573 0.10200
N 	N 	0.88068 0.11932 0.65647 -0.24900
C 	C 	0.94068 0.05932 0.65877 0.07600
C 	C 	0.97178 0.02822 0.65907 0.09800
N 	N 	0.30402 0.69598 0.00580 -0.14600
N 	N 	0.97069 0.02931 0.33913 -0.14700
N 	N 	0.63735 0.36265 0.67247 -0.14300
N 	N 	0.30402 0.60804 0.00580 -0.14600
N 	N 	0.97069 0.94137 0.33913 -0.13900
N 	N 	0.63735 0.27471 0.67247 -0.14300
N 	N 	0.39196 0.69598 0.00580 -0.14600
N 	N 	0.05863 0.02931 0.33913 -0.15500
N 	N 	0.72529 0.36265 0.67247 -0.14300
N 	N 	0.69598 0.30402 0.99420 -0.13300
N 	N 	0.36265 0.63735 0.32753 -0.13600
N 	N 	0.02931 0.97069 0.66087 -0.13200
N 	N 	0.60804 0.30402 0.99420 -0.13300
N 	N 	0.27471 0.63735 0.32753 -0.13600
N 	N 	0.94137 0.97069 0.66087 -0.12500
N 	N 	0.69598 0.39196 0.99420 -0.13300
N 	N 	0.36265 0.72529 0.32753 -0.13600
N 	N 	0.02931 0.05863 0.66087 -0.14000
