data_crystal

_cell_length_a 26.85200
_cell_length_b 26.85200
_cell_length_c 9.67350
_cell_angle_alpha 90.00000
_cell_angle_beta  90.00000
_cell_angle_gamma 120.00000

_symmetry_space_group_name_	'P 1'
_symmetry_space_group_name_H-M	'P 1'

loop_
_symmetry_equiv_pos_as_xyz
  x,y,z

loop_
_atom_site_label
_atom_site_type_symbol
_atom_site_fract_x
_atom_site_fract_y
_atom_site_fract_z
_atom_site_charge
N 	N 	0.55770 0.99930 0.15140 -0.20800
C 	C 	0.48150 0.87630 0.99400 -0.00600
H 	H 	0.52150 0.89650 0.99000 0.02000
C 	C 	0.45320 0.81780 0.99900 0.03200
H 	H 	0.47450 0.79910 0.99870 0.03600
C 	C 	0.59700 0.01040 0.22000 -0.09700
N 	N 	0.22437 0.33263 0.48473 -0.22500
C 	C 	0.14817 0.20963 0.32733 0.07700
H 	H 	0.18817 0.22983 0.32333 -0.02700
C 	C 	0.11987 0.15113 0.33233 -0.14800
H 	H 	0.14117 0.13243 0.33203 0.07900
C 	C 	0.26367 0.34373 0.55333 -0.05900
N 	N 	0.89103 0.66597 0.81807 -0.23000
C 	C 	0.81483 0.54297 0.66067 0.07100
H 	H 	0.85483 0.56317 0.65667 -0.01900
C 	C 	0.78653 0.48447 0.66567 -0.12800
H 	H 	0.80783 0.46577 0.66537 0.08200
C 	C 	0.93033 0.67707 0.88667 -0.01500
N 	N 	0.00070 0.55840 0.15140 -0.25400
C 	C 	0.12370 0.60520 0.99400 -0.00900
H 	H 	0.10350 0.62500 0.99000 0.01500
C 	C 	0.18220 0.63540 0.99900 0.03200
H 	H 	0.20090 0.67540 0.99870 0.03400
C 	C 	0.98960 0.58660 0.22000 -0.04200
N 	N 	0.66737 0.89173 0.48473 -0.22600
C 	C 	0.79037 0.93853 0.32733 0.03400
H 	H 	0.77017 0.95833 0.32333 -0.00700
C 	C 	0.84887 0.96873 0.33233 -0.06500
H 	H 	0.86757 0.00873 0.33203 0.03800
C 	C 	0.65627 0.91993 0.55333 -0.05300
N 	N 	0.33403 0.22507 0.81807 -0.22900
C 	C 	0.45703 0.27187 0.66067 0.07200
H 	H 	0.43683 0.29167 0.65667 -0.02100
C 	C 	0.51553 0.30207 0.66567 -0.12800
H 	H 	0.53423 0.34207 0.66537 0.08100
C 	C 	0.32293 0.25327 0.88667 -0.02900
N 	N 	0.44160 0.44230 0.15140 -0.23400
C 	C 	0.39480 0.51850 0.99400 -0.00900
H 	H 	0.37500 0.47850 0.99000 0.01700
C 	C 	0.36460 0.54680 0.99900 0.03200
H 	H 	0.32460 0.52550 0.99870 0.03500
C 	C 	0.41340 0.40300 0.22000 -0.06900
N 	N 	0.10827 0.77563 0.48473 -0.22600
C 	C 	0.06147 0.85183 0.32733 0.08400
H 	H 	0.04167 0.81183 0.32333 -0.03500
C 	C 	0.03127 0.88013 0.33233 -0.17300
H 	H 	0.99127 0.85883 0.33203 0.10200
C 	C 	0.08007 0.73633 0.55333 -0.06500
N 	N 	0.77493 0.10897 0.81807 -0.22800
C 	C 	0.72813 0.18517 0.66067 0.07200
H 	H 	0.70833 0.14517 0.65667 -0.02300
C 	C 	0.69793 0.21347 0.66567 -0.12800
H 	H 	0.65793 0.19217 0.66537 0.08100
C 	C 	0.74673 0.06967 0.88667 -0.03300
N 	N 	0.99930 0.55770 0.84860 -0.19200
C 	C 	0.87630 0.48150 0.00600 0.14200
H 	H 	0.89650 0.52150 0.01000 -0.05700
C 	C 	0.81780 0.45320 0.00100 -0.28500
H 	H 	0.79910 0.47450 0.00130 0.11800
C 	C 	0.01040 0.59700 0.78000 -0.08100
N 	N 	0.66597 0.89103 0.18193 -0.23100
C 	C 	0.54297 0.81483 0.33933 0.06300
H 	H 	0.56317 0.85483 0.34333 -0.02200
C 	C 	0.48447 0.78653 0.33433 -0.13000
H 	H 	0.46577 0.80783 0.33463 0.07300
C 	C 	0.67707 0.93033 0.11333 -0.06100
N 	N 	0.33263 0.22437 0.51527 -0.22700
C 	C 	0.20963 0.14817 0.67267 0.08100
H 	H 	0.22983 0.18817 0.67667 -0.02500
C 	C 	0.15113 0.11987 0.66767 -0.14600
H 	H 	0.13243 0.14117 0.66797 0.08600
C 	C 	0.34373 0.26367 0.44667 -0.06600
N 	N 	0.55840 0.00070 0.84860 -0.23300
C 	C 	0.60520 0.12370 0.00600 0.14200
H 	H 	0.62500 0.10350 0.01000 -0.06200
C 	C 	0.63540 0.18220 0.00100 -0.28800
H 	H 	0.67540 0.20090 0.00130 0.11900
C 	C 	0.58660 0.98960 0.78000 -0.02800
N 	N 	0.22507 0.33403 0.18193 -0.22900
C 	C 	0.27187 0.45703 0.33933 0.06300
H 	H 	0.29167 0.43683 0.34333 -0.02400
C 	C 	0.30207 0.51553 0.33433 -0.13000
H 	H 	0.34207 0.53423 0.33463 0.07200
C 	C 	0.25327 0.32293 0.11333 -0.07700
N 	N 	0.89173 0.66737 0.51527 -0.22700
C 	C 	0.93853 0.79037 0.67267 0.04200
H 	H 	0.95833 0.77017 0.67667 -0.00500
C 	C 	0.96873 0.84887 0.66767 -0.06600
H 	H 	0.00873 0.86757 0.66797 0.04700
C 	C 	0.91993 0.65627 0.44667 -0.05900
N 	N 	0.44230 0.44160 0.84860 -0.21300
C 	C 	0.51850 0.39480 0.00600 0.14200
H 	H 	0.47850 0.37500 0.01000 -0.06000
C 	C 	0.54680 0.36460 0.00100 -0.28700
H 	H 	0.52550 0.32460 0.00130 0.11800
C 	C 	0.40300 0.41340 0.78000 -0.05500
N 	N 	0.10897 0.77493 0.18193 -0.22900
C 	C 	0.18517 0.72813 0.33933 0.06400
H 	H 	0.14517 0.70833 0.34333 -0.02600
C 	C 	0.21347 0.69793 0.33433 -0.13100
H 	H 	0.19217 0.65793 0.33463 0.07200
C 	C 	0.06967 0.74673 0.11333 -0.08100
N 	N 	0.77563 0.10827 0.51527 -0.22700
C 	C 	0.85183 0.06147 0.67267 0.09000
H 	H 	0.81183 0.04167 0.67667 -0.03300
C 	C 	0.88013 0.03127 0.66767 -0.17200
H 	H 	0.85883 0.99127 0.66797 0.11000
C 	C 	0.73633 0.08007 0.44667 -0.07200
N 	N 	0.44230 0.00070 0.84860 -0.23300
C 	C 	0.51850 0.12370 0.00600 0.14200
H 	H 	0.47850 0.10350 0.01000 -0.06200
C 	C 	0.54680 0.18220 0.00100 -0.28800
H 	H 	0.52550 0.20090 0.00130 0.11800
C 	C 	0.40300 0.98960 0.78000 -0.02800
N 	N 	0.10897 0.33403 0.18193 -0.22900
C 	C 	0.18517 0.45703 0.33933 0.06400
H 	H 	0.14517 0.43683 0.34333 -0.02600
C 	C 	0.21347 0.51553 0.33433 -0.13100
H 	H 	0.19217 0.53423 0.33463 0.07200
C 	C 	0.06967 0.32293 0.11333 -0.08200
N 	N 	0.77563 0.66737 0.51527 -0.22700
C 	C 	0.85183 0.79037 0.67267 0.06000
H 	H 	0.81183 0.77017 0.67667 -0.01700
C 	C 	0.88013 0.84887 0.66767 -0.10900
H 	H 	0.85883 0.86757 0.66797 0.07500
C 	C 	0.73633 0.65627 0.44667 -0.06600
N 	N 	0.99930 0.44160 0.84860 -0.19200
C 	C 	0.87630 0.39480 0.00600 0.14200
H 	H 	0.89650 0.37500 0.01000 -0.05700
C 	C 	0.81780 0.36460 0.00100 -0.28500
H 	H 	0.79910 0.32460 0.00130 0.11800
C 	C 	0.01040 0.41340 0.78000 -0.08100
N 	N 	0.66597 0.77493 0.18193 -0.22900
C 	C 	0.54297 0.72813 0.33933 0.06400
H 	H 	0.56317 0.70833 0.34333 -0.02400
C 	C 	0.48447 0.69793 0.33433 -0.13000
H 	H 	0.46577 0.65793 0.33463 0.07200
C 	C 	0.67707 0.74673 0.11333 -0.07600
N 	N 	0.33263 0.10827 0.51527 -0.22700
C 	C 	0.20963 0.06147 0.67267 0.10100
H 	H 	0.22983 0.04167 0.67667 -0.03700
C 	C 	0.15113 0.03127 0.66767 -0.19000
H 	H 	0.13243 0.99127 0.66797 0.11500
C 	C 	0.34373 0.08007 0.44667 -0.07200
N 	N 	0.55840 0.55770 0.84860 -0.21300
C 	C 	0.60520 0.48150 0.00600 0.14200
H 	H 	0.62500 0.52150 0.01000 -0.06000
C 	C 	0.63540 0.45320 0.00100 -0.28700
H 	H 	0.67540 0.47450 0.00130 0.11800
C 	C 	0.58660 0.59700 0.78000 -0.05500
N 	N 	0.22507 0.89103 0.18193 -0.23100
C 	C 	0.27187 0.81483 0.33933 0.06300
H 	H 	0.29167 0.85483 0.34333 -0.02200
C 	C 	0.30207 0.78653 0.33433 -0.13000
H 	H 	0.34207 0.80783 0.33463 0.07300
C 	C 	0.25327 0.93033 0.11333 -0.06100
N 	N 	0.89173 0.22437 0.51527 -0.22700
C 	C 	0.93853 0.14817 0.67267 0.05200
H 	H 	0.95833 0.18817 0.67667 -0.00900
C 	C 	0.96873 0.11987 0.66767 -0.08500
H 	H 	0.00873 0.14117 0.66797 0.05200
C 	C 	0.91993 0.26367 0.44667 -0.06000
N 	N 	0.00070 0.44230 0.15140 -0.25400
C 	C 	0.12370 0.51850 0.99400 -0.00900
H 	H 	0.10350 0.47850 0.99000 0.01500
C 	C 	0.18220 0.54680 0.99900 0.03200
H 	H 	0.20090 0.52550 0.99870 0.03500
C 	C 	0.98960 0.40300 0.22000 -0.04200
N 	N 	0.66737 0.77563 0.48473 -0.22600
C 	C 	0.79037 0.85183 0.32733 0.05400
H 	H 	0.77017 0.81183 0.32333 -0.02000
C 	C 	0.84887 0.88013 0.33233 -0.11100
H 	H 	0.86757 0.85883 0.33203 0.06800
C 	C 	0.65627 0.73633 0.55333 -0.05900
N 	N 	0.33403 0.10897 0.81807 -0.22900
C 	C 	0.45703 0.18517 0.66067 0.07200
H 	H 	0.43683 0.14517 0.65667 -0.02300
C 	C 	0.51553 0.21347 0.66567 -0.12800
H 	H 	0.53423 0.19217 0.66537 0.08100
C 	C 	0.32293 0.06967 0.88667 -0.03300
N 	N 	0.44160 0.99930 0.15140 -0.20900
C 	C 	0.39480 0.87630 0.99400 -0.00700
H 	H 	0.37500 0.89650 0.99000 0.01900
C 	C 	0.36460 0.81780 0.99900 0.03100
H 	H 	0.32460 0.79910 0.99870 0.03500
C 	C 	0.41340 0.01040 0.22000 -0.09800
N 	N 	0.10827 0.33263 0.48473 -0.22600
C 	C 	0.06147 0.20963 0.32733 0.09500
H 	H 	0.04167 0.22983 0.32333 -0.04000
C 	C 	0.03127 0.15113 0.33233 -0.19300
H 	H 	0.99127 0.13243 0.33203 0.10800
C 	C 	0.08007 0.34373 0.55333 -0.06500
N 	N 	0.77493 0.66597 0.81807 -0.22800
C 	C 	0.72813 0.54297 0.66067 0.07200
H 	H 	0.70833 0.56317 0.65667 -0.02100
C 	C 	0.69793 0.48447 0.66567 -0.12800
H 	H 	0.65793 0.46577 0.66537 0.08100
C 	C 	0.74673 0.67707 0.88667 -0.02900
N 	N 	0.55770 0.55840 0.15140 -0.23400
C 	C 	0.48150 0.60520 0.99400 -0.00900
H 	H 	0.52150 0.62500 0.99000 0.01700
C 	C 	0.45320 0.63540 0.99900 0.03200
H 	H 	0.47450 0.67540 0.99870 0.03500
C 	C 	0.59700 0.58660 0.22000 -0.06900
N 	N 	0.22437 0.89173 0.48473 -0.22600
C 	C 	0.14817 0.93853 0.32733 0.04400
H 	H 	0.18817 0.95833 0.32333 -0.01100
C 	C 	0.11987 0.96873 0.33233 -0.08300
H 	H 	0.14117 0.00873 0.33203 0.04300
C 	C 	0.26367 0.91993 0.55333 -0.05300
N 	N 	0.89103 0.22507 0.81807 -0.23000
C 	C 	0.81483 0.27187 0.66067 0.07100
H 	H 	0.85483 0.29167 0.65667 -0.01900
C 	C 	0.78653 0.30207 0.66567 -0.12800
H 	H 	0.80783 0.34207 0.66537 0.08200
C 	C 	0.93033 0.25327 0.88667 -0.01500
Au	Au	0.66667 0.03973 0.33333 0.26000
Au	Au	0.96027 0.62693 0.33333 0.27000
Au	Au	0.37307 0.33333 0.33333 0.26500
Au	Au	0.03973 0.66667 0.66667 0.26900
Au	Au	0.70640 0.00000 -0.00000 0.22100
Au	Au	0.62693 0.96027 0.66667 0.27900
Au	Au	0.29360 0.29360 -0.00000 0.23500
Au	Au	0.33333 0.37307 0.66667 0.27300
Au	Au	-0.00000 0.70640 -0.00000 0.22300
Au	Au	0.33333 0.96027 0.66667 0.27900
Au	Au	-0.00000 0.29360 -0.00000 0.22200
Au	Au	0.03973 0.37307 0.66667 0.26900
Au	Au	0.70640 0.70640 -0.00000 0.23700
Au	Au	0.62693 0.66667 0.66667 0.27300
Au	Au	0.29360 0.00000 -0.00000 0.22100
Au	Au	0.96027 0.33333 0.33333 0.27000
Au	Au	0.37307 0.03973 0.33333 0.26000
Au	Au	0.66667 0.62693 0.33333 0.26500
Fe	Fe	0.50000 0.00000 -0.00000 1.08400
Fe	Fe	0.16667 0.33333 0.33333 1.11600
Fe	Fe	0.83333 0.66667 0.66667 1.12000
Fe	Fe	-0.00000 0.50000 -0.00000 1.08500
Fe	Fe	0.66667 0.83333 0.33333 1.11700
Fe	Fe	0.33333 0.16667 0.66667 1.11900
Fe	Fe	0.50000 0.50000 -0.00000 1.09500
Fe	Fe	0.16667 0.83333 0.33333 1.11700
Fe	Fe	0.83333 0.16667 0.66667 1.12000
N 	N 	0.45275 0.90550 0.99600 -0.19400
C 	C 	0.39210 0.78420 0.00500 -0.15300
C 	C 	0.36175 0.72350 0.99600 0.18600
N 	N 	0.11942 0.23883 0.32933 -0.24700
C 	C 	0.05877 0.11753 0.33833 0.07700
C 	C 	0.02842 0.05683 0.32933 0.05500
N 	N 	0.78608 0.57217 0.66267 -0.23800
C 	C 	0.72543 0.45087 0.67167 0.05700
C 	C 	0.69508 0.39017 0.66267 0.09400
N 	N 	0.09450 0.54725 0.99600 -0.19900
C 	C 	0.21580 0.60790 0.00500 -0.15600
C 	C 	0.27650 0.63825 0.99600 0.18800
N 	N 	0.76117 0.88058 0.32933 -0.23100
C 	C 	0.88247 0.94123 0.33833 0.02100
C 	C 	0.94317 0.97158 0.32933 0.11800
N 	N 	0.42783 0.21392 0.66267 -0.23800
C 	C 	0.54913 0.27457 0.67167 0.05700
C 	C 	0.60983 0.30492 0.66267 0.09400
N 	N 	0.45275 0.54725 0.99600 -0.19800
C 	C 	0.39210 0.60790 0.00500 -0.15600
C 	C 	0.36175 0.63825 0.99600 0.18800
N 	N 	0.11942 0.88058 0.32933 -0.23900
C 	C 	0.05877 0.94123 0.33833 0.04800
C 	C 	0.02842 0.97158 0.32933 0.08700
N 	N 	0.78608 0.21392 0.66267 -0.23800
C 	C 	0.72543 0.27457 0.67167 0.05700
C 	C 	0.69508 0.30492 0.66267 0.09400
N 	N 	0.90550 0.45275 0.00400 -0.27000
C 	C 	0.78420 0.39210 0.99500 0.25400
C 	C 	0.72350 0.36175 0.00400 -0.00600
N 	N 	0.57217 0.78608 0.33733 -0.23900
C 	C 	0.45087 0.72543 0.32833 0.04700
C 	C 	0.39017 0.69508 0.33733 0.08400
N 	N 	0.23883 0.11942 0.67067 -0.24600
C 	C 	0.11753 0.05877 0.66167 0.08200
C 	C 	0.05683 0.02842 0.67067 0.06200
N 	N 	0.54725 0.09450 0.00400 -0.27600
C 	C 	0.60790 0.21580 0.99500 0.25700
C 	C 	0.63825 0.27650 0.00400 -0.00800
N 	N 	0.21392 0.42783 0.33733 -0.24000
C 	C 	0.27457 0.54913 0.32833 0.04700
C 	C 	0.30492 0.60983 0.33733 0.08400
N 	N 	0.88058 0.76117 0.67067 -0.23100
C 	C 	0.94123 0.88247 0.66167 0.02800
C 	C 	0.97158 0.94317 0.67067 0.12300
N 	N 	0.54725 0.45275 0.00400 -0.27400
C 	C 	0.60790 0.39210 0.99500 0.25600
C 	C 	0.63825 0.36175 0.00400 -0.00700
N 	N 	0.21392 0.78608 0.33733 -0.23900
C 	C 	0.27457 0.72543 0.32833 0.04700
C 	C 	0.30492 0.69508 0.33733 0.08400
N 	N 	0.88058 0.11942 0.67067 -0.23800
C 	C 	0.94123 0.05877 0.66167 0.05500
C 	C 	0.97158 0.02842 0.67067 0.09300
N 	N 	0.30270 0.69730 0.99700 -0.15300
N 	N 	0.96937 0.03063 0.33033 -0.13500
N 	N 	0.63603 0.36397 0.66367 -0.13000
N 	N 	0.30270 0.60540 0.99700 -0.15300
N 	N 	0.96937 0.93873 0.33033 -0.12800
N 	N 	0.63603 0.27207 0.66367 -0.13000
N 	N 	0.39460 0.69730 0.99700 -0.15300
N 	N 	0.06127 0.03063 0.33033 -0.14100
N 	N 	0.72793 0.36397 0.66367 -0.13000
N 	N 	0.69730 0.30270 0.00300 -0.11200
N 	N 	0.36397 0.63603 0.33633 -0.13500
N 	N 	0.03063 0.96937 0.66967 -0.13000
N 	N 	0.60540 0.30270 0.00300 -0.11200
N 	N 	0.27207 0.63603 0.33633 -0.13500
N 	N 	0.93873 0.96937 0.66967 -0.12400
N 	N 	0.69730 0.39460 0.00300 -0.11200
N 	N 	0.36397 0.72793 0.33633 -0.13500
N 	N 	0.03063 0.06127 0.66967 -0.13600
