data_crystal

_cell_length_a 35.15440
_cell_length_b 35.15440
_cell_length_c 35.15440
_cell_angle_alpha 90.00000
_cell_angle_beta  90.00000
_cell_angle_gamma 90.00000

_symmetry_space_group_name_	'P 1'
_symmetry_space_group_name_H-M	'P 1'

loop_
_symmetry_equiv_pos_as_xyz
  x,y,z

loop_
_atom_site_label
_atom_site_type_symbol
_atom_site_fract_x
_atom_site_fract_y
_atom_site_fract_z
_atom_site_charge
Zn	Zn	0.08384 0.25700 0.05076 1.22100
Zn	Zn	0.08515 0.44964 0.16150 1.20800
O 	O 	0.17349 0.45310 0.13403 -0.47200
O 	O 	0.12083 0.41720 0.13391 -0.50600
O 	O 	0.16713 0.27375 0.03971 -0.49300
O 	O 	0.11432 0.30176 0.05977 -0.50600
O 	O 	0.28603 0.34880 0.03938 -0.48100
O 	O 	0.28416 0.40944 0.05870 -0.51500
O 	O 	0.09883 0.21493 0.08183 -0.54800
O 	O 	0.14650 0.19014 0.04635 -0.48600
C 	C 	0.17407 0.39430 0.10102 -0.18500
C 	C 	0.15435 0.36300 0.08924 0.11500
H 	H 	0.12890 0.36040 0.09600 0.01400
C 	C 	0.17170 0.33476 0.06718 -0.18000
C 	C 	0.20934 0.33937 0.05672 0.11800
H 	H 	0.22130 0.32070 0.04220 0.01100
C 	C 	0.22930 0.37126 0.06748 -0.18200
C 	C 	0.21174 0.39856 0.08973 0.11700
H 	H 	0.22530 0.42000 0.09720 0.00200
C 	C 	0.15476 0.42425 0.12497 0.42900
C 	C 	0.14984 0.30038 0.05388 0.43200
C 	C 	0.26960 0.37614 0.05459 0.41100
C 	C 	0.12449 0.18994 0.07400 0.41700
C 	C 	0.12710 0.15811 0.10332 -0.22700
C 	C 	0.15605 0.13190 0.10102 0.14700
H 	H 	0.17470 0.13370 0.08110 -0.03700
N 	N 	0.03190 0.44860 0.14370 -0.18600
C 	C 	0.01940 0.46650 0.11000 -0.11400
N 	N 	0.03150 0.26480 0.07130 -0.31800
C 	C 	0.01910 0.29240 0.09640 0.03200
C 	C 	0.03900 0.31860 0.12000 -0.13000
H 	H 	0.06630 0.31890 0.11990 0.06400
C 	C 	0.01950 0.34270 0.14190 0.05000
H 	H 	0.03310 0.36010 0.15810 -0.01100
N 	N 	0.03170 0.44260 0.14860 -0.11500
H 	H 	0.97430 0.45300 0.21960 0.02900
H 	H 	0.01260 0.47560 0.21620 0.06900
H 	H 	0.01320 0.43150 0.22290 0.14800
C 	C 	0.01940 0.43720 0.11190 0.21800
C 	C 	0.03960 0.43230 0.07900 -0.20800
H 	H 	0.06690 0.43230 0.07940 0.08200
C 	C 	0.01980 0.42720 0.04490 0.09600
H 	H 	0.03350 0.42480 0.02140 0.00200
N 	N 	0.03130 0.27490 0.04680 -0.32100
H 	H 	0.97430 0.22020 0.09500 0.58200
H 	H 	0.01280 0.23500 0.11180 0.60000
H 	H 	0.01290 0.20550 0.07840 0.58500
C 	C 	0.01940 0.30310 0.02210 0.06900
C 	C 	0.01960 0.35370 0.97710 0.04200
H 	H 	0.03320 0.37150 0.96140 0.02000
H 	H 	0.97430 0.41360 0.20980 0.08700
H 	H 	0.01280 0.39380 0.19930 0.11800
H 	H 	0.01300 0.43320 0.22020 0.03800
H 	H 	0.97430 0.21150 0.02310 0.17800
H 	H 	0.01280 0.19650 0.03970 0.13200
H 	H 	0.01290 0.22640 0.00660 0.13500
H 	H 	0.03320 0.51120 0.02660 0.04100
C 	C 	0.04020 0.48300 0.07870 0.02600
H 	H 	0.06750 0.48260 0.07860 -0.00100
Zn	Zn	0.58384 0.75700 0.55076 1.22300
Zn	Zn	0.58515 0.94964 0.66150 1.20600
O 	O 	0.67349 0.95310 0.63403 -0.47800
O 	O 	0.62083 0.91720 0.63391 -0.50600
O 	O 	0.66713 0.77375 0.53971 -0.49700
O 	O 	0.61432 0.80176 0.55977 -0.50400
O 	O 	0.78603 0.84880 0.53938 -0.48500
O 	O 	0.78416 0.90944 0.55870 -0.51500
O 	O 	0.59883 0.71493 0.58183 -0.55700
O 	O 	0.64650 0.69014 0.54635 -0.49600
C 	C 	0.67407 0.89430 0.60102 -0.18600
C 	C 	0.65435 0.86300 0.58924 0.11700
H 	H 	0.62890 0.86040 0.59600 0.01400
C 	C 	0.67170 0.83476 0.56718 -0.18300
C 	C 	0.70934 0.83937 0.55672 0.11800
H 	H 	0.72130 0.82070 0.54220 0.00700
C 	C 	0.72930 0.87126 0.56748 -0.18500
C 	C 	0.71174 0.89856 0.58973 0.11700
H 	H 	0.72530 0.92000 0.59720 0.00100
C 	C 	0.65476 0.92425 0.62497 0.43000
C 	C 	0.64984 0.80038 0.55388 0.43100
C 	C 	0.76960 0.87614 0.55459 0.41100
C 	C 	0.62449 0.68994 0.57400 0.42000
C 	C 	0.62710 0.65811 0.60332 -0.24200
C 	C 	0.65605 0.63190 0.60102 0.15600
H 	H 	0.67470 0.63370 0.58110 -0.04900
N 	N 	0.53190 0.94860 0.64370 -0.18000
C 	C 	0.51940 0.96650 0.61000 -0.01200
N 	N 	0.53150 0.76480 0.57130 -0.33400
C 	C 	0.51910 0.79240 0.59640 -0.02600
C 	C 	0.53900 0.81860 0.62000 -0.07200
H 	H 	0.56630 0.81890 0.61990 0.04400
C 	C 	0.51950 0.84270 0.64190 -0.03400
H 	H 	0.53310 0.86010 0.65810 0.01300
N 	N 	0.53170 0.94260 0.64860 -0.11100
H 	H 	0.47430 0.95300 0.71960 0.03500
H 	H 	0.51260 0.97560 0.71620 0.06400
H 	H 	0.51320 0.93150 0.72290 0.16600
C 	C 	0.51940 0.93720 0.61190 0.05200
C 	C 	0.53960 0.93230 0.57900 -0.08300
H 	H 	0.56690 0.93230 0.57940 0.03900
C 	C 	0.51980 0.92720 0.54490 -0.02500
H 	H 	0.53350 0.92480 0.52140 0.03000
N 	N 	0.53130 0.77490 0.54680 -0.33400
H 	H 	0.47430 0.72020 0.59500 0.66600
H 	H 	0.51280 0.73500 0.61180 0.67400
H 	H 	0.51290 0.70550 0.57840 0.65900
C 	C 	0.51940 0.80310 0.52210 0.01200
C 	C 	0.51960 0.85370 0.47710 -0.02100
H 	H 	0.53320 0.87150 0.46140 0.04200
H 	H 	0.47430 0.91360 0.70980 0.09000
H 	H 	0.51280 0.89380 0.69930 0.11300
H 	H 	0.51300 0.93320 0.72020 0.03400
H 	H 	0.47430 0.71150 0.52310 0.21100
H 	H 	0.51280 0.69650 0.53970 0.14800
H 	H 	0.51290 0.72640 0.50660 0.17900
H 	H 	0.53320 0.01120 0.52660 0.03200
C 	C 	0.54020 0.98300 0.57870 -0.07600
H 	H 	0.56750 0.98260 0.57860 0.02400
Zn	Zn	0.91616 0.74300 0.05076 1.22300
Zn	Zn	0.91485 0.55036 0.16150 1.20800
O 	O 	0.82651 0.54690 0.13403 -0.47100
O 	O 	0.87917 0.58280 0.13391 -0.50300
O 	O 	0.83287 0.72625 0.03971 -0.49200
O 	O 	0.88568 0.69824 0.05977 -0.50100
O 	O 	0.71397 0.65120 0.03938 -0.48000
O 	O 	0.71584 0.59056 0.05870 -0.51400
O 	O 	0.90117 0.78507 0.08183 -0.54700
O 	O 	0.85350 0.80986 0.04635 -0.48600
C 	C 	0.82593 0.60570 0.10102 -0.18300
C 	C 	0.84565 0.63700 0.08924 0.11500
H 	H 	0.87110 0.63960 0.09600 0.01500
C 	C 	0.82830 0.66524 0.06718 -0.17900
C 	C 	0.79066 0.66063 0.05672 0.11700
H 	H 	0.77870 0.67930 0.04220 0.01100
C 	C 	0.77070 0.62874 0.06748 -0.18100
C 	C 	0.78826 0.60144 0.08973 0.11600
H 	H 	0.77470 0.58000 0.09720 0.00200
C 	C 	0.84524 0.57575 0.12497 0.42900
C 	C 	0.85016 0.69962 0.05388 0.43100
C 	C 	0.73040 0.62386 0.05459 0.41100
C 	C 	0.87551 0.81006 0.07400 0.41700
C 	C 	0.87290 0.84189 0.10332 -0.23100
C 	C 	0.84395 0.86810 0.10102 0.14900
H 	H 	0.82530 0.86630 0.08110 -0.03900
N 	N 	0.96810 0.55140 0.14370 -0.17500
C 	C 	0.98060 0.53350 0.11000 0.07500
N 	N 	0.96850 0.73520 0.07130 -0.31300
C 	C 	0.98090 0.70760 0.09640 -0.06100
C 	C 	0.96100 0.68140 0.12000 -0.02300
H 	H 	0.93370 0.68110 0.11990 0.02900
C 	C 	0.98050 0.65730 0.14190 -0.11400
H 	H 	0.96690 0.63990 0.15810 0.03800
N 	N 	0.96830 0.55740 0.14860 -0.10300
H 	H 	0.02570 0.54700 0.21960 0.01900
H 	H 	0.98740 0.52440 0.21620 0.03600
H 	H 	0.98680 0.56850 0.22290 0.13200
C 	C 	0.98060 0.56280 0.11190 -0.09800
C 	C 	0.96040 0.56770 0.07900 0.01700
H 	H 	0.93310 0.56770 0.07940 0.00800
C 	C 	0.98020 0.57280 0.04490 -0.13800
H 	H 	0.96650 0.57520 0.02140 0.06900
N 	N 	0.96870 0.72510 0.04680 -0.30700
H 	H 	0.02570 0.77980 0.09500 0.56800
H 	H 	0.98720 0.76500 0.11180 0.56700
H 	H 	0.98710 0.79450 0.07840 0.55200
C 	C 	0.98060 0.69690 0.02210 -0.04100
C 	C 	0.98040 0.64630 0.97710 -0.12300
H 	H 	0.96680 0.62850 0.96140 0.07100
H 	H 	0.02570 0.58640 0.20980 0.07700
H 	H 	0.98720 0.60620 0.19930 0.08300
H 	H 	0.98700 0.56680 0.22020 0.02400
H 	H 	0.02570 0.78850 0.02310 0.17000
H 	H 	0.98720 0.80350 0.03970 0.10300
H 	H 	0.98710 0.77360 0.00660 0.12100
H 	H 	0.96680 0.48880 0.02660 0.01500
C 	C 	0.95980 0.51700 0.07870 -0.08000
H 	H 	0.93250 0.51740 0.07860 0.03500
Zn	Zn	0.41616 0.24300 0.55076 1.22300
Zn	Zn	0.41485 0.05036 0.66150 1.20900
O 	O 	0.32651 0.04690 0.63403 -0.46700
O 	O 	0.37917 0.08280 0.63391 -0.50400
O 	O 	0.33287 0.22625 0.53971 -0.49700
O 	O 	0.38568 0.19824 0.55977 -0.50400
O 	O 	0.21397 0.15120 0.53938 -0.48500
O 	O 	0.21584 0.09056 0.55870 -0.51200
O 	O 	0.40117 0.28507 0.58183 -0.55700
O 	O 	0.35350 0.30986 0.54635 -0.49600
C 	C 	0.32593 0.10570 0.60102 -0.18200
C 	C 	0.34565 0.13700 0.58924 0.11500
H 	H 	0.37110 0.13960 0.59600 0.01400
C 	C 	0.32830 0.16524 0.56718 -0.18100
C 	C 	0.29066 0.16063 0.55672 0.11700
H 	H 	0.27870 0.17930 0.54220 0.00700
C 	C 	0.27070 0.12874 0.56748 -0.18300
C 	C 	0.28826 0.10144 0.58973 0.11500
H 	H 	0.27470 0.08000 0.59720 0.00500
C 	C 	0.34524 0.07575 0.62497 0.42800
C 	C 	0.35016 0.19962 0.55388 0.43100
C 	C 	0.23040 0.12386 0.55459 0.41000
C 	C 	0.37551 0.31006 0.57400 0.42000
C 	C 	0.37290 0.34189 0.60332 -0.24200
C 	C 	0.34395 0.36810 0.60102 0.15600
H 	H 	0.32530 0.36630 0.58110 -0.04900
N 	N 	0.46810 0.05140 0.64370 -0.18300
C 	C 	0.48060 0.03350 0.61000 -0.02100
N 	N 	0.46850 0.23520 0.57130 -0.33400
C 	C 	0.48090 0.20760 0.59640 -0.02600
C 	C 	0.46100 0.18140 0.62000 -0.07200
H 	H 	0.43370 0.18110 0.61990 0.04400
C 	C 	0.48050 0.15730 0.64190 -0.03400
H 	H 	0.46690 0.13990 0.65810 0.01200
N 	N 	0.46830 0.05740 0.64860 -0.10700
H 	H 	0.52570 0.04700 0.71960 0.02900
H 	H 	0.48740 0.02440 0.71620 0.06700
H 	H 	0.48680 0.06850 0.72290 0.16700
C 	C 	0.48060 0.06280 0.61190 0.06100
C 	C 	0.46040 0.06770 0.57900 -0.10300
H 	H 	0.43310 0.06770 0.57940 0.04700
C 	C 	0.48020 0.07280 0.54490 -0.02100
H 	H 	0.46650 0.07520 0.52140 0.02800
N 	N 	0.46870 0.22510 0.54680 -0.33400
H 	H 	0.52570 0.27980 0.59500 0.66500
H 	H 	0.48720 0.26500 0.61180 0.67300
H 	H 	0.48710 0.29450 0.57840 0.65900
C 	C 	0.48060 0.19690 0.52210 0.01200
C 	C 	0.48040 0.14630 0.47710 -0.02100
H 	H 	0.46680 0.12850 0.46140 0.04200
H 	H 	0.52570 0.08640 0.70980 0.10200
H 	H 	0.48720 0.10620 0.69930 0.12200
H 	H 	0.48700 0.06680 0.72020 0.03500
H 	H 	0.52570 0.28850 0.52310 0.21000
H 	H 	0.48720 0.30350 0.53970 0.14800
H 	H 	0.48710 0.27360 0.50660 0.17900
H 	H 	0.46680 0.98880 0.52660 0.00200
C 	C 	0.45980 0.01700 0.57870 0.00000
H 	H 	0.43250 0.01740 0.57860 0.01500
Zn	Zn	0.91616 0.25700 0.94924 1.22000
Zn	Zn	0.91485 0.44964 0.83850 1.20800
O 	O 	0.82651 0.45310 0.86597 -0.47200
O 	O 	0.87917 0.41720 0.86609 -0.50300
O 	O 	0.83287 0.27375 0.96029 -0.50400
O 	O 	0.88568 0.30176 0.94023 -0.50600
O 	O 	0.71397 0.34880 0.96062 -0.49200
O 	O 	0.71584 0.40944 0.94130 -0.51900
O 	O 	0.90117 0.21493 0.91817 -0.55100
O 	O 	0.85350 0.19014 0.95365 -0.49700
C 	C 	0.82593 0.39430 0.89898 -0.18600
C 	C 	0.84565 0.36300 0.91076 0.11700
H 	H 	0.87110 0.36040 0.90400 0.01400
C 	C 	0.82830 0.33476 0.93282 -0.18500
C 	C 	0.79066 0.33937 0.94328 0.11900
H 	H 	0.77870 0.32070 0.95780 0.00300
C 	C 	0.77070 0.37126 0.93252 -0.18800
C 	C 	0.78826 0.39856 0.91027 0.11800
H 	H 	0.77470 0.42000 0.90280 0.00100
C 	C 	0.84524 0.42425 0.87503 0.42900
C 	C 	0.85016 0.30038 0.94612 0.43100
C 	C 	0.73040 0.37614 0.94541 0.41200
C 	C 	0.87551 0.18994 0.92600 0.41800
C 	C 	0.87290 0.15811 0.89668 -0.23300
C 	C 	0.84395 0.13190 0.89898 0.14900
H 	H 	0.82530 0.13370 0.91890 -0.04100
N 	N 	0.96810 0.44860 0.85630 -0.17400
C 	C 	0.98060 0.46650 0.89000 0.07700
N 	N 	0.96850 0.26480 0.92870 -0.32000
C 	C 	0.98090 0.29240 0.90360 -0.06300
C 	C 	0.96100 0.31860 0.88000 -0.02100
H 	H 	0.93370 0.31890 0.88010 0.02800
C 	C 	0.98050 0.34270 0.85810 -0.11400
H 	H 	0.96690 0.36010 0.84190 0.03900
N 	N 	0.96830 0.44260 0.85140 -0.10300
H 	H 	0.02570 0.45300 0.78040 0.01900
H 	H 	0.98740 0.47560 0.78380 0.03600
H 	H 	0.98680 0.43150 0.77710 0.13200
C 	C 	0.98060 0.43720 0.88810 -0.10000
C 	C 	0.96040 0.43230 0.92100 0.01700
H 	H 	0.93310 0.43230 0.92060 0.00600
C 	C 	0.98020 0.42720 0.95510 -0.13900
H 	H 	0.96650 0.42480 0.97860 0.05500
N 	N 	0.96870 0.27490 0.95320 -0.31000
H 	H 	0.02570 0.22020 0.90500 0.57100
H 	H 	0.98720 0.23500 0.88820 0.57000
H 	H 	0.98710 0.20550 0.92160 0.55500
C 	C 	0.98060 0.30310 0.97790 -0.06100
C 	C 	0.98040 0.35370 0.02290 -0.10300
H 	H 	0.96680 0.37150 0.03860 0.06900
H 	H 	0.02570 0.41360 0.79020 0.07700
H 	H 	0.98720 0.39380 0.80070 0.08300
H 	H 	0.98700 0.43320 0.77980 0.02400
H 	H 	0.02570 0.21150 0.97690 0.18100
H 	H 	0.98720 0.19650 0.96030 0.12800
H 	H 	0.98710 0.22640 0.99340 0.17600
H 	H 	0.96680 0.51120 0.97340 0.00700
C 	C 	0.95980 0.48300 0.92130 -0.08200
H 	H 	0.93250 0.48260 0.92140 0.03300
Zn	Zn	0.41616 0.75700 0.44924 1.22300
Zn	Zn	0.41485 0.94964 0.33850 1.20600
O 	O 	0.32651 0.95310 0.36597 -0.47800
O 	O 	0.37917 0.91720 0.36609 -0.50600
O 	O 	0.33287 0.77375 0.46029 -0.49700
O 	O 	0.38568 0.80176 0.44023 -0.50400
O 	O 	0.21397 0.84880 0.46062 -0.48500
O 	O 	0.21584 0.90944 0.44130 -0.51500
O 	O 	0.40117 0.71493 0.41817 -0.55700
O 	O 	0.35350 0.69014 0.45365 -0.49600
C 	C 	0.32593 0.89430 0.39898 -0.18600
C 	C 	0.34565 0.86300 0.41076 0.11700
H 	H 	0.37110 0.86040 0.40400 0.01400
C 	C 	0.32830 0.83476 0.43282 -0.18300
C 	C 	0.29066 0.83937 0.44328 0.11800
H 	H 	0.27870 0.82070 0.45780 0.00700
C 	C 	0.27070 0.87126 0.43252 -0.18500
C 	C 	0.28826 0.89856 0.41027 0.11700
H 	H 	0.27470 0.92000 0.40280 0.00100
C 	C 	0.34524 0.92425 0.37503 0.43000
C 	C 	0.35016 0.80038 0.44612 0.43100
C 	C 	0.23040 0.87614 0.44541 0.41100
C 	C 	0.37551 0.68994 0.42600 0.42000
C 	C 	0.37290 0.65811 0.39668 -0.24200
C 	C 	0.34395 0.63190 0.39898 0.15600
H 	H 	0.32530 0.63370 0.41890 -0.04900
N 	N 	0.46810 0.94860 0.35630 -0.18000
C 	C 	0.48060 0.96650 0.39000 -0.01200
N 	N 	0.46850 0.76480 0.42870 -0.33400
C 	C 	0.48090 0.79240 0.40360 -0.02600
C 	C 	0.46100 0.81860 0.38000 -0.07200
H 	H 	0.43370 0.81890 0.38010 0.04400
C 	C 	0.48050 0.84270 0.35810 -0.03400
H 	H 	0.46690 0.86010 0.34190 0.01300
N 	N 	0.46830 0.94260 0.35140 -0.11100
H 	H 	0.52570 0.95300 0.28040 0.03500
H 	H 	0.48740 0.97560 0.28380 0.06400
H 	H 	0.48680 0.93150 0.27710 0.16600
C 	C 	0.48060 0.93720 0.38810 0.05200
C 	C 	0.46040 0.93230 0.42100 -0.08300
H 	H 	0.43310 0.93230 0.42060 0.03900
C 	C 	0.48020 0.92720 0.45510 -0.02500
H 	H 	0.46650 0.92480 0.47860 0.03000
N 	N 	0.46870 0.77490 0.45320 -0.33400
H 	H 	0.52570 0.72020 0.40500 0.66500
H 	H 	0.48720 0.73500 0.38820 0.67400
H 	H 	0.48710 0.70550 0.42160 0.65900
C 	C 	0.48060 0.80310 0.47790 0.01200
C 	C 	0.48040 0.85370 0.52290 -0.02100
H 	H 	0.46680 0.87150 0.53860 0.04200
H 	H 	0.52570 0.91360 0.29020 0.09000
H 	H 	0.48720 0.89380 0.30070 0.11300
H 	H 	0.48700 0.93320 0.27980 0.03400
H 	H 	0.52570 0.71150 0.47690 0.21100
H 	H 	0.48720 0.69650 0.46030 0.14800
H 	H 	0.48710 0.72640 0.49340 0.17900
H 	H 	0.46680 0.01120 0.47340 0.03200
C 	C 	0.45980 0.98300 0.42130 -0.07600
H 	H 	0.43250 0.98260 0.42140 0.02400
Zn	Zn	0.08384 0.74300 0.94924 1.21900
Zn	Zn	0.08515 0.55036 0.83850 1.20900
O 	O 	0.17349 0.54690 0.86597 -0.47200
O 	O 	0.12083 0.58280 0.86609 -0.50600
O 	O 	0.16713 0.72625 0.96029 -0.50400
O 	O 	0.11432 0.69824 0.94023 -0.51000
O 	O 	0.28603 0.65120 0.96062 -0.49200
O 	O 	0.28416 0.59056 0.94130 -0.51900
O 	O 	0.09883 0.78507 0.91817 -0.55000
O 	O 	0.14650 0.80986 0.95365 -0.49700
C 	C 	0.17407 0.60570 0.89898 -0.18800
C 	C 	0.15435 0.63700 0.91076 0.11800
H 	H 	0.12890 0.63960 0.90400 0.01200
C 	C 	0.17170 0.66524 0.93282 -0.18700
C 	C 	0.20934 0.66063 0.94328 0.12000
H 	H 	0.22130 0.67930 0.95780 0.00300
C 	C 	0.22930 0.62874 0.93252 -0.18900
C 	C 	0.21174 0.60144 0.91027 0.11800
H 	H 	0.22530 0.58000 0.90280 0.00100
C 	C 	0.15476 0.57575 0.87503 0.42900
C 	C 	0.14984 0.69962 0.94612 0.43200
C 	C 	0.26960 0.62386 0.94541 0.41200
C 	C 	0.12449 0.81006 0.92600 0.41800
C 	C 	0.12710 0.84189 0.89668 -0.23300
C 	C 	0.15605 0.86810 0.89898 0.14900
H 	H 	0.17470 0.86630 0.91890 -0.04100
N 	N 	0.03190 0.55140 0.85630 -0.18600
C 	C 	0.01940 0.53350 0.89000 -0.11600
N 	N 	0.03150 0.73520 0.92870 -0.32500
C 	C 	0.01910 0.70760 0.90360 0.03100
C 	C 	0.03900 0.68140 0.88000 -0.12900
H 	H 	0.06630 0.68110 0.88010 0.06400
C 	C 	0.01950 0.65730 0.85810 0.05000
H 	H 	0.03310 0.63990 0.84190 -0.01100
N 	N 	0.03170 0.55740 0.85140 -0.11500
H 	H 	0.97430 0.54700 0.78040 0.02900
H 	H 	0.01260 0.52440 0.78380 0.07000
H 	H 	0.01320 0.56850 0.77710 0.14800
C 	C 	0.01940 0.56280 0.88810 0.22000
C 	C 	0.03960 0.56770 0.92100 -0.21000
H 	H 	0.06690 0.56770 0.92060 0.08000
C 	C 	0.01980 0.57280 0.95510 0.09700
H 	H 	0.03350 0.57520 0.97860 -0.01300
N 	N 	0.03130 0.72510 0.95320 -0.32300
H 	H 	0.97430 0.77980 0.90500 0.58200
H 	H 	0.01280 0.76500 0.88820 0.60000
H 	H 	0.01290 0.79450 0.92160 0.58300
C 	C 	0.01940 0.69690 0.97790 0.05000
C 	C 	0.01960 0.64630 0.02290 0.06200
H 	H 	0.03320 0.62850 0.03860 0.01700
H 	H 	0.97430 0.58640 0.79020 0.08700
H 	H 	0.01280 0.60620 0.80070 0.11800
H 	H 	0.01300 0.56680 0.77980 0.03800
H 	H 	0.97430 0.78850 0.97690 0.18700
H 	H 	0.01280 0.80350 0.96030 0.15500
H 	H 	0.01290 0.77360 0.99340 0.19000
H 	H 	0.03320 0.48880 0.97340 0.03400
C 	C 	0.04020 0.51700 0.92130 0.02700
H 	H 	0.06750 0.51740 0.92140 -0.00300
Zn	Zn	0.58384 0.24300 0.44924 1.22300
Zn	Zn	0.58515 0.05036 0.33850 1.20900
O 	O 	0.67349 0.04690 0.36597 -0.46700
O 	O 	0.62083 0.08280 0.36609 -0.50400
O 	O 	0.66713 0.22625 0.46029 -0.49700
O 	O 	0.61432 0.19824 0.44023 -0.50400
O 	O 	0.78603 0.15120 0.46062 -0.48400
O 	O 	0.78416 0.09056 0.44130 -0.51200
O 	O 	0.59883 0.28507 0.41817 -0.55700
O 	O 	0.64650 0.30986 0.45365 -0.49600
C 	C 	0.67407 0.10570 0.39898 -0.18200
C 	C 	0.65435 0.13700 0.41076 0.11500
H 	H 	0.62890 0.13960 0.40400 0.01400
C 	C 	0.67170 0.16524 0.43282 -0.18100
C 	C 	0.70934 0.16063 0.44328 0.11700
H 	H 	0.72130 0.17930 0.45780 0.00700
C 	C 	0.72930 0.12874 0.43252 -0.18300
C 	C 	0.71174 0.10144 0.41027 0.11500
H 	H 	0.72530 0.08000 0.40280 0.00500
C 	C 	0.65476 0.07575 0.37503 0.42800
C 	C 	0.64984 0.19962 0.44612 0.43100
C 	C 	0.76960 0.12386 0.44541 0.41000
C 	C 	0.62449 0.31006 0.42600 0.42000
C 	C 	0.62710 0.34189 0.39668 -0.24200
C 	C 	0.65605 0.36810 0.39898 0.15600
H 	H 	0.67470 0.36630 0.41890 -0.04900
N 	N 	0.53190 0.05140 0.35630 -0.18300
C 	C 	0.51940 0.03350 0.39000 -0.02100
N 	N 	0.53150 0.23520 0.42870 -0.33400
C 	C 	0.51910 0.20760 0.40360 -0.02600
C 	C 	0.53900 0.18140 0.38000 -0.07200
H 	H 	0.56630 0.18110 0.38010 0.04400
C 	C 	0.51950 0.15730 0.35810 -0.03400
H 	H 	0.53310 0.13990 0.34190 0.01200
N 	N 	0.53170 0.05740 0.35140 -0.10700
H 	H 	0.47430 0.04700 0.28040 0.02900
H 	H 	0.51260 0.02440 0.28380 0.06700
H 	H 	0.51320 0.06850 0.27710 0.16700
C 	C 	0.51940 0.06280 0.38810 0.06100
C 	C 	0.53960 0.06770 0.42100 -0.10300
H 	H 	0.56690 0.06770 0.42060 0.04700
C 	C 	0.51980 0.07280 0.45510 -0.02100
H 	H 	0.53350 0.07520 0.47860 0.02800
N 	N 	0.53130 0.22510 0.45320 -0.33400
H 	H 	0.47430 0.27980 0.40500 0.66500
H 	H 	0.51280 0.26500 0.38820 0.67300
H 	H 	0.51290 0.29450 0.42160 0.65900
C 	C 	0.51940 0.19690 0.47790 0.01200
C 	C 	0.51960 0.14630 0.52290 -0.02100
H 	H 	0.53320 0.12850 0.53860 0.04200
H 	H 	0.47430 0.08640 0.29020 0.10200
H 	H 	0.51280 0.10620 0.30070 0.12200
H 	H 	0.51300 0.06680 0.27980 0.03500
H 	H 	0.47430 0.28850 0.47690 0.21000
H 	H 	0.51280 0.30350 0.46030 0.14800
H 	H 	0.51290 0.27360 0.49340 0.17900
H 	H 	0.53320 0.98880 0.47340 0.00200
C 	C 	0.54020 0.01700 0.42130 0.00000
H 	H 	0.56750 0.01740 0.42140 0.01500
Zn	Zn	0.05076 0.08384 0.25700 1.22200
Zn	Zn	0.16150 0.08515 0.44964 1.20900
O 	O 	0.13403 0.17349 0.45310 -0.47100
O 	O 	0.13391 0.12083 0.41720 -0.50500
O 	O 	0.03971 0.16713 0.27375 -0.49200
O 	O 	0.05977 0.11432 0.30176 -0.50500
O 	O 	0.03938 0.28603 0.34880 -0.48000
O 	O 	0.05870 0.28416 0.40944 -0.51400
O 	O 	0.08183 0.09883 0.21493 -0.54700
O 	O 	0.04635 0.14650 0.19014 -0.48500
C 	C 	0.10102 0.17407 0.39430 -0.18400
C 	C 	0.08924 0.15435 0.36300 0.11600
H 	H 	0.09600 0.12890 0.36040 0.01400
C 	C 	0.06718 0.17170 0.33476 -0.18000
C 	C 	0.05672 0.20934 0.33937 0.11800
H 	H 	0.04220 0.22130 0.32070 0.01100
C 	C 	0.06748 0.22930 0.37126 -0.18200
C 	C 	0.08973 0.21174 0.39856 0.11700
H 	H 	0.09720 0.22530 0.42000 0.00200
C 	C 	0.12497 0.15476 0.42425 0.42900
C 	C 	0.05388 0.14984 0.30038 0.43200
C 	C 	0.05459 0.26960 0.37614 0.41100
C 	C 	0.07400 0.12449 0.18994 0.41700
C 	C 	0.10332 0.12710 0.15811 -0.22700
C 	C 	0.10102 0.15605 0.13190 0.14700
H 	H 	0.08110 0.17470 0.13370 -0.03700
N 	N 	0.14370 0.03190 0.44860 -0.18600
C 	C 	0.11000 0.01940 0.46650 -0.11400
N 	N 	0.07130 0.03150 0.26480 -0.31800
C 	C 	0.09640 0.01910 0.29240 0.03200
C 	C 	0.12000 0.03900 0.31860 -0.13000
H 	H 	0.11990 0.06630 0.31890 0.06400
C 	C 	0.14190 0.01950 0.34270 0.05000
H 	H 	0.15810 0.03310 0.36010 -0.01100
N 	N 	0.14860 0.03170 0.44260 -0.11500
H 	H 	0.21960 0.97430 0.45300 0.02900
H 	H 	0.21620 0.01260 0.47560 0.06900
H 	H 	0.22290 0.01320 0.43150 0.14800
C 	C 	0.11190 0.01940 0.43720 0.21800
C 	C 	0.07900 0.03960 0.43230 -0.20800
H 	H 	0.07940 0.06690 0.43230 0.08200
C 	C 	0.04490 0.01980 0.42720 0.09600
H 	H 	0.02140 0.03350 0.42480 0.00200
N 	N 	0.04680 0.03130 0.27490 -0.32100
H 	H 	0.09500 0.97430 0.22020 0.58200
H 	H 	0.11180 0.01280 0.23500 0.60000
H 	H 	0.07840 0.01290 0.20550 0.58500
C 	C 	0.02210 0.01940 0.30310 0.06900
C 	C 	0.97710 0.01960 0.35370 0.04200
H 	H 	0.96140 0.03320 0.37150 0.02000
H 	H 	0.20980 0.97430 0.41360 0.08700
H 	H 	0.19930 0.01280 0.39380 0.11800
H 	H 	0.22020 0.01300 0.43320 0.03800
H 	H 	0.02310 0.97430 0.21150 0.17800
H 	H 	0.03970 0.01280 0.19650 0.13200
H 	H 	0.00660 0.01290 0.22640 0.13500
H 	H 	0.02660 0.03320 0.51120 0.04100
C 	C 	0.07870 0.04020 0.48300 0.02600
H 	H 	0.07860 0.06750 0.48260 -0.00100
Zn	Zn	0.55076 0.58384 0.75700 1.22300
Zn	Zn	0.66150 0.58515 0.94964 1.20600
O 	O 	0.63403 0.67349 0.95310 -0.47800
O 	O 	0.63391 0.62083 0.91720 -0.50600
O 	O 	0.53971 0.66713 0.77375 -0.49700
O 	O 	0.55977 0.61432 0.80176 -0.50400
O 	O 	0.53938 0.78603 0.84880 -0.48500
O 	O 	0.55870 0.78416 0.90944 -0.51500
O 	O 	0.58183 0.59883 0.71493 -0.55700
O 	O 	0.54635 0.64650 0.69014 -0.49600
C 	C 	0.60102 0.67407 0.89430 -0.18600
C 	C 	0.58924 0.65435 0.86300 0.11700
H 	H 	0.59600 0.62890 0.86040 0.01400
C 	C 	0.56718 0.67170 0.83476 -0.18300
C 	C 	0.55672 0.70934 0.83937 0.11800
H 	H 	0.54220 0.72130 0.82070 0.00700
C 	C 	0.56748 0.72930 0.87126 -0.18500
C 	C 	0.58973 0.71174 0.89856 0.11700
H 	H 	0.59720 0.72530 0.92000 0.00100
C 	C 	0.62497 0.65476 0.92425 0.43000
C 	C 	0.55388 0.64984 0.80038 0.43100
C 	C 	0.55459 0.76960 0.87614 0.41100
C 	C 	0.57400 0.62449 0.68994 0.42000
C 	C 	0.60332 0.62710 0.65811 -0.24200
C 	C 	0.60102 0.65605 0.63190 0.15600
H 	H 	0.58110 0.67470 0.63370 -0.04900
N 	N 	0.64370 0.53190 0.94860 -0.18000
C 	C 	0.61000 0.51940 0.96650 -0.01200
N 	N 	0.57130 0.53150 0.76480 -0.33400
C 	C 	0.59640 0.51910 0.79240 -0.02600
C 	C 	0.62000 0.53900 0.81860 -0.07200
H 	H 	0.61990 0.56630 0.81890 0.04400
C 	C 	0.64190 0.51950 0.84270 -0.03400
H 	H 	0.65810 0.53310 0.86010 0.01300
N 	N 	0.64860 0.53170 0.94260 -0.11100
H 	H 	0.71960 0.47430 0.95300 0.03500
H 	H 	0.71620 0.51260 0.97560 0.06400
H 	H 	0.72290 0.51320 0.93150 0.16600
C 	C 	0.61190 0.51940 0.93720 0.05200
C 	C 	0.57900 0.53960 0.93230 -0.08300
H 	H 	0.57940 0.56690 0.93230 0.03900
C 	C 	0.54490 0.51980 0.92720 -0.02500
H 	H 	0.52140 0.53350 0.92480 0.03000
N 	N 	0.54680 0.53130 0.77490 -0.33400
H 	H 	0.59500 0.47430 0.72020 0.66600
H 	H 	0.61180 0.51280 0.73500 0.67400
H 	H 	0.57840 0.51290 0.70550 0.65900
C 	C 	0.52210 0.51940 0.80310 0.01200
C 	C 	0.47710 0.51960 0.85370 -0.02100
H 	H 	0.46140 0.53320 0.87150 0.04200
H 	H 	0.70980 0.47430 0.91360 0.09000
H 	H 	0.69930 0.51280 0.89380 0.11300
H 	H 	0.72020 0.51300 0.93320 0.03400
H 	H 	0.52310 0.47430 0.71150 0.21100
H 	H 	0.53970 0.51280 0.69650 0.14800
H 	H 	0.50660 0.51290 0.72640 0.17900
H 	H 	0.52660 0.53320 0.01120 0.03200
C 	C 	0.57870 0.54020 0.98300 -0.07600
H 	H 	0.57860 0.56750 0.98260 0.02400
Zn	Zn	0.05076 0.91616 0.74300 1.22300
Zn	Zn	0.16150 0.91485 0.55036 1.20800
O 	O 	0.13403 0.82651 0.54690 -0.47100
O 	O 	0.13391 0.87917 0.58280 -0.50300
O 	O 	0.03971 0.83287 0.72625 -0.49200
O 	O 	0.05977 0.88568 0.69824 -0.50100
O 	O 	0.03938 0.71397 0.65120 -0.48000
O 	O 	0.05870 0.71584 0.59056 -0.51400
O 	O 	0.08183 0.90117 0.78507 -0.54700
O 	O 	0.04635 0.85350 0.80986 -0.48600
C 	C 	0.10102 0.82593 0.60570 -0.18300
C 	C 	0.08924 0.84565 0.63700 0.11500
H 	H 	0.09600 0.87110 0.63960 0.01500
C 	C 	0.06718 0.82830 0.66524 -0.17900
C 	C 	0.05672 0.79066 0.66063 0.11700
H 	H 	0.04220 0.77870 0.67930 0.01100
C 	C 	0.06748 0.77070 0.62874 -0.18100
C 	C 	0.08973 0.78826 0.60144 0.11600
H 	H 	0.09720 0.77470 0.58000 0.00200
C 	C 	0.12497 0.84524 0.57575 0.42900
C 	C 	0.05388 0.85016 0.69962 0.43100
C 	C 	0.05459 0.73040 0.62386 0.41100
C 	C 	0.07400 0.87551 0.81006 0.41700
C 	C 	0.10332 0.87290 0.84189 -0.23100
C 	C 	0.10102 0.84395 0.86810 0.14900
H 	H 	0.08110 0.82530 0.86630 -0.03900
N 	N 	0.14370 0.96810 0.55140 -0.17500
C 	C 	0.11000 0.98060 0.53350 0.07500
N 	N 	0.07130 0.96850 0.73520 -0.31300
C 	C 	0.09640 0.98090 0.70760 -0.06100
C 	C 	0.12000 0.96100 0.68140 -0.02300
H 	H 	0.11990 0.93370 0.68110 0.02900
C 	C 	0.14190 0.98050 0.65730 -0.11400
H 	H 	0.15810 0.96690 0.63990 0.03800
N 	N 	0.14860 0.96830 0.55740 -0.10300
H 	H 	0.21960 0.02570 0.54700 0.01900
H 	H 	0.21620 0.98740 0.52440 0.03600
H 	H 	0.22290 0.98680 0.56850 0.13200
C 	C 	0.11190 0.98060 0.56280 -0.09800
C 	C 	0.07900 0.96040 0.56770 0.01700
H 	H 	0.07940 0.93310 0.56770 0.00800
C 	C 	0.04490 0.98020 0.57280 -0.13800
H 	H 	0.02140 0.96650 0.57520 0.06900
N 	N 	0.04680 0.96870 0.72510 -0.30700
H 	H 	0.09500 0.02570 0.77980 0.56800
H 	H 	0.11180 0.98720 0.76500 0.56700
H 	H 	0.07840 0.98710 0.79450 0.55200
C 	C 	0.02210 0.98060 0.69690 -0.04100
C 	C 	0.97710 0.98040 0.64630 -0.12300
H 	H 	0.96140 0.96680 0.62850 0.07100
H 	H 	0.20980 0.02570 0.58640 0.07700
H 	H 	0.19930 0.98720 0.60620 0.08300
H 	H 	0.22020 0.98700 0.56680 0.02400
H 	H 	0.02310 0.02570 0.78850 0.17000
H 	H 	0.03970 0.98720 0.80350 0.10300
H 	H 	0.00660 0.98710 0.77360 0.12100
H 	H 	0.02660 0.96680 0.48880 0.01500
C 	C 	0.07870 0.95980 0.51700 -0.08000
H 	H 	0.07860 0.93250 0.51740 0.03500
Zn	Zn	0.55076 0.41616 0.24300 1.22300
Zn	Zn	0.66150 0.41485 0.05036 1.20900
O 	O 	0.63403 0.32651 0.04690 -0.46700
O 	O 	0.63391 0.37917 0.08280 -0.50400
O 	O 	0.53971 0.33287 0.22625 -0.49700
O 	O 	0.55977 0.38568 0.19824 -0.50400
O 	O 	0.53938 0.21397 0.15120 -0.48500
O 	O 	0.55870 0.21584 0.09056 -0.51200
O 	O 	0.58183 0.40117 0.28507 -0.55700
O 	O 	0.54635 0.35350 0.30986 -0.49600
C 	C 	0.60102 0.32593 0.10570 -0.18200
C 	C 	0.58924 0.34565 0.13700 0.11500
H 	H 	0.59600 0.37110 0.13960 0.01400
C 	C 	0.56718 0.32830 0.16524 -0.18100
C 	C 	0.55672 0.29066 0.16063 0.11700
H 	H 	0.54220 0.27870 0.17930 0.00700
C 	C 	0.56748 0.27070 0.12874 -0.18300
C 	C 	0.58973 0.28826 0.10144 0.11500
H 	H 	0.59720 0.27470 0.08000 0.00500
C 	C 	0.62497 0.34524 0.07575 0.42800
C 	C 	0.55388 0.35016 0.19962 0.43100
C 	C 	0.55459 0.23040 0.12386 0.41000
C 	C 	0.57400 0.37551 0.31006 0.42000
C 	C 	0.60332 0.37290 0.34189 -0.24200
C 	C 	0.60102 0.34395 0.36810 0.15600
H 	H 	0.58110 0.32530 0.36630 -0.04900
N 	N 	0.64370 0.46810 0.05140 -0.18300
C 	C 	0.61000 0.48060 0.03350 -0.02100
N 	N 	0.57130 0.46850 0.23520 -0.33400
C 	C 	0.59640 0.48090 0.20760 -0.02600
C 	C 	0.62000 0.46100 0.18140 -0.07200
H 	H 	0.61990 0.43370 0.18110 0.04400
C 	C 	0.64190 0.48050 0.15730 -0.03400
H 	H 	0.65810 0.46690 0.13990 0.01200
N 	N 	0.64860 0.46830 0.05740 -0.10700
H 	H 	0.71960 0.52570 0.04700 0.02900
H 	H 	0.71620 0.48740 0.02440 0.06700
H 	H 	0.72290 0.48680 0.06850 0.16700
C 	C 	0.61190 0.48060 0.06280 0.06100
C 	C 	0.57900 0.46040 0.06770 -0.10300
H 	H 	0.57940 0.43310 0.06770 0.04700
C 	C 	0.54490 0.48020 0.07280 -0.02100
H 	H 	0.52140 0.46650 0.07520 0.02800
N 	N 	0.54680 0.46870 0.22510 -0.33400
H 	H 	0.59500 0.52570 0.27980 0.66500
H 	H 	0.61180 0.48720 0.26500 0.67300
H 	H 	0.57840 0.48710 0.29450 0.65900
C 	C 	0.52210 0.48060 0.19690 0.01200
C 	C 	0.47710 0.48040 0.14630 -0.02100
H 	H 	0.46140 0.46680 0.12850 0.04200
H 	H 	0.70980 0.52570 0.08640 0.10200
H 	H 	0.69930 0.48720 0.10620 0.12200
H 	H 	0.72020 0.48700 0.06680 0.03500
H 	H 	0.52310 0.52570 0.28850 0.21000
H 	H 	0.53970 0.48720 0.30350 0.14800
H 	H 	0.50660 0.48710 0.27360 0.17900
H 	H 	0.52660 0.46680 0.98880 0.00200
C 	C 	0.57870 0.45980 0.01700 0.00000
H 	H 	0.57860 0.43250 0.01740 0.01500
Zn	Zn	0.94924 0.91616 0.25700 1.22000
Zn	Zn	0.83850 0.91485 0.44964 1.20800
O 	O 	0.86597 0.82651 0.45310 -0.47200
O 	O 	0.86609 0.87917 0.41720 -0.50300
O 	O 	0.96029 0.83287 0.27375 -0.50400
O 	O 	0.94023 0.88568 0.30176 -0.50600
O 	O 	0.96062 0.71397 0.34880 -0.49200
O 	O 	0.94130 0.71584 0.40944 -0.51900
O 	O 	0.91817 0.90117 0.21493 -0.55100
O 	O 	0.95365 0.85350 0.19014 -0.49700
C 	C 	0.89898 0.82593 0.39430 -0.18600
C 	C 	0.91076 0.84565 0.36300 0.11700
H 	H 	0.90400 0.87110 0.36040 0.01400
C 	C 	0.93282 0.82830 0.33476 -0.18500
C 	C 	0.94328 0.79066 0.33937 0.11900
H 	H 	0.95780 0.77870 0.32070 0.00300
C 	C 	0.93252 0.77070 0.37126 -0.18800
C 	C 	0.91027 0.78826 0.39856 0.11800
H 	H 	0.90280 0.77470 0.42000 0.00100
C 	C 	0.87503 0.84524 0.42425 0.42900
C 	C 	0.94612 0.85016 0.30038 0.43100
C 	C 	0.94541 0.73040 0.37614 0.41200
C 	C 	0.92600 0.87551 0.18994 0.41800
C 	C 	0.89668 0.87290 0.15811 -0.23300
C 	C 	0.89898 0.84395 0.13190 0.14900
H 	H 	0.91890 0.82530 0.13370 -0.04100
N 	N 	0.85630 0.96810 0.44860 -0.17400
C 	C 	0.89000 0.98060 0.46650 0.07700
N 	N 	0.92870 0.96850 0.26480 -0.32000
C 	C 	0.90360 0.98090 0.29240 -0.06300
C 	C 	0.88000 0.96100 0.31860 -0.02100
H 	H 	0.88010 0.93370 0.31890 0.02800
C 	C 	0.85810 0.98050 0.34270 -0.11400
H 	H 	0.84190 0.96690 0.36010 0.03900
N 	N 	0.85140 0.96830 0.44260 -0.10300
H 	H 	0.78040 0.02570 0.45300 0.01900
H 	H 	0.78380 0.98740 0.47560 0.03600
H 	H 	0.77710 0.98680 0.43150 0.13200
C 	C 	0.88810 0.98060 0.43720 -0.10000
C 	C 	0.92100 0.96040 0.43230 0.01700
H 	H 	0.92060 0.93310 0.43230 0.00600
C 	C 	0.95510 0.98020 0.42720 -0.13900
H 	H 	0.97860 0.96650 0.42480 0.05500
N 	N 	0.95320 0.96870 0.27490 -0.31000
H 	H 	0.90500 0.02570 0.22020 0.57100
H 	H 	0.88820 0.98720 0.23500 0.57000
H 	H 	0.92160 0.98710 0.20550 0.55500
C 	C 	0.97790 0.98060 0.30310 -0.06100
C 	C 	0.02290 0.98040 0.35370 -0.10300
H 	H 	0.03860 0.96680 0.37150 0.06900
H 	H 	0.79020 0.02570 0.41360 0.07700
H 	H 	0.80070 0.98720 0.39380 0.08300
H 	H 	0.77980 0.98700 0.43320 0.02400
H 	H 	0.97690 0.02570 0.21150 0.18100
H 	H 	0.96030 0.98720 0.19650 0.12800
H 	H 	0.99340 0.98710 0.22640 0.17600
H 	H 	0.97340 0.96680 0.51120 0.00700
C 	C 	0.92130 0.95980 0.48300 -0.08200
H 	H 	0.92140 0.93250 0.48260 0.03300
Zn	Zn	0.44924 0.41616 0.75700 1.22300
Zn	Zn	0.33850 0.41485 0.94964 1.20600
O 	O 	0.36597 0.32651 0.95310 -0.47800
O 	O 	0.36609 0.37917 0.91720 -0.50600
O 	O 	0.46029 0.33287 0.77375 -0.49700
O 	O 	0.44023 0.38568 0.80176 -0.50400
O 	O 	0.46062 0.21397 0.84880 -0.48500
O 	O 	0.44130 0.21584 0.90944 -0.51500
O 	O 	0.41817 0.40117 0.71493 -0.55700
O 	O 	0.45365 0.35350 0.69014 -0.49600
C 	C 	0.39898 0.32593 0.89430 -0.18600
C 	C 	0.41076 0.34565 0.86300 0.11700
H 	H 	0.40400 0.37110 0.86040 0.01400
C 	C 	0.43282 0.32830 0.83476 -0.18300
C 	C 	0.44328 0.29066 0.83937 0.11800
H 	H 	0.45780 0.27870 0.82070 0.00700
C 	C 	0.43252 0.27070 0.87126 -0.18500
C 	C 	0.41027 0.28826 0.89856 0.11700
H 	H 	0.40280 0.27470 0.92000 0.00100
C 	C 	0.37503 0.34524 0.92425 0.43000
C 	C 	0.44612 0.35016 0.80038 0.43100
C 	C 	0.44541 0.23040 0.87614 0.41100
C 	C 	0.42600 0.37551 0.68994 0.42000
C 	C 	0.39668 0.37290 0.65811 -0.24200
C 	C 	0.39898 0.34395 0.63190 0.15600
H 	H 	0.41890 0.32530 0.63370 -0.04900
N 	N 	0.35630 0.46810 0.94860 -0.18000
C 	C 	0.39000 0.48060 0.96650 -0.01200
N 	N 	0.42870 0.46850 0.76480 -0.33400
C 	C 	0.40360 0.48090 0.79240 -0.02600
C 	C 	0.38000 0.46100 0.81860 -0.07200
H 	H 	0.38010 0.43370 0.81890 0.04400
C 	C 	0.35810 0.48050 0.84270 -0.03400
H 	H 	0.34190 0.46690 0.86010 0.01300
N 	N 	0.35140 0.46830 0.94260 -0.11100
H 	H 	0.28040 0.52570 0.95300 0.03500
H 	H 	0.28380 0.48740 0.97560 0.06400
H 	H 	0.27710 0.48680 0.93150 0.16600
C 	C 	0.38810 0.48060 0.93720 0.05200
C 	C 	0.42100 0.46040 0.93230 -0.08300
H 	H 	0.42060 0.43310 0.93230 0.03900
C 	C 	0.45510 0.48020 0.92720 -0.02500
H 	H 	0.47860 0.46650 0.92480 0.03000
N 	N 	0.45320 0.46870 0.77490 -0.33400
H 	H 	0.40500 0.52570 0.72020 0.66500
H 	H 	0.38820 0.48720 0.73500 0.67400
H 	H 	0.42160 0.48710 0.70550 0.65900
C 	C 	0.47790 0.48060 0.80310 0.01200
C 	C 	0.52290 0.48040 0.85370 -0.02100
H 	H 	0.53860 0.46680 0.87150 0.04200
H 	H 	0.29020 0.52570 0.91360 0.09000
H 	H 	0.30070 0.48720 0.89380 0.11300
H 	H 	0.27980 0.48700 0.93320 0.03400
H 	H 	0.47690 0.52570 0.71150 0.21100
H 	H 	0.46030 0.48720 0.69650 0.14800
H 	H 	0.49340 0.48710 0.72640 0.17900
H 	H 	0.47340 0.46680 0.01120 0.03200
C 	C 	0.42130 0.45980 0.98300 -0.07600
H 	H 	0.42140 0.43250 0.98260 0.02400
Zn	Zn	0.94924 0.08384 0.74300 1.21900
Zn	Zn	0.83850 0.08515 0.55036 1.20900
O 	O 	0.86597 0.17349 0.54690 -0.47200
O 	O 	0.86609 0.12083 0.58280 -0.50600
O 	O 	0.96029 0.16713 0.72625 -0.50400
O 	O 	0.94023 0.11432 0.69824 -0.51000
O 	O 	0.96062 0.28603 0.65120 -0.49200
O 	O 	0.94130 0.28416 0.59056 -0.51900
O 	O 	0.91817 0.09883 0.78507 -0.55000
O 	O 	0.95365 0.14650 0.80986 -0.49700
C 	C 	0.89898 0.17407 0.60570 -0.18800
C 	C 	0.91076 0.15435 0.63700 0.11800
H 	H 	0.90400 0.12890 0.63960 0.01200
C 	C 	0.93282 0.17170 0.66524 -0.18700
C 	C 	0.94328 0.20934 0.66063 0.12000
H 	H 	0.95780 0.22130 0.67930 0.00300
C 	C 	0.93252 0.22930 0.62874 -0.18900
C 	C 	0.91027 0.21174 0.60144 0.11800
H 	H 	0.90280 0.22530 0.58000 0.00100
C 	C 	0.87503 0.15476 0.57575 0.42900
C 	C 	0.94612 0.14984 0.69962 0.43200
C 	C 	0.94541 0.26960 0.62386 0.41200
C 	C 	0.92600 0.12449 0.81006 0.41800
C 	C 	0.89668 0.12710 0.84189 -0.23300
C 	C 	0.89898 0.15605 0.86810 0.14900
H 	H 	0.91890 0.17470 0.86630 -0.04100
N 	N 	0.85630 0.03190 0.55140 -0.18600
C 	C 	0.89000 0.01940 0.53350 -0.11600
N 	N 	0.92870 0.03150 0.73520 -0.32500
C 	C 	0.90360 0.01910 0.70760 0.03100
C 	C 	0.88000 0.03900 0.68140 -0.12900
H 	H 	0.88010 0.06630 0.68110 0.06400
C 	C 	0.85810 0.01950 0.65730 0.05000
H 	H 	0.84190 0.03310 0.63990 -0.01100
N 	N 	0.85140 0.03170 0.55740 -0.11500
H 	H 	0.78040 0.97430 0.54700 0.02900
H 	H 	0.78380 0.01260 0.52440 0.07000
H 	H 	0.77710 0.01320 0.56850 0.14800
C 	C 	0.88810 0.01940 0.56280 0.22000
C 	C 	0.92100 0.03960 0.56770 -0.21000
H 	H 	0.92060 0.06690 0.56770 0.08000
C 	C 	0.95510 0.01980 0.57280 0.09700
H 	H 	0.97860 0.03350 0.57520 -0.01300
N 	N 	0.95320 0.03130 0.72510 -0.32300
H 	H 	0.90500 0.97430 0.77980 0.58200
H 	H 	0.88820 0.01280 0.76500 0.60000
H 	H 	0.92160 0.01290 0.79450 0.58300
C 	C 	0.97790 0.01940 0.69690 0.05000
C 	C 	0.02290 0.01960 0.64630 0.06200
H 	H 	0.03860 0.03320 0.62850 0.01700
H 	H 	0.79020 0.97430 0.58640 0.08700
H 	H 	0.80070 0.01280 0.60620 0.11800
H 	H 	0.77980 0.01300 0.56680 0.03800
H 	H 	0.97690 0.97430 0.78850 0.18700
H 	H 	0.96030 0.01280 0.80350 0.15500
H 	H 	0.99340 0.01290 0.77360 0.19000
H 	H 	0.97340 0.03320 0.48880 0.03400
C 	C 	0.92130 0.04020 0.51700 0.02700
H 	H 	0.92140 0.06750 0.51740 -0.00300
Zn	Zn	0.44924 0.58384 0.24300 1.22300
Zn	Zn	0.33850 0.58515 0.05036 1.20900
O 	O 	0.36597 0.67349 0.04690 -0.46700
O 	O 	0.36609 0.62083 0.08280 -0.50400
O 	O 	0.46029 0.66713 0.22625 -0.49700
O 	O 	0.44023 0.61432 0.19824 -0.50400
O 	O 	0.46062 0.78603 0.15120 -0.48400
O 	O 	0.44130 0.78416 0.09056 -0.51200
O 	O 	0.41817 0.59883 0.28507 -0.55700
O 	O 	0.45365 0.64650 0.30986 -0.49600
C 	C 	0.39898 0.67407 0.10570 -0.18200
C 	C 	0.41076 0.65435 0.13700 0.11500
H 	H 	0.40400 0.62890 0.13960 0.01400
C 	C 	0.43282 0.67170 0.16524 -0.18100
C 	C 	0.44328 0.70934 0.16063 0.11700
H 	H 	0.45780 0.72130 0.17930 0.00700
C 	C 	0.43252 0.72930 0.12874 -0.18300
C 	C 	0.41027 0.71174 0.10144 0.11500
H 	H 	0.40280 0.72530 0.08000 0.00500
C 	C 	0.37503 0.65476 0.07575 0.42800
C 	C 	0.44612 0.64984 0.19962 0.43100
C 	C 	0.44541 0.76960 0.12386 0.41000
C 	C 	0.42600 0.62449 0.31006 0.42000
C 	C 	0.39668 0.62710 0.34189 -0.24200
C 	C 	0.39898 0.65605 0.36810 0.15600
H 	H 	0.41890 0.67470 0.36630 -0.04900
N 	N 	0.35630 0.53190 0.05140 -0.18300
C 	C 	0.39000 0.51940 0.03350 -0.02100
N 	N 	0.42870 0.53150 0.23520 -0.33400
C 	C 	0.40360 0.51910 0.20760 -0.02600
C 	C 	0.38000 0.53900 0.18140 -0.07200
H 	H 	0.38010 0.56630 0.18110 0.04400
C 	C 	0.35810 0.51950 0.15730 -0.03400
H 	H 	0.34190 0.53310 0.13990 0.01200
N 	N 	0.35140 0.53170 0.05740 -0.10700
H 	H 	0.28040 0.47430 0.04700 0.02900
H 	H 	0.28380 0.51260 0.02440 0.06700
H 	H 	0.27710 0.51320 0.06850 0.16700
C 	C 	0.38810 0.51940 0.06280 0.06100
C 	C 	0.42100 0.53960 0.06770 -0.10300
H 	H 	0.42060 0.56690 0.06770 0.04700
C 	C 	0.45510 0.51980 0.07280 -0.02100
H 	H 	0.47860 0.53350 0.07520 0.02800
N 	N 	0.45320 0.53130 0.22510 -0.33400
H 	H 	0.40500 0.47430 0.27980 0.66500
H 	H 	0.38820 0.51280 0.26500 0.67300
H 	H 	0.42160 0.51290 0.29450 0.65900
C 	C 	0.47790 0.51940 0.19690 0.01200
C 	C 	0.52290 0.51960 0.14630 -0.02100
H 	H 	0.53860 0.53320 0.12850 0.04200
H 	H 	0.29020 0.47430 0.08640 0.10200
H 	H 	0.30070 0.51280 0.10620 0.12200
H 	H 	0.27980 0.51300 0.06680 0.03500
H 	H 	0.47690 0.47430 0.28850 0.21000
H 	H 	0.46030 0.51280 0.30350 0.14800
H 	H 	0.49340 0.51290 0.27360 0.17900
H 	H 	0.47340 0.53320 0.98880 0.00200
C 	C 	0.42130 0.54020 0.01700 0.00000
H 	H 	0.42140 0.56750 0.01740 0.01500
Zn	Zn	0.25700 0.05076 0.08384 1.22200
Zn	Zn	0.44964 0.16150 0.08515 1.20900
O 	O 	0.45310 0.13403 0.17349 -0.47100
O 	O 	0.41720 0.13391 0.12083 -0.50500
O 	O 	0.27375 0.03971 0.16713 -0.49200
O 	O 	0.30176 0.05977 0.11432 -0.50500
O 	O 	0.34880 0.03938 0.28603 -0.48000
O 	O 	0.40944 0.05870 0.28416 -0.51400
O 	O 	0.21493 0.08183 0.09883 -0.54700
O 	O 	0.19014 0.04635 0.14650 -0.48500
C 	C 	0.39430 0.10102 0.17407 -0.18400
C 	C 	0.36300 0.08924 0.15435 0.11600
H 	H 	0.36040 0.09600 0.12890 0.01400
C 	C 	0.33476 0.06718 0.17170 -0.18000
C 	C 	0.33937 0.05672 0.20934 0.11800
H 	H 	0.32070 0.04220 0.22130 0.01100
C 	C 	0.37126 0.06748 0.22930 -0.18200
C 	C 	0.39856 0.08973 0.21174 0.11700
H 	H 	0.42000 0.09720 0.22530 0.00200
C 	C 	0.42425 0.12497 0.15476 0.42900
C 	C 	0.30038 0.05388 0.14984 0.43200
C 	C 	0.37614 0.05459 0.26960 0.41100
C 	C 	0.18994 0.07400 0.12449 0.41700
C 	C 	0.15811 0.10332 0.12710 -0.22700
C 	C 	0.13190 0.10102 0.15605 0.14700
H 	H 	0.13370 0.08110 0.17470 -0.03700
N 	N 	0.44860 0.14370 0.03190 -0.18600
C 	C 	0.46650 0.11000 0.01940 -0.11400
N 	N 	0.26480 0.07130 0.03150 -0.31800
C 	C 	0.29240 0.09640 0.01910 0.03200
C 	C 	0.31860 0.12000 0.03900 -0.13000
H 	H 	0.31890 0.11990 0.06630 0.06400
C 	C 	0.34270 0.14190 0.01950 0.05000
H 	H 	0.36010 0.15810 0.03310 -0.01100
N 	N 	0.44260 0.14860 0.03170 -0.11500
H 	H 	0.45300 0.21960 0.97430 0.02900
H 	H 	0.47560 0.21620 0.01260 0.06900
H 	H 	0.43150 0.22290 0.01320 0.14800
C 	C 	0.43720 0.11190 0.01940 0.21800
C 	C 	0.43230 0.07900 0.03960 -0.20800
H 	H 	0.43230 0.07940 0.06690 0.08200
C 	C 	0.42720 0.04490 0.01980 0.09600
H 	H 	0.42480 0.02140 0.03350 0.00200
N 	N 	0.27490 0.04680 0.03130 -0.32100
H 	H 	0.22020 0.09500 0.97430 0.58200
H 	H 	0.23500 0.11180 0.01280 0.60000
H 	H 	0.20550 0.07840 0.01290 0.58500
C 	C 	0.30310 0.02210 0.01940 0.06900
C 	C 	0.35370 0.97710 0.01960 0.04200
H 	H 	0.37150 0.96140 0.03320 0.02000
H 	H 	0.41360 0.20980 0.97430 0.08700
H 	H 	0.39380 0.19930 0.01280 0.11800
H 	H 	0.43320 0.22020 0.01300 0.03800
H 	H 	0.21150 0.02310 0.97430 0.17800
H 	H 	0.19650 0.03970 0.01280 0.13200
H 	H 	0.22640 0.00660 0.01290 0.13500
H 	H 	0.51120 0.02660 0.03320 0.04100
C 	C 	0.48300 0.07870 0.04020 0.02600
H 	H 	0.48260 0.07860 0.06750 -0.00100
Zn	Zn	0.75700 0.55076 0.58384 1.22300
Zn	Zn	0.94964 0.66150 0.58515 1.20600
O 	O 	0.95310 0.63403 0.67349 -0.47800
O 	O 	0.91720 0.63391 0.62083 -0.50600
O 	O 	0.77375 0.53971 0.66713 -0.49700
O 	O 	0.80176 0.55977 0.61432 -0.50400
O 	O 	0.84880 0.53938 0.78603 -0.48500
O 	O 	0.90944 0.55870 0.78416 -0.51500
O 	O 	0.71493 0.58183 0.59883 -0.55700
O 	O 	0.69014 0.54635 0.64650 -0.49600
C 	C 	0.89430 0.60102 0.67407 -0.18600
C 	C 	0.86300 0.58924 0.65435 0.11700
H 	H 	0.86040 0.59600 0.62890 0.01400
C 	C 	0.83476 0.56718 0.67170 -0.18300
C 	C 	0.83937 0.55672 0.70934 0.11800
H 	H 	0.82070 0.54220 0.72130 0.00700
C 	C 	0.87126 0.56748 0.72930 -0.18500
C 	C 	0.89856 0.58973 0.71174 0.11700
H 	H 	0.92000 0.59720 0.72530 0.00100
C 	C 	0.92425 0.62497 0.65476 0.43000
C 	C 	0.80038 0.55388 0.64984 0.43100
C 	C 	0.87614 0.55459 0.76960 0.41100
C 	C 	0.68994 0.57400 0.62449 0.42000
C 	C 	0.65811 0.60332 0.62710 -0.24200
C 	C 	0.63190 0.60102 0.65605 0.15600
H 	H 	0.63370 0.58110 0.67470 -0.04900
N 	N 	0.94860 0.64370 0.53190 -0.18000
C 	C 	0.96650 0.61000 0.51940 -0.01200
N 	N 	0.76480 0.57130 0.53150 -0.33400
C 	C 	0.79240 0.59640 0.51910 -0.02600
C 	C 	0.81860 0.62000 0.53900 -0.07200
H 	H 	0.81890 0.61990 0.56630 0.04400
C 	C 	0.84270 0.64190 0.51950 -0.03400
H 	H 	0.86010 0.65810 0.53310 0.01300
N 	N 	0.94260 0.64860 0.53170 -0.11100
H 	H 	0.95300 0.71960 0.47430 0.03500
H 	H 	0.97560 0.71620 0.51260 0.06400
H 	H 	0.93150 0.72290 0.51320 0.16600
C 	C 	0.93720 0.61190 0.51940 0.05200
C 	C 	0.93230 0.57900 0.53960 -0.08300
H 	H 	0.93230 0.57940 0.56690 0.03900
C 	C 	0.92720 0.54490 0.51980 -0.02500
H 	H 	0.92480 0.52140 0.53350 0.03000
N 	N 	0.77490 0.54680 0.53130 -0.33400
H 	H 	0.72020 0.59500 0.47430 0.66600
H 	H 	0.73500 0.61180 0.51280 0.67400
H 	H 	0.70550 0.57840 0.51290 0.65900
C 	C 	0.80310 0.52210 0.51940 0.01200
C 	C 	0.85370 0.47710 0.51960 -0.02100
H 	H 	0.87150 0.46140 0.53320 0.04200
H 	H 	0.91360 0.70980 0.47430 0.09000
H 	H 	0.89380 0.69930 0.51280 0.11300
H 	H 	0.93320 0.72020 0.51300 0.03400
H 	H 	0.71150 0.52310 0.47430 0.21100
H 	H 	0.69650 0.53970 0.51280 0.14800
H 	H 	0.72640 0.50660 0.51290 0.17900
H 	H 	0.01120 0.52660 0.53320 0.03200
C 	C 	0.98300 0.57870 0.54020 -0.07600
H 	H 	0.98260 0.57860 0.56750 0.02400
Zn	Zn	0.74300 0.05076 0.91616 1.22300
Zn	Zn	0.55036 0.16150 0.91485 1.20800
O 	O 	0.54690 0.13403 0.82651 -0.47100
O 	O 	0.58280 0.13391 0.87917 -0.50300
O 	O 	0.72625 0.03971 0.83287 -0.49200
O 	O 	0.69824 0.05977 0.88568 -0.50100
O 	O 	0.65120 0.03938 0.71397 -0.48000
O 	O 	0.59056 0.05870 0.71584 -0.51400
O 	O 	0.78507 0.08183 0.90117 -0.54700
O 	O 	0.80986 0.04635 0.85350 -0.48600
C 	C 	0.60570 0.10102 0.82593 -0.18300
C 	C 	0.63700 0.08924 0.84565 0.11500
H 	H 	0.63960 0.09600 0.87110 0.01500
C 	C 	0.66524 0.06718 0.82830 -0.17900
C 	C 	0.66063 0.05672 0.79066 0.11700
H 	H 	0.67930 0.04220 0.77870 0.01100
C 	C 	0.62874 0.06748 0.77070 -0.18100
C 	C 	0.60144 0.08973 0.78826 0.11600
H 	H 	0.58000 0.09720 0.77470 0.00200
C 	C 	0.57575 0.12497 0.84524 0.42900
C 	C 	0.69962 0.05388 0.85016 0.43100
C 	C 	0.62386 0.05459 0.73040 0.41100
C 	C 	0.81006 0.07400 0.87551 0.41700
C 	C 	0.84189 0.10332 0.87290 -0.23100
C 	C 	0.86810 0.10102 0.84395 0.14900
H 	H 	0.86630 0.08110 0.82530 -0.03900
N 	N 	0.55140 0.14370 0.96810 -0.17500
C 	C 	0.53350 0.11000 0.98060 0.07500
N 	N 	0.73520 0.07130 0.96850 -0.31300
C 	C 	0.70760 0.09640 0.98090 -0.06100
C 	C 	0.68140 0.12000 0.96100 -0.02300
H 	H 	0.68110 0.11990 0.93370 0.02900
C 	C 	0.65730 0.14190 0.98050 -0.11400
H 	H 	0.63990 0.15810 0.96690 0.03800
N 	N 	0.55740 0.14860 0.96830 -0.10300
H 	H 	0.54700 0.21960 0.02570 0.01900
H 	H 	0.52440 0.21620 0.98740 0.03600
H 	H 	0.56850 0.22290 0.98680 0.13200
C 	C 	0.56280 0.11190 0.98060 -0.09800
C 	C 	0.56770 0.07900 0.96040 0.01700
H 	H 	0.56770 0.07940 0.93310 0.00800
C 	C 	0.57280 0.04490 0.98020 -0.13800
H 	H 	0.57520 0.02140 0.96650 0.06900
N 	N 	0.72510 0.04680 0.96870 -0.30700
H 	H 	0.77980 0.09500 0.02570 0.56800
H 	H 	0.76500 0.11180 0.98720 0.56700
H 	H 	0.79450 0.07840 0.98710 0.55200
C 	C 	0.69690 0.02210 0.98060 -0.04100
C 	C 	0.64630 0.97710 0.98040 -0.12300
H 	H 	0.62850 0.96140 0.96680 0.07100
H 	H 	0.58640 0.20980 0.02570 0.07700
H 	H 	0.60620 0.19930 0.98720 0.08300
H 	H 	0.56680 0.22020 0.98700 0.02400
H 	H 	0.78850 0.02310 0.02570 0.17000
H 	H 	0.80350 0.03970 0.98720 0.10300
H 	H 	0.77360 0.00660 0.98710 0.12100
H 	H 	0.48880 0.02660 0.96680 0.01500
C 	C 	0.51700 0.07870 0.95980 -0.08000
H 	H 	0.51740 0.07860 0.93250 0.03500
Zn	Zn	0.24300 0.55076 0.41616 1.22300
Zn	Zn	0.05036 0.66150 0.41485 1.20900
O 	O 	0.04690 0.63403 0.32651 -0.46700
O 	O 	0.08280 0.63391 0.37917 -0.50400
O 	O 	0.22625 0.53971 0.33287 -0.49700
O 	O 	0.19824 0.55977 0.38568 -0.50400
O 	O 	0.15120 0.53938 0.21397 -0.48500
O 	O 	0.09056 0.55870 0.21584 -0.51200
O 	O 	0.28507 0.58183 0.40117 -0.55700
O 	O 	0.30986 0.54635 0.35350 -0.49600
C 	C 	0.10570 0.60102 0.32593 -0.18200
C 	C 	0.13700 0.58924 0.34565 0.11500
H 	H 	0.13960 0.59600 0.37110 0.01400
C 	C 	0.16524 0.56718 0.32830 -0.18100
C 	C 	0.16063 0.55672 0.29066 0.11700
H 	H 	0.17930 0.54220 0.27870 0.00700
C 	C 	0.12874 0.56748 0.27070 -0.18300
C 	C 	0.10144 0.58973 0.28826 0.11500
H 	H 	0.08000 0.59720 0.27470 0.00500
C 	C 	0.07575 0.62497 0.34524 0.42800
C 	C 	0.19962 0.55388 0.35016 0.43100
C 	C 	0.12386 0.55459 0.23040 0.41000
C 	C 	0.31006 0.57400 0.37551 0.42000
C 	C 	0.34189 0.60332 0.37290 -0.24200
C 	C 	0.36810 0.60102 0.34395 0.15600
H 	H 	0.36630 0.58110 0.32530 -0.04900
N 	N 	0.05140 0.64370 0.46810 -0.18300
C 	C 	0.03350 0.61000 0.48060 -0.02100
N 	N 	0.23520 0.57130 0.46850 -0.33400
C 	C 	0.20760 0.59640 0.48090 -0.02600
C 	C 	0.18140 0.62000 0.46100 -0.07200
H 	H 	0.18110 0.61990 0.43370 0.04400
C 	C 	0.15730 0.64190 0.48050 -0.03400
H 	H 	0.13990 0.65810 0.46690 0.01200
N 	N 	0.05740 0.64860 0.46830 -0.10700
H 	H 	0.04700 0.71960 0.52570 0.02900
H 	H 	0.02440 0.71620 0.48740 0.06700
H 	H 	0.06850 0.72290 0.48680 0.16700
C 	C 	0.06280 0.61190 0.48060 0.06100
C 	C 	0.06770 0.57900 0.46040 -0.10300
H 	H 	0.06770 0.57940 0.43310 0.04700
C 	C 	0.07280 0.54490 0.48020 -0.02100
H 	H 	0.07520 0.52140 0.46650 0.02800
N 	N 	0.22510 0.54680 0.46870 -0.33400
H 	H 	0.27980 0.59500 0.52570 0.66500
H 	H 	0.26500 0.61180 0.48720 0.67300
H 	H 	0.29450 0.57840 0.48710 0.65900
C 	C 	0.19690 0.52210 0.48060 0.01200
C 	C 	0.14630 0.47710 0.48040 -0.02100
H 	H 	0.12850 0.46140 0.46680 0.04200
H 	H 	0.08640 0.70980 0.52570 0.10200
H 	H 	0.10620 0.69930 0.48720 0.12200
H 	H 	0.06680 0.72020 0.48700 0.03500
H 	H 	0.28850 0.52310 0.52570 0.21000
H 	H 	0.30350 0.53970 0.48720 0.14800
H 	H 	0.27360 0.50660 0.48710 0.17900
H 	H 	0.98880 0.52660 0.46680 0.00200
C 	C 	0.01700 0.57870 0.45980 0.00000
H 	H 	0.01740 0.57860 0.43250 0.01500
Zn	Zn	0.25700 0.94924 0.91616 1.22000
Zn	Zn	0.44964 0.83850 0.91485 1.20800
O 	O 	0.45310 0.86597 0.82651 -0.47200
O 	O 	0.41720 0.86609 0.87917 -0.50300
O 	O 	0.27375 0.96029 0.83287 -0.50400
O 	O 	0.30176 0.94023 0.88568 -0.50600
O 	O 	0.34880 0.96062 0.71397 -0.49200
O 	O 	0.40944 0.94130 0.71584 -0.51900
O 	O 	0.21493 0.91817 0.90117 -0.55100
O 	O 	0.19014 0.95365 0.85350 -0.49700
C 	C 	0.39430 0.89898 0.82593 -0.18600
C 	C 	0.36300 0.91076 0.84565 0.11700
H 	H 	0.36040 0.90400 0.87110 0.01400
C 	C 	0.33476 0.93282 0.82830 -0.18500
C 	C 	0.33937 0.94328 0.79066 0.11900
H 	H 	0.32070 0.95780 0.77870 0.00300
C 	C 	0.37126 0.93252 0.77070 -0.18800
C 	C 	0.39856 0.91027 0.78826 0.11800
H 	H 	0.42000 0.90280 0.77470 0.00100
C 	C 	0.42425 0.87503 0.84524 0.42900
C 	C 	0.30038 0.94612 0.85016 0.43100
C 	C 	0.37614 0.94541 0.73040 0.41200
C 	C 	0.18994 0.92600 0.87551 0.41800
C 	C 	0.15811 0.89668 0.87290 -0.23300
C 	C 	0.13190 0.89898 0.84395 0.14900
H 	H 	0.13370 0.91890 0.82530 -0.04100
N 	N 	0.44860 0.85630 0.96810 -0.17400
C 	C 	0.46650 0.89000 0.98060 0.07700
N 	N 	0.26480 0.92870 0.96850 -0.32000
C 	C 	0.29240 0.90360 0.98090 -0.06300
C 	C 	0.31860 0.88000 0.96100 -0.02100
H 	H 	0.31890 0.88010 0.93370 0.02800
C 	C 	0.34270 0.85810 0.98050 -0.11400
H 	H 	0.36010 0.84190 0.96690 0.03900
N 	N 	0.44260 0.85140 0.96830 -0.10300
H 	H 	0.45300 0.78040 0.02570 0.01900
H 	H 	0.47560 0.78380 0.98740 0.03600
H 	H 	0.43150 0.77710 0.98680 0.13200
C 	C 	0.43720 0.88810 0.98060 -0.10000
C 	C 	0.43230 0.92100 0.96040 0.01700
H 	H 	0.43230 0.92060 0.93310 0.00600
C 	C 	0.42720 0.95510 0.98020 -0.13900
H 	H 	0.42480 0.97860 0.96650 0.05500
N 	N 	0.27490 0.95320 0.96870 -0.31000
H 	H 	0.22020 0.90500 0.02570 0.57100
H 	H 	0.23500 0.88820 0.98720 0.57000
H 	H 	0.20550 0.92160 0.98710 0.55500
C 	C 	0.30310 0.97790 0.98060 -0.06100
C 	C 	0.35370 0.02290 0.98040 -0.10300
H 	H 	0.37150 0.03860 0.96680 0.06900
H 	H 	0.41360 0.79020 0.02570 0.07700
H 	H 	0.39380 0.80070 0.98720 0.08300
H 	H 	0.43320 0.77980 0.98700 0.02400
H 	H 	0.21150 0.97690 0.02570 0.18100
H 	H 	0.19650 0.96030 0.98720 0.12800
H 	H 	0.22640 0.99340 0.98710 0.17600
H 	H 	0.51120 0.97340 0.96680 0.00700
C 	C 	0.48300 0.92130 0.95980 -0.08200
H 	H 	0.48260 0.92140 0.93250 0.03300
Zn	Zn	0.75700 0.44924 0.41616 1.22300
Zn	Zn	0.94964 0.33850 0.41485 1.20600
O 	O 	0.95310 0.36597 0.32651 -0.47800
O 	O 	0.91720 0.36609 0.37917 -0.50600
O 	O 	0.77375 0.46029 0.33287 -0.49700
O 	O 	0.80176 0.44023 0.38568 -0.50400
O 	O 	0.84880 0.46062 0.21397 -0.48500
O 	O 	0.90944 0.44130 0.21584 -0.51500
O 	O 	0.71493 0.41817 0.40117 -0.55700
O 	O 	0.69014 0.45365 0.35350 -0.49600
C 	C 	0.89430 0.39898 0.32593 -0.18600
C 	C 	0.86300 0.41076 0.34565 0.11700
H 	H 	0.86040 0.40400 0.37110 0.01400
C 	C 	0.83476 0.43282 0.32830 -0.18300
C 	C 	0.83937 0.44328 0.29066 0.11800
H 	H 	0.82070 0.45780 0.27870 0.00700
C 	C 	0.87126 0.43252 0.27070 -0.18500
C 	C 	0.89856 0.41027 0.28826 0.11700
H 	H 	0.92000 0.40280 0.27470 0.00100
C 	C 	0.92425 0.37503 0.34524 0.43000
C 	C 	0.80038 0.44612 0.35016 0.43100
C 	C 	0.87614 0.44541 0.23040 0.41100
C 	C 	0.68994 0.42600 0.37551 0.42000
C 	C 	0.65811 0.39668 0.37290 -0.24200
C 	C 	0.63190 0.39898 0.34395 0.15600
H 	H 	0.63370 0.41890 0.32530 -0.04900
N 	N 	0.94860 0.35630 0.46810 -0.18000
C 	C 	0.96650 0.39000 0.48060 -0.01200
N 	N 	0.76480 0.42870 0.46850 -0.33400
C 	C 	0.79240 0.40360 0.48090 -0.02600
C 	C 	0.81860 0.38000 0.46100 -0.07200
H 	H 	0.81890 0.38010 0.43370 0.04400
C 	C 	0.84270 0.35810 0.48050 -0.03400
H 	H 	0.86010 0.34190 0.46690 0.01300
N 	N 	0.94260 0.35140 0.46830 -0.11100
H 	H 	0.95300 0.28040 0.52570 0.03500
H 	H 	0.97560 0.28380 0.48740 0.06400
H 	H 	0.93150 0.27710 0.48680 0.16600
C 	C 	0.93720 0.38810 0.48060 0.05200
C 	C 	0.93230 0.42100 0.46040 -0.08300
H 	H 	0.93230 0.42060 0.43310 0.03900
C 	C 	0.92720 0.45510 0.48020 -0.02500
H 	H 	0.92480 0.47860 0.46650 0.03000
N 	N 	0.77490 0.45320 0.46870 -0.33400
H 	H 	0.72020 0.40500 0.52570 0.66500
H 	H 	0.73500 0.38820 0.48720 0.67400
H 	H 	0.70550 0.42160 0.48710 0.65900
C 	C 	0.80310 0.47790 0.48060 0.01200
C 	C 	0.85370 0.52290 0.48040 -0.02100
H 	H 	0.87150 0.53860 0.46680 0.04200
H 	H 	0.91360 0.29020 0.52570 0.09000
H 	H 	0.89380 0.30070 0.48720 0.11300
H 	H 	0.93320 0.27980 0.48700 0.03400
H 	H 	0.71150 0.47690 0.52570 0.21100
H 	H 	0.69650 0.46030 0.48720 0.14800
H 	H 	0.72640 0.49340 0.48710 0.17900
H 	H 	0.01120 0.47340 0.46680 0.03200
C 	C 	0.98300 0.42130 0.45980 -0.07600
H 	H 	0.98260 0.42140 0.43250 0.02400
Zn	Zn	0.74300 0.94924 0.08384 1.21900
Zn	Zn	0.55036 0.83850 0.08515 1.20900
O 	O 	0.54690 0.86597 0.17349 -0.47200
O 	O 	0.58280 0.86609 0.12083 -0.50600
O 	O 	0.72625 0.96029 0.16713 -0.50400
O 	O 	0.69824 0.94023 0.11432 -0.51000
O 	O 	0.65120 0.96062 0.28603 -0.49200
O 	O 	0.59056 0.94130 0.28416 -0.51900
O 	O 	0.78507 0.91817 0.09883 -0.55000
O 	O 	0.80986 0.95365 0.14650 -0.49700
C 	C 	0.60570 0.89898 0.17407 -0.18800
C 	C 	0.63700 0.91076 0.15435 0.11800
H 	H 	0.63960 0.90400 0.12890 0.01200
C 	C 	0.66524 0.93282 0.17170 -0.18700
C 	C 	0.66063 0.94328 0.20934 0.12000
H 	H 	0.67930 0.95780 0.22130 0.00300
C 	C 	0.62874 0.93252 0.22930 -0.18900
C 	C 	0.60144 0.91027 0.21174 0.11800
H 	H 	0.58000 0.90280 0.22530 0.00100
C 	C 	0.57575 0.87503 0.15476 0.42900
C 	C 	0.69962 0.94612 0.14984 0.43200
C 	C 	0.62386 0.94541 0.26960 0.41200
C 	C 	0.81006 0.92600 0.12449 0.41800
C 	C 	0.84189 0.89668 0.12710 -0.23300
C 	C 	0.86810 0.89898 0.15605 0.14900
H 	H 	0.86630 0.91890 0.17470 -0.04100
N 	N 	0.55140 0.85630 0.03190 -0.18600
C 	C 	0.53350 0.89000 0.01940 -0.11600
N 	N 	0.73520 0.92870 0.03150 -0.32500
C 	C 	0.70760 0.90360 0.01910 0.03100
C 	C 	0.68140 0.88000 0.03900 -0.12900
H 	H 	0.68110 0.88010 0.06630 0.06400
C 	C 	0.65730 0.85810 0.01950 0.05000
H 	H 	0.63990 0.84190 0.03310 -0.01100
N 	N 	0.55740 0.85140 0.03170 -0.11500
H 	H 	0.54700 0.78040 0.97430 0.02900
H 	H 	0.52440 0.78380 0.01260 0.07000
H 	H 	0.56850 0.77710 0.01320 0.14800
C 	C 	0.56280 0.88810 0.01940 0.22000
C 	C 	0.56770 0.92100 0.03960 -0.21000
H 	H 	0.56770 0.92060 0.06690 0.08000
C 	C 	0.57280 0.95510 0.01980 0.09700
H 	H 	0.57520 0.97860 0.03350 -0.01300
N 	N 	0.72510 0.95320 0.03130 -0.32300
H 	H 	0.77980 0.90500 0.97430 0.58200
H 	H 	0.76500 0.88820 0.01280 0.60000
H 	H 	0.79450 0.92160 0.01290 0.58300
C 	C 	0.69690 0.97790 0.01940 0.05000
C 	C 	0.64630 0.02290 0.01960 0.06200
H 	H 	0.62850 0.03860 0.03320 0.01700
H 	H 	0.58640 0.79020 0.97430 0.08700
H 	H 	0.60620 0.80070 0.01280 0.11800
H 	H 	0.56680 0.77980 0.01300 0.03800
H 	H 	0.78850 0.97690 0.97430 0.18700
H 	H 	0.80350 0.96030 0.01280 0.15500
H 	H 	0.77360 0.99340 0.01290 0.19000
H 	H 	0.48880 0.97340 0.03320 0.03400
C 	C 	0.51700 0.92130 0.04020 0.02700
H 	H 	0.51740 0.92140 0.06750 -0.00300
Zn	Zn	0.24300 0.44924 0.58384 1.22300
Zn	Zn	0.05036 0.33850 0.58515 1.20900
O 	O 	0.04690 0.36597 0.67349 -0.46700
O 	O 	0.08280 0.36609 0.62083 -0.50400
O 	O 	0.22625 0.46029 0.66713 -0.49700
O 	O 	0.19824 0.44023 0.61432 -0.50400
O 	O 	0.15120 0.46062 0.78603 -0.48400
O 	O 	0.09056 0.44130 0.78416 -0.51200
O 	O 	0.28507 0.41817 0.59883 -0.55700
O 	O 	0.30986 0.45365 0.64650 -0.49600
C 	C 	0.10570 0.39898 0.67407 -0.18200
C 	C 	0.13700 0.41076 0.65435 0.11500
H 	H 	0.13960 0.40400 0.62890 0.01400
C 	C 	0.16524 0.43282 0.67170 -0.18100
C 	C 	0.16063 0.44328 0.70934 0.11700
H 	H 	0.17930 0.45780 0.72130 0.00700
C 	C 	0.12874 0.43252 0.72930 -0.18300
C 	C 	0.10144 0.41027 0.71174 0.11500
H 	H 	0.08000 0.40280 0.72530 0.00500
C 	C 	0.07575 0.37503 0.65476 0.42800
C 	C 	0.19962 0.44612 0.64984 0.43100
C 	C 	0.12386 0.44541 0.76960 0.41000
C 	C 	0.31006 0.42600 0.62449 0.42000
C 	C 	0.34189 0.39668 0.62710 -0.24200
C 	C 	0.36810 0.39898 0.65605 0.15600
H 	H 	0.36630 0.41890 0.67470 -0.04900
N 	N 	0.05140 0.35630 0.53190 -0.18300
C 	C 	0.03350 0.39000 0.51940 -0.02100
N 	N 	0.23520 0.42870 0.53150 -0.33400
C 	C 	0.20760 0.40360 0.51910 -0.02600
C 	C 	0.18140 0.38000 0.53900 -0.07200
H 	H 	0.18110 0.38010 0.56630 0.04400
C 	C 	0.15730 0.35810 0.51950 -0.03400
H 	H 	0.13990 0.34190 0.53310 0.01200
N 	N 	0.05740 0.35140 0.53170 -0.10700
H 	H 	0.04700 0.28040 0.47430 0.02900
H 	H 	0.02440 0.28380 0.51260 0.06700
H 	H 	0.06850 0.27710 0.51320 0.16700
C 	C 	0.06280 0.38810 0.51940 0.06100
C 	C 	0.06770 0.42100 0.53960 -0.10300
H 	H 	0.06770 0.42060 0.56690 0.04700
C 	C 	0.07280 0.45510 0.51980 -0.02100
H 	H 	0.07520 0.47860 0.53350 0.02800
N 	N 	0.22510 0.45320 0.53130 -0.33400
H 	H 	0.27980 0.40500 0.47430 0.66500
H 	H 	0.26500 0.38820 0.51280 0.67300
H 	H 	0.29450 0.42160 0.51290 0.65900
C 	C 	0.19690 0.47790 0.51940 0.01200
C 	C 	0.14630 0.52290 0.51960 -0.02100
H 	H 	0.12850 0.53860 0.53320 0.04200
H 	H 	0.08640 0.29020 0.47430 0.10200
H 	H 	0.10620 0.30070 0.51280 0.12200
H 	H 	0.06680 0.27980 0.51300 0.03500
H 	H 	0.28850 0.47690 0.47430 0.21000
H 	H 	0.30350 0.46030 0.51280 0.14800
H 	H 	0.27360 0.49340 0.51290 0.17900
H 	H 	0.98880 0.47340 0.53320 0.00200
C 	C 	0.01700 0.42130 0.54020 0.00000
H 	H 	0.01740 0.42140 0.56750 0.01500
Zn	Zn	0.91616 0.74300 0.94924 1.22000
Zn	Zn	0.91485 0.55036 0.83850 1.20800
O 	O 	0.82651 0.54690 0.86597 -0.47200
O 	O 	0.87917 0.58280 0.86609 -0.50300
O 	O 	0.83287 0.72625 0.96029 -0.50400
O 	O 	0.88568 0.69824 0.94023 -0.50600
O 	O 	0.71397 0.65120 0.96062 -0.49200
O 	O 	0.71584 0.59056 0.94130 -0.51900
O 	O 	0.90117 0.78507 0.91817 -0.55100
O 	O 	0.85350 0.80986 0.95365 -0.49800
C 	C 	0.82593 0.60570 0.89898 -0.18600
C 	C 	0.84565 0.63700 0.91076 0.11700
H 	H 	0.87110 0.63960 0.90400 0.01400
C 	C 	0.82830 0.66524 0.93282 -0.18500
C 	C 	0.79066 0.66063 0.94328 0.11900
H 	H 	0.77870 0.67930 0.95780 0.00300
C 	C 	0.77070 0.62874 0.93252 -0.18800
C 	C 	0.78826 0.60144 0.91027 0.11800
H 	H 	0.77470 0.58000 0.90280 0.00100
C 	C 	0.84524 0.57575 0.87503 0.42900
C 	C 	0.85016 0.69962 0.94612 0.43100
C 	C 	0.73040 0.62386 0.94541 0.41200
C 	C 	0.87551 0.81006 0.92600 0.41800
C 	C 	0.87290 0.84189 0.89668 -0.23500
C 	C 	0.84395 0.86810 0.89898 0.14900
H 	H 	0.82530 0.86630 0.91890 -0.04200
N 	N 	0.96810 0.55140 0.85630 -0.17400
C 	C 	0.98060 0.53350 0.89000 0.07700
N 	N 	0.96850 0.73520 0.92870 -0.32000
C 	C 	0.98090 0.70760 0.90360 -0.06300
C 	C 	0.96100 0.68140 0.88000 -0.02100
H 	H 	0.93370 0.68110 0.88010 0.02900
C 	C 	0.98050 0.65730 0.85810 -0.11400
H 	H 	0.96690 0.63990 0.84190 0.03900
N 	N 	0.96830 0.55740 0.85140 -0.10300
H 	H 	0.02570 0.54700 0.78040 0.01900
H 	H 	0.98740 0.52440 0.78380 0.03600
H 	H 	0.98680 0.56850 0.77710 0.13200
C 	C 	0.98060 0.56280 0.88810 -0.10000
C 	C 	0.96040 0.56770 0.92100 0.01700
H 	H 	0.93310 0.56770 0.92060 0.00600
C 	C 	0.98020 0.57280 0.95510 -0.13900
H 	H 	0.96650 0.57520 0.97860 0.05500
N 	N 	0.96870 0.72510 0.95320 -0.31000
H 	H 	0.02570 0.77980 0.90500 0.56900
H 	H 	0.98720 0.76500 0.88820 0.56800
H 	H 	0.98710 0.79450 0.92160 0.55300
C 	C 	0.98060 0.69690 0.97790 -0.06100
C 	C 	0.98040 0.64630 0.02290 -0.10300
H 	H 	0.96680 0.62850 0.03860 0.06900
H 	H 	0.02570 0.58640 0.79020 0.07700
H 	H 	0.98720 0.60620 0.80070 0.08300
H 	H 	0.98700 0.56680 0.77980 0.02400
H 	H 	0.02570 0.78850 0.97690 0.18000
H 	H 	0.98720 0.80350 0.96030 0.12700
H 	H 	0.98710 0.77360 0.99340 0.17500
H 	H 	0.96680 0.48880 0.97340 0.00700
C 	C 	0.95980 0.51700 0.92130 -0.08200
H 	H 	0.93250 0.51740 0.92140 0.03300
Zn	Zn	0.41616 0.24300 0.44924 1.22300
Zn	Zn	0.41485 0.05036 0.33850 1.20900
O 	O 	0.32651 0.04690 0.36597 -0.46700
O 	O 	0.37917 0.08280 0.36609 -0.50400
O 	O 	0.33287 0.22625 0.46029 -0.49700
O 	O 	0.38568 0.19824 0.44023 -0.50400
O 	O 	0.21397 0.15120 0.46062 -0.48500
O 	O 	0.21584 0.09056 0.44130 -0.51200
O 	O 	0.40117 0.28507 0.41817 -0.55700
O 	O 	0.35350 0.30986 0.45365 -0.49600
C 	C 	0.32593 0.10570 0.39898 -0.18200
C 	C 	0.34565 0.13700 0.41076 0.11500
H 	H 	0.37110 0.13960 0.40400 0.01400
C 	C 	0.32830 0.16524 0.43282 -0.18200
C 	C 	0.29066 0.16063 0.44328 0.11700
H 	H 	0.27870 0.17930 0.45780 0.00700
C 	C 	0.27070 0.12874 0.43252 -0.18300
C 	C 	0.28826 0.10144 0.41027 0.11500
H 	H 	0.27470 0.08000 0.40280 0.00500
C 	C 	0.34524 0.07575 0.37503 0.42800
C 	C 	0.35016 0.19962 0.44612 0.43100
C 	C 	0.23040 0.12386 0.44541 0.41000
C 	C 	0.37551 0.31006 0.42600 0.42000
C 	C 	0.37290 0.34189 0.39668 -0.24200
C 	C 	0.34395 0.36810 0.39898 0.15600
H 	H 	0.32530 0.36630 0.41890 -0.04900
N 	N 	0.46810 0.05140 0.35630 -0.18300
C 	C 	0.48060 0.03350 0.39000 -0.02100
N 	N 	0.46850 0.23520 0.42870 -0.33400
C 	C 	0.48090 0.20760 0.40360 -0.02600
C 	C 	0.46100 0.18140 0.38000 -0.07200
H 	H 	0.43370 0.18110 0.38010 0.04400
C 	C 	0.48050 0.15730 0.35810 -0.03400
H 	H 	0.46690 0.13990 0.34190 0.01200
N 	N 	0.46830 0.05740 0.35140 -0.10700
H 	H 	0.52570 0.04700 0.28040 0.02900
H 	H 	0.48740 0.02440 0.28380 0.06700
H 	H 	0.48680 0.06850 0.27710 0.16700
C 	C 	0.48060 0.06280 0.38810 0.06100
C 	C 	0.46040 0.06770 0.42100 -0.10300
H 	H 	0.43310 0.06770 0.42060 0.04700
C 	C 	0.48020 0.07280 0.45510 -0.02100
H 	H 	0.46650 0.07520 0.47860 0.02800
N 	N 	0.46870 0.22510 0.45320 -0.33400
H 	H 	0.52570 0.27980 0.40500 0.66500
H 	H 	0.48720 0.26500 0.38820 0.67300
H 	H 	0.48710 0.29450 0.42160 0.65900
C 	C 	0.48060 0.19690 0.47790 0.01200
C 	C 	0.48040 0.14630 0.52290 -0.02100
H 	H 	0.46680 0.12850 0.53860 0.04200
H 	H 	0.52570 0.08640 0.29020 0.10200
H 	H 	0.48720 0.10620 0.30070 0.12200
H 	H 	0.48700 0.06680 0.27980 0.03500
H 	H 	0.52570 0.28850 0.47690 0.21000
H 	H 	0.48720 0.30350 0.46030 0.14800
H 	H 	0.48710 0.27360 0.49340 0.17900
H 	H 	0.46680 0.98880 0.47340 0.00200
C 	C 	0.45980 0.01700 0.42130 0.00000
H 	H 	0.43250 0.01740 0.42140 0.01500
Zn	Zn	0.08384 0.25700 0.94924 1.21900
Zn	Zn	0.08515 0.44964 0.83850 1.20900
O 	O 	0.17349 0.45310 0.86597 -0.47200
O 	O 	0.12083 0.41720 0.86609 -0.50600
O 	O 	0.16713 0.27375 0.96029 -0.50400
O 	O 	0.11432 0.30176 0.94023 -0.51000
O 	O 	0.28603 0.34880 0.96062 -0.49200
O 	O 	0.28416 0.40944 0.94130 -0.51900
O 	O 	0.09883 0.21493 0.91817 -0.55000
O 	O 	0.14650 0.19014 0.95365 -0.49700
C 	C 	0.17407 0.39430 0.89898 -0.18800
C 	C 	0.15435 0.36300 0.91076 0.11800
H 	H 	0.12890 0.36040 0.90400 0.01200
C 	C 	0.17170 0.33476 0.93282 -0.18700
C 	C 	0.20934 0.33937 0.94328 0.12000
H 	H 	0.22130 0.32070 0.95780 0.00300
C 	C 	0.22930 0.37126 0.93252 -0.18900
C 	C 	0.21174 0.39856 0.91027 0.11800
H 	H 	0.22530 0.42000 0.90280 0.00100
C 	C 	0.15476 0.42425 0.87503 0.42900
C 	C 	0.14984 0.30038 0.94612 0.43200
C 	C 	0.26960 0.37614 0.94541 0.41200
C 	C 	0.12449 0.18994 0.92600 0.41800
C 	C 	0.12710 0.15811 0.89668 -0.23100
C 	C 	0.15605 0.13190 0.89898 0.14800
H 	H 	0.17470 0.13370 0.91890 -0.04000
N 	N 	0.03190 0.44860 0.85630 -0.18600
C 	C 	0.01940 0.46650 0.89000 -0.11600
N 	N 	0.03150 0.26480 0.92870 -0.32500
C 	C 	0.01910 0.29240 0.90360 0.03000
C 	C 	0.03900 0.31860 0.88000 -0.12900
H 	H 	0.06630 0.31890 0.88010 0.06300
C 	C 	0.01950 0.34270 0.85810 0.05000
H 	H 	0.03310 0.36010 0.84190 -0.01100
N 	N 	0.03170 0.44260 0.85140 -0.11500
H 	H 	0.97430 0.45300 0.78040 0.02900
H 	H 	0.01260 0.47560 0.78380 0.07000
H 	H 	0.01320 0.43150 0.77710 0.14800
C 	C 	0.01940 0.43720 0.88810 0.22000
C 	C 	0.03960 0.43230 0.92100 -0.21000
H 	H 	0.06690 0.43230 0.92060 0.08000
C 	C 	0.01980 0.42720 0.95510 0.09700
H 	H 	0.03350 0.42480 0.97860 -0.01300
N 	N 	0.03130 0.27490 0.95320 -0.32400
H 	H 	0.97430 0.22020 0.90500 0.58300
H 	H 	0.01280 0.23500 0.88820 0.60200
H 	H 	0.01290 0.20550 0.92160 0.58500
C 	C 	0.01940 0.30310 0.97790 0.05000
C 	C 	0.01960 0.35370 0.02290 0.06200
H 	H 	0.03320 0.37150 0.03860 0.01700
H 	H 	0.97430 0.41360 0.79020 0.08700
H 	H 	0.01280 0.39380 0.80070 0.11800
H 	H 	0.01300 0.43320 0.77980 0.03800
H 	H 	0.97430 0.21150 0.97690 0.18800
H 	H 	0.01280 0.19650 0.96030 0.15600
H 	H 	0.01290 0.22640 0.99340 0.19000
H 	H 	0.03320 0.51120 0.97340 0.03400
C 	C 	0.04020 0.48300 0.92130 0.02700
H 	H 	0.06750 0.48260 0.92140 -0.00300
Zn	Zn	0.58384 0.75700 0.44924 1.22300
Zn	Zn	0.58515 0.94964 0.33850 1.20600
O 	O 	0.67349 0.95310 0.36597 -0.47800
O 	O 	0.62083 0.91720 0.36609 -0.50600
O 	O 	0.66713 0.77375 0.46029 -0.49700
O 	O 	0.61432 0.80176 0.44023 -0.50400
O 	O 	0.78603 0.84880 0.46062 -0.48500
O 	O 	0.78416 0.90944 0.44130 -0.51500
O 	O 	0.59883 0.71493 0.41817 -0.55700
O 	O 	0.64650 0.69014 0.45365 -0.49600
C 	C 	0.67407 0.89430 0.39898 -0.18600
C 	C 	0.65435 0.86300 0.41076 0.11700
H 	H 	0.62890 0.86040 0.40400 0.01400
C 	C 	0.67170 0.83476 0.43282 -0.18300
C 	C 	0.70934 0.83937 0.44328 0.11800
H 	H 	0.72130 0.82070 0.45780 0.00700
C 	C 	0.72930 0.87126 0.43252 -0.18500
C 	C 	0.71174 0.89856 0.41027 0.11700
H 	H 	0.72530 0.92000 0.40280 0.00100
C 	C 	0.65476 0.92425 0.37503 0.43000
C 	C 	0.64984 0.80038 0.44612 0.43100
C 	C 	0.76960 0.87614 0.44541 0.41100
C 	C 	0.62449 0.68994 0.42600 0.42000
C 	C 	0.62710 0.65811 0.39668 -0.24200
C 	C 	0.65605 0.63190 0.39898 0.15600
H 	H 	0.67470 0.63370 0.41890 -0.04900
N 	N 	0.53190 0.94860 0.35630 -0.18000
C 	C 	0.51940 0.96650 0.39000 -0.01200
N 	N 	0.53150 0.76480 0.42870 -0.33400
C 	C 	0.51910 0.79240 0.40360 -0.02600
C 	C 	0.53900 0.81860 0.38000 -0.07200
H 	H 	0.56630 0.81890 0.38010 0.04400
C 	C 	0.51950 0.84270 0.35810 -0.03400
H 	H 	0.53310 0.86010 0.34190 0.01300
N 	N 	0.53170 0.94260 0.35140 -0.11100
H 	H 	0.47430 0.95300 0.28040 0.03500
H 	H 	0.51260 0.97560 0.28380 0.06400
H 	H 	0.51320 0.93150 0.27710 0.16600
C 	C 	0.51940 0.93720 0.38810 0.05200
C 	C 	0.53960 0.93230 0.42100 -0.08300
H 	H 	0.56690 0.93230 0.42060 0.03900
C 	C 	0.51980 0.92720 0.45510 -0.02500
H 	H 	0.53350 0.92480 0.47860 0.03000
N 	N 	0.53130 0.77490 0.45320 -0.33400
H 	H 	0.47430 0.72020 0.40500 0.66500
H 	H 	0.51280 0.73500 0.38820 0.67400
H 	H 	0.51290 0.70550 0.42160 0.65900
C 	C 	0.51940 0.80310 0.47790 0.01200
C 	C 	0.51960 0.85370 0.52290 -0.02100
H 	H 	0.53320 0.87150 0.53860 0.04200
H 	H 	0.47430 0.91360 0.29020 0.09000
H 	H 	0.51280 0.89380 0.30070 0.11300
H 	H 	0.51300 0.93320 0.27980 0.03400
H 	H 	0.47430 0.71150 0.47690 0.21000
H 	H 	0.51280 0.69650 0.46030 0.14800
H 	H 	0.51290 0.72640 0.49340 0.17900
H 	H 	0.53320 0.01120 0.47340 0.03200
C 	C 	0.54020 0.98300 0.42130 -0.07600
H 	H 	0.56750 0.98260 0.42140 0.02400
Zn	Zn	0.08384 0.74300 0.05076 1.22200
Zn	Zn	0.08515 0.55036 0.16150 1.20900
O 	O 	0.17349 0.54690 0.13403 -0.47100
O 	O 	0.12083 0.58280 0.13391 -0.50500
O 	O 	0.16713 0.72625 0.03971 -0.49200
O 	O 	0.11432 0.69824 0.05977 -0.50500
O 	O 	0.28603 0.65120 0.03938 -0.48000
O 	O 	0.28416 0.59056 0.05870 -0.51400
O 	O 	0.09883 0.78507 0.08183 -0.54700
O 	O 	0.14650 0.80986 0.04635 -0.48600
C 	C 	0.17407 0.60570 0.10102 -0.18400
C 	C 	0.15435 0.63700 0.08924 0.11600
H 	H 	0.12890 0.63960 0.09600 0.01400
C 	C 	0.17170 0.66524 0.06718 -0.18000
C 	C 	0.20934 0.66063 0.05672 0.11800
H 	H 	0.22130 0.67930 0.04220 0.01100
C 	C 	0.22930 0.62874 0.06748 -0.18200
C 	C 	0.21174 0.60144 0.08973 0.11700
H 	H 	0.22530 0.58000 0.09720 0.00200
C 	C 	0.15476 0.57575 0.12497 0.42900
C 	C 	0.14984 0.69962 0.05388 0.43200
C 	C 	0.26960 0.62386 0.05459 0.41100
C 	C 	0.12449 0.81006 0.07400 0.41700
C 	C 	0.12710 0.84189 0.10332 -0.22900
C 	C 	0.15605 0.86810 0.10102 0.14800
H 	H 	0.17470 0.86630 0.08110 -0.03800
N 	N 	0.03190 0.55140 0.14370 -0.18600
C 	C 	0.01940 0.53350 0.11000 -0.11400
N 	N 	0.03150 0.73520 0.07130 -0.31800
C 	C 	0.01910 0.70760 0.09640 0.03200
C 	C 	0.03900 0.68140 0.12000 -0.13000
H 	H 	0.06630 0.68110 0.11990 0.06400
C 	C 	0.01950 0.65730 0.14190 0.05000
H 	H 	0.03310 0.63990 0.15810 -0.01100
N 	N 	0.03170 0.55740 0.14860 -0.11500
H 	H 	0.97430 0.54700 0.21960 0.02900
H 	H 	0.01260 0.52440 0.21620 0.06900
H 	H 	0.01320 0.56850 0.22290 0.14800
C 	C 	0.01940 0.56280 0.11190 0.21800
C 	C 	0.03960 0.56770 0.07900 -0.20800
H 	H 	0.06690 0.56770 0.07940 0.08200
C 	C 	0.01980 0.57280 0.04490 0.09600
H 	H 	0.03350 0.57520 0.02140 0.00200
N 	N 	0.03130 0.72510 0.04680 -0.32100
H 	H 	0.97430 0.77980 0.09500 0.58000
H 	H 	0.01280 0.76500 0.11180 0.59900
H 	H 	0.01290 0.79450 0.07840 0.58300
C 	C 	0.01940 0.69690 0.02210 0.07000
C 	C 	0.01960 0.64630 0.97710 0.04200
H 	H 	0.03320 0.62850 0.96140 0.02000
H 	H 	0.97430 0.58640 0.20980 0.08700
H 	H 	0.01280 0.60620 0.19930 0.11800
H 	H 	0.01300 0.56680 0.22020 0.03800
H 	H 	0.97430 0.78850 0.02310 0.17700
H 	H 	0.01280 0.80350 0.03970 0.13100
H 	H 	0.01290 0.77360 0.00660 0.13500
H 	H 	0.03320 0.48880 0.02660 0.04100
C 	C 	0.04020 0.51700 0.07870 0.02600
H 	H 	0.06750 0.51740 0.07860 -0.00100
Zn	Zn	0.58384 0.24300 0.55076 1.22300
Zn	Zn	0.58515 0.05036 0.66150 1.20900
O 	O 	0.67349 0.04690 0.63403 -0.46600
O 	O 	0.62083 0.08280 0.63391 -0.50400
O 	O 	0.66713 0.22625 0.53971 -0.49700
O 	O 	0.61432 0.19824 0.55977 -0.50400
O 	O 	0.78603 0.15120 0.53938 -0.48400
O 	O 	0.78416 0.09056 0.55870 -0.51200
O 	O 	0.59883 0.28507 0.58183 -0.55700
O 	O 	0.64650 0.30986 0.54635 -0.49600
C 	C 	0.67407 0.10570 0.60102 -0.18200
C 	C 	0.65435 0.13700 0.58924 0.11500
H 	H 	0.62890 0.13960 0.59600 0.01400
C 	C 	0.67170 0.16524 0.56718 -0.18100
C 	C 	0.70934 0.16063 0.55672 0.11700
H 	H 	0.72130 0.17930 0.54220 0.00700
C 	C 	0.72930 0.12874 0.56748 -0.18200
C 	C 	0.71174 0.10144 0.58973 0.11500
H 	H 	0.72530 0.08000 0.59720 0.00500
C 	C 	0.65476 0.07575 0.62497 0.42800
C 	C 	0.64984 0.19962 0.55388 0.43100
C 	C 	0.76960 0.12386 0.55459 0.41000
C 	C 	0.62449 0.31006 0.57400 0.42000
C 	C 	0.62710 0.34189 0.60332 -0.24200
C 	C 	0.65605 0.36810 0.60102 0.15600
H 	H 	0.67470 0.36630 0.58110 -0.04900
N 	N 	0.53190 0.05140 0.64370 -0.18300
C 	C 	0.51940 0.03350 0.61000 -0.02100
N 	N 	0.53150 0.23520 0.57130 -0.33400
C 	C 	0.51910 0.20760 0.59640 -0.02600
C 	C 	0.53900 0.18140 0.62000 -0.07200
H 	H 	0.56630 0.18110 0.61990 0.04400
C 	C 	0.51950 0.15730 0.64190 -0.03400
H 	H 	0.53310 0.13990 0.65810 0.01200
N 	N 	0.53170 0.05740 0.64860 -0.10700
H 	H 	0.47430 0.04700 0.71960 0.02900
H 	H 	0.51260 0.02440 0.71620 0.06700
H 	H 	0.51320 0.06850 0.72290 0.16700
C 	C 	0.51940 0.06280 0.61190 0.06100
C 	C 	0.53960 0.06770 0.57900 -0.10300
H 	H 	0.56690 0.06770 0.57940 0.04700
C 	C 	0.51980 0.07280 0.54490 -0.02100
H 	H 	0.53350 0.07520 0.52140 0.02800
N 	N 	0.53130 0.22510 0.54680 -0.33400
H 	H 	0.47430 0.27980 0.59500 0.66500
H 	H 	0.51280 0.26500 0.61180 0.67300
H 	H 	0.51290 0.29450 0.57840 0.65900
C 	C 	0.51940 0.19690 0.52210 0.01200
C 	C 	0.51960 0.14630 0.47710 -0.02100
H 	H 	0.53320 0.12850 0.46140 0.04200
H 	H 	0.47430 0.08640 0.70980 0.10200
H 	H 	0.51280 0.10620 0.69930 0.12200
H 	H 	0.51300 0.06680 0.72020 0.03500
H 	H 	0.47430 0.28850 0.52310 0.21000
H 	H 	0.51280 0.30350 0.53970 0.14800
H 	H 	0.51290 0.27360 0.50660 0.17900
H 	H 	0.53320 0.98880 0.52660 0.00200
C 	C 	0.54020 0.01700 0.57870 0.00000
H 	H 	0.56750 0.01740 0.57860 0.01500
Zn	Zn	0.91616 0.25700 0.05076 1.22300
Zn	Zn	0.91485 0.44964 0.16150 1.20800
O 	O 	0.82651 0.45310 0.13403 -0.47100
O 	O 	0.87917 0.41720 0.13391 -0.50300
O 	O 	0.83287 0.27375 0.03971 -0.49200
O 	O 	0.88568 0.30176 0.05977 -0.50100
O 	O 	0.71397 0.34880 0.03938 -0.48000
O 	O 	0.71584 0.40944 0.05870 -0.51400
O 	O 	0.90117 0.21493 0.08183 -0.54700
O 	O 	0.85350 0.19014 0.04635 -0.48600
C 	C 	0.82593 0.39430 0.10102 -0.18300
C 	C 	0.84565 0.36300 0.08924 0.11500
H 	H 	0.87110 0.36040 0.09600 0.01500
C 	C 	0.82830 0.33476 0.06718 -0.17900
C 	C 	0.79066 0.33937 0.05672 0.11700
H 	H 	0.77870 0.32070 0.04220 0.01100
C 	C 	0.77070 0.37126 0.06748 -0.18200
C 	C 	0.78826 0.39856 0.08973 0.11600
H 	H 	0.77470 0.42000 0.09720 0.00200
C 	C 	0.84524 0.42425 0.12497 0.42900
C 	C 	0.85016 0.30038 0.05388 0.43100
C 	C 	0.73040 0.37614 0.05459 0.41100
C 	C 	0.87551 0.18994 0.07400 0.41700
C 	C 	0.87290 0.15811 0.10332 -0.22900
C 	C 	0.84395 0.13190 0.10102 0.14800
H 	H 	0.82530 0.13370 0.08110 -0.03800
N 	N 	0.96810 0.44860 0.14370 -0.17500
C 	C 	0.98060 0.46650 0.11000 0.07500
N 	N 	0.96850 0.26480 0.07130 -0.31300
C 	C 	0.98090 0.29240 0.09640 -0.06200
C 	C 	0.96100 0.31860 0.12000 -0.02300
H 	H 	0.93370 0.31890 0.11990 0.02900
C 	C 	0.98050 0.34270 0.14190 -0.11400
H 	H 	0.96690 0.36010 0.15810 0.03800
N 	N 	0.96830 0.44260 0.14860 -0.10300
H 	H 	0.02570 0.45300 0.21960 0.01900
H 	H 	0.98740 0.47560 0.21620 0.03600
H 	H 	0.98680 0.43150 0.22290 0.13200
C 	C 	0.98060 0.43720 0.11190 -0.09800
C 	C 	0.96040 0.43230 0.07900 0.01700
H 	H 	0.93310 0.43230 0.07940 0.00800
C 	C 	0.98020 0.42720 0.04490 -0.13800
H 	H 	0.96650 0.42480 0.02140 0.06900
N 	N 	0.96870 0.27490 0.04680 -0.30800
H 	H 	0.02570 0.22020 0.09500 0.56900
H 	H 	0.98720 0.23500 0.11180 0.56800
H 	H 	0.98710 0.20550 0.07840 0.55400
C 	C 	0.98060 0.30310 0.02210 -0.04100
C 	C 	0.98040 0.35370 0.97710 -0.12300
H 	H 	0.96680 0.37150 0.96140 0.07100
H 	H 	0.02570 0.41360 0.20980 0.07700
H 	H 	0.98720 0.39380 0.19930 0.08300
H 	H 	0.98700 0.43320 0.22020 0.02400
H 	H 	0.02570 0.21150 0.02310 0.17100
H 	H 	0.98720 0.19650 0.03970 0.10400
H 	H 	0.98710 0.22640 0.00660 0.12100
H 	H 	0.96680 0.51120 0.02660 0.01500
C 	C 	0.95980 0.48300 0.07870 -0.08000
H 	H 	0.93250 0.48260 0.07860 0.03500
Zn	Zn	0.41616 0.75700 0.55076 1.22300
Zn	Zn	0.41485 0.94964 0.66150 1.20600
O 	O 	0.32651 0.95310 0.63403 -0.47800
O 	O 	0.37917 0.91720 0.63391 -0.50600
O 	O 	0.33287 0.77375 0.53971 -0.49700
O 	O 	0.38568 0.80176 0.55977 -0.50400
O 	O 	0.21397 0.84880 0.53938 -0.48500
O 	O 	0.21584 0.90944 0.55870 -0.51500
O 	O 	0.40117 0.71493 0.58183 -0.55700
O 	O 	0.35350 0.69014 0.54635 -0.49600
C 	C 	0.32593 0.89430 0.60102 -0.18600
C 	C 	0.34565 0.86300 0.58924 0.11700
H 	H 	0.37110 0.86040 0.59600 0.01400
C 	C 	0.32830 0.83476 0.56718 -0.18300
C 	C 	0.29066 0.83937 0.55672 0.11800
H 	H 	0.27870 0.82070 0.54220 0.00700
C 	C 	0.27070 0.87126 0.56748 -0.18500
C 	C 	0.28826 0.89856 0.58973 0.11700
H 	H 	0.27470 0.92000 0.59720 0.00100
C 	C 	0.34524 0.92425 0.62497 0.43000
C 	C 	0.35016 0.80038 0.55388 0.43100
C 	C 	0.23040 0.87614 0.55459 0.41100
C 	C 	0.37551 0.68994 0.57400 0.42000
C 	C 	0.37290 0.65811 0.60332 -0.24200
C 	C 	0.34395 0.63190 0.60102 0.15600
H 	H 	0.32530 0.63370 0.58110 -0.04900
N 	N 	0.46810 0.94860 0.64370 -0.18000
C 	C 	0.48060 0.96650 0.61000 -0.01200
N 	N 	0.46850 0.76480 0.57130 -0.33400
C 	C 	0.48090 0.79240 0.59640 -0.02600
C 	C 	0.46100 0.81860 0.62000 -0.07200
H 	H 	0.43370 0.81890 0.61990 0.04400
C 	C 	0.48050 0.84270 0.64190 -0.03400
H 	H 	0.46690 0.86010 0.65810 0.01300
N 	N 	0.46830 0.94260 0.64860 -0.11100
H 	H 	0.52570 0.95300 0.71960 0.03500
H 	H 	0.48740 0.97560 0.71620 0.06400
H 	H 	0.48680 0.93150 0.72290 0.16600
C 	C 	0.48060 0.93720 0.61190 0.05200
C 	C 	0.46040 0.93230 0.57900 -0.08300
H 	H 	0.43310 0.93230 0.57940 0.03900
C 	C 	0.48020 0.92720 0.54490 -0.02500
H 	H 	0.46650 0.92480 0.52140 0.03000
N 	N 	0.46870 0.77490 0.54680 -0.33400
H 	H 	0.52570 0.72020 0.59500 0.66600
H 	H 	0.48720 0.73500 0.61180 0.67400
H 	H 	0.48710 0.70550 0.57840 0.65900
C 	C 	0.48060 0.80310 0.52210 0.01200
C 	C 	0.48040 0.85370 0.47710 -0.02100
H 	H 	0.46680 0.87150 0.46140 0.04200
H 	H 	0.52570 0.91360 0.70980 0.09000
H 	H 	0.48720 0.89380 0.69930 0.11300
H 	H 	0.48700 0.93320 0.72020 0.03400
H 	H 	0.52570 0.71150 0.52310 0.21100
H 	H 	0.48720 0.69650 0.53970 0.14800
H 	H 	0.48710 0.72640 0.50660 0.17900
H 	H 	0.46680 0.01120 0.52660 0.03200
C 	C 	0.45980 0.98300 0.57870 -0.07600
H 	H 	0.43250 0.98260 0.57860 0.02400
Zn	Zn	0.94924 0.91616 0.74300 1.22000
Zn	Zn	0.83850 0.91485 0.55036 1.20800
O 	O 	0.86597 0.82651 0.54690 -0.47200
O 	O 	0.86609 0.87917 0.58280 -0.50300
O 	O 	0.96029 0.83287 0.72625 -0.50400
O 	O 	0.94023 0.88568 0.69824 -0.50600
O 	O 	0.96062 0.71397 0.65120 -0.49200
O 	O 	0.94130 0.71584 0.59056 -0.51900
O 	O 	0.91817 0.90117 0.78507 -0.55100
O 	O 	0.95365 0.85350 0.80986 -0.49800
C 	C 	0.89898 0.82593 0.60570 -0.18600
C 	C 	0.91076 0.84565 0.63700 0.11700
H 	H 	0.90400 0.87110 0.63960 0.01400
C 	C 	0.93282 0.82830 0.66524 -0.18500
C 	C 	0.94328 0.79066 0.66063 0.11900
H 	H 	0.95780 0.77870 0.67930 0.00300
C 	C 	0.93252 0.77070 0.62874 -0.18800
C 	C 	0.91027 0.78826 0.60144 0.11800
H 	H 	0.90280 0.77470 0.58000 0.00100
C 	C 	0.87503 0.84524 0.57575 0.42900
C 	C 	0.94612 0.85016 0.69962 0.43100
C 	C 	0.94541 0.73040 0.62386 0.41200
C 	C 	0.92600 0.87551 0.81006 0.41800
C 	C 	0.89668 0.87290 0.84189 -0.23500
C 	C 	0.89898 0.84395 0.86810 0.14900
H 	H 	0.91890 0.82530 0.86630 -0.04200
N 	N 	0.85630 0.96810 0.55140 -0.17400
C 	C 	0.89000 0.98060 0.53350 0.07700
N 	N 	0.92870 0.96850 0.73520 -0.32000
C 	C 	0.90360 0.98090 0.70760 -0.06300
C 	C 	0.88000 0.96100 0.68140 -0.02100
H 	H 	0.88010 0.93370 0.68110 0.02900
C 	C 	0.85810 0.98050 0.65730 -0.11400
H 	H 	0.84190 0.96690 0.63990 0.03900
N 	N 	0.85140 0.96830 0.55740 -0.10300
H 	H 	0.78040 0.02570 0.54700 0.01900
H 	H 	0.78380 0.98740 0.52440 0.03600
H 	H 	0.77710 0.98680 0.56850 0.13200
C 	C 	0.88810 0.98060 0.56280 -0.10000
C 	C 	0.92100 0.96040 0.56770 0.01700
H 	H 	0.92060 0.93310 0.56770 0.00600
C 	C 	0.95510 0.98020 0.57280 -0.13900
H 	H 	0.97860 0.96650 0.57520 0.05500
N 	N 	0.95320 0.96870 0.72510 -0.31000
H 	H 	0.90500 0.02570 0.77980 0.56900
H 	H 	0.88820 0.98720 0.76500 0.56800
H 	H 	0.92160 0.98710 0.79450 0.55300
C 	C 	0.97790 0.98060 0.69690 -0.06100
C 	C 	0.02290 0.98040 0.64630 -0.10300
H 	H 	0.03860 0.96680 0.62850 0.06900
H 	H 	0.79020 0.02570 0.58640 0.07700
H 	H 	0.80070 0.98720 0.60620 0.08300
H 	H 	0.77980 0.98700 0.56680 0.02400
H 	H 	0.97690 0.02570 0.78850 0.18000
H 	H 	0.96030 0.98720 0.80350 0.12700
H 	H 	0.99340 0.98710 0.77360 0.17500
H 	H 	0.97340 0.96680 0.48880 0.00700
C 	C 	0.92130 0.95980 0.51700 -0.08200
H 	H 	0.92140 0.93250 0.51740 0.03300
Zn	Zn	0.44924 0.41616 0.24300 1.22300
Zn	Zn	0.33850 0.41485 0.05036 1.20900
O 	O 	0.36597 0.32651 0.04690 -0.46700
O 	O 	0.36609 0.37917 0.08280 -0.50400
O 	O 	0.46029 0.33287 0.22625 -0.49700
O 	O 	0.44023 0.38568 0.19824 -0.50400
O 	O 	0.46062 0.21397 0.15120 -0.48500
O 	O 	0.44130 0.21584 0.09056 -0.51200
O 	O 	0.41817 0.40117 0.28507 -0.55700
O 	O 	0.45365 0.35350 0.30986 -0.49600
C 	C 	0.39898 0.32593 0.10570 -0.18200
C 	C 	0.41076 0.34565 0.13700 0.11500
H 	H 	0.40400 0.37110 0.13960 0.01400
C 	C 	0.43282 0.32830 0.16524 -0.18200
C 	C 	0.44328 0.29066 0.16063 0.11700
H 	H 	0.45780 0.27870 0.17930 0.00700
C 	C 	0.43252 0.27070 0.12874 -0.18300
C 	C 	0.41027 0.28826 0.10144 0.11500
H 	H 	0.40280 0.27470 0.08000 0.00500
C 	C 	0.37503 0.34524 0.07575 0.42800
C 	C 	0.44612 0.35016 0.19962 0.43100
C 	C 	0.44541 0.23040 0.12386 0.41000
C 	C 	0.42600 0.37551 0.31006 0.42000
C 	C 	0.39668 0.37290 0.34189 -0.24200
C 	C 	0.39898 0.34395 0.36810 0.15600
H 	H 	0.41890 0.32530 0.36630 -0.04900
N 	N 	0.35630 0.46810 0.05140 -0.18300
C 	C 	0.39000 0.48060 0.03350 -0.02100
N 	N 	0.42870 0.46850 0.23520 -0.33400
C 	C 	0.40360 0.48090 0.20760 -0.02600
C 	C 	0.38000 0.46100 0.18140 -0.07200
H 	H 	0.38010 0.43370 0.18110 0.04400
C 	C 	0.35810 0.48050 0.15730 -0.03400
H 	H 	0.34190 0.46690 0.13990 0.01200
N 	N 	0.35140 0.46830 0.05740 -0.10700
H 	H 	0.28040 0.52570 0.04700 0.02900
H 	H 	0.28380 0.48740 0.02440 0.06700
H 	H 	0.27710 0.48680 0.06850 0.16700
C 	C 	0.38810 0.48060 0.06280 0.06100
C 	C 	0.42100 0.46040 0.06770 -0.10300
H 	H 	0.42060 0.43310 0.06770 0.04700
C 	C 	0.45510 0.48020 0.07280 -0.02100
H 	H 	0.47860 0.46650 0.07520 0.02800
N 	N 	0.45320 0.46870 0.22510 -0.33400
H 	H 	0.40500 0.52570 0.27980 0.66500
H 	H 	0.38820 0.48720 0.26500 0.67300
H 	H 	0.42160 0.48710 0.29450 0.65900
C 	C 	0.47790 0.48060 0.19690 0.01200
C 	C 	0.52290 0.48040 0.14630 -0.02100
H 	H 	0.53860 0.46680 0.12850 0.04200
H 	H 	0.29020 0.52570 0.08640 0.10200
H 	H 	0.30070 0.48720 0.10620 0.12200
H 	H 	0.27980 0.48700 0.06680 0.03500
H 	H 	0.47690 0.52570 0.28850 0.21000
H 	H 	0.46030 0.48720 0.30350 0.14800
H 	H 	0.49340 0.48710 0.27360 0.17900
H 	H 	0.47340 0.46680 0.98880 0.00200
C 	C 	0.42130 0.45980 0.01700 0.00000
H 	H 	0.42140 0.43250 0.01740 0.01500
Zn	Zn	0.94924 0.08384 0.25700 1.21900
Zn	Zn	0.83850 0.08515 0.44964 1.20900
O 	O 	0.86597 0.17349 0.45310 -0.47200
O 	O 	0.86609 0.12083 0.41720 -0.50600
O 	O 	0.96029 0.16713 0.27375 -0.50400
O 	O 	0.94023 0.11432 0.30176 -0.51000
O 	O 	0.96062 0.28603 0.34880 -0.49200
O 	O 	0.94130 0.28416 0.40944 -0.51900
O 	O 	0.91817 0.09883 0.21493 -0.55000
O 	O 	0.95365 0.14650 0.19014 -0.49700
C 	C 	0.89898 0.17407 0.39430 -0.18800
C 	C 	0.91076 0.15435 0.36300 0.11800
H 	H 	0.90400 0.12890 0.36040 0.01200
C 	C 	0.93282 0.17170 0.33476 -0.18700
C 	C 	0.94328 0.20934 0.33937 0.12000
H 	H 	0.95780 0.22130 0.32070 0.00300
C 	C 	0.93252 0.22930 0.37126 -0.18900
C 	C 	0.91027 0.21174 0.39856 0.11800
H 	H 	0.90280 0.22530 0.42000 0.00100
C 	C 	0.87503 0.15476 0.42425 0.42900
C 	C 	0.94612 0.14984 0.30038 0.43200
C 	C 	0.94541 0.26960 0.37614 0.41200
C 	C 	0.92600 0.12449 0.18994 0.41800
C 	C 	0.89668 0.12710 0.15811 -0.23100
C 	C 	0.89898 0.15605 0.13190 0.14800
H 	H 	0.91890 0.17470 0.13370 -0.04000
N 	N 	0.85630 0.03190 0.44860 -0.18600
C 	C 	0.89000 0.01940 0.46650 -0.11600
N 	N 	0.92870 0.03150 0.26480 -0.32500
C 	C 	0.90360 0.01910 0.29240 0.03000
C 	C 	0.88000 0.03900 0.31860 -0.12900
H 	H 	0.88010 0.06630 0.31890 0.06300
C 	C 	0.85810 0.01950 0.34270 0.05000
H 	H 	0.84190 0.03310 0.36010 -0.01100
N 	N 	0.85140 0.03170 0.44260 -0.11500
H 	H 	0.78040 0.97430 0.45300 0.02900
H 	H 	0.78380 0.01260 0.47560 0.07000
H 	H 	0.77710 0.01320 0.43150 0.14800
C 	C 	0.88810 0.01940 0.43720 0.22000
C 	C 	0.92100 0.03960 0.43230 -0.21000
H 	H 	0.92060 0.06690 0.43230 0.08000
C 	C 	0.95510 0.01980 0.42720 0.09700
H 	H 	0.97860 0.03350 0.42480 -0.01300
N 	N 	0.95320 0.03130 0.27490 -0.32400
H 	H 	0.90500 0.97430 0.22020 0.58300
H 	H 	0.88820 0.01280 0.23500 0.60200
H 	H 	0.92160 0.01290 0.20550 0.58500
C 	C 	0.97790 0.01940 0.30310 0.05000
C 	C 	0.02290 0.01960 0.35370 0.06200
H 	H 	0.03860 0.03320 0.37150 0.01700
H 	H 	0.79020 0.97430 0.41360 0.08700
H 	H 	0.80070 0.01280 0.39380 0.11800
H 	H 	0.77980 0.01300 0.43320 0.03800
H 	H 	0.97690 0.97430 0.21150 0.18800
H 	H 	0.96030 0.01280 0.19650 0.15600
H 	H 	0.99340 0.01290 0.22640 0.19000
H 	H 	0.97340 0.03320 0.51120 0.03400
C 	C 	0.92130 0.04020 0.48300 0.02700
H 	H 	0.92140 0.06750 0.48260 -0.00300
Zn	Zn	0.44924 0.58384 0.75700 1.22300
Zn	Zn	0.33850 0.58515 0.94964 1.20600
O 	O 	0.36597 0.67349 0.95310 -0.47800
O 	O 	0.36609 0.62083 0.91720 -0.50600
O 	O 	0.46029 0.66713 0.77375 -0.49700
O 	O 	0.44023 0.61432 0.80176 -0.50400
O 	O 	0.46062 0.78603 0.84880 -0.48500
O 	O 	0.44130 0.78416 0.90944 -0.51500
O 	O 	0.41817 0.59883 0.71493 -0.55700
O 	O 	0.45365 0.64650 0.69014 -0.49600
C 	C 	0.39898 0.67407 0.89430 -0.18600
C 	C 	0.41076 0.65435 0.86300 0.11700
H 	H 	0.40400 0.62890 0.86040 0.01400
C 	C 	0.43282 0.67170 0.83476 -0.18300
C 	C 	0.44328 0.70934 0.83937 0.11800
H 	H 	0.45780 0.72130 0.82070 0.00700
C 	C 	0.43252 0.72930 0.87126 -0.18500
C 	C 	0.41027 0.71174 0.89856 0.11700
H 	H 	0.40280 0.72530 0.92000 0.00100
C 	C 	0.37503 0.65476 0.92425 0.43000
C 	C 	0.44612 0.64984 0.80038 0.43100
C 	C 	0.44541 0.76960 0.87614 0.41100
C 	C 	0.42600 0.62449 0.68994 0.42000
C 	C 	0.39668 0.62710 0.65811 -0.24200
C 	C 	0.39898 0.65605 0.63190 0.15600
H 	H 	0.41890 0.67470 0.63370 -0.04900
N 	N 	0.35630 0.53190 0.94860 -0.18000
C 	C 	0.39000 0.51940 0.96650 -0.01200
N 	N 	0.42870 0.53150 0.76480 -0.33400
C 	C 	0.40360 0.51910 0.79240 -0.02600
C 	C 	0.38000 0.53900 0.81860 -0.07200
H 	H 	0.38010 0.56630 0.81890 0.04400
C 	C 	0.35810 0.51950 0.84270 -0.03400
H 	H 	0.34190 0.53310 0.86010 0.01300
N 	N 	0.35140 0.53170 0.94260 -0.11100
H 	H 	0.28040 0.47430 0.95300 0.03500
H 	H 	0.28380 0.51260 0.97560 0.06400
H 	H 	0.27710 0.51320 0.93150 0.16600
C 	C 	0.38810 0.51940 0.93720 0.05200
C 	C 	0.42100 0.53960 0.93230 -0.08300
H 	H 	0.42060 0.56690 0.93230 0.03900
C 	C 	0.45510 0.51980 0.92720 -0.02500
H 	H 	0.47860 0.53350 0.92480 0.03000
N 	N 	0.45320 0.53130 0.77490 -0.33400
H 	H 	0.40500 0.47430 0.72020 0.66500
H 	H 	0.38820 0.51280 0.73500 0.67400
H 	H 	0.42160 0.51290 0.70550 0.65900
C 	C 	0.47790 0.51940 0.80310 0.01200
C 	C 	0.52290 0.51960 0.85370 -0.02100
H 	H 	0.53860 0.53320 0.87150 0.04200
H 	H 	0.29020 0.47430 0.91360 0.09000
H 	H 	0.30070 0.51280 0.89380 0.11300
H 	H 	0.27980 0.51300 0.93320 0.03400
H 	H 	0.47690 0.47430 0.71150 0.21000
H 	H 	0.46030 0.51280 0.69650 0.14800
H 	H 	0.49340 0.51290 0.72640 0.17900
H 	H 	0.47340 0.53320 0.01120 0.03200
C 	C 	0.42130 0.54020 0.98300 -0.07600
H 	H 	0.42140 0.56750 0.98260 0.02400
Zn	Zn	0.05076 0.08384 0.74300 1.22200
Zn	Zn	0.16150 0.08515 0.55036 1.20900
O 	O 	0.13403 0.17349 0.54690 -0.47100
O 	O 	0.13391 0.12083 0.58280 -0.50500
O 	O 	0.03971 0.16713 0.72625 -0.49200
O 	O 	0.05977 0.11432 0.69824 -0.50500
O 	O 	0.03938 0.28603 0.65120 -0.48000
O 	O 	0.05870 0.28416 0.59056 -0.51400
O 	O 	0.08183 0.09883 0.78507 -0.54700
O 	O 	0.04635 0.14650 0.80986 -0.48600
C 	C 	0.10102 0.17407 0.60570 -0.18400
C 	C 	0.08924 0.15435 0.63700 0.11600
H 	H 	0.09600 0.12890 0.63960 0.01400
C 	C 	0.06718 0.17170 0.66524 -0.18000
C 	C 	0.05672 0.20934 0.66063 0.11800
H 	H 	0.04220 0.22130 0.67930 0.01100
C 	C 	0.06748 0.22930 0.62874 -0.18200
C 	C 	0.08973 0.21174 0.60144 0.11700
H 	H 	0.09720 0.22530 0.58000 0.00200
C 	C 	0.12497 0.15476 0.57575 0.42900
C 	C 	0.05388 0.14984 0.69962 0.43200
C 	C 	0.05459 0.26960 0.62386 0.41100
C 	C 	0.07400 0.12449 0.81006 0.41700
C 	C 	0.10332 0.12710 0.84189 -0.22900
C 	C 	0.10102 0.15605 0.86810 0.14800
H 	H 	0.08110 0.17470 0.86630 -0.03800
N 	N 	0.14370 0.03190 0.55140 -0.18600
C 	C 	0.11000 0.01940 0.53350 -0.11400
N 	N 	0.07130 0.03150 0.73520 -0.31800
C 	C 	0.09640 0.01910 0.70760 0.03200
C 	C 	0.12000 0.03900 0.68140 -0.13000
H 	H 	0.11990 0.06630 0.68110 0.06400
C 	C 	0.14190 0.01950 0.65730 0.05000
H 	H 	0.15810 0.03310 0.63990 -0.01100
N 	N 	0.14860 0.03170 0.55740 -0.11500
H 	H 	0.21960 0.97430 0.54700 0.02900
H 	H 	0.21620 0.01260 0.52440 0.06900
H 	H 	0.22290 0.01320 0.56850 0.14800
C 	C 	0.11190 0.01940 0.56280 0.21800
C 	C 	0.07900 0.03960 0.56770 -0.20800
H 	H 	0.07940 0.06690 0.56770 0.08200
C 	C 	0.04490 0.01980 0.57280 0.09600
H 	H 	0.02140 0.03350 0.57520 0.00200
N 	N 	0.04680 0.03130 0.72510 -0.32100
H 	H 	0.09500 0.97430 0.77980 0.58000
H 	H 	0.11180 0.01280 0.76500 0.59900
H 	H 	0.07840 0.01290 0.79450 0.58300
C 	C 	0.02210 0.01940 0.69690 0.07000
C 	C 	0.97710 0.01960 0.64630 0.04200
H 	H 	0.96140 0.03320 0.62850 0.02000
H 	H 	0.20980 0.97430 0.58640 0.08700
H 	H 	0.19930 0.01280 0.60620 0.11800
H 	H 	0.22020 0.01300 0.56680 0.03800
H 	H 	0.02310 0.97430 0.78850 0.17700
H 	H 	0.03970 0.01280 0.80350 0.13100
H 	H 	0.00660 0.01290 0.77360 0.13500
H 	H 	0.02660 0.03320 0.48880 0.04100
C 	C 	0.07870 0.04020 0.51700 0.02600
H 	H 	0.07860 0.06750 0.51740 -0.00100
Zn	Zn	0.55076 0.58384 0.24300 1.22300
Zn	Zn	0.66150 0.58515 0.05036 1.20900
O 	O 	0.63403 0.67349 0.04690 -0.46600
O 	O 	0.63391 0.62083 0.08280 -0.50400
O 	O 	0.53971 0.66713 0.22625 -0.49700
O 	O 	0.55977 0.61432 0.19824 -0.50400
O 	O 	0.53938 0.78603 0.15120 -0.48400
O 	O 	0.55870 0.78416 0.09056 -0.51200
O 	O 	0.58183 0.59883 0.28507 -0.55700
O 	O 	0.54635 0.64650 0.30986 -0.49600
C 	C 	0.60102 0.67407 0.10570 -0.18200
C 	C 	0.58924 0.65435 0.13700 0.11500
H 	H 	0.59600 0.62890 0.13960 0.01400
C 	C 	0.56718 0.67170 0.16524 -0.18100
C 	C 	0.55672 0.70934 0.16063 0.11700
H 	H 	0.54220 0.72130 0.17930 0.00700
C 	C 	0.56748 0.72930 0.12874 -0.18200
C 	C 	0.58973 0.71174 0.10144 0.11500
H 	H 	0.59720 0.72530 0.08000 0.00500
C 	C 	0.62497 0.65476 0.07575 0.42800
C 	C 	0.55388 0.64984 0.19962 0.43100
C 	C 	0.55459 0.76960 0.12386 0.41000
C 	C 	0.57400 0.62449 0.31006 0.42000
C 	C 	0.60332 0.62710 0.34189 -0.24200
C 	C 	0.60102 0.65605 0.36810 0.15600
H 	H 	0.58110 0.67470 0.36630 -0.04900
N 	N 	0.64370 0.53190 0.05140 -0.18300
C 	C 	0.61000 0.51940 0.03350 -0.02100
N 	N 	0.57130 0.53150 0.23520 -0.33400
C 	C 	0.59640 0.51910 0.20760 -0.02600
C 	C 	0.62000 0.53900 0.18140 -0.07200
H 	H 	0.61990 0.56630 0.18110 0.04400
C 	C 	0.64190 0.51950 0.15730 -0.03400
H 	H 	0.65810 0.53310 0.13990 0.01200
N 	N 	0.64860 0.53170 0.05740 -0.10700
H 	H 	0.71960 0.47430 0.04700 0.02900
H 	H 	0.71620 0.51260 0.02440 0.06700
H 	H 	0.72290 0.51320 0.06850 0.16700
C 	C 	0.61190 0.51940 0.06280 0.06100
C 	C 	0.57900 0.53960 0.06770 -0.10300
H 	H 	0.57940 0.56690 0.06770 0.04700
C 	C 	0.54490 0.51980 0.07280 -0.02100
H 	H 	0.52140 0.53350 0.07520 0.02800
N 	N 	0.54680 0.53130 0.22510 -0.33400
H 	H 	0.59500 0.47430 0.27980 0.66500
H 	H 	0.61180 0.51280 0.26500 0.67300
H 	H 	0.57840 0.51290 0.29450 0.65900
C 	C 	0.52210 0.51940 0.19690 0.01200
C 	C 	0.47710 0.51960 0.14630 -0.02100
H 	H 	0.46140 0.53320 0.12850 0.04200
H 	H 	0.70980 0.47430 0.08640 0.10200
H 	H 	0.69930 0.51280 0.10620 0.12200
H 	H 	0.72020 0.51300 0.06680 0.03500
H 	H 	0.52310 0.47430 0.28850 0.21000
H 	H 	0.53970 0.51280 0.30350 0.14800
H 	H 	0.50660 0.51290 0.27360 0.17900
H 	H 	0.52660 0.53320 0.98880 0.00200
C 	C 	0.57870 0.54020 0.01700 0.00000
H 	H 	0.57860 0.56750 0.01740 0.01500
Zn	Zn	0.05076 0.91616 0.25700 1.22300
Zn	Zn	0.16150 0.91485 0.44964 1.20800
O 	O 	0.13403 0.82651 0.45310 -0.47100
O 	O 	0.13391 0.87917 0.41720 -0.50300
O 	O 	0.03971 0.83287 0.27375 -0.49200
O 	O 	0.05977 0.88568 0.30176 -0.50100
O 	O 	0.03938 0.71397 0.34880 -0.48000
O 	O 	0.05870 0.71584 0.40944 -0.51400
O 	O 	0.08183 0.90117 0.21493 -0.54700
O 	O 	0.04635 0.85350 0.19014 -0.48600
C 	C 	0.10102 0.82593 0.39430 -0.18300
C 	C 	0.08924 0.84565 0.36300 0.11500
H 	H 	0.09600 0.87110 0.36040 0.01500
C 	C 	0.06718 0.82830 0.33476 -0.17900
C 	C 	0.05672 0.79066 0.33937 0.11700
H 	H 	0.04220 0.77870 0.32070 0.01100
C 	C 	0.06748 0.77070 0.37126 -0.18200
C 	C 	0.08973 0.78826 0.39856 0.11600
H 	H 	0.09720 0.77470 0.42000 0.00200
C 	C 	0.12497 0.84524 0.42425 0.42900
C 	C 	0.05388 0.85016 0.30038 0.43100
C 	C 	0.05459 0.73040 0.37614 0.41100
C 	C 	0.07400 0.87551 0.18994 0.41700
C 	C 	0.10332 0.87290 0.15811 -0.22900
C 	C 	0.10102 0.84395 0.13190 0.14800
H 	H 	0.08110 0.82530 0.13370 -0.03800
N 	N 	0.14370 0.96810 0.44860 -0.17500
C 	C 	0.11000 0.98060 0.46650 0.07500
N 	N 	0.07130 0.96850 0.26480 -0.31300
C 	C 	0.09640 0.98090 0.29240 -0.06200
C 	C 	0.12000 0.96100 0.31860 -0.02300
H 	H 	0.11990 0.93370 0.31890 0.02900
C 	C 	0.14190 0.98050 0.34270 -0.11400
H 	H 	0.15810 0.96690 0.36010 0.03800
N 	N 	0.14860 0.96830 0.44260 -0.10300
H 	H 	0.21960 0.02570 0.45300 0.01900
H 	H 	0.21620 0.98740 0.47560 0.03600
H 	H 	0.22290 0.98680 0.43150 0.13200
C 	C 	0.11190 0.98060 0.43720 -0.09800
C 	C 	0.07900 0.96040 0.43230 0.01700
H 	H 	0.07940 0.93310 0.43230 0.00800
C 	C 	0.04490 0.98020 0.42720 -0.13800
H 	H 	0.02140 0.96650 0.42480 0.06900
N 	N 	0.04680 0.96870 0.27490 -0.30800
H 	H 	0.09500 0.02570 0.22020 0.56900
H 	H 	0.11180 0.98720 0.23500 0.56800
H 	H 	0.07840 0.98710 0.20550 0.55400
C 	C 	0.02210 0.98060 0.30310 -0.04100
C 	C 	0.97710 0.98040 0.35370 -0.12300
H 	H 	0.96140 0.96680 0.37150 0.07100
H 	H 	0.20980 0.02570 0.41360 0.07700
H 	H 	0.19930 0.98720 0.39380 0.08300
H 	H 	0.22020 0.98700 0.43320 0.02400
H 	H 	0.02310 0.02570 0.21150 0.17100
H 	H 	0.03970 0.98720 0.19650 0.10400
H 	H 	0.00660 0.98710 0.22640 0.12100
H 	H 	0.02660 0.96680 0.51120 0.01500
C 	C 	0.07870 0.95980 0.48300 -0.08000
H 	H 	0.07860 0.93250 0.48260 0.03500
Zn	Zn	0.55076 0.41616 0.75700 1.22300
Zn	Zn	0.66150 0.41485 0.94964 1.20600
O 	O 	0.63403 0.32651 0.95310 -0.47800
O 	O 	0.63391 0.37917 0.91720 -0.50600
O 	O 	0.53971 0.33287 0.77375 -0.49700
O 	O 	0.55977 0.38568 0.80176 -0.50400
O 	O 	0.53938 0.21397 0.84880 -0.48500
O 	O 	0.55870 0.21584 0.90944 -0.51500
O 	O 	0.58183 0.40117 0.71493 -0.55700
O 	O 	0.54635 0.35350 0.69014 -0.49600
C 	C 	0.60102 0.32593 0.89430 -0.18600
C 	C 	0.58924 0.34565 0.86300 0.11700
H 	H 	0.59600 0.37110 0.86040 0.01400
C 	C 	0.56718 0.32830 0.83476 -0.18300
C 	C 	0.55672 0.29066 0.83937 0.11800
H 	H 	0.54220 0.27870 0.82070 0.00700
C 	C 	0.56748 0.27070 0.87126 -0.18500
C 	C 	0.58973 0.28826 0.89856 0.11700
H 	H 	0.59720 0.27470 0.92000 0.00100
C 	C 	0.62497 0.34524 0.92425 0.43000
C 	C 	0.55388 0.35016 0.80038 0.43100
C 	C 	0.55459 0.23040 0.87614 0.41100
C 	C 	0.57400 0.37551 0.68994 0.42000
C 	C 	0.60332 0.37290 0.65811 -0.24200
C 	C 	0.60102 0.34395 0.63190 0.15600
H 	H 	0.58110 0.32530 0.63370 -0.04900
N 	N 	0.64370 0.46810 0.94860 -0.18000
C 	C 	0.61000 0.48060 0.96650 -0.01200
N 	N 	0.57130 0.46850 0.76480 -0.33400
C 	C 	0.59640 0.48090 0.79240 -0.02600
C 	C 	0.62000 0.46100 0.81860 -0.07200
H 	H 	0.61990 0.43370 0.81890 0.04400
C 	C 	0.64190 0.48050 0.84270 -0.03400
H 	H 	0.65810 0.46690 0.86010 0.01300
N 	N 	0.64860 0.46830 0.94260 -0.11100
H 	H 	0.71960 0.52570 0.95300 0.03500
H 	H 	0.71620 0.48740 0.97560 0.06400
H 	H 	0.72290 0.48680 0.93150 0.16600
C 	C 	0.61190 0.48060 0.93720 0.05200
C 	C 	0.57900 0.46040 0.93230 -0.08300
H 	H 	0.57940 0.43310 0.93230 0.03900
C 	C 	0.54490 0.48020 0.92720 -0.02500
H 	H 	0.52140 0.46650 0.92480 0.03000
N 	N 	0.54680 0.46870 0.77490 -0.33400
H 	H 	0.59500 0.52570 0.72020 0.66600
H 	H 	0.61180 0.48720 0.73500 0.67400
H 	H 	0.57840 0.48710 0.70550 0.65900
C 	C 	0.52210 0.48060 0.80310 0.01200
C 	C 	0.47710 0.48040 0.85370 -0.02100
H 	H 	0.46140 0.46680 0.87150 0.04200
H 	H 	0.70980 0.52570 0.91360 0.09000
H 	H 	0.69930 0.48720 0.89380 0.11300
H 	H 	0.72020 0.48700 0.93320 0.03400
H 	H 	0.52310 0.52570 0.71150 0.21100
H 	H 	0.53970 0.48720 0.69650 0.14800
H 	H 	0.50660 0.48710 0.72640 0.17900
H 	H 	0.52660 0.46680 0.01120 0.03200
C 	C 	0.57870 0.45980 0.98300 -0.07600
H 	H 	0.57860 0.43250 0.98260 0.02400
Zn	Zn	0.74300 0.94924 0.91616 1.22000
Zn	Zn	0.55036 0.83850 0.91485 1.20800
O 	O 	0.54690 0.86597 0.82651 -0.47200
O 	O 	0.58280 0.86609 0.87917 -0.50300
O 	O 	0.72625 0.96029 0.83287 -0.50400
O 	O 	0.69824 0.94023 0.88568 -0.50600
O 	O 	0.65120 0.96062 0.71397 -0.49200
O 	O 	0.59056 0.94130 0.71584 -0.51900
O 	O 	0.78507 0.91817 0.90117 -0.55100
O 	O 	0.80986 0.95365 0.85350 -0.49800
C 	C 	0.60570 0.89898 0.82593 -0.18600
C 	C 	0.63700 0.91076 0.84565 0.11700
H 	H 	0.63960 0.90400 0.87110 0.01400
C 	C 	0.66524 0.93282 0.82830 -0.18500
C 	C 	0.66063 0.94328 0.79066 0.11900
H 	H 	0.67930 0.95780 0.77870 0.00300
C 	C 	0.62874 0.93252 0.77070 -0.18800
C 	C 	0.60144 0.91027 0.78826 0.11800
H 	H 	0.58000 0.90280 0.77470 0.00100
C 	C 	0.57575 0.87503 0.84524 0.42900
C 	C 	0.69962 0.94612 0.85016 0.43100
C 	C 	0.62386 0.94541 0.73040 0.41200
C 	C 	0.81006 0.92600 0.87551 0.41800
C 	C 	0.84189 0.89668 0.87290 -0.23500
C 	C 	0.86810 0.89898 0.84395 0.14900
H 	H 	0.86630 0.91890 0.82530 -0.04200
N 	N 	0.55140 0.85630 0.96810 -0.17400
C 	C 	0.53350 0.89000 0.98060 0.07700
N 	N 	0.73520 0.92870 0.96850 -0.32000
C 	C 	0.70760 0.90360 0.98090 -0.06300
C 	C 	0.68140 0.88000 0.96100 -0.02100
H 	H 	0.68110 0.88010 0.93370 0.02900
C 	C 	0.65730 0.85810 0.98050 -0.11400
H 	H 	0.63990 0.84190 0.96690 0.03900
N 	N 	0.55740 0.85140 0.96830 -0.10300
H 	H 	0.54700 0.78040 0.02570 0.01900
H 	H 	0.52440 0.78380 0.98740 0.03600
H 	H 	0.56850 0.77710 0.98680 0.13200
C 	C 	0.56280 0.88810 0.98060 -0.10000
C 	C 	0.56770 0.92100 0.96040 0.01700
H 	H 	0.56770 0.92060 0.93310 0.00600
C 	C 	0.57280 0.95510 0.98020 -0.13900
H 	H 	0.57520 0.97860 0.96650 0.05500
N 	N 	0.72510 0.95320 0.96870 -0.31000
H 	H 	0.77980 0.90500 0.02570 0.56900
H 	H 	0.76500 0.88820 0.98720 0.56800
H 	H 	0.79450 0.92160 0.98710 0.55300
C 	C 	0.69690 0.97790 0.98060 -0.06100
C 	C 	0.64630 0.02290 0.98040 -0.10300
H 	H 	0.62850 0.03860 0.96680 0.06900
H 	H 	0.58640 0.79020 0.02570 0.07700
H 	H 	0.60620 0.80070 0.98720 0.08300
H 	H 	0.56680 0.77980 0.98700 0.02400
H 	H 	0.78850 0.97690 0.02570 0.18000
H 	H 	0.80350 0.96030 0.98720 0.12700
H 	H 	0.77360 0.99340 0.98710 0.17500
H 	H 	0.48880 0.97340 0.96680 0.00700
C 	C 	0.51700 0.92130 0.95980 -0.08200
H 	H 	0.51740 0.92140 0.93250 0.03300
Zn	Zn	0.24300 0.44924 0.41616 1.22300
Zn	Zn	0.05036 0.33850 0.41485 1.20900
O 	O 	0.04690 0.36597 0.32651 -0.46700
O 	O 	0.08280 0.36609 0.37917 -0.50400
O 	O 	0.22625 0.46029 0.33287 -0.49700
O 	O 	0.19824 0.44023 0.38568 -0.50400
O 	O 	0.15120 0.46062 0.21397 -0.48500
O 	O 	0.09056 0.44130 0.21584 -0.51200
O 	O 	0.28507 0.41817 0.40117 -0.55700
O 	O 	0.30986 0.45365 0.35350 -0.49600
C 	C 	0.10570 0.39898 0.32593 -0.18200
C 	C 	0.13700 0.41076 0.34565 0.11500
H 	H 	0.13960 0.40400 0.37110 0.01400
C 	C 	0.16524 0.43282 0.32830 -0.18200
C 	C 	0.16063 0.44328 0.29066 0.11700
H 	H 	0.17930 0.45780 0.27870 0.00700
C 	C 	0.12874 0.43252 0.27070 -0.18300
C 	C 	0.10144 0.41027 0.28826 0.11500
H 	H 	0.08000 0.40280 0.27470 0.00500
C 	C 	0.07575 0.37503 0.34524 0.42800
C 	C 	0.19962 0.44612 0.35016 0.43100
C 	C 	0.12386 0.44541 0.23040 0.41000
C 	C 	0.31006 0.42600 0.37551 0.42000
C 	C 	0.34189 0.39668 0.37290 -0.24200
C 	C 	0.36810 0.39898 0.34395 0.15600
H 	H 	0.36630 0.41890 0.32530 -0.04900
N 	N 	0.05140 0.35630 0.46810 -0.18300
C 	C 	0.03350 0.39000 0.48060 -0.02100
N 	N 	0.23520 0.42870 0.46850 -0.33400
C 	C 	0.20760 0.40360 0.48090 -0.02600
C 	C 	0.18140 0.38000 0.46100 -0.07200
H 	H 	0.18110 0.38010 0.43370 0.04400
C 	C 	0.15730 0.35810 0.48050 -0.03400
H 	H 	0.13990 0.34190 0.46690 0.01200
N 	N 	0.05740 0.35140 0.46830 -0.10700
H 	H 	0.04700 0.28040 0.52570 0.02900
H 	H 	0.02440 0.28380 0.48740 0.06700
H 	H 	0.06850 0.27710 0.48680 0.16700
C 	C 	0.06280 0.38810 0.48060 0.06100
C 	C 	0.06770 0.42100 0.46040 -0.10300
H 	H 	0.06770 0.42060 0.43310 0.04700
C 	C 	0.07280 0.45510 0.48020 -0.02100
H 	H 	0.07520 0.47860 0.46650 0.02800
N 	N 	0.22510 0.45320 0.46870 -0.33400
H 	H 	0.27980 0.40500 0.52570 0.66500
H 	H 	0.26500 0.38820 0.48720 0.67300
H 	H 	0.29450 0.42160 0.48710 0.65900
C 	C 	0.19690 0.47790 0.48060 0.01200
C 	C 	0.14630 0.52290 0.48040 -0.02100
H 	H 	0.12850 0.53860 0.46680 0.04200
H 	H 	0.08640 0.29020 0.52570 0.10200
H 	H 	0.10620 0.30070 0.48720 0.12200
H 	H 	0.06680 0.27980 0.48700 0.03500
H 	H 	0.28850 0.47690 0.52570 0.21000
H 	H 	0.30350 0.46030 0.48720 0.14800
H 	H 	0.27360 0.49340 0.48710 0.17900
H 	H 	0.98880 0.47340 0.46680 0.00200
C 	C 	0.01700 0.42130 0.45980 0.00000
H 	H 	0.01740 0.42140 0.43250 0.01500
Zn	Zn	0.25700 0.94924 0.08384 1.21900
Zn	Zn	0.44964 0.83850 0.08515 1.20900
O 	O 	0.45310 0.86597 0.17349 -0.47200
O 	O 	0.41720 0.86609 0.12083 -0.50600
O 	O 	0.27375 0.96029 0.16713 -0.50400
O 	O 	0.30176 0.94023 0.11432 -0.51000
O 	O 	0.34880 0.96062 0.28603 -0.49200
O 	O 	0.40944 0.94130 0.28416 -0.51900
O 	O 	0.21493 0.91817 0.09883 -0.55000
O 	O 	0.19014 0.95365 0.14650 -0.49700
C 	C 	0.39430 0.89898 0.17407 -0.18800
C 	C 	0.36300 0.91076 0.15435 0.11800
H 	H 	0.36040 0.90400 0.12890 0.01200
C 	C 	0.33476 0.93282 0.17170 -0.18700
C 	C 	0.33937 0.94328 0.20934 0.12000
H 	H 	0.32070 0.95780 0.22130 0.00300
C 	C 	0.37126 0.93252 0.22930 -0.18900
C 	C 	0.39856 0.91027 0.21174 0.11800
H 	H 	0.42000 0.90280 0.22530 0.00100
C 	C 	0.42425 0.87503 0.15476 0.42900
C 	C 	0.30038 0.94612 0.14984 0.43200
C 	C 	0.37614 0.94541 0.26960 0.41200
C 	C 	0.18994 0.92600 0.12449 0.41800
C 	C 	0.15811 0.89668 0.12710 -0.23100
C 	C 	0.13190 0.89898 0.15605 0.14800
H 	H 	0.13370 0.91890 0.17470 -0.04000
N 	N 	0.44860 0.85630 0.03190 -0.18600
C 	C 	0.46650 0.89000 0.01940 -0.11600
N 	N 	0.26480 0.92870 0.03150 -0.32500
C 	C 	0.29240 0.90360 0.01910 0.03000
C 	C 	0.31860 0.88000 0.03900 -0.12900
H 	H 	0.31890 0.88010 0.06630 0.06300
C 	C 	0.34270 0.85810 0.01950 0.05000
H 	H 	0.36010 0.84190 0.03310 -0.01100
N 	N 	0.44260 0.85140 0.03170 -0.11500
H 	H 	0.45300 0.78040 0.97430 0.02900
H 	H 	0.47560 0.78380 0.01260 0.07000
H 	H 	0.43150 0.77710 0.01320 0.14800
C 	C 	0.43720 0.88810 0.01940 0.22000
C 	C 	0.43230 0.92100 0.03960 -0.21000
H 	H 	0.43230 0.92060 0.06690 0.08000
C 	C 	0.42720 0.95510 0.01980 0.09700
H 	H 	0.42480 0.97860 0.03350 -0.01300
N 	N 	0.27490 0.95320 0.03130 -0.32400
H 	H 	0.22020 0.90500 0.97430 0.58300
H 	H 	0.23500 0.88820 0.01280 0.60200
H 	H 	0.20550 0.92160 0.01290 0.58500
C 	C 	0.30310 0.97790 0.01940 0.05000
C 	C 	0.35370 0.02290 0.01960 0.06200
H 	H 	0.37150 0.03860 0.03320 0.01700
H 	H 	0.41360 0.79020 0.97430 0.08700
H 	H 	0.39380 0.80070 0.01280 0.11800
H 	H 	0.43320 0.77980 0.01300 0.03800
H 	H 	0.21150 0.97690 0.97430 0.18800
H 	H 	0.19650 0.96030 0.01280 0.15600
H 	H 	0.22640 0.99340 0.01290 0.19000
H 	H 	0.51120 0.97340 0.03320 0.03400
C 	C 	0.48300 0.92130 0.04020 0.02700
H 	H 	0.48260 0.92140 0.06750 -0.00300
Zn	Zn	0.75700 0.44924 0.58384 1.22300
Zn	Zn	0.94964 0.33850 0.58515 1.20600
O 	O 	0.95310 0.36597 0.67349 -0.47800
O 	O 	0.91720 0.36609 0.62083 -0.50600
O 	O 	0.77375 0.46029 0.66713 -0.49700
O 	O 	0.80176 0.44023 0.61432 -0.50400
O 	O 	0.84880 0.46062 0.78603 -0.48500
O 	O 	0.90944 0.44130 0.78416 -0.51500
O 	O 	0.71493 0.41817 0.59883 -0.55700
O 	O 	0.69014 0.45365 0.64650 -0.49600
C 	C 	0.89430 0.39898 0.67407 -0.18600
C 	C 	0.86300 0.41076 0.65435 0.11700
H 	H 	0.86040 0.40400 0.62890 0.01400
C 	C 	0.83476 0.43282 0.67170 -0.18300
C 	C 	0.83937 0.44328 0.70934 0.11800
H 	H 	0.82070 0.45780 0.72130 0.00700
C 	C 	0.87126 0.43252 0.72930 -0.18500
C 	C 	0.89856 0.41027 0.71174 0.11700
H 	H 	0.92000 0.40280 0.72530 0.00100
C 	C 	0.92425 0.37503 0.65476 0.43000
C 	C 	0.80038 0.44612 0.64984 0.43100
C 	C 	0.87614 0.44541 0.76960 0.41100
C 	C 	0.68994 0.42600 0.62449 0.42000
C 	C 	0.65811 0.39668 0.62710 -0.24200
C 	C 	0.63190 0.39898 0.65605 0.15600
H 	H 	0.63370 0.41890 0.67470 -0.04900
N 	N 	0.94860 0.35630 0.53190 -0.18000
C 	C 	0.96650 0.39000 0.51940 -0.01200
N 	N 	0.76480 0.42870 0.53150 -0.33400
C 	C 	0.79240 0.40360 0.51910 -0.02600
C 	C 	0.81860 0.38000 0.53900 -0.07200
H 	H 	0.81890 0.38010 0.56630 0.04400
C 	C 	0.84270 0.35810 0.51950 -0.03400
H 	H 	0.86010 0.34190 0.53310 0.01300
N 	N 	0.94260 0.35140 0.53170 -0.11100
H 	H 	0.95300 0.28040 0.47430 0.03500
H 	H 	0.97560 0.28380 0.51260 0.06400
H 	H 	0.93150 0.27710 0.51320 0.16600
C 	C 	0.93720 0.38810 0.51940 0.05200
C 	C 	0.93230 0.42100 0.53960 -0.08300
H 	H 	0.93230 0.42060 0.56690 0.03900
C 	C 	0.92720 0.45510 0.51980 -0.02500
H 	H 	0.92480 0.47860 0.53350 0.03000
N 	N 	0.77490 0.45320 0.53130 -0.33400
H 	H 	0.72020 0.40500 0.47430 0.66500
H 	H 	0.73500 0.38820 0.51280 0.67400
H 	H 	0.70550 0.42160 0.51290 0.65900
C 	C 	0.80310 0.47790 0.51940 0.01200
C 	C 	0.85370 0.52290 0.51960 -0.02100
H 	H 	0.87150 0.53860 0.53320 0.04200
H 	H 	0.91360 0.29020 0.47430 0.09000
H 	H 	0.89380 0.30070 0.51280 0.11300
H 	H 	0.93320 0.27980 0.51300 0.03400
H 	H 	0.71150 0.47690 0.47430 0.21000
H 	H 	0.69650 0.46030 0.51280 0.14800
H 	H 	0.72640 0.49340 0.51290 0.17900
H 	H 	0.01120 0.47340 0.53320 0.03200
C 	C 	0.98300 0.42130 0.54020 -0.07600
H 	H 	0.98260 0.42140 0.56750 0.02400
Zn	Zn	0.74300 0.05076 0.08384 1.22200
Zn	Zn	0.55036 0.16150 0.08515 1.20900
O 	O 	0.54690 0.13403 0.17349 -0.47100
O 	O 	0.58280 0.13391 0.12083 -0.50500
O 	O 	0.72625 0.03971 0.16713 -0.49200
O 	O 	0.69824 0.05977 0.11432 -0.50500
O 	O 	0.65120 0.03938 0.28603 -0.48000
O 	O 	0.59056 0.05870 0.28416 -0.51400
O 	O 	0.78507 0.08183 0.09883 -0.54700
O 	O 	0.80986 0.04635 0.14650 -0.48600
C 	C 	0.60570 0.10102 0.17407 -0.18400
C 	C 	0.63700 0.08924 0.15435 0.11600
H 	H 	0.63960 0.09600 0.12890 0.01400
C 	C 	0.66524 0.06718 0.17170 -0.18000
C 	C 	0.66063 0.05672 0.20934 0.11800
H 	H 	0.67930 0.04220 0.22130 0.01100
C 	C 	0.62874 0.06748 0.22930 -0.18200
C 	C 	0.60144 0.08973 0.21174 0.11700
H 	H 	0.58000 0.09720 0.22530 0.00200
C 	C 	0.57575 0.12497 0.15476 0.42900
C 	C 	0.69962 0.05388 0.14984 0.43200
C 	C 	0.62386 0.05459 0.26960 0.41100
C 	C 	0.81006 0.07400 0.12449 0.41700
C 	C 	0.84189 0.10332 0.12710 -0.22900
C 	C 	0.86810 0.10102 0.15605 0.14800
H 	H 	0.86630 0.08110 0.17470 -0.03800
N 	N 	0.55140 0.14370 0.03190 -0.18600
C 	C 	0.53350 0.11000 0.01940 -0.11400
N 	N 	0.73520 0.07130 0.03150 -0.31800
C 	C 	0.70760 0.09640 0.01910 0.03200
C 	C 	0.68140 0.12000 0.03900 -0.13000
H 	H 	0.68110 0.11990 0.06630 0.06400
C 	C 	0.65730 0.14190 0.01950 0.05000
H 	H 	0.63990 0.15810 0.03310 -0.01100
N 	N 	0.55740 0.14860 0.03170 -0.11500
H 	H 	0.54700 0.21960 0.97430 0.02900
H 	H 	0.52440 0.21620 0.01260 0.06900
H 	H 	0.56850 0.22290 0.01320 0.14800
C 	C 	0.56280 0.11190 0.01940 0.21800
C 	C 	0.56770 0.07900 0.03960 -0.20800
H 	H 	0.56770 0.07940 0.06690 0.08200
C 	C 	0.57280 0.04490 0.01980 0.09600
H 	H 	0.57520 0.02140 0.03350 0.00200
N 	N 	0.72510 0.04680 0.03130 -0.32100
H 	H 	0.77980 0.09500 0.97430 0.58000
H 	H 	0.76500 0.11180 0.01280 0.59900
H 	H 	0.79450 0.07840 0.01290 0.58300
C 	C 	0.69690 0.02210 0.01940 0.07000
C 	C 	0.64630 0.97710 0.01960 0.04200
H 	H 	0.62850 0.96140 0.03320 0.02000
H 	H 	0.58640 0.20980 0.97430 0.08700
H 	H 	0.60620 0.19930 0.01280 0.11800
H 	H 	0.56680 0.22020 0.01300 0.03800
H 	H 	0.78850 0.02310 0.97430 0.17700
H 	H 	0.80350 0.03970 0.01280 0.13100
H 	H 	0.77360 0.00660 0.01290 0.13500
H 	H 	0.48880 0.02660 0.03320 0.04100
C 	C 	0.51700 0.07870 0.04020 0.02600
H 	H 	0.51740 0.07860 0.06750 -0.00100
Zn	Zn	0.24300 0.55076 0.58384 1.22300
Zn	Zn	0.05036 0.66150 0.58515 1.20900
O 	O 	0.04690 0.63403 0.67349 -0.46600
O 	O 	0.08280 0.63391 0.62083 -0.50400
O 	O 	0.22625 0.53971 0.66713 -0.49700
O 	O 	0.19824 0.55977 0.61432 -0.50400
O 	O 	0.15120 0.53938 0.78603 -0.48400
O 	O 	0.09056 0.55870 0.78416 -0.51200
O 	O 	0.28507 0.58183 0.59883 -0.55700
O 	O 	0.30986 0.54635 0.64650 -0.49600
C 	C 	0.10570 0.60102 0.67407 -0.18200
C 	C 	0.13700 0.58924 0.65435 0.11500
H 	H 	0.13960 0.59600 0.62890 0.01400
C 	C 	0.16524 0.56718 0.67170 -0.18100
C 	C 	0.16063 0.55672 0.70934 0.11700
H 	H 	0.17930 0.54220 0.72130 0.00700
C 	C 	0.12874 0.56748 0.72930 -0.18200
C 	C 	0.10144 0.58973 0.71174 0.11500
H 	H 	0.08000 0.59720 0.72530 0.00500
C 	C 	0.07575 0.62497 0.65476 0.42800
C 	C 	0.19962 0.55388 0.64984 0.43100
C 	C 	0.12386 0.55459 0.76960 0.41000
C 	C 	0.31006 0.57400 0.62449 0.42000
C 	C 	0.34189 0.60332 0.62710 -0.24200
C 	C 	0.36810 0.60102 0.65605 0.15600
H 	H 	0.36630 0.58110 0.67470 -0.04900
N 	N 	0.05140 0.64370 0.53190 -0.18300
C 	C 	0.03350 0.61000 0.51940 -0.02100
N 	N 	0.23520 0.57130 0.53150 -0.33400
C 	C 	0.20760 0.59640 0.51910 -0.02600
C 	C 	0.18140 0.62000 0.53900 -0.07200
H 	H 	0.18110 0.61990 0.56630 0.04400
C 	C 	0.15730 0.64190 0.51950 -0.03400
H 	H 	0.13990 0.65810 0.53310 0.01200
N 	N 	0.05740 0.64860 0.53170 -0.10700
H 	H 	0.04700 0.71960 0.47430 0.02900
H 	H 	0.02440 0.71620 0.51260 0.06700
H 	H 	0.06850 0.72290 0.51320 0.16700
C 	C 	0.06280 0.61190 0.51940 0.06100
C 	C 	0.06770 0.57900 0.53960 -0.10300
H 	H 	0.06770 0.57940 0.56690 0.04700
C 	C 	0.07280 0.54490 0.51980 -0.02100
H 	H 	0.07520 0.52140 0.53350 0.02800
N 	N 	0.22510 0.54680 0.53130 -0.33400
H 	H 	0.27980 0.59500 0.47430 0.66500
H 	H 	0.26500 0.61180 0.51280 0.67300
H 	H 	0.29450 0.57840 0.51290 0.65900
C 	C 	0.19690 0.52210 0.51940 0.01200
C 	C 	0.14630 0.47710 0.51960 -0.02100
H 	H 	0.12850 0.46140 0.53320 0.04200
H 	H 	0.08640 0.70980 0.47430 0.10200
H 	H 	0.10620 0.69930 0.51280 0.12200
H 	H 	0.06680 0.72020 0.51300 0.03500
H 	H 	0.28850 0.52310 0.47430 0.21000
H 	H 	0.30350 0.53970 0.51280 0.14800
H 	H 	0.27360 0.50660 0.51290 0.17900
H 	H 	0.98880 0.52660 0.53320 0.00200
C 	C 	0.01700 0.57870 0.54020 0.00000
H 	H 	0.01740 0.57860 0.56750 0.01500
Zn	Zn	0.25700 0.05076 0.91616 1.22300
Zn	Zn	0.44964 0.16150 0.91485 1.20800
O 	O 	0.45310 0.13403 0.82651 -0.47100
O 	O 	0.41720 0.13391 0.87917 -0.50300
O 	O 	0.27375 0.03971 0.83287 -0.49200
O 	O 	0.30176 0.05977 0.88568 -0.50100
O 	O 	0.34880 0.03938 0.71397 -0.48000
O 	O 	0.40944 0.05870 0.71584 -0.51400
O 	O 	0.21493 0.08183 0.90117 -0.54700
O 	O 	0.19014 0.04635 0.85350 -0.48600
C 	C 	0.39430 0.10102 0.82593 -0.18300
C 	C 	0.36300 0.08924 0.84565 0.11500
H 	H 	0.36040 0.09600 0.87110 0.01500
C 	C 	0.33476 0.06718 0.82830 -0.17900
C 	C 	0.33937 0.05672 0.79066 0.11700
H 	H 	0.32070 0.04220 0.77870 0.01100
C 	C 	0.37126 0.06748 0.77070 -0.18200
C 	C 	0.39856 0.08973 0.78826 0.11600
H 	H 	0.42000 0.09720 0.77470 0.00200
C 	C 	0.42425 0.12497 0.84524 0.42900
C 	C 	0.30038 0.05388 0.85016 0.43100
C 	C 	0.37614 0.05459 0.73040 0.41100
C 	C 	0.18994 0.07400 0.87551 0.41700
C 	C 	0.15811 0.10332 0.87290 -0.22900
C 	C 	0.13190 0.10102 0.84395 0.14800
H 	H 	0.13370 0.08110 0.82530 -0.03800
N 	N 	0.44860 0.14370 0.96810 -0.17500
C 	C 	0.46650 0.11000 0.98060 0.07500
N 	N 	0.26480 0.07130 0.96850 -0.31300
C 	C 	0.29240 0.09640 0.98090 -0.06200
C 	C 	0.31860 0.12000 0.96100 -0.02300
H 	H 	0.31890 0.11990 0.93370 0.02900
C 	C 	0.34270 0.14190 0.98050 -0.11400
H 	H 	0.36010 0.15810 0.96690 0.03800
N 	N 	0.44260 0.14860 0.96830 -0.10300
H 	H 	0.45300 0.21960 0.02570 0.01900
H 	H 	0.47560 0.21620 0.98740 0.03600
H 	H 	0.43150 0.22290 0.98680 0.13200
C 	C 	0.43720 0.11190 0.98060 -0.09800
C 	C 	0.43230 0.07900 0.96040 0.01700
H 	H 	0.43230 0.07940 0.93310 0.00800
C 	C 	0.42720 0.04490 0.98020 -0.13800
H 	H 	0.42480 0.02140 0.96650 0.06900
N 	N 	0.27490 0.04680 0.96870 -0.30800
H 	H 	0.22020 0.09500 0.02570 0.56900
H 	H 	0.23500 0.11180 0.98720 0.56800
H 	H 	0.20550 0.07840 0.98710 0.55400
C 	C 	0.30310 0.02210 0.98060 -0.04100
C 	C 	0.35370 0.97710 0.98040 -0.12300
H 	H 	0.37150 0.96140 0.96680 0.07100
H 	H 	0.41360 0.20980 0.02570 0.07700
H 	H 	0.39380 0.19930 0.98720 0.08300
H 	H 	0.43320 0.22020 0.98700 0.02400
H 	H 	0.21150 0.02310 0.02570 0.17100
H 	H 	0.19650 0.03970 0.98720 0.10400
H 	H 	0.22640 0.00660 0.98710 0.12100
H 	H 	0.51120 0.02660 0.96680 0.01500
C 	C 	0.48300 0.07870 0.95980 -0.08000
H 	H 	0.48260 0.07860 0.93250 0.03500
Zn	Zn	0.75700 0.55076 0.41616 1.22300
Zn	Zn	0.94964 0.66150 0.41485 1.20600
O 	O 	0.95310 0.63403 0.32651 -0.47800
O 	O 	0.91720 0.63391 0.37917 -0.50600
O 	O 	0.77375 0.53971 0.33287 -0.49700
O 	O 	0.80176 0.55977 0.38568 -0.50400
O 	O 	0.84880 0.53938 0.21397 -0.48500
O 	O 	0.90944 0.55870 0.21584 -0.51500
O 	O 	0.71493 0.58183 0.40117 -0.55700
O 	O 	0.69014 0.54635 0.35350 -0.49600
C 	C 	0.89430 0.60102 0.32593 -0.18600
C 	C 	0.86300 0.58924 0.34565 0.11700
H 	H 	0.86040 0.59600 0.37110 0.01400
C 	C 	0.83476 0.56718 0.32830 -0.18300
C 	C 	0.83937 0.55672 0.29066 0.11800
H 	H 	0.82070 0.54220 0.27870 0.00700
C 	C 	0.87126 0.56748 0.27070 -0.18500
C 	C 	0.89856 0.58973 0.28826 0.11700
H 	H 	0.92000 0.59720 0.27470 0.00100
C 	C 	0.92425 0.62497 0.34524 0.43000
C 	C 	0.80038 0.55388 0.35016 0.43100
C 	C 	0.87614 0.55459 0.23040 0.41100
C 	C 	0.68994 0.57400 0.37551 0.42000
C 	C 	0.65811 0.60332 0.37290 -0.24200
C 	C 	0.63190 0.60102 0.34395 0.15600
H 	H 	0.63370 0.58110 0.32530 -0.04900
N 	N 	0.94860 0.64370 0.46810 -0.18000
C 	C 	0.96650 0.61000 0.48060 -0.01200
N 	N 	0.76480 0.57130 0.46850 -0.33400
C 	C 	0.79240 0.59640 0.48090 -0.02600
C 	C 	0.81860 0.62000 0.46100 -0.07200
H 	H 	0.81890 0.61990 0.43370 0.04400
C 	C 	0.84270 0.64190 0.48050 -0.03400
H 	H 	0.86010 0.65810 0.46690 0.01300
N 	N 	0.94260 0.64860 0.46830 -0.11100
H 	H 	0.95300 0.71960 0.52570 0.03500
H 	H 	0.97560 0.71620 0.48740 0.06400
H 	H 	0.93150 0.72290 0.48680 0.16600
C 	C 	0.93720 0.61190 0.48060 0.05200
C 	C 	0.93230 0.57900 0.46040 -0.08300
H 	H 	0.93230 0.57940 0.43310 0.03900
C 	C 	0.92720 0.54490 0.48020 -0.02500
H 	H 	0.92480 0.52140 0.46650 0.03000
N 	N 	0.77490 0.54680 0.46870 -0.33400
H 	H 	0.72020 0.59500 0.52570 0.66600
H 	H 	0.73500 0.61180 0.48720 0.67400
H 	H 	0.70550 0.57840 0.48710 0.65900
C 	C 	0.80310 0.52210 0.48060 0.01200
C 	C 	0.85370 0.47710 0.48040 -0.02100
H 	H 	0.87150 0.46140 0.46680 0.04200
H 	H 	0.91360 0.70980 0.52570 0.09000
H 	H 	0.89380 0.69930 0.48720 0.11300
H 	H 	0.93320 0.72020 0.48700 0.03400
H 	H 	0.71150 0.52310 0.52570 0.21100
H 	H 	0.69650 0.53970 0.48720 0.14800
H 	H 	0.72640 0.50660 0.48710 0.17900
H 	H 	0.01120 0.52660 0.46680 0.03200
C 	C 	0.98300 0.57870 0.45980 -0.07600
H 	H 	0.98260 0.57860 0.43250 0.02400
Zn	Zn	0.16200 0.50000 0.17024 1.21000
O 	O 	0.10591 0.50000 0.14786 -0.68300
C 	C 	0.01960 0.50000 0.04740 -0.09900
Zn	Zn	0.66200 0.00000 0.67024 1.21500
O 	O 	0.60591 0.00000 0.64786 -0.67400
C 	C 	0.51960 0.00000 0.54740 -0.01000
Zn	Zn	0.83800 0.50000 0.17024 1.21000
O 	O 	0.89409 0.50000 0.14786 -0.68700
C 	C 	0.98040 0.50000 0.04740 0.02200
Zn	Zn	0.33800 0.00000 0.67024 1.21500
O 	O 	0.39409 0.00000 0.64786 -0.67400
C 	C 	0.48040 0.00000 0.54740 -0.01000
Zn	Zn	0.83800 0.50000 0.82976 1.21000
O 	O 	0.89409 0.50000 0.85214 -0.68800
C 	C 	0.98040 0.50000 0.95260 0.02600
Zn	Zn	0.33800 0.00000 0.32976 1.21500
O 	O 	0.39409 0.00000 0.35214 -0.67400
C 	C 	0.48040 0.00000 0.45260 -0.01000
Zn	Zn	0.16200 0.50000 0.82976 1.21000
O 	O 	0.10591 0.50000 0.85214 -0.68400
C 	C 	0.01960 0.50000 0.95260 -0.09900
Zn	Zn	0.66200 0.00000 0.32976 1.21500
O 	O 	0.60591 0.00000 0.35214 -0.67400
C 	C 	0.51960 0.00000 0.45260 -0.01000
Zn	Zn	0.17024 0.16200 0.50000 1.21000
O 	O 	0.14786 0.10591 0.50000 -0.68300
C 	C 	0.04740 0.01960 0.50000 -0.09900
Zn	Zn	0.67024 0.66200 -0.00000 1.21500
O 	O 	0.64786 0.60591 -0.00000 -0.67400
C 	C 	0.54740 0.51960 -0.00000 -0.01000
Zn	Zn	0.17024 0.83800 0.50000 1.21000
O 	O 	0.14786 0.89409 0.50000 -0.68700
C 	C 	0.04740 0.98040 0.50000 0.02200
Zn	Zn	0.67024 0.33800 -0.00000 1.21500
O 	O 	0.64786 0.39409 -0.00000 -0.67400
C 	C 	0.54740 0.48040 -0.00000 -0.01000
Zn	Zn	0.82976 0.83800 0.50000 1.21000
O 	O 	0.85214 0.89409 0.50000 -0.68800
C 	C 	0.95260 0.98040 0.50000 0.02600
Zn	Zn	0.32976 0.33800 -0.00000 1.21500
O 	O 	0.35214 0.39409 -0.00000 -0.67400
C 	C 	0.45260 0.48040 -0.00000 -0.01000
Zn	Zn	0.82976 0.16200 0.50000 1.21000
O 	O 	0.85214 0.10591 0.50000 -0.68400
C 	C 	0.95260 0.01960 0.50000 -0.09900
Zn	Zn	0.32976 0.66200 -0.00000 1.21500
O 	O 	0.35214 0.60591 -0.00000 -0.67400
C 	C 	0.45260 0.51960 -0.00000 -0.01000
Zn	Zn	0.50000 0.17024 0.16200 1.21000
O 	O 	0.50000 0.14786 0.10591 -0.68300
C 	C 	0.50000 0.04740 0.01960 -0.09900
Zn	Zn	0.00000 0.67024 0.66200 1.21500
O 	O 	0.00000 0.64786 0.60591 -0.67400
C 	C 	0.00000 0.54740 0.51960 -0.01000
Zn	Zn	0.50000 0.17024 0.83800 1.21000
O 	O 	0.50000 0.14786 0.89409 -0.68700
C 	C 	0.50000 0.04740 0.98040 0.02200
Zn	Zn	-0.00000 0.67024 0.33800 1.21500
O 	O 	0.00000 0.64786 0.39409 -0.67400
C 	C 	0.00000 0.54740 0.48040 -0.01000
Zn	Zn	0.50000 0.82976 0.83800 1.21000
O 	O 	0.50000 0.85214 0.89409 -0.68800
C 	C 	0.50000 0.95260 0.98040 0.02600
Zn	Zn	0.00000 0.32976 0.33800 1.21500
O 	O 	0.00000 0.35214 0.39409 -0.67400
C 	C 	0.00000 0.45260 0.48040 -0.01000
Zn	Zn	0.50000 0.82976 0.16200 1.21000
O 	O 	0.50000 0.85214 0.10591 -0.68400
C 	C 	0.50000 0.95260 0.01960 -0.09900
Zn	Zn	0.00000 0.32976 0.66200 1.21500
O 	O 	0.00000 0.35214 0.60591 -0.67400
C 	C 	0.00000 0.45260 0.51960 -0.01000
Zn	Zn	0.15580 0.22999 -0.00000 1.20700
O 	O 	0.09661 0.23689 -0.00000 -0.70100
C 	C 	0.03920 0.32810 -0.00000 -0.16700
H 	H 	0.06650 0.32810 -0.00000 0.06600
Zn	Zn	0.65580 0.72999 0.50000 1.20200
O 	O 	0.59661 0.73689 0.50000 -0.71500
C 	C 	0.53920 0.82810 0.50000 -0.07800
H 	H 	0.56650 0.82810 0.50000 0.03200
Zn	Zn	0.84420 0.77001 -0.00000 1.20700
O 	O 	0.90339 0.76311 -0.00000 -0.70100
C 	C 	0.96080 0.67190 -0.00000 0.08200
H 	H 	0.93350 0.67190 -0.00000 -0.01300
Zn	Zn	0.34420 0.27001 0.50000 1.20200
O 	O 	0.40339 0.26311 0.50000 -0.71600
C 	C 	0.46080 0.17190 0.50000 -0.07700
H 	H 	0.43350 0.17190 0.50000 0.03300
Zn	Zn	0.84420 0.22999 -0.00000 1.20700
O 	O 	0.90339 0.23689 -0.00000 -0.70000
C 	C 	0.96080 0.32810 -0.00000 0.08200
H 	H 	0.93350 0.32810 -0.00000 -0.01300
Zn	Zn	0.34420 0.72999 0.50000 1.20200
O 	O 	0.40339 0.73689 0.50000 -0.71600
C 	C 	0.46080 0.82810 0.50000 -0.07800
H 	H 	0.43350 0.82810 0.50000 0.03200
Zn	Zn	0.15580 0.77001 -0.00000 1.20700
O 	O 	0.09661 0.76311 -0.00000 -0.70100
C 	C 	0.03920 0.67190 -0.00000 -0.16700
H 	H 	0.06650 0.67190 -0.00000 0.06600
Zn	Zn	0.65580 0.27001 0.50000 1.20200
O 	O 	0.59661 0.26311 0.50000 -0.71600
C 	C 	0.53920 0.17190 0.50000 -0.07700
H 	H 	0.56650 0.17190 0.50000 0.03300
Zn	Zn	0.00000 0.15580 0.22999 1.20700
O 	O 	0.00000 0.09661 0.23689 -0.70100
C 	C 	0.00000 0.03920 0.32810 -0.16700
H 	H 	0.00000 0.06650 0.32810 0.06600
Zn	Zn	0.50000 0.65580 0.72999 1.20200
O 	O 	0.50000 0.59661 0.73689 -0.71500
C 	C 	0.50000 0.53920 0.82810 -0.07800
H 	H 	0.50000 0.56650 0.82810 0.03200
Zn	Zn	0.00000 0.84420 0.77001 1.20700
O 	O 	0.00000 0.90339 0.76311 -0.70100
C 	C 	0.00000 0.96080 0.67190 0.08200
H 	H 	-0.00000 0.93350 0.67190 -0.01300
Zn	Zn	0.50000 0.34420 0.27001 1.20200
O 	O 	0.50000 0.40339 0.26311 -0.71600
C 	C 	0.50000 0.46080 0.17190 -0.07700
H 	H 	0.50000 0.43350 0.17190 0.03300
Zn	Zn	0.00000 0.84420 0.22999 1.20700
O 	O 	0.00000 0.90339 0.23689 -0.70000
C 	C 	0.00000 0.96080 0.32810 0.08200
H 	H 	0.00000 0.93350 0.32810 -0.01300
Zn	Zn	0.50000 0.34420 0.72999 1.20200
O 	O 	0.50000 0.40339 0.73689 -0.71600
C 	C 	0.50000 0.46080 0.82810 -0.07800
H 	H 	0.50000 0.43350 0.82810 0.03200
Zn	Zn	0.00000 0.15580 0.77001 1.20700
O 	O 	0.00000 0.09661 0.76311 -0.70100
C 	C 	0.00000 0.03920 0.67190 -0.16700
H 	H 	0.00000 0.06650 0.67190 0.06600
Zn	Zn	0.50000 0.65580 0.27001 1.20200
O 	O 	0.50000 0.59661 0.26311 -0.71600
C 	C 	0.50000 0.53920 0.17190 -0.07700
H 	H 	0.50000 0.56650 0.17190 0.03300
Zn	Zn	0.22999 0.00000 0.15580 1.20700
O 	O 	0.23689 0.00000 0.09661 -0.70100
C 	C 	0.32810 0.00000 0.03920 -0.16700
H 	H 	0.32810 0.00000 0.06650 0.06600
Zn	Zn	0.72999 0.50000 0.65580 1.20200
O 	O 	0.73689 0.50000 0.59661 -0.71500
C 	C 	0.82810 0.50000 0.53920 -0.07800
H 	H 	0.82810 0.50000 0.56650 0.03200
Zn	Zn	0.77001 0.00000 0.84420 1.20700
O 	O 	0.76311 0.00000 0.90339 -0.70100
C 	C 	0.67190 0.00000 0.96080 0.08200
H 	H 	0.67190 0.00000 0.93350 -0.01300
Zn	Zn	0.27001 0.50000 0.34420 1.20200
O 	O 	0.26311 0.50000 0.40339 -0.71600
C 	C 	0.17190 0.50000 0.46080 -0.07700
H 	H 	0.17190 0.50000 0.43350 0.03300
Zn	Zn	0.22999 0.00000 0.84420 1.20700
O 	O 	0.23689 0.00000 0.90339 -0.70000
C 	C 	0.32810 0.00000 0.96080 0.08200
H 	H 	0.32810 0.00000 0.93350 -0.01300
Zn	Zn	0.72999 0.50000 0.34420 1.20200
O 	O 	0.73689 0.50000 0.40339 -0.71600
C 	C 	0.82810 0.50000 0.46080 -0.07800
H 	H 	0.82810 0.50000 0.43350 0.03200
Zn	Zn	0.77001 0.00000 0.15580 1.20700
O 	O 	0.76311 0.00000 0.09661 -0.70100
C 	C 	0.67190 0.00000 0.03920 -0.16700
H 	H 	0.67190 0.00000 0.06650 0.06600
Zn	Zn	0.27001 0.50000 0.65580 1.20200
O 	O 	0.26311 0.50000 0.59661 -0.71600
C 	C 	0.17190 0.50000 0.53920 -0.07700
H 	H 	0.17190 0.50000 0.56650 0.03300
C 	C 	0.00000 0.43820 0.16330 0.11700
C 	C 	0.00000 0.41780 0.20170 -0.57400
C 	C 	-0.00000 0.24860 0.05680 0.39000
C 	C 	0.00000 0.21820 0.02920 -1.12500
C 	C 	0.00000 0.44580 0.16940 0.12000
C 	C 	0.00000 0.45200 0.21060 -0.34300
C 	C 	0.00000 0.25860 0.06120 0.91700
C 	C 	0.00000 0.22700 0.08910 -3.35700
C 	C 	0.50000 0.93820 0.66330 0.13800
C 	C 	0.50000 0.91780 0.70170 -0.64100
C 	C 	0.50000 0.74860 0.55680 0.38900
C 	C 	0.50000 0.71820 0.52920 -1.36700
C 	C 	0.50000 0.94580 0.66940 0.11200
C 	C 	0.50000 0.95200 0.71060 -0.43200
C 	C 	0.50000 0.75860 0.56120 1.08900
C 	C 	0.50000 0.72700 0.58910 -3.87900
C 	C 	0.00000 0.56180 0.16330 0.11700
C 	C 	0.00000 0.58220 0.20170 -0.57400
C 	C 	0.00000 0.75140 0.05680 0.39000
C 	C 	0.00000 0.78180 0.02920 -1.12100
C 	C 	0.00000 0.55420 0.16940 0.12000
C 	C 	0.00000 0.54800 0.21060 -0.34300
C 	C 	0.00000 0.74140 0.06120 0.91400
C 	C 	0.00000 0.77300 0.08910 -3.34900
C 	C 	0.50000 0.06180 0.66330 0.14300
C 	C 	0.50000 0.08220 0.70170 -0.69400
C 	C 	0.50000 0.25140 0.55680 0.38900
C 	C 	0.50000 0.28180 0.52920 -1.36700
C 	C 	0.50000 0.05420 0.66940 0.11600
C 	C 	0.50000 0.04800 0.71060 -0.40100
C 	C 	0.50000 0.24140 0.56120 1.08900
C 	C 	0.50000 0.27300 0.58910 -3.87800
C 	C 	0.00000 0.43820 0.83670 0.11700
C 	C 	0.00000 0.41780 0.79830 -0.57400
C 	C 	0.00000 0.24860 0.94320 0.37800
C 	C 	-0.00000 0.21820 0.97080 -1.26500
C 	C 	0.00000 0.44580 0.83060 0.12000
C 	C 	0.00000 0.45200 0.78940 -0.34300
C 	C 	0.00000 0.25860 0.93880 0.96100
C 	C 	0.00000 0.22700 0.91090 -3.36800
C 	C 	0.50000 0.93820 0.33670 0.13700
C 	C 	0.50000 0.91780 0.29830 -0.64100
C 	C 	0.50000 0.74860 0.44320 0.38900
C 	C 	0.50000 0.71820 0.47080 -1.36700
C 	C 	0.50000 0.94580 0.33060 0.11200
C 	C 	0.50000 0.95200 0.28940 -0.43200
C 	C 	0.50000 0.75860 0.43880 1.08900
C 	C 	0.50000 0.72700 0.41090 -3.87800
C 	C 	0.00000 0.56180 0.83670 0.11700
C 	C 	0.00000 0.58220 0.79830 -0.57400
C 	C 	0.00000 0.75140 0.94320 0.37800
C 	C 	0.00000 0.78180 0.97080 -1.26100
C 	C 	0.00000 0.55420 0.83060 0.12000
C 	C 	0.00000 0.54800 0.78940 -0.34400
C 	C 	-0.00000 0.74140 0.93880 0.95800
C 	C 	0.00000 0.77300 0.91090 -3.35900
C 	C 	0.50000 0.06180 0.33670 0.14300
C 	C 	0.50000 0.08220 0.29830 -0.69300
C 	C 	0.50000 0.25140 0.44320 0.38900
C 	C 	0.50000 0.28180 0.47080 -1.36700
C 	C 	0.50000 0.05420 0.33060 0.11500
C 	C 	0.50000 0.04800 0.28940 -0.40100
C 	C 	0.50000 0.24140 0.43880 1.08800
C 	C 	0.50000 0.27300 0.41090 -3.87700
C 	C 	0.16330 0.00000 0.43820 0.11700
C 	C 	0.20170 0.00000 0.41780 -0.57400
C 	C 	0.05680 0.00000 0.24860 0.39000
C 	C 	0.02920 0.00000 0.21820 -1.12500
C 	C 	0.16940 0.00000 0.44580 0.12000
C 	C 	0.21060 0.00000 0.45200 -0.34300
C 	C 	0.06120 0.00000 0.25860 0.91700
C 	C 	0.08910 0.00000 0.22700 -3.35700
C 	C 	0.66330 0.50000 0.93820 0.13800
C 	C 	0.70170 0.50000 0.91780 -0.64100
C 	C 	0.55680 0.50000 0.74860 0.38900
C 	C 	0.52920 0.50000 0.71820 -1.36700
C 	C 	0.66940 0.50000 0.94580 0.11200
C 	C 	0.71060 0.50000 0.95200 -0.43200
C 	C 	0.56120 0.50000 0.75860 1.08900
C 	C 	0.58910 0.50000 0.72700 -3.87900
C 	C 	0.16330 0.00000 0.56180 0.11700
C 	C 	0.20170 0.00000 0.58220 -0.57400
C 	C 	0.05680 0.00000 0.75140 0.39000
C 	C 	0.02920 0.00000 0.78180 -1.12100
C 	C 	0.16940 0.00000 0.55420 0.12000
C 	C 	0.21060 0.00000 0.54800 -0.34300
C 	C 	0.06120 0.00000 0.74140 0.91400
C 	C 	0.08910 0.00000 0.77300 -3.34900
C 	C 	0.66330 0.50000 0.06180 0.14300
C 	C 	0.70170 0.50000 0.08220 -0.69400
C 	C 	0.55680 0.50000 0.25140 0.38900
C 	C 	0.52920 0.50000 0.28180 -1.36700
C 	C 	0.66940 0.50000 0.05420 0.11600
C 	C 	0.71060 0.50000 0.04800 -0.40100
C 	C 	0.56120 0.50000 0.24140 1.08900
C 	C 	0.58910 0.50000 0.27300 -3.87800
C 	C 	0.83670 0.00000 0.43820 0.11700
C 	C 	0.79830 0.00000 0.41780 -0.57400
C 	C 	0.94320 0.00000 0.24860 0.37800
C 	C 	0.97080 0.00000 0.21820 -1.26500
C 	C 	0.83060 0.00000 0.44580 0.12000
C 	C 	0.78940 0.00000 0.45200 -0.34300
C 	C 	0.93880 0.00000 0.25860 0.96100
C 	C 	0.91090 0.00000 0.22700 -3.36800
C 	C 	0.33670 0.50000 0.93820 0.13700
C 	C 	0.29830 0.50000 0.91780 -0.64100
C 	C 	0.44320 0.50000 0.74860 0.38900
C 	C 	0.47080 0.50000 0.71820 -1.36700
C 	C 	0.33060 0.50000 0.94580 0.11200
C 	C 	0.28940 0.50000 0.95200 -0.43200
C 	C 	0.43880 0.50000 0.75860 1.08900
C 	C 	0.41090 0.50000 0.72700 -3.87800
C 	C 	0.83670 0.00000 0.56180 0.11700
C 	C 	0.79830 0.00000 0.58220 -0.57400
C 	C 	0.94320 0.00000 0.75140 0.37800
C 	C 	0.97080 0.00000 0.78180 -1.26100
C 	C 	0.83060 0.00000 0.55420 0.12000
C 	C 	0.78940 0.00000 0.54800 -0.34400
C 	C 	0.93880 0.00000 0.74140 0.95800
C 	C 	0.91090 0.00000 0.77300 -3.35900
C 	C 	0.33670 0.50000 0.06180 0.14300
C 	C 	0.29830 0.50000 0.08220 -0.69300
C 	C 	0.44320 0.50000 0.25140 0.38900
C 	C 	0.47080 0.50000 0.28180 -1.36700
C 	C 	0.33060 0.50000 0.05420 0.11500
C 	C 	0.28940 0.50000 0.04800 -0.40100
C 	C 	0.43880 0.50000 0.24140 1.08800
C 	C 	0.41090 0.50000 0.27300 -3.87700
C 	C 	0.43820 0.16330 -0.00000 0.11700
C 	C 	0.41780 0.20170 -0.00000 -0.57400
C 	C 	0.24860 0.05680 -0.00000 0.39000
C 	C 	0.21820 0.02920 -0.00000 -1.12500
C 	C 	0.44580 0.16940 -0.00000 0.12000
C 	C 	0.45200 0.21060 -0.00000 -0.34300
C 	C 	0.25860 0.06120 -0.00000 0.91700
C 	C 	0.22700 0.08910 -0.00000 -3.35700
C 	C 	0.93820 0.66330 0.50000 0.13800
C 	C 	0.91780 0.70170 0.50000 -0.64100
C 	C 	0.74860 0.55680 0.50000 0.38900
C 	C 	0.71820 0.52920 0.50000 -1.36700
C 	C 	0.94580 0.66940 0.50000 0.11200
C 	C 	0.95200 0.71060 0.50000 -0.43200
C 	C 	0.75860 0.56120 0.50000 1.08900
C 	C 	0.72700 0.58910 0.50000 -3.87900
C 	C 	0.56180 0.16330 -0.00000 0.11700
C 	C 	0.58220 0.20170 -0.00000 -0.57400
C 	C 	0.75140 0.05680 -0.00000 0.39000
C 	C 	0.78180 0.02920 -0.00000 -1.12100
C 	C 	0.55420 0.16940 -0.00000 0.12000
C 	C 	0.54800 0.21060 -0.00000 -0.34300
C 	C 	0.74140 0.06120 -0.00000 0.91400
C 	C 	0.77300 0.08910 -0.00000 -3.34900
C 	C 	0.06180 0.66330 0.50000 0.14300
C 	C 	0.08220 0.70170 0.50000 -0.69400
C 	C 	0.25140 0.55680 0.50000 0.38900
C 	C 	0.28180 0.52920 0.50000 -1.36700
C 	C 	0.05420 0.66940 0.50000 0.11600
C 	C 	0.04800 0.71060 0.50000 -0.40100
C 	C 	0.24140 0.56120 0.50000 1.08900
C 	C 	0.27300 0.58910 0.50000 -3.87800
C 	C 	0.43820 0.83670 -0.00000 0.11700
C 	C 	0.41780 0.79830 -0.00000 -0.57400
C 	C 	0.24860 0.94320 -0.00000 0.37800
C 	C 	0.21820 0.97080 -0.00000 -1.26500
C 	C 	0.44580 0.83060 -0.00000 0.12000
C 	C 	0.45200 0.78940 -0.00000 -0.34300
C 	C 	0.25860 0.93880 -0.00000 0.96100
C 	C 	0.22700 0.91090 -0.00000 -3.36800
C 	C 	0.93820 0.33670 0.50000 0.13700
C 	C 	0.91780 0.29830 0.50000 -0.64100
C 	C 	0.74860 0.44320 0.50000 0.38900
C 	C 	0.71820 0.47080 0.50000 -1.36700
C 	C 	0.94580 0.33060 0.50000 0.11200
C 	C 	0.95200 0.28940 0.50000 -0.43200
C 	C 	0.75860 0.43880 0.50000 1.08900
C 	C 	0.72700 0.41090 0.50000 -3.87800
C 	C 	0.56180 0.83670 -0.00000 0.11700
C 	C 	0.58220 0.79830 -0.00000 -0.57400
C 	C 	0.75140 0.94320 -0.00000 0.37800
C 	C 	0.78180 0.97080 -0.00000 -1.26100
C 	C 	0.55420 0.83060 -0.00000 0.12000
C 	C 	0.54800 0.78940 -0.00000 -0.34400
C 	C 	0.74140 0.93880 -0.00000 0.95800
C 	C 	0.77300 0.91090 -0.00000 -3.35900
C 	C 	0.06180 0.33670 0.50000 0.14300
C 	C 	0.08220 0.29830 0.50000 -0.69300
C 	C 	0.25140 0.44320 0.50000 0.38900
C 	C 	0.28180 0.47080 0.50000 -1.36700
C 	C 	0.05420 0.33060 0.50000 0.11500
C 	C 	0.04800 0.28940 0.50000 -0.40100
C 	C 	0.24140 0.43880 0.50000 1.08800
C 	C 	0.27300 0.41090 0.50000 -3.87700
