data_crystal

_cell_length_a 26.11740
_cell_length_b 26.11740
_cell_length_c 19.49100
_cell_angle_alpha 90.00000
_cell_angle_beta  90.00000
_cell_angle_gamma 120.00000

_symmetry_space_group_name_	'P 1'
_symmetry_space_group_name_H-M	'P 1'

loop_
_symmetry_equiv_pos_as_xyz
  x,y,z

loop_
_atom_site_label
_atom_site_type_symbol
_atom_site_fract_x
_atom_site_fract_y
_atom_site_fract_z
_atom_site_charge
Zn	Zn	0.43551 0.33203 0.59613 1.20000
C 	C 	0.35820 0.32500 0.71200 0.02100
H 	H 	0.32920 0.32580 0.68310 0.03000
N 	N 	0.40670 0.32380 0.69150 -0.27300
O 	O 	0.50810 0.32210 0.69480 -0.16000
C 	C 	0.55860 0.37770 0.53640 0.05300
H 	H 	0.55040 0.33990 0.52090 0.01700
N 	N 	0.51820 0.39540 0.56660 -0.05100
C 	C 	0.54940 0.39850 0.52800 -0.13100
H 	H 	0.57570 0.41750 0.49070 0.05000
N 	N 	0.50920 0.40910 0.59170 -0.29300
O 	O 	0.54860 0.53320 0.62260 -0.09800
O 	O 	0.55780 0.52570 0.67730 -0.07400
N 	N 	0.43170 0.26028 0.56140 -0.27700
C 	C 	0.42930 0.24120 0.49690 0.04400
C 	C 	0.42770 0.26870 0.43480 0.00600
H 	H 	0.42760 0.30500 0.43430 0.03100
C 	C 	0.42620 0.23980 0.37590 -0.17000
H 	H 	0.42520 0.25670 0.33310 0.44500
N 	N 	0.44000 0.27700 0.31300 -0.37800
O 	O 	0.42920 0.31440 0.30990 -0.01800
N 	N 	0.37600 0.33880 0.54020 -0.27500
C 	C 	0.32010 0.29710 0.52550 0.04700
C 	C 	0.28610 0.23890 0.55230 -0.03000
H 	H 	0.30010 0.22310 0.58660 0.04000
C 	C 	0.22960 0.20730 0.52270 -0.11300
H 	H 	0.20530 0.16720 0.53580 0.31100
N 	N 	0.19700 0.14180 0.55310 -0.23500
O 	O 	0.14340 0.11550 0.51360 -0.03600
Zn	Zn	0.66797 0.10348 0.59613 1.19900
C 	C 	0.67500 0.03320 0.71200 0.02000
H 	H 	0.67420 0.00340 0.68310 0.02800
N 	N 	0.67620 0.08290 0.69150 -0.27400
O 	O 	0.67790 0.18600 0.69480 -0.16100
C 	C 	0.62230 0.18090 0.53640 0.05200
H 	H 	0.66010 0.21050 0.52090 0.01600
N 	N 	0.60460 0.12280 0.56660 -0.05200
C 	C 	0.60150 0.15090 0.52800 -0.13100
H 	H 	0.58250 0.15820 0.49070 0.04900
N 	N 	0.59090 0.10010 0.59170 -0.29400
O 	O 	0.46680 0.01540 0.62260 -0.10000
O 	O 	0.47430 0.03210 0.67730 -0.07500
N 	N 	0.73972 0.17142 0.56140 -0.27800
C 	C 	0.75880 0.18810 0.49690 0.04100
C 	C 	0.73130 0.15900 0.43480 0.01100
H 	H 	0.69500 0.12260 0.43430 0.02700
C 	C 	0.76020 0.18640 0.37590 -0.18000
H 	H 	0.74330 0.16850 0.33310 0.45000
N 	N 	0.72300 0.16300 0.31300 -0.38300
O 	O 	0.68560 0.11480 0.30990 -0.01800
N 	N 	0.66120 0.03720 0.54020 -0.27200
C 	C 	0.70290 0.02300 0.52550 0.03100
C 	C 	0.76110 0.04720 0.55230 -0.00300
H 	H 	0.77690 0.07700 0.58660 0.03100
C 	C 	0.79270 0.02230 0.52270 -0.16000
H 	H 	0.83280 0.03810 0.53580 0.33800
N 	N 	0.85820 0.05520 0.55310 -0.25000
O 	O 	0.88450 0.02790 0.51360 -0.03700
Zn	Zn	0.89652 0.56449 0.59613 1.19900
C 	C 	0.96680 0.64180 0.71200 0.02000
H 	H 	0.99660 0.67080 0.68310 0.03000
N 	N 	0.91710 0.59330 0.69150 -0.27400
O 	O 	0.81400 0.49190 0.69480 -0.16200
C 	C 	0.81910 0.44140 0.53640 0.05300
H 	H 	0.78950 0.44960 0.52090 0.01600
N 	N 	0.87720 0.48180 0.56660 -0.05200
C 	C 	0.84910 0.45060 0.52800 -0.13200
H 	H 	0.84180 0.42430 0.49070 0.04900
N 	N 	0.89990 0.49080 0.59170 -0.29500
O 	O 	0.98460 0.45140 0.62260 -0.09800
O 	O 	0.96790 0.44220 0.67730 -0.07500
N 	N 	0.82858 0.56830 0.56140 -0.27800
C 	C 	0.81190 0.57070 0.49690 0.04300
C 	C 	0.84100 0.57230 0.43480 0.00600
H 	H 	0.87740 0.57240 0.43430 0.02900
C 	C 	0.81360 0.57380 0.37590 -0.17300
H 	H 	0.83150 0.57480 0.33310 0.44600
N 	N 	0.83700 0.56000 0.31300 -0.38000
O 	O 	0.88520 0.57080 0.30990 -0.01700
N 	N 	0.96280 0.62400 0.54020 -0.27500
C 	C 	0.97700 0.67990 0.52550 0.05600
C 	C 	0.95280 0.71390 0.55230 -0.04400
H 	H 	0.92300 0.69990 0.58660 0.04400
C 	C 	0.97770 0.77040 0.52270 -0.08900
H 	H 	0.96190 0.79470 0.53580 0.29700
N 	N 	0.94480 0.80300 0.55310 -0.22700
O 	O 	0.97210 0.85660 0.51360 -0.03400
Zn	Zn	0.56449 0.66797 0.09613 1.19900
C 	C 	0.64180 0.67500 0.21200 0.02000
H 	H 	0.67080 0.67420 0.18310 0.02900
N 	N 	0.59330 0.67620 0.19150 -0.27400
O 	O 	0.49190 0.67790 0.19480 -0.16100
C 	C 	0.44140 0.62230 0.03640 0.04300
H 	H 	0.44960 0.66010 0.02090 0.01800
N 	N 	0.48180 0.60460 0.06660 -0.05600
C 	C 	0.45060 0.60150 0.02800 -0.12400
H 	H 	0.42430 0.58250 0.99070 0.04900
N 	N 	0.49080 0.59090 0.09170 -0.29200
O 	O 	0.45140 0.46680 0.12260 -0.09900
O 	O 	0.44220 0.47430 0.17730 -0.07500
N 	N 	0.56830 0.73972 0.06140 -0.28000
C 	C 	0.57070 0.75880 0.99690 0.04500
C 	C 	0.57230 0.73130 0.93480 0.00600
H 	H 	0.57240 0.69500 0.93430 0.03000
C 	C 	0.57380 0.76020 0.87590 -0.17300
H 	H 	0.57480 0.74330 0.83310 0.44600
N 	N 	0.56000 0.72300 0.81300 -0.38000
O 	O 	0.57080 0.68560 0.80990 -0.01700
N 	N 	0.62400 0.66120 0.04020 -0.27200
C 	C 	0.67990 0.70290 0.02550 0.03300
C 	C 	0.71390 0.76110 0.05230 -0.00600
H 	H 	0.69990 0.77690 0.08660 0.03200
C 	C 	0.77040 0.79270 0.02270 -0.15500
H 	H 	0.79470 0.83280 0.03580 0.33500
N 	N 	0.80300 0.85820 0.05310 -0.24800
O 	O 	0.85660 0.88450 0.01360 -0.03600
Zn	Zn	0.33203 0.89652 0.09613 1.19900
C 	C 	0.32500 0.96680 0.21200 0.02100
H 	H 	0.32580 0.99660 0.18310 0.03000
N 	N 	0.32380 0.91710 0.19150 -0.27400
O 	O 	0.32210 0.81400 0.19480 -0.16100
C 	C 	0.37770 0.81910 0.03640 0.04400
H 	H 	0.33990 0.78950 0.02090 0.01800
N 	N 	0.39540 0.87720 0.06660 -0.05500
C 	C 	0.39850 0.84910 0.02800 -0.12500
H 	H 	0.41750 0.84180 0.99070 0.05000
N 	N 	0.40910 0.89990 0.09170 -0.29200
O 	O 	0.53320 0.98460 0.12260 -0.09800
O 	O 	0.52570 0.96790 0.17730 -0.07500
N 	N 	0.26028 0.82858 0.06140 -0.28000
C 	C 	0.24120 0.81190 0.99690 0.04600
C 	C 	0.26870 0.84100 0.93480 0.00500
H 	H 	0.30500 0.87740 0.93430 0.03100
C 	C 	0.23980 0.81360 0.87590 -0.17100
H 	H 	0.25670 0.83150 0.83310 0.44400
N 	N 	0.27700 0.83700 0.81300 -0.37900
O 	O 	0.31440 0.88520 0.80990 -0.01600
N 	N 	0.33880 0.96280 0.04020 -0.27300
C 	C 	0.29710 0.97700 0.02550 0.04700
C 	C 	0.23890 0.95280 0.05230 -0.03000
H 	H 	0.22310 0.92300 0.08660 0.04000
C 	C 	0.20730 0.97770 0.02270 -0.11400
H 	H 	0.16720 0.96190 0.03580 0.31100
N 	N 	0.14180 0.94480 0.05310 -0.23500
O 	O 	0.11550 0.97210 0.01360 -0.03500
Zn	Zn	0.10348 0.43551 0.09613 1.19900
C 	C 	0.03320 0.35820 0.21200 0.02000
H 	H 	0.00340 0.32920 0.18310 0.02900
N 	N 	0.08290 0.40670 0.19150 -0.27400
O 	O 	0.18600 0.50810 0.19480 -0.16100
C 	C 	0.18090 0.55860 0.03640 0.04300
H 	H 	0.21050 0.55040 0.02090 0.01800
N 	N 	0.12280 0.51820 0.06660 -0.05600
C 	C 	0.15090 0.54940 0.02800 -0.12400
H 	H 	0.15820 0.57570 0.99070 0.04900
N 	N 	0.10010 0.50920 0.09170 -0.29200
O 	O 	0.01540 0.54860 0.12260 -0.10000
O 	O 	0.03210 0.55780 0.17730 -0.07500
N 	N 	0.17142 0.43170 0.06140 -0.28000
C 	C 	0.18810 0.42930 0.99690 0.04400
C 	C 	0.15900 0.42770 0.93480 0.00900
H 	H 	0.12260 0.42760 0.93430 0.02900
C 	C 	0.18640 0.42620 0.87590 -0.17800
H 	H 	0.16850 0.42520 0.83310 0.44900
N 	N 	0.16300 0.44000 0.81300 -0.38200
O 	O 	0.11480 0.42920 0.80990 -0.01700
N 	N 	0.03720 0.37600 0.04020 -0.27100
C 	C 	0.02300 0.32010 0.02550 0.02500
C 	C 	0.04720 0.28610 0.05230 0.00700
H 	H 	0.07700 0.30010 0.08660 0.02700
C 	C 	0.02230 0.22960 0.02270 -0.17700
H 	H 	0.03810 0.20530 0.03580 0.34800
N 	N 	0.05520 0.19700 0.05310 -0.25500
O 	O 	0.02790 0.14340 0.01360 -0.03800
Zn	Zn	0.33203 0.43551 0.40387 1.19900
C 	C 	0.32500 0.35820 0.28800 0.02000
H 	H 	0.32580 0.32920 0.31690 0.02900
N 	N 	0.32380 0.40670 0.30850 -0.27400
O 	O 	0.32210 0.50810 0.30520 -0.16100
C 	C 	0.37770 0.55860 0.46360 0.05200
H 	H 	0.33990 0.55040 0.47910 0.01600
N 	N 	0.39540 0.51820 0.43340 -0.05200
C 	C 	0.39850 0.54940 0.47200 -0.13200
H 	H 	0.41750 0.57570 0.50930 0.04900
N 	N 	0.40910 0.50920 0.40830 -0.29400
O 	O 	0.53320 0.54860 0.37740 -0.09900
O 	O 	0.52570 0.55780 0.32270 -0.07500
N 	N 	0.26028 0.43170 0.43860 -0.27800
C 	C 	0.24120 0.42930 0.50310 0.04300
C 	C 	0.26870 0.42770 0.56520 0.00700
H 	H 	0.30500 0.42760 0.56570 0.02900
C 	C 	0.23980 0.42620 0.62410 -0.17400
H 	H 	0.25670 0.42520 0.66690 0.44600
N 	N 	0.27700 0.44000 0.68700 -0.38000
O 	O 	0.31440 0.42920 0.69010 -0.01700
N 	N 	0.33880 0.37600 0.45980 -0.27500
C 	C 	0.29710 0.32010 0.47450 0.04700
C 	C 	0.23890 0.28610 0.44770 -0.03000
H 	H 	0.22310 0.30010 0.41340 0.04000
C 	C 	0.20730 0.22960 0.47730 -0.11300
H 	H 	0.16720 0.20530 0.46420 0.31100
N 	N 	0.14180 0.19700 0.44690 -0.23500
O 	O 	0.11550 0.14340 0.48640 -0.03600
Zn	Zn	0.10348 0.66797 0.40387 1.19900
C 	C 	0.03320 0.67500 0.28800 0.02000
H 	H 	0.00340 0.67420 0.31690 0.02900
N 	N 	0.08290 0.67620 0.30850 -0.27400
O 	O 	0.18600 0.67790 0.30520 -0.16100
C 	C 	0.18090 0.62230 0.46360 0.05200
H 	H 	0.21050 0.66010 0.47910 0.01600
N 	N 	0.12280 0.60460 0.43340 -0.05200
C 	C 	0.15090 0.60150 0.47200 -0.13200
H 	H 	0.15820 0.58250 0.50930 0.04900
N 	N 	0.10010 0.59090 0.40830 -0.29400
O 	O 	0.01540 0.46680 0.37740 -0.09900
O 	O 	0.03210 0.47430 0.32270 -0.07500
N 	N 	0.17142 0.73972 0.43860 -0.27800
C 	C 	0.18810 0.75880 0.50310 0.04100
C 	C 	0.15900 0.73130 0.56520 0.01000
H 	H 	0.12260 0.69500 0.56570 0.02800
C 	C 	0.18640 0.76020 0.62410 -0.18000
H 	H 	0.16850 0.74330 0.66690 0.45000
N 	N 	0.16300 0.72300 0.68700 -0.38300
O 	O 	0.11480 0.68560 0.69010 -0.01700
N 	N 	0.03720 0.66120 0.45980 -0.27300
C 	C 	0.02300 0.70290 0.47450 0.03900
C 	C 	0.04720 0.76110 0.44770 -0.01600
H 	H 	0.07700 0.77690 0.41340 0.03500
C 	C 	0.02230 0.79270 0.47730 -0.13700
H 	H 	0.03810 0.83280 0.46420 0.32500
N 	N 	0.05520 0.85820 0.44690 -0.24300
O 	O 	0.02790 0.88450 0.48640 -0.03600
Zn	Zn	0.56449 0.89652 0.40387 1.19900
C 	C 	0.64180 0.96680 0.28800 0.02000
H 	H 	0.67080 0.99660 0.31690 0.03000
N 	N 	0.59330 0.91710 0.30850 -0.27400
O 	O 	0.49190 0.81400 0.30520 -0.16100
C 	C 	0.44140 0.81910 0.46360 0.05300
H 	H 	0.44960 0.78950 0.47910 0.01600
N 	N 	0.48180 0.87720 0.43340 -0.05200
C 	C 	0.45060 0.84910 0.47200 -0.13200
H 	H 	0.42430 0.84180 0.50930 0.05000
N 	N 	0.49080 0.89990 0.40830 -0.29500
O 	O 	0.45140 0.98460 0.37740 -0.09700
O 	O 	0.44220 0.96790 0.32270 -0.07500
N 	N 	0.56830 0.82858 0.43860 -0.27800
C 	C 	0.57070 0.81190 0.50310 0.04400
C 	C 	0.57230 0.84100 0.56520 0.00500
H 	H 	0.57240 0.87740 0.56570 0.03000
C 	C 	0.57380 0.81360 0.62410 -0.17000
H 	H 	0.57480 0.83150 0.66690 0.44400
N 	N 	0.56000 0.83700 0.68700 -0.37900
O 	O 	0.57080 0.88520 0.69010 -0.01600
N 	N 	0.62400 0.96280 0.45980 -0.27600
C 	C 	0.67990 0.97700 0.47450 0.06300
C 	C 	0.71390 0.95280 0.44770 -0.05700
H 	H 	0.69990 0.92300 0.41340 0.04900
C 	C 	0.77040 0.97770 0.47730 -0.06600
H 	H 	0.79470 0.96190 0.46420 0.28400
N 	N 	0.80300 0.94480 0.44690 -0.21900
O 	O 	0.85660 0.97210 0.48640 -0.03300
Zn	Zn	0.66797 0.56449 0.90387 1.20000
C 	C 	0.67500 0.64180 0.78800 0.02000
H 	H 	0.67420 0.67080 0.81690 0.02900
N 	N 	0.67620 0.59330 0.80850 -0.27400
O 	O 	0.67790 0.49190 0.80520 -0.16200
C 	C 	0.62230 0.44140 0.96360 0.06300
H 	H 	0.66010 0.44960 0.97910 0.01400
N 	N 	0.60460 0.48180 0.93340 -0.04800
C 	C 	0.60150 0.45060 0.97200 -0.14100
H 	H 	0.58250 0.42430 0.00930 0.04900
N 	N 	0.59090 0.49080 0.90830 -0.29800
O 	O 	0.46680 0.45140 0.87740 -0.09800
O 	O 	0.47430 0.44220 0.82270 -0.07500
N 	N 	0.73972 0.56830 0.93860 -0.27700
C 	C 	0.75880 0.57070 0.00310 0.04000
C 	C 	0.73130 0.57230 0.06520 0.00800
H 	H 	0.69500 0.57240 0.06570 0.02800
C 	C 	0.76020 0.57380 0.12410 -0.17500
H 	H 	0.74330 0.57480 0.16690 0.44700
N 	N 	0.72300 0.56000 0.18700 -0.38100
O 	O 	0.68560 0.57080 0.19010 -0.01700
N 	N 	0.66120 0.62400 0.95980 -0.27500
C 	C 	0.70290 0.67990 0.97450 0.06200
C 	C 	0.76110 0.71390 0.94770 -0.05400
H 	H 	0.77690 0.69990 0.91340 0.04800
C 	C 	0.79270 0.77040 0.97730 -0.07100
H 	H 	0.83280 0.79470 0.96420 0.28700
N 	N 	0.85820 0.80300 0.94690 -0.22100
O 	O 	0.88450 0.85660 0.98640 -0.03400
Zn	Zn	0.89652 0.33203 0.90387 1.20000
C 	C 	0.96680 0.32500 0.78800 0.02000
H 	H 	0.99660 0.32580 0.81690 0.03000
N 	N 	0.91710 0.32380 0.80850 -0.27400
O 	O 	0.81400 0.32210 0.80520 -0.16200
C 	C 	0.81910 0.37770 0.96360 0.06300
H 	H 	0.78950 0.33990 0.97910 0.01300
N 	N 	0.87720 0.39540 0.93340 -0.04800
C 	C 	0.84910 0.39850 0.97200 -0.14100
H 	H 	0.84180 0.41750 0.00930 0.04900
N 	N 	0.89990 0.40910 0.90830 -0.29800
O 	O 	0.98460 0.53320 0.87740 -0.09700
O 	O 	0.96790 0.52570 0.82270 -0.07500
N 	N 	0.82858 0.26028 0.93860 -0.27700
C 	C 	0.81190 0.24120 0.00310 0.04100
C 	C 	0.84100 0.26870 0.06520 0.00400
H 	H 	0.87740 0.30500 0.06570 0.03000
C 	C 	0.81360 0.23980 0.12410 -0.16800
H 	H 	0.83150 0.25670 0.16690 0.44200
N 	N 	0.83700 0.27700 0.18700 -0.37700
O 	O 	0.88520 0.31440 0.19010 -0.01700
N 	N 	0.96280 0.33880 0.95980 -0.27500
C 	C 	0.97700 0.29710 0.97450 0.06900
C 	C 	0.95280 0.23890 0.94770 -0.06600
H 	H 	0.92300 0.22310 0.91340 0.05200
C 	C 	0.97770 0.20730 0.97730 -0.05000
H 	H 	0.96190 0.16720 0.96420 0.27400
N 	N 	0.94480 0.14180 0.94690 -0.21400
O 	O 	0.97210 0.11550 0.98640 -0.03300
Zn	Zn	0.43551 0.10348 0.90387 1.20000
C 	C 	0.35820 0.03320 0.78800 0.02000
H 	H 	0.32920 0.00340 0.81690 0.02900
N 	N 	0.40670 0.08290 0.80850 -0.27400
O 	O 	0.50810 0.18600 0.80520 -0.16200
C 	C 	0.55860 0.18090 0.96360 0.06300
H 	H 	0.55040 0.21050 0.97910 0.01400
N 	N 	0.51820 0.12280 0.93340 -0.04800
C 	C 	0.54940 0.15090 0.97200 -0.14100
H 	H 	0.57570 0.15820 0.00930 0.04900
N 	N 	0.50920 0.10010 0.90830 -0.29800
O 	O 	0.54860 0.01540 0.87740 -0.09800
O 	O 	0.55780 0.03210 0.82270 -0.07500
N 	N 	0.43170 0.17142 0.93860 -0.27600
C 	C 	0.42930 0.18810 0.00310 0.03700
C 	C 	0.42770 0.15900 0.06520 0.01200
H 	H 	0.42760 0.12260 0.06570 0.02600
C 	C 	0.42620 0.18640 0.12410 -0.18200
H 	H 	0.42520 0.16850 0.16690 0.45100
N 	N 	0.44000 0.16300 0.18700 -0.38400
O 	O 	0.42920 0.11480 0.19010 -0.01800
N 	N 	0.37600 0.03720 0.95980 -0.27200
C 	C 	0.32010 0.02300 0.97450 0.04800
C 	C 	0.28610 0.04720 0.94770 -0.03000
H 	H 	0.30010 0.07700 0.91340 0.04000
C 	C 	0.22960 0.02230 0.97730 -0.11200
H 	H 	0.20530 0.03810 0.96420 0.31100
N 	N 	0.19700 0.05520 0.94690 -0.23500
O 	O 	0.14340 0.02790 0.98640 -0.03600
Zn	Zn	0.56449 0.66797 0.40387 1.19900
C 	C 	0.64180 0.67500 0.28800 0.02000
H 	H 	0.67080 0.67420 0.31690 0.02900
N 	N 	0.59330 0.67620 0.30850 -0.27400
O 	O 	0.49190 0.67790 0.30520 -0.16100
C 	C 	0.44140 0.62230 0.46360 0.05200
H 	H 	0.44960 0.66010 0.47910 0.01600
N 	N 	0.48180 0.60460 0.43340 -0.05200
C 	C 	0.45060 0.60150 0.47200 -0.13200
H 	H 	0.42430 0.58250 0.50930 0.04900
N 	N 	0.49080 0.59090 0.40830 -0.29400
O 	O 	0.45140 0.46680 0.37740 -0.09900
O 	O 	0.44220 0.47430 0.32270 -0.07500
N 	N 	0.56830 0.73972 0.43860 -0.27800
C 	C 	0.57070 0.75880 0.50310 0.04100
C 	C 	0.57230 0.73130 0.56520 0.01000
H 	H 	0.57240 0.69500 0.56570 0.02800
C 	C 	0.57380 0.76020 0.62410 -0.17900
H 	H 	0.57480 0.74330 0.66690 0.45000
N 	N 	0.56000 0.72300 0.68700 -0.38300
O 	O 	0.57080 0.68560 0.69010 -0.01600
N 	N 	0.62400 0.66120 0.45980 -0.27500
C 	C 	0.67990 0.70290 0.47450 0.04700
C 	C 	0.71390 0.76110 0.44770 -0.03000
H 	H 	0.69990 0.77690 0.41340 0.04000
C 	C 	0.77040 0.79270 0.47730 -0.11300
H 	H 	0.79470 0.83280 0.46420 0.31100
N 	N 	0.80300 0.85820 0.44690 -0.23500
O 	O 	0.85660 0.88450 0.48640 -0.03500
Zn	Zn	0.33203 0.89652 0.40387 1.19900
C 	C 	0.32500 0.96680 0.28800 0.02000
H 	H 	0.32580 0.99660 0.31690 0.03000
N 	N 	0.32380 0.91710 0.30850 -0.27400
O 	O 	0.32210 0.81400 0.30520 -0.16100
C 	C 	0.37770 0.81910 0.46360 0.05300
H 	H 	0.33990 0.78950 0.47910 0.01600
N 	N 	0.39540 0.87720 0.43340 -0.05200
C 	C 	0.39850 0.84910 0.47200 -0.13200
H 	H 	0.41750 0.84180 0.50930 0.05000
N 	N 	0.40910 0.89990 0.40830 -0.29500
O 	O 	0.53320 0.98460 0.37740 -0.09700
O 	O 	0.52570 0.96790 0.32270 -0.07500
N 	N 	0.26028 0.82858 0.43860 -0.27800
C 	C 	0.24120 0.81190 0.50310 0.04400
C 	C 	0.26870 0.84100 0.56520 0.00400
H 	H 	0.30500 0.87740 0.56570 0.03000
C 	C 	0.23980 0.81360 0.62410 -0.16900
H 	H 	0.25670 0.83150 0.66690 0.44300
N 	N 	0.27700 0.83700 0.68700 -0.37800
O 	O 	0.31440 0.88520 0.69010 -0.01600
N 	N 	0.33880 0.96280 0.45980 -0.27500
C 	C 	0.29710 0.97700 0.47450 0.06200
C 	C 	0.23890 0.95280 0.44770 -0.05400
H 	H 	0.22310 0.92300 0.41340 0.04800
C 	C 	0.20730 0.97770 0.47730 -0.07200
H 	H 	0.16720 0.96190 0.46420 0.28700
N 	N 	0.14180 0.94480 0.44690 -0.22100
O 	O 	0.11550 0.97210 0.48640 -0.03400
Zn	Zn	0.10348 0.43551 0.40387 1.19900
C 	C 	0.03320 0.35820 0.28800 0.02000
H 	H 	0.00340 0.32920 0.31690 0.02900
N 	N 	0.08290 0.40670 0.30850 -0.27400
O 	O 	0.18600 0.50810 0.30520 -0.16100
C 	C 	0.18090 0.55860 0.46360 0.05200
H 	H 	0.21050 0.55040 0.47910 0.01600
N 	N 	0.12280 0.51820 0.43340 -0.05200
C 	C 	0.15090 0.54940 0.47200 -0.13200
H 	H 	0.15820 0.57570 0.50930 0.04900
N 	N 	0.10010 0.50920 0.40830 -0.29400
O 	O 	0.01540 0.54860 0.37740 -0.09900
O 	O 	0.03210 0.55780 0.32270 -0.07500
N 	N 	0.17142 0.43170 0.43860 -0.27800
C 	C 	0.18810 0.42930 0.50310 0.04200
C 	C 	0.15900 0.42770 0.56520 0.00800
H 	H 	0.12260 0.42760 0.56570 0.02900
C 	C 	0.18640 0.42620 0.62410 -0.17500
H 	H 	0.16850 0.42520 0.66690 0.44700
N 	N 	0.16300 0.44000 0.68700 -0.38100
O 	O 	0.11480 0.42920 0.69010 -0.01700
N 	N 	0.03720 0.37600 0.45980 -0.27400
C 	C 	0.02300 0.32010 0.47450 0.04100
C 	C 	0.04720 0.28610 0.44770 -0.01900
H 	H 	0.07700 0.30010 0.41340 0.03600
C 	C 	0.02230 0.22960 0.47730 -0.13200
H 	H 	0.03810 0.20530 0.46420 0.32200
N 	N 	0.05520 0.19700 0.44690 -0.24100
O 	O 	0.02790 0.14340 0.48640 -0.03700
Zn	Zn	0.43551 0.33203 0.90387 1.20000
C 	C 	0.35820 0.32500 0.78800 0.02000
H 	H 	0.32920 0.32580 0.81690 0.02900
N 	N 	0.40670 0.32380 0.80850 -0.27400
O 	O 	0.50810 0.32210 0.80520 -0.16200
C 	C 	0.55860 0.37770 0.96360 0.06300
H 	H 	0.55040 0.33990 0.97910 0.01400
N 	N 	0.51820 0.39540 0.93340 -0.04800
C 	C 	0.54940 0.39850 0.97200 -0.14100
H 	H 	0.57570 0.41750 0.00930 0.04900
N 	N 	0.50920 0.40910 0.90830 -0.29800
O 	O 	0.54860 0.53320 0.87740 -0.09800
O 	O 	0.55780 0.52570 0.82270 -0.07500
N 	N 	0.43170 0.26028 0.93860 -0.27700
C 	C 	0.42930 0.24120 0.00310 0.04200
C 	C 	0.42770 0.26870 0.06520 0.00400
H 	H 	0.42760 0.30500 0.06570 0.02900
C 	C 	0.42620 0.23980 0.12410 -0.16800
H 	H 	0.42520 0.25670 0.16690 0.44200
N 	N 	0.44000 0.27700 0.18700 -0.37700
O 	O 	0.42920 0.31440 0.19010 -0.01800
N 	N 	0.37600 0.33880 0.95980 -0.27500
C 	C 	0.32010 0.29710 0.97450 0.06300
C 	C 	0.28610 0.23890 0.94770 -0.05500
H 	H 	0.30010 0.22310 0.91340 0.04800
C 	C 	0.22960 0.20730 0.97730 -0.06800
H 	H 	0.20530 0.16720 0.96420 0.28500
N 	N 	0.19700 0.14180 0.94690 -0.22000
O 	O 	0.14340 0.11550 0.98640 -0.03400
Zn	Zn	0.66797 0.10348 0.90387 1.20000
C 	C 	0.67500 0.03320 0.78800 0.02000
H 	H 	0.67420 0.00340 0.81690 0.02900
N 	N 	0.67620 0.08290 0.80850 -0.27400
O 	O 	0.67790 0.18600 0.80520 -0.16200
C 	C 	0.62230 0.18090 0.96360 0.06300
H 	H 	0.66010 0.21050 0.97910 0.01400
N 	N 	0.60460 0.12280 0.93340 -0.04800
C 	C 	0.60150 0.15090 0.97200 -0.14100
H 	H 	0.58250 0.15820 0.00930 0.04900
N 	N 	0.59090 0.10010 0.90830 -0.29800
O 	O 	0.46680 0.01540 0.87740 -0.09800
O 	O 	0.47430 0.03210 0.82270 -0.07500
N 	N 	0.73972 0.17142 0.93860 -0.27600
C 	C 	0.75880 0.18810 0.00310 0.03700
C 	C 	0.73130 0.15900 0.06520 0.01200
H 	H 	0.69500 0.12260 0.06570 0.02600
C 	C 	0.76020 0.18640 0.12410 -0.18200
H 	H 	0.74330 0.16850 0.16690 0.45100
N 	N 	0.72300 0.16300 0.18700 -0.38400
O 	O 	0.68560 0.11480 0.19010 -0.01800
N 	N 	0.66120 0.03720 0.95980 -0.27200
C 	C 	0.70290 0.02300 0.97450 0.04700
C 	C 	0.76110 0.04720 0.94770 -0.02800
H 	H 	0.77690 0.07700 0.91340 0.03900
C 	C 	0.79270 0.02230 0.97730 -0.11600
H 	H 	0.83280 0.03810 0.96420 0.31300
N 	N 	0.85820 0.05520 0.94690 -0.23600
O 	O 	0.88450 0.02790 0.98640 -0.03600
Zn	Zn	0.89652 0.56449 0.90387 1.20000
C 	C 	0.96680 0.64180 0.78800 0.02000
H 	H 	0.99660 0.67080 0.81690 0.03000
N 	N 	0.91710 0.59330 0.80850 -0.27400
O 	O 	0.81400 0.49190 0.80520 -0.16200
C 	C 	0.81910 0.44140 0.96360 0.06300
H 	H 	0.78950 0.44960 0.97910 0.01300
N 	N 	0.87720 0.48180 0.93340 -0.04800
C 	C 	0.84910 0.45060 0.97200 -0.14100
H 	H 	0.84180 0.42430 0.00930 0.04900
N 	N 	0.89990 0.49080 0.90830 -0.29800
O 	O 	0.98460 0.45140 0.87740 -0.09700
O 	O 	0.96790 0.44220 0.82270 -0.07500
N 	N 	0.82858 0.56830 0.93860 -0.27600
C 	C 	0.81190 0.57070 0.00310 0.04000
C 	C 	0.84100 0.57230 0.06520 0.00800
H 	H 	0.87740 0.57240 0.06570 0.02800
C 	C 	0.81360 0.57380 0.12410 -0.17500
H 	H 	0.83150 0.57480 0.16690 0.44700
N 	N 	0.83700 0.56000 0.18700 -0.38100
O 	O 	0.88520 0.57080 0.19010 -0.01600
N 	N 	0.96280 0.62400 0.95980 -0.27600
C 	C 	0.97700 0.67990 0.97450 0.07000
C 	C 	0.95280 0.71390 0.94770 -0.06700
H 	H 	0.92300 0.69990 0.91340 0.05200
C 	C 	0.97770 0.77040 0.97730 -0.04900
H 	H 	0.96190 0.79470 0.96420 0.27400
N 	N 	0.94480 0.80300 0.94690 -0.21400
O 	O 	0.97210 0.85660 0.98640 -0.03300
Zn	Zn	0.66797 0.56449 0.59613 1.19900
C 	C 	0.67500 0.64180 0.71200 0.02000
H 	H 	0.67420 0.67080 0.68310 0.02900
N 	N 	0.67620 0.59330 0.69150 -0.27400
O 	O 	0.67790 0.49190 0.69480 -0.16200
C 	C 	0.62230 0.44140 0.53640 0.05200
H 	H 	0.66010 0.44960 0.52090 0.01600
N 	N 	0.60460 0.48180 0.56660 -0.05200
C 	C 	0.60150 0.45060 0.52800 -0.13200
H 	H 	0.58250 0.42430 0.49070 0.04900
N 	N 	0.59090 0.49080 0.59170 -0.29400
O 	O 	0.46680 0.45140 0.62260 -0.09900
O 	O 	0.47430 0.44220 0.67730 -0.07500
N 	N 	0.73972 0.56830 0.56140 -0.27800
C 	C 	0.75880 0.57070 0.49690 0.04200
C 	C 	0.73130 0.57230 0.43480 0.00900
H 	H 	0.69500 0.57240 0.43430 0.02800
C 	C 	0.76020 0.57380 0.37590 -0.17600
H 	H 	0.74330 0.57480 0.33310 0.44800
N 	N 	0.72300 0.56000 0.31300 -0.38100
O 	O 	0.68560 0.57080 0.30990 -0.01700
N 	N 	0.66120 0.62400 0.54020 -0.27500
C 	C 	0.70290 0.67990 0.52550 0.04700
C 	C 	0.76110 0.71390 0.55230 -0.03000
H 	H 	0.77690 0.69990 0.58660 0.04000
C 	C 	0.79270 0.77040 0.52270 -0.11300
H 	H 	0.83280 0.79470 0.53580 0.31100
N 	N 	0.85820 0.80300 0.55310 -0.23500
O 	O 	0.88450 0.85660 0.51360 -0.03500
Zn	Zn	0.89652 0.33203 0.59613 1.19900
C 	C 	0.96680 0.32500 0.71200 0.02000
H 	H 	0.99660 0.32580 0.68310 0.03000
N 	N 	0.91710 0.32380 0.69150 -0.27400
O 	O 	0.81400 0.32210 0.69480 -0.16200
C 	C 	0.81910 0.37770 0.53640 0.05300
H 	H 	0.78950 0.33990 0.52090 0.01600
N 	N 	0.87720 0.39540 0.56660 -0.05200
C 	C 	0.84910 0.39850 0.52800 -0.13200
H 	H 	0.84180 0.41750 0.49070 0.04900
N 	N 	0.89990 0.40910 0.59170 -0.29500
O 	O 	0.98460 0.53320 0.62260 -0.09800
O 	O 	0.96790 0.52570 0.67730 -0.07500
N 	N 	0.82858 0.26028 0.56140 -0.27800
C 	C 	0.81190 0.24120 0.49690 0.04400
C 	C 	0.84100 0.26870 0.43480 0.00400
H 	H 	0.87740 0.30500 0.43430 0.03000
C 	C 	0.81360 0.23980 0.37590 -0.16900
H 	H 	0.83150 0.25670 0.33310 0.44300
N 	N 	0.83700 0.27700 0.31300 -0.37800
O 	O 	0.88520 0.31440 0.30990 -0.01700
N 	N 	0.96280 0.33880 0.54020 -0.27500
C 	C 	0.97700 0.29710 0.52550 0.05400
C 	C 	0.95280 0.23890 0.55230 -0.04100
H 	H 	0.92300 0.22310 0.58660 0.04300
C 	C 	0.97770 0.20730 0.52270 -0.09400
H 	H 	0.96190 0.16720 0.53580 0.30000
N 	N 	0.94480 0.14180 0.55310 -0.22900
O 	O 	0.97210 0.11550 0.51360 -0.03500
Zn	Zn	0.43551 0.10348 0.59613 1.19900
C 	C 	0.35820 0.03320 0.71200 0.02000
H 	H 	0.32920 0.00340 0.68310 0.02900
N 	N 	0.40670 0.08290 0.69150 -0.27400
O 	O 	0.50810 0.18600 0.69480 -0.16100
C 	C 	0.55860 0.18090 0.53640 0.05200
H 	H 	0.55040 0.21050 0.52090 0.01600
N 	N 	0.51820 0.12280 0.56660 -0.05200
C 	C 	0.54940 0.15090 0.52800 -0.13100
H 	H 	0.57570 0.15820 0.49070 0.04900
N 	N 	0.50920 0.10010 0.59170 -0.29400
O 	O 	0.54860 0.01540 0.62260 -0.10000
O 	O 	0.55780 0.03210 0.67730 -0.07500
N 	N 	0.43170 0.17142 0.56140 -0.27800
C 	C 	0.42930 0.18810 0.49690 0.04100
C 	C 	0.42770 0.15900 0.43480 0.00900
H 	H 	0.42760 0.12260 0.43430 0.02800
C 	C 	0.42620 0.18640 0.37590 -0.17800
H 	H 	0.42520 0.16850 0.33310 0.44900
N 	N 	0.44000 0.16300 0.31300 -0.38200
O 	O 	0.42920 0.11480 0.30990 -0.01800
N 	N 	0.37600 0.03720 0.54020 -0.27200
C 	C 	0.32010 0.02300 0.52550 0.03300
C 	C 	0.28610 0.04720 0.55230 -0.00600
H 	H 	0.30010 0.07700 0.58660 0.03200
C 	C 	0.22960 0.02230 0.52270 -0.15500
H 	H 	0.20530 0.03810 0.53580 0.33500
N 	N 	0.19700 0.05520 0.55310 -0.24800
O 	O 	0.14340 0.02790 0.51360 -0.03700
Zn	Zn	0.33203 0.43551 0.09613 1.19900
C 	C 	0.32500 0.35820 0.21200 0.02000
H 	H 	0.32580 0.32920 0.18310 0.02900
N 	N 	0.32380 0.40670 0.19150 -0.27400
O 	O 	0.32210 0.50810 0.19480 -0.16100
C 	C 	0.37770 0.55860 0.03640 0.04300
H 	H 	0.33990 0.55040 0.02090 0.01800
N 	N 	0.39540 0.51820 0.06660 -0.05600
C 	C 	0.39850 0.54940 0.02800 -0.12400
H 	H 	0.41750 0.57570 0.99070 0.04900
N 	N 	0.40910 0.50920 0.09170 -0.29200
O 	O 	0.53320 0.54860 0.12260 -0.09900
O 	O 	0.52570 0.55780 0.17730 -0.07500
N 	N 	0.26028 0.43170 0.06140 -0.28000
C 	C 	0.24120 0.42930 0.99690 0.04700
C 	C 	0.26870 0.42770 0.93480 0.00400
H 	H 	0.30500 0.42760 0.93430 0.03100
C 	C 	0.23980 0.42620 0.87590 -0.17000
H 	H 	0.25670 0.42520 0.83310 0.44400
N 	N 	0.27700 0.44000 0.81300 -0.37800
O 	O 	0.31440 0.42920 0.80990 -0.01700
N 	N 	0.33880 0.37600 0.04020 -0.27200
C 	C 	0.29710 0.32010 0.02550 0.03200
C 	C 	0.23890 0.28610 0.05230 -0.00400
H 	H 	0.22310 0.30010 0.08660 0.03100
C 	C 	0.20730 0.22960 0.02270 -0.15800
H 	H 	0.16720 0.20530 0.03580 0.33700
N 	N 	0.14180 0.19700 0.05310 -0.24900
O 	O 	0.11550 0.14340 0.01360 -0.03700
Zn	Zn	0.10348 0.66797 0.09613 1.19900
C 	C 	0.03320 0.67500 0.21200 0.02000
H 	H 	0.00340 0.67420 0.18310 0.02900
N 	N 	0.08290 0.67620 0.19150 -0.27400
O 	O 	0.18600 0.67790 0.19480 -0.16100
C 	C 	0.18090 0.62230 0.03640 0.04300
H 	H 	0.21050 0.66010 0.02090 0.01800
N 	N 	0.12280 0.60460 0.06660 -0.05600
C 	C 	0.15090 0.60150 0.02800 -0.12400
H 	H 	0.15820 0.58250 0.99070 0.04900
N 	N 	0.10010 0.59090 0.09170 -0.29200
O 	O 	0.01540 0.46680 0.12260 -0.10000
O 	O 	0.03210 0.47430 0.17730 -0.07500
N 	N 	0.17142 0.73972 0.06140 -0.27900
C 	C 	0.18810 0.75880 0.99690 0.04400
C 	C 	0.15900 0.73130 0.93480 0.00900
H 	H 	0.12260 0.69500 0.93430 0.02900
C 	C 	0.18640 0.76020 0.87590 -0.17700
H 	H 	0.16850 0.74330 0.83310 0.44900
N 	N 	0.16300 0.72300 0.81300 -0.38200
O 	O 	0.11480 0.68560 0.80990 -0.01700
N 	N 	0.03720 0.66120 0.04020 -0.27100
C 	C 	0.02300 0.70290 0.02550 0.02500
C 	C 	0.04720 0.76110 0.05230 0.00700
H 	H 	0.07700 0.77690 0.08660 0.02700
C 	C 	0.02230 0.79270 0.02270 -0.17700
H 	H 	0.03810 0.83280 0.03580 0.34800
N 	N 	0.05520 0.85820 0.05310 -0.25600
O 	O 	0.02790 0.88450 0.01360 -0.03800
Zn	Zn	0.56449 0.89652 0.09613 1.19900
C 	C 	0.64180 0.96680 0.21200 0.02100
H 	H 	0.67080 0.99660 0.18310 0.03000
N 	N 	0.59330 0.91710 0.19150 -0.27400
O 	O 	0.49190 0.81400 0.19480 -0.16100
C 	C 	0.44140 0.81910 0.03640 0.04400
H 	H 	0.44960 0.78950 0.02090 0.01800
N 	N 	0.48180 0.87720 0.06660 -0.05500
C 	C 	0.45060 0.84910 0.02800 -0.12500
H 	H 	0.42430 0.84180 0.99070 0.05000
N 	N 	0.49080 0.89990 0.09170 -0.29200
O 	O 	0.45140 0.98460 0.12260 -0.09800
O 	O 	0.44220 0.96790 0.17730 -0.07500
N 	N 	0.56830 0.82858 0.06140 -0.28000
C 	C 	0.57070 0.81190 0.99690 0.04500
C 	C 	0.57230 0.84100 0.93480 0.00700
H 	H 	0.57240 0.87740 0.93430 0.03000
C 	C 	0.57380 0.81360 0.87590 -0.17500
H 	H 	0.57480 0.83150 0.83310 0.44700
N 	N 	0.56000 0.83700 0.81300 -0.38100
O 	O 	0.57080 0.88520 0.80990 -0.01600
N 	N 	0.62400 0.96280 0.04020 -0.27300
C 	C 	0.67990 0.97700 0.02550 0.04800
C 	C 	0.71390 0.95280 0.05230 -0.03100
H 	H 	0.69990 0.92300 0.08660 0.04000
C 	C 	0.77040 0.97770 0.02270 -0.11000
H 	H 	0.79470 0.96190 0.03580 0.30900
N 	N 	0.80300 0.94480 0.05310 -0.23400
O 	O 	0.85660 0.97210 0.01360 -0.03500
C 	C 	0.43060 0.32220 0.75000 0.17600
N 	N 	0.48610 0.32270 0.75000 -0.02400
C 	C 	0.67780 0.10840 0.75000 0.17600
N 	N 	0.67730 0.16340 0.75000 -0.02400
C 	C 	0.89160 0.56940 0.75000 0.17600
N 	N 	0.83660 0.51390 0.75000 -0.02400
C 	C 	0.56940 0.67780 0.25000 0.17600
N 	N 	0.51390 0.67730 0.25000 -0.02500
C 	C 	0.32220 0.89160 0.25000 0.17600
N 	N 	0.32270 0.83660 0.25000 -0.02500
C 	C 	0.10840 0.43060 0.25000 0.17600
N 	N 	0.16340 0.48610 0.25000 -0.02500
C 	C 	0.32220 0.43060 0.25000 0.17600
N 	N 	0.32270 0.48610 0.25000 -0.02500
C 	C 	0.10840 0.67780 0.25000 0.17600
N 	N 	0.16340 0.67730 0.25000 -0.02500
C 	C 	0.56940 0.89160 0.25000 0.17600
N 	N 	0.51390 0.83660 0.25000 -0.02500
C 	C 	0.67780 0.56940 0.75000 0.17600
N 	N 	0.67730 0.51390 0.75000 -0.02400
C 	C 	0.89160 0.32220 0.75000 0.17600
N 	N 	0.83660 0.32270 0.75000 -0.02400
C 	C 	0.43060 0.10840 0.75000 0.17600
N 	N 	0.48610 0.16340 0.75000 -0.02400
C 	C 	0.55190 0.44810 0.57550 0.17800
C 	C 	0.54480 0.45520 0.60200 0.23900
N 	N 	0.52500 0.47500 0.65800 0.01300
N 	N 	0.51890 0.48110 0.61100 -0.05800
C 	C 	0.55190 0.10380 0.57550 0.17800
C 	C 	0.54480 0.08960 0.60200 0.23800
N 	N 	0.52500 0.05000 0.65800 0.01300
N 	N 	0.51890 0.03780 0.61100 -0.05800
C 	C 	0.89620 0.44810 0.57550 0.17800
C 	C 	0.91040 0.45520 0.60200 0.23900
N 	N 	0.95000 0.47500 0.65800 0.01300
N 	N 	0.96220 0.48110 0.61100 -0.05800
C 	C 	0.44810 0.55190 0.07550 0.17900
C 	C 	0.45520 0.54480 0.10200 0.23500
N 	N 	0.47500 0.52500 0.15800 0.01400
N 	N 	0.48110 0.51890 0.11100 -0.05700
C 	C 	0.44810 0.89620 0.07550 0.17900
C 	C 	0.45520 0.91040 0.10200 0.23600
N 	N 	0.47500 0.95000 0.15800 0.01300
N 	N 	0.48110 0.96220 0.11100 -0.05800
C 	C 	0.10380 0.55190 0.07550 0.17900
C 	C 	0.08960 0.54480 0.10200 0.23500
N 	N 	0.05000 0.52500 0.15800 0.01400
N 	N 	0.03780 0.51890 0.11100 -0.05700
C 	C 	0.44810 0.55190 0.42450 0.17800
C 	C 	0.45520 0.54480 0.39800 0.23900
N 	N 	0.47500 0.52500 0.34200 0.01300
N 	N 	0.48110 0.51890 0.38900 -0.05800
C 	C 	0.10380 0.55190 0.42450 0.17800
C 	C 	0.08960 0.54480 0.39800 0.23800
N 	N 	0.05000 0.52500 0.34200 0.01300
N 	N 	0.03780 0.51890 0.38900 -0.05800
C 	C 	0.44810 0.89620 0.42450 0.17800
C 	C 	0.45520 0.91040 0.39800 0.23900
N 	N 	0.47500 0.95000 0.34200 0.01300
N 	N 	0.48110 0.96220 0.38900 -0.05800
C 	C 	0.55190 0.44810 0.92450 0.17700
C 	C 	0.54480 0.45520 0.89800 0.24300
N 	N 	0.52500 0.47500 0.84200 0.01300
N 	N 	0.51890 0.48110 0.88900 -0.05900
C 	C 	0.89620 0.44810 0.92450 0.17700
C 	C 	0.91040 0.45520 0.89800 0.24400
N 	N 	0.95000 0.47500 0.84200 0.01300
N 	N 	0.96220 0.48110 0.88900 -0.05900
C 	C 	0.55190 0.10380 0.92450 0.17700
C 	C 	0.54480 0.08960 0.89800 0.24300
N 	N 	0.52500 0.05000 0.84200 0.01300
N 	N 	0.51890 0.03780 0.88900 -0.05900
C 	C 	0.43290 0.21645 0.60070 0.07000
H 	H 	0.43430 0.21715 0.64940 -0.00300
O 	O 	0.22370 0.11185 0.59100 -0.03200
C 	C 	0.78355 0.21645 0.60070 0.07000
H 	H 	0.78285 0.21715 0.64940 -0.00300
O 	O 	0.88815 0.11185 0.59100 -0.03200
C 	C 	0.78355 0.56710 0.60070 0.07000
H 	H 	0.78285 0.56570 0.64940 -0.00300
O 	O 	0.88815 0.77630 0.59100 -0.03500
C 	C 	0.56710 0.78355 0.10070 0.07000
H 	H 	0.56570 0.78285 0.14940 -0.00300
O 	O 	0.77630 0.88815 0.09100 -0.03100
C 	C 	0.21645 0.78355 0.10070 0.07000
H 	H 	0.21715 0.78285 0.14940 -0.00300
O 	O 	0.11185 0.88815 0.09100 -0.03000
C 	C 	0.21645 0.43290 0.10070 0.07000
H 	H 	0.21715 0.43430 0.14940 -0.00300
O 	O 	0.11185 0.22370 0.09100 -0.02800
C 	C 	0.21645 0.43290 0.39930 0.07000
H 	H 	0.21715 0.43430 0.35060 -0.00300
O 	O 	0.11185 0.22370 0.40900 -0.03300
C 	C 	0.21645 0.78355 0.39930 0.07000
H 	H 	0.21715 0.78285 0.35060 -0.00300
O 	O 	0.11185 0.88815 0.40900 -0.03500
C 	C 	0.56710 0.78355 0.39930 0.07000
H 	H 	0.56570 0.78285 0.35060 -0.00300
O 	O 	0.77630 0.88815 0.40900 -0.03600
C 	C 	0.78355 0.56710 0.89930 0.07000
H 	H 	0.78285 0.56570 0.85060 -0.00300
O 	O 	0.88815 0.77630 0.90900 -0.03900
C 	C 	0.78355 0.21645 0.89930 0.07100
H 	H 	0.78285 0.21715 0.85060 -0.00300
O 	O 	0.88815 0.11185 0.90900 -0.03700
C 	C 	0.43290 0.21645 0.89930 0.07100
H 	H 	0.43430 0.21715 0.85060 -0.00300
O 	O 	0.22370 0.11185 0.90900 -0.03600
O 	O 	0.47300 0.28100 0.25000 0.02700
O 	O 	0.71900 0.19200 0.25000 0.02900
O 	O 	0.80800 0.52700 0.25000 0.02800
O 	O 	0.52700 0.71900 0.75000 0.02900
O 	O 	0.28100 0.80800 0.75000 0.02800
O 	O 	0.19200 0.47300 0.75000 0.02800
O 	O 	0.28100 0.47300 0.75000 0.02800
O 	O 	0.19200 0.71900 0.75000 0.02900
O 	O 	0.52700 0.80800 0.75000 0.02800
O 	O 	0.71900 0.52700 0.25000 0.02800
O 	O 	0.80800 0.28100 0.25000 0.02700
O 	O 	0.47300 0.19200 0.25000 0.02800
C 	C 	0.38520 0.38520 0.50000 0.09100
H 	H 	0.42160 0.42160 0.50000 -0.00400
C 	C 	0.61480 0.00000 0.50000 0.08700
H 	H 	0.57840 0.00000 0.50000 -0.00400
C 	C 	0.00000 0.61480 0.50000 0.08900
H 	H 	0.00000 0.57840 0.50000 -0.00400
C 	C 	0.61480 0.61480 -0.00000 0.08700
H 	H 	0.57840 0.57840 -0.00000 -0.00400
C 	C 	0.38520 0.00000 -0.00000 0.08300
H 	H 	0.42160 0.00000 -0.00000 -0.00400
C 	C 	-0.00000 0.38520 -0.00000 0.08500
H 	H 	0.00000 0.42160 -0.00000 -0.00400
C 	C 	0.61480 0.61480 0.50000 0.09100
H 	H 	0.57840 0.57840 0.50000 -0.00400
C 	C 	0.38520 0.00000 0.50000 0.08700
H 	H 	0.42160 0.00000 0.50000 -0.00400
C 	C 	-0.00000 0.38520 0.50000 0.08900
H 	H 	0.00000 0.42160 0.50000 -0.00400
C 	C 	0.38520 0.38520 -0.00000 0.08700
H 	H 	0.42160 0.42160 -0.00000 -0.00400
C 	C 	0.61480 0.00000 -0.00000 0.08300
H 	H 	0.57840 0.00000 -0.00000 -0.00300
C 	C 	0.00000 0.61480 -0.00000 0.08500
H 	H 	-0.00000 0.57840 -0.00000 -0.00400
