data_crystal

_cell_length_a 45.61100
_cell_length_b 45.61100
_cell_length_c 45.61100
_cell_angle_alpha 90.00000
_cell_angle_beta  90.00000
_cell_angle_gamma 90.00000

_symmetry_space_group_name_	'P 1'
_symmetry_space_group_name_H-M	'P 1'

loop_
_symmetry_equiv_pos_as_xyz
  x,y,z

loop_
_atom_site_label
_atom_site_type_symbol
_atom_site_fract_x
_atom_site_fract_y
_atom_site_fract_z
_atom_site_charge
H 	H 	0.18600 0.62640 0.08890 0.02600
H 	H 	0.18960 0.59760 0.03560 0.02500
H 	H 	0.28300 0.52950 0.00460 0.02500
H 	H 	0.32940 0.51510 0.04000 0.02400
C 	C 	0.30570 0.58170 0.04480 -0.05400
H 	H 	0.31520 0.58890 0.02660 0.02700
H 	H 	0.30680 0.59750 0.05960 0.02500
N 	N 	0.39391 0.52385 0.08458 -0.13900
C 	C 	0.27300 0.57420 0.03840 -0.04600
H 	H 	0.26020 0.58610 0.05120 0.02400
H 	H 	0.26830 0.57910 0.01780 0.02200
C 	C 	0.35680 0.59470 0.13140 -0.05000
H 	H 	0.36660 0.57690 0.13900 0.02500
H 	H 	0.33630 0.58940 0.12650 0.02500
H 	H 	0.41340 0.59620 0.12100 0.02500
C 	C 	0.37720 0.51460 0.10990 -0.04900
H 	H 	0.35650 0.51140 0.10420 0.02300
H 	H 	0.37780 0.53010 0.12500 0.02300
C 	C 	0.39380 0.49950 0.06240 -0.05800
H 	H 	0.40510 0.50550 0.04490 0.02800
H 	H 	0.37340 0.49530 0.05620 0.02800
C 	C 	0.42450 0.52800 0.09260 -0.04100
H 	H 	0.42600 0.54440 0.10680 0.02100
H 	H 	0.43590 0.53340 0.07490 0.02200
H 	H 	0.18600 0.12640 0.58890 0.02600
H 	H 	0.18960 0.09760 0.53560 0.02500
H 	H 	0.28300 0.02950 0.50460 0.02500
H 	H 	0.32940 0.01510 0.54000 0.02400
C 	C 	0.30570 0.08170 0.54480 -0.05400
H 	H 	0.31520 0.08890 0.52660 0.02700
H 	H 	0.30680 0.09750 0.55960 0.02500
N 	N 	0.39391 0.02385 0.58458 -0.13900
C 	C 	0.27300 0.07420 0.53840 -0.04600
H 	H 	0.26020 0.08610 0.55120 0.02400
H 	H 	0.26830 0.07910 0.51780 0.02200
C 	C 	0.35680 0.09470 0.63140 -0.05000
H 	H 	0.36660 0.07690 0.63900 0.02500
H 	H 	0.33630 0.08940 0.62650 0.02500
H 	H 	0.41340 0.09620 0.62100 0.02500
C 	C 	0.37720 0.01460 0.60990 -0.04900
H 	H 	0.35650 0.01140 0.60420 0.02300
H 	H 	0.37780 0.03010 0.62500 0.02300
C 	C 	0.39380 0.99950 0.56240 -0.05800
H 	H 	0.40510 0.00550 0.54490 0.02800
H 	H 	0.37340 0.99530 0.55620 0.02800
C 	C 	0.42450 0.02800 0.59260 -0.04100
H 	H 	0.42600 0.04440 0.60680 0.02100
H 	H 	0.43590 0.03340 0.57490 0.02200
H 	H 	0.68600 0.62640 0.58890 0.02600
H 	H 	0.68960 0.59760 0.53560 0.02500
H 	H 	0.78300 0.52950 0.50460 0.02500
H 	H 	0.82940 0.51510 0.54000 0.02400
C 	C 	0.80570 0.58170 0.54480 -0.05400
H 	H 	0.81520 0.58890 0.52660 0.02700
H 	H 	0.80680 0.59750 0.55960 0.02500
N 	N 	0.89391 0.52385 0.58458 -0.13900
C 	C 	0.77300 0.57420 0.53840 -0.04600
H 	H 	0.76020 0.58610 0.55120 0.02400
H 	H 	0.76830 0.57910 0.51780 0.02200
C 	C 	0.85680 0.59470 0.63140 -0.05000
H 	H 	0.86660 0.57690 0.63900 0.02500
H 	H 	0.83630 0.58940 0.62650 0.02500
H 	H 	0.91340 0.59620 0.62100 0.02500
C 	C 	0.87720 0.51460 0.60990 -0.04900
H 	H 	0.85650 0.51140 0.60420 0.02300
H 	H 	0.87780 0.53010 0.62500 0.02300
C 	C 	0.89380 0.49950 0.56240 -0.05800
H 	H 	0.90510 0.50550 0.54490 0.02800
H 	H 	0.87340 0.49530 0.55620 0.02800
C 	C 	0.92450 0.52800 0.59260 -0.04100
H 	H 	0.92600 0.54440 0.60680 0.02100
H 	H 	0.93590 0.53340 0.57490 0.02200
H 	H 	0.68600 0.12640 0.08890 0.02600
H 	H 	0.68960 0.09760 0.03560 0.02500
H 	H 	0.78300 0.02950 0.00460 0.02500
H 	H 	0.82940 0.01510 0.04000 0.02400
C 	C 	0.80570 0.08170 0.04480 -0.05400
H 	H 	0.81520 0.08890 0.02660 0.02700
H 	H 	0.80680 0.09750 0.05960 0.02500
N 	N 	0.89391 0.02385 0.08458 -0.13900
C 	C 	0.77300 0.07420 0.03840 -0.04600
H 	H 	0.76020 0.08610 0.05120 0.02400
H 	H 	0.76830 0.07910 0.01780 0.02200
C 	C 	0.85680 0.09470 0.13140 -0.05000
H 	H 	0.86660 0.07690 0.13900 0.02500
H 	H 	0.83630 0.08940 0.12650 0.02500
H 	H 	0.91340 0.09620 0.12100 0.02500
C 	C 	0.87720 0.01460 0.10990 -0.04900
H 	H 	0.85650 0.01140 0.10420 0.02300
H 	H 	0.87780 0.03010 0.12500 0.02300
C 	C 	0.89380 0.99950 0.06240 -0.05800
H 	H 	0.90510 0.00550 0.04490 0.02800
H 	H 	0.87340 0.99530 0.05620 0.02800
C 	C 	0.92450 0.02800 0.09260 -0.04100
H 	H 	0.92600 0.04440 0.10680 0.02100
H 	H 	0.93590 0.03340 0.07490 0.02200
H 	H 	0.56400 0.62360 0.58890 0.02600
H 	H 	0.56040 0.65240 0.53560 0.02500
H 	H 	0.46700 0.72050 0.50460 0.02500
H 	H 	0.42060 0.73490 0.54000 0.02400
C 	C 	0.44430 0.66830 0.54480 -0.05400
H 	H 	0.43480 0.66110 0.52660 0.02700
H 	H 	0.44320 0.65250 0.55960 0.02500
N 	N 	0.35609 0.72615 0.58458 -0.13900
C 	C 	0.47700 0.67580 0.53840 -0.04600
H 	H 	0.48980 0.66390 0.55120 0.02400
H 	H 	0.48170 0.67090 0.51780 0.02200
C 	C 	0.39320 0.65530 0.63140 -0.05000
H 	H 	0.38340 0.67310 0.63900 0.02500
H 	H 	0.41370 0.66060 0.62650 0.02500
H 	H 	0.33660 0.65380 0.62100 0.02500
C 	C 	0.37280 0.73540 0.60990 -0.04900
H 	H 	0.39350 0.73860 0.60420 0.02300
H 	H 	0.37220 0.71990 0.62500 0.02300
C 	C 	0.35620 0.75050 0.56240 -0.05800
H 	H 	0.34490 0.74450 0.54490 0.02800
H 	H 	0.37660 0.75470 0.55620 0.02800
C 	C 	0.32550 0.72200 0.59260 -0.04100
H 	H 	0.32400 0.70560 0.60680 0.02100
H 	H 	0.31410 0.71660 0.57490 0.02200
H 	H 	0.56400 0.12360 0.08890 0.02600
H 	H 	0.56040 0.15240 0.03560 0.02500
H 	H 	0.46700 0.22050 0.00460 0.02500
H 	H 	0.42060 0.23490 0.04000 0.02400
C 	C 	0.44430 0.16830 0.04480 -0.05400
H 	H 	0.43480 0.16110 0.02660 0.02700
H 	H 	0.44320 0.15250 0.05960 0.02500
N 	N 	0.35609 0.22615 0.08458 -0.13900
C 	C 	0.47700 0.17580 0.03840 -0.04600
H 	H 	0.48980 0.16390 0.05120 0.02400
H 	H 	0.48170 0.17090 0.01780 0.02200
C 	C 	0.39320 0.15530 0.13140 -0.05000
H 	H 	0.38340 0.17310 0.13900 0.02500
H 	H 	0.41370 0.16060 0.12650 0.02500
H 	H 	0.33660 0.15380 0.12100 0.02500
C 	C 	0.37280 0.23540 0.10990 -0.04900
H 	H 	0.39350 0.23860 0.10420 0.02300
H 	H 	0.37220 0.21990 0.12500 0.02300
C 	C 	0.35620 0.25050 0.06240 -0.05800
H 	H 	0.34490 0.24450 0.04490 0.02800
H 	H 	0.37660 0.25470 0.05620 0.02800
C 	C 	0.32550 0.22200 0.09260 -0.04100
H 	H 	0.32400 0.20560 0.10680 0.02100
H 	H 	0.31410 0.21660 0.07490 0.02200
H 	H 	0.06400 0.62360 0.08890 0.02600
H 	H 	0.06040 0.65240 0.03560 0.02500
H 	H 	0.96700 0.72050 0.00460 0.02500
H 	H 	0.92060 0.73490 0.04000 0.02400
C 	C 	0.94430 0.66830 0.04480 -0.05400
H 	H 	0.93480 0.66110 0.02660 0.02700
H 	H 	0.94320 0.65250 0.05960 0.02500
N 	N 	0.85609 0.72615 0.08458 -0.13900
C 	C 	0.97700 0.67580 0.03840 -0.04600
H 	H 	0.98980 0.66390 0.05120 0.02400
H 	H 	0.98170 0.67090 0.01780 0.02200
C 	C 	0.89320 0.65530 0.13140 -0.05000
H 	H 	0.88340 0.67310 0.13900 0.02500
H 	H 	0.91370 0.66060 0.12650 0.02500
H 	H 	0.83660 0.65380 0.12100 0.02500
C 	C 	0.87280 0.73540 0.10990 -0.04900
H 	H 	0.89350 0.73860 0.10420 0.02300
H 	H 	0.87220 0.71990 0.12500 0.02300
C 	C 	0.85620 0.75050 0.06240 -0.05800
H 	H 	0.84490 0.74450 0.04490 0.02800
H 	H 	0.87660 0.75470 0.05620 0.02800
C 	C 	0.82550 0.72200 0.09260 -0.04100
H 	H 	0.82400 0.70560 0.10680 0.02100
H 	H 	0.81410 0.71660 0.07490 0.02200
H 	H 	0.06400 0.12360 0.58890 0.02600
H 	H 	0.06040 0.15240 0.53560 0.02500
H 	H 	0.96700 0.22050 0.50460 0.02500
H 	H 	0.92060 0.23490 0.54000 0.02400
C 	C 	0.94430 0.16830 0.54480 -0.05400
H 	H 	0.93480 0.16110 0.52660 0.02700
H 	H 	0.94320 0.15250 0.55960 0.02500
N 	N 	0.85609 0.22615 0.58458 -0.13900
C 	C 	0.97700 0.17580 0.53840 -0.04600
H 	H 	0.98980 0.16390 0.55120 0.02400
H 	H 	0.98170 0.17090 0.51780 0.02200
C 	C 	0.89320 0.15530 0.63140 -0.05000
H 	H 	0.88340 0.17310 0.63900 0.02500
H 	H 	0.91370 0.16060 0.62650 0.02500
H 	H 	0.83660 0.15380 0.62100 0.02500
C 	C 	0.87280 0.23540 0.60990 -0.04900
H 	H 	0.89350 0.23860 0.60420 0.02300
H 	H 	0.87220 0.21990 0.62500 0.02300
C 	C 	0.85620 0.25050 0.56240 -0.05800
H 	H 	0.84490 0.24450 0.54490 0.02800
H 	H 	0.87660 0.25470 0.55620 0.02800
C 	C 	0.82550 0.22200 0.59260 -0.04100
H 	H 	0.82400 0.20560 0.60680 0.02100
H 	H 	0.81410 0.21660 0.57490 0.02200
H 	H 	0.06400 0.12640 0.66110 0.02600
H 	H 	0.06040 0.09760 0.71440 0.02500
H 	H 	0.96700 0.02950 0.74540 0.02500
H 	H 	0.92060 0.01510 0.71000 0.02400
C 	C 	0.94430 0.08170 0.70520 -0.05400
H 	H 	0.93480 0.08890 0.72340 0.02700
H 	H 	0.94320 0.09750 0.69040 0.02500
N 	N 	0.85609 0.02385 0.66542 -0.13900
C 	C 	0.97700 0.07420 0.71160 -0.04600
H 	H 	0.98980 0.08610 0.69880 0.02400
H 	H 	0.98170 0.07910 0.73220 0.02200
C 	C 	0.89320 0.09470 0.61860 -0.05000
H 	H 	0.88340 0.07690 0.61100 0.02500
H 	H 	0.91370 0.08940 0.62350 0.02500
H 	H 	0.83660 0.09620 0.62900 0.02500
C 	C 	0.87280 0.01460 0.64010 -0.04900
H 	H 	0.89350 0.01140 0.64580 0.02300
H 	H 	0.87220 0.03010 0.62500 0.02300
C 	C 	0.85620 0.99950 0.68760 -0.05800
H 	H 	0.84490 0.00550 0.70510 0.02800
H 	H 	0.87660 0.99530 0.69380 0.02800
C 	C 	0.82550 0.02800 0.65740 -0.04100
H 	H 	0.82400 0.04440 0.64320 0.02100
H 	H 	0.81410 0.03340 0.67510 0.02200
H 	H 	0.06400 0.62640 0.16110 0.02600
H 	H 	0.06040 0.59760 0.21440 0.02500
H 	H 	0.96700 0.52950 0.24540 0.02500
H 	H 	0.92060 0.51510 0.21000 0.02400
C 	C 	0.94430 0.58170 0.20520 -0.05400
H 	H 	0.93480 0.58890 0.22340 0.02700
H 	H 	0.94320 0.59750 0.19040 0.02500
N 	N 	0.85609 0.52385 0.16542 -0.13900
C 	C 	0.97700 0.57420 0.21160 -0.04600
H 	H 	0.98980 0.58610 0.19880 0.02400
H 	H 	0.98170 0.57910 0.23220 0.02200
C 	C 	0.89320 0.59470 0.11860 -0.05000
H 	H 	0.88340 0.57690 0.11100 0.02500
H 	H 	0.91370 0.58940 0.12350 0.02500
H 	H 	0.83660 0.59620 0.12900 0.02500
C 	C 	0.87280 0.51460 0.14010 -0.04900
H 	H 	0.89350 0.51140 0.14580 0.02300
H 	H 	0.87220 0.53010 0.12500 0.02300
C 	C 	0.85620 0.49950 0.18760 -0.05800
H 	H 	0.84490 0.50550 0.20510 0.02800
H 	H 	0.87660 0.49530 0.19380 0.02800
C 	C 	0.82550 0.52800 0.15740 -0.04100
H 	H 	0.82400 0.54440 0.14320 0.02100
H 	H 	0.81410 0.53340 0.17510 0.02200
H 	H 	0.56400 0.12640 0.16110 0.02600
H 	H 	0.56040 0.09760 0.21440 0.02500
H 	H 	0.46700 0.02950 0.24540 0.02500
H 	H 	0.42060 0.01510 0.21000 0.02400
C 	C 	0.44430 0.08170 0.20520 -0.05400
H 	H 	0.43480 0.08890 0.22340 0.02700
H 	H 	0.44320 0.09750 0.19040 0.02500
N 	N 	0.35609 0.02385 0.16542 -0.13900
C 	C 	0.47700 0.07420 0.21160 -0.04600
H 	H 	0.48980 0.08610 0.19880 0.02400
H 	H 	0.48170 0.07910 0.23220 0.02200
C 	C 	0.39320 0.09470 0.11860 -0.05000
H 	H 	0.38340 0.07690 0.11100 0.02500
H 	H 	0.41370 0.08940 0.12350 0.02500
H 	H 	0.33660 0.09620 0.12900 0.02500
C 	C 	0.37280 0.01460 0.14010 -0.04900
H 	H 	0.39350 0.01140 0.14580 0.02300
H 	H 	0.37220 0.03010 0.12500 0.02300
C 	C 	0.35620 0.99950 0.18760 -0.05800
H 	H 	0.34490 0.00550 0.20510 0.02800
H 	H 	0.37660 0.99530 0.19380 0.02800
C 	C 	0.32550 0.02800 0.15740 -0.04100
H 	H 	0.32400 0.04440 0.14320 0.02100
H 	H 	0.31410 0.03340 0.17510 0.02200
H 	H 	0.56400 0.62640 0.66110 0.02600
H 	H 	0.56040 0.59760 0.71440 0.02500
H 	H 	0.46700 0.52950 0.74540 0.02500
H 	H 	0.42060 0.51510 0.71000 0.02400
C 	C 	0.44430 0.58170 0.70520 -0.05400
H 	H 	0.43480 0.58890 0.72340 0.02700
H 	H 	0.44320 0.59750 0.69040 0.02500
N 	N 	0.35609 0.52385 0.66542 -0.13900
C 	C 	0.47700 0.57420 0.71160 -0.04600
H 	H 	0.48980 0.58610 0.69880 0.02400
H 	H 	0.48170 0.57910 0.73220 0.02200
C 	C 	0.39320 0.59470 0.61860 -0.05000
H 	H 	0.38340 0.57690 0.61100 0.02500
H 	H 	0.41370 0.58940 0.62350 0.02500
H 	H 	0.33660 0.59620 0.62900 0.02500
C 	C 	0.37280 0.51460 0.64010 -0.04900
H 	H 	0.39350 0.51140 0.64580 0.02300
H 	H 	0.37220 0.53010 0.62500 0.02300
C 	C 	0.35620 0.49950 0.68760 -0.05800
H 	H 	0.34490 0.50550 0.70510 0.02800
H 	H 	0.37660 0.49530 0.69380 0.02800
C 	C 	0.32550 0.52800 0.65740 -0.04100
H 	H 	0.32400 0.54440 0.64320 0.02100
H 	H 	0.31410 0.53340 0.67510 0.02200
H 	H 	0.68600 0.12360 0.16110 0.02600
H 	H 	0.68960 0.15240 0.21440 0.02500
H 	H 	0.78300 0.22050 0.24540 0.02500
H 	H 	0.82940 0.23490 0.21000 0.02400
C 	C 	0.80570 0.16830 0.20520 -0.05400
H 	H 	0.81520 0.16110 0.22340 0.02700
H 	H 	0.80680 0.15250 0.19040 0.02500
N 	N 	0.89391 0.22615 0.16542 -0.13900
C 	C 	0.77300 0.17580 0.21160 -0.04600
H 	H 	0.76020 0.16390 0.19880 0.02400
H 	H 	0.76830 0.17090 0.23220 0.02200
C 	C 	0.85680 0.15530 0.11860 -0.05000
H 	H 	0.86660 0.17310 0.11100 0.02500
H 	H 	0.83630 0.16060 0.12350 0.02500
H 	H 	0.91340 0.15380 0.12900 0.02500
C 	C 	0.87720 0.23540 0.14010 -0.04900
H 	H 	0.85650 0.23860 0.14580 0.02300
H 	H 	0.87780 0.21990 0.12500 0.02300
C 	C 	0.89380 0.25050 0.18760 -0.05800
H 	H 	0.90510 0.24450 0.20510 0.02800
H 	H 	0.87340 0.25470 0.19380 0.02800
C 	C 	0.92450 0.22200 0.15740 -0.04100
H 	H 	0.92600 0.20560 0.14320 0.02100
H 	H 	0.93590 0.21660 0.17510 0.02200
H 	H 	0.68600 0.62360 0.66110 0.02600
H 	H 	0.68960 0.65240 0.71440 0.02500
H 	H 	0.78300 0.72050 0.74540 0.02500
H 	H 	0.82940 0.73490 0.71000 0.02400
C 	C 	0.80570 0.66830 0.70520 -0.05400
H 	H 	0.81520 0.66110 0.72340 0.02700
H 	H 	0.80680 0.65250 0.69040 0.02500
N 	N 	0.89391 0.72615 0.66542 -0.13900
C 	C 	0.77300 0.67580 0.71160 -0.04600
H 	H 	0.76020 0.66390 0.69880 0.02400
H 	H 	0.76830 0.67090 0.73220 0.02200
C 	C 	0.85680 0.65530 0.61860 -0.05000
H 	H 	0.86660 0.67310 0.61100 0.02500
H 	H 	0.83630 0.66060 0.62350 0.02500
H 	H 	0.91340 0.65380 0.62900 0.02500
C 	C 	0.87720 0.73540 0.64010 -0.04900
H 	H 	0.85650 0.73860 0.64580 0.02300
H 	H 	0.87780 0.71990 0.62500 0.02300
C 	C 	0.89380 0.75050 0.68760 -0.05800
H 	H 	0.90510 0.74450 0.70510 0.02800
H 	H 	0.87340 0.75470 0.69380 0.02800
C 	C 	0.92450 0.72200 0.65740 -0.04100
H 	H 	0.92600 0.70560 0.64320 0.02100
H 	H 	0.93590 0.71660 0.67510 0.02200
H 	H 	0.18600 0.12360 0.66110 0.02600
H 	H 	0.18960 0.15240 0.71440 0.02500
H 	H 	0.28300 0.22050 0.74540 0.02500
H 	H 	0.32940 0.23490 0.71000 0.02400
C 	C 	0.30570 0.16830 0.70520 -0.05400
H 	H 	0.31520 0.16110 0.72340 0.02700
H 	H 	0.30680 0.15250 0.69040 0.02500
N 	N 	0.39391 0.22615 0.66542 -0.13900
C 	C 	0.27300 0.17580 0.71160 -0.04600
H 	H 	0.26020 0.16390 0.69880 0.02400
H 	H 	0.26830 0.17090 0.73220 0.02200
C 	C 	0.35680 0.15530 0.61860 -0.05000
H 	H 	0.36660 0.17310 0.61100 0.02500
H 	H 	0.33630 0.16060 0.62350 0.02500
H 	H 	0.41340 0.15380 0.62900 0.02500
C 	C 	0.37720 0.23540 0.64010 -0.04900
H 	H 	0.35650 0.23860 0.64580 0.02300
H 	H 	0.37780 0.21990 0.62500 0.02300
C 	C 	0.39380 0.25050 0.68760 -0.05800
H 	H 	0.40510 0.24450 0.70510 0.02800
H 	H 	0.37340 0.25470 0.69380 0.02800
C 	C 	0.42450 0.22200 0.65740 -0.04100
H 	H 	0.42600 0.20560 0.64320 0.02100
H 	H 	0.43590 0.21660 0.67510 0.02200
H 	H 	0.18600 0.62360 0.16110 0.02600
H 	H 	0.18960 0.65240 0.21440 0.02500
H 	H 	0.28300 0.72050 0.24540 0.02500
H 	H 	0.32940 0.73490 0.21000 0.02400
C 	C 	0.30570 0.66830 0.20520 -0.05400
H 	H 	0.31520 0.66110 0.22340 0.02700
H 	H 	0.30680 0.65250 0.19040 0.02500
N 	N 	0.39391 0.72615 0.16542 -0.13900
C 	C 	0.27300 0.67580 0.21160 -0.04600
H 	H 	0.26020 0.66390 0.19880 0.02400
H 	H 	0.26830 0.67090 0.23220 0.02200
C 	C 	0.35680 0.65530 0.11860 -0.05000
H 	H 	0.36660 0.67310 0.11100 0.02500
H 	H 	0.33630 0.66060 0.12350 0.02500
H 	H 	0.41340 0.65380 0.12900 0.02500
C 	C 	0.37720 0.73540 0.14010 -0.04900
H 	H 	0.35650 0.73860 0.14580 0.02300
H 	H 	0.37780 0.71990 0.12500 0.02300
C 	C 	0.39380 0.75050 0.18760 -0.05800
H 	H 	0.40510 0.74450 0.20510 0.02800
H 	H 	0.37340 0.75470 0.19380 0.02800
C 	C 	0.42450 0.72200 0.15740 -0.04100
H 	H 	0.42600 0.70560 0.14320 0.02100
H 	H 	0.43590 0.71660 0.17510 0.02200
H 	H 	0.08890 0.18600 0.62640 0.02600
H 	H 	0.03560 0.18960 0.59760 0.02500
H 	H 	0.00460 0.28300 0.52950 0.02500
H 	H 	0.04000 0.32940 0.51510 0.02400
C 	C 	0.04480 0.30570 0.58170 -0.05400
H 	H 	0.02660 0.31520 0.58890 0.02700
H 	H 	0.05960 0.30680 0.59750 0.02500
N 	N 	0.08458 0.39391 0.52385 -0.13900
C 	C 	0.03840 0.27300 0.57420 -0.04600
H 	H 	0.05120 0.26020 0.58610 0.02400
H 	H 	0.01780 0.26830 0.57910 0.02200
C 	C 	0.13140 0.35680 0.59470 -0.05000
H 	H 	0.13900 0.36660 0.57690 0.02500
H 	H 	0.12650 0.33630 0.58940 0.02500
H 	H 	0.12100 0.41340 0.59620 0.02500
C 	C 	0.10990 0.37720 0.51460 -0.04900
H 	H 	0.10420 0.35650 0.51140 0.02300
H 	H 	0.12500 0.37780 0.53010 0.02300
C 	C 	0.06240 0.39380 0.49950 -0.05800
H 	H 	0.04490 0.40510 0.50550 0.02800
H 	H 	0.05620 0.37340 0.49530 0.02800
C 	C 	0.09260 0.42450 0.52800 -0.04100
H 	H 	0.10680 0.42600 0.54440 0.02100
H 	H 	0.07490 0.43590 0.53340 0.02200
H 	H 	0.08890 0.68600 0.12640 0.02700
H 	H 	0.03560 0.68960 0.09760 0.02600
H 	H 	0.00460 0.78300 0.02950 0.02600
H 	H 	0.04000 0.82940 0.01510 0.02500
C 	C 	0.04480 0.80570 0.08170 -0.05300
H 	H 	0.02660 0.81520 0.08890 0.02800
H 	H 	0.05960 0.80680 0.09750 0.02600
N 	N 	0.08458 0.89391 0.02385 -0.13800
C 	C 	0.03840 0.77300 0.07420 -0.04500
H 	H 	0.05120 0.76020 0.08610 0.02500
H 	H 	0.01780 0.76830 0.07910 0.02300
C 	C 	0.13140 0.85680 0.09470 -0.04900
H 	H 	0.13900 0.86660 0.07690 0.02600
H 	H 	0.12650 0.83630 0.08940 0.02600
H 	H 	0.12100 0.91340 0.09620 0.02600
C 	C 	0.10990 0.87720 0.01460 -0.04800
H 	H 	0.10420 0.85650 0.01140 0.02400
H 	H 	0.12500 0.87780 0.03010 0.02400
C 	C 	0.06240 0.89380 0.99950 -0.05700
H 	H 	0.04490 0.90510 0.00550 0.02900
H 	H 	0.05620 0.87340 0.99530 0.02900
C 	C 	0.09260 0.92450 0.02800 -0.04000
H 	H 	0.10680 0.92600 0.04440 0.02200
H 	H 	0.07490 0.93590 0.03340 0.02300
H 	H 	0.58890 0.18600 0.12640 0.02700
H 	H 	0.53560 0.18960 0.09760 0.02600
H 	H 	0.50460 0.28300 0.02950 0.02600
H 	H 	0.54000 0.32940 0.01510 0.02500
C 	C 	0.54480 0.30570 0.08170 -0.05300
H 	H 	0.52660 0.31520 0.08890 0.02800
H 	H 	0.55960 0.30680 0.09750 0.02600
N 	N 	0.58458 0.39391 0.02385 -0.13800
C 	C 	0.53840 0.27300 0.07420 -0.04500
H 	H 	0.55120 0.26020 0.08610 0.02500
H 	H 	0.51780 0.26830 0.07910 0.02300
C 	C 	0.63140 0.35680 0.09470 -0.04900
H 	H 	0.63900 0.36660 0.07690 0.02600
H 	H 	0.62650 0.33630 0.08940 0.02600
H 	H 	0.62100 0.41340 0.09620 0.02600
C 	C 	0.60990 0.37720 0.01460 -0.04800
H 	H 	0.60420 0.35650 0.01140 0.02400
H 	H 	0.62500 0.37780 0.03010 0.02400
C 	C 	0.56240 0.39380 0.99950 -0.05700
H 	H 	0.54490 0.40510 0.00550 0.02900
H 	H 	0.55620 0.37340 0.99530 0.02900
C 	C 	0.59260 0.42450 0.02800 -0.04000
H 	H 	0.60680 0.42600 0.04440 0.02200
H 	H 	0.57490 0.43590 0.03340 0.02300
H 	H 	0.58890 0.68600 0.62640 0.02700
H 	H 	0.53560 0.68960 0.59760 0.02600
H 	H 	0.50460 0.78300 0.52950 0.02600
H 	H 	0.54000 0.82940 0.51510 0.02500
C 	C 	0.54480 0.80570 0.58170 -0.05300
H 	H 	0.52660 0.81520 0.58890 0.02800
H 	H 	0.55960 0.80680 0.59750 0.02600
N 	N 	0.58458 0.89391 0.52385 -0.13800
C 	C 	0.53840 0.77300 0.57420 -0.04500
H 	H 	0.55120 0.76020 0.58610 0.02500
H 	H 	0.51780 0.76830 0.57910 0.02300
C 	C 	0.63140 0.85680 0.59470 -0.04900
H 	H 	0.63900 0.86660 0.57690 0.02600
H 	H 	0.62650 0.83630 0.58940 0.02600
H 	H 	0.62100 0.91340 0.59620 0.02600
C 	C 	0.60990 0.87720 0.51460 -0.04800
H 	H 	0.60420 0.85650 0.51140 0.02400
H 	H 	0.62500 0.87780 0.53010 0.02400
C 	C 	0.56240 0.89380 0.49950 -0.05700
H 	H 	0.54490 0.90510 0.50550 0.02900
H 	H 	0.55620 0.87340 0.49530 0.02900
C 	C 	0.59260 0.92450 0.52800 -0.04000
H 	H 	0.60680 0.92600 0.54440 0.02200
H 	H 	0.57490 0.93590 0.53340 0.02300
H 	H 	0.58890 0.56400 0.62360 0.02700
H 	H 	0.53560 0.56040 0.65240 0.02600
H 	H 	0.50460 0.46700 0.72050 0.02600
H 	H 	0.54000 0.42060 0.73490 0.02500
C 	C 	0.54480 0.44430 0.66830 -0.05300
H 	H 	0.52660 0.43480 0.66110 0.02800
H 	H 	0.55960 0.44320 0.65250 0.02600
N 	N 	0.58458 0.35609 0.72615 -0.13800
C 	C 	0.53840 0.47700 0.67580 -0.04500
H 	H 	0.55120 0.48980 0.66390 0.02500
H 	H 	0.51780 0.48170 0.67090 0.02300
C 	C 	0.63140 0.39320 0.65530 -0.04900
H 	H 	0.63900 0.38340 0.67310 0.02600
H 	H 	0.62650 0.41370 0.66060 0.02600
H 	H 	0.62100 0.33660 0.65380 0.02600
C 	C 	0.60990 0.37280 0.73540 -0.04800
H 	H 	0.60420 0.39350 0.73860 0.02400
H 	H 	0.62500 0.37220 0.71990 0.02400
C 	C 	0.56240 0.35620 0.75050 -0.05700
H 	H 	0.54490 0.34490 0.74450 0.02900
H 	H 	0.55620 0.37660 0.75470 0.02900
C 	C 	0.59260 0.32550 0.72200 -0.04000
H 	H 	0.60680 0.32400 0.70560 0.02200
H 	H 	0.57490 0.31410 0.71660 0.02300
H 	H 	0.58890 0.06400 0.12360 0.02700
H 	H 	0.53560 0.06040 0.15240 0.02600
H 	H 	0.50460 0.96700 0.22050 0.02600
H 	H 	0.54000 0.92060 0.23490 0.02500
C 	C 	0.54480 0.94430 0.16830 -0.05300
H 	H 	0.52660 0.93480 0.16110 0.02800
H 	H 	0.55960 0.94320 0.15250 0.02600
N 	N 	0.58458 0.85609 0.22615 -0.13800
C 	C 	0.53840 0.97700 0.17580 -0.04500
H 	H 	0.55120 0.98980 0.16390 0.02500
H 	H 	0.51780 0.98170 0.17090 0.02300
C 	C 	0.63140 0.89320 0.15530 -0.04900
H 	H 	0.63900 0.88340 0.17310 0.02600
H 	H 	0.62650 0.91370 0.16060 0.02600
H 	H 	0.62100 0.83660 0.15380 0.02600
C 	C 	0.60990 0.87280 0.23540 -0.04800
H 	H 	0.60420 0.89350 0.23860 0.02400
H 	H 	0.62500 0.87220 0.21990 0.02400
C 	C 	0.56240 0.85620 0.25050 -0.05700
H 	H 	0.54490 0.84490 0.24450 0.02900
H 	H 	0.55620 0.87660 0.25470 0.02900
C 	C 	0.59260 0.82550 0.22200 -0.04000
H 	H 	0.60680 0.82400 0.20560 0.02200
H 	H 	0.57490 0.81410 0.21660 0.02300
H 	H 	0.08890 0.56400 0.12360 0.02700
H 	H 	0.03560 0.56040 0.15240 0.02600
H 	H 	0.00460 0.46700 0.22050 0.02600
H 	H 	0.04000 0.42060 0.23490 0.02500
C 	C 	0.04480 0.44430 0.16830 -0.05300
H 	H 	0.02660 0.43480 0.16110 0.02800
H 	H 	0.05960 0.44320 0.15250 0.02600
N 	N 	0.08458 0.35609 0.22615 -0.13800
C 	C 	0.03840 0.47700 0.17580 -0.04500
H 	H 	0.05120 0.48980 0.16390 0.02500
H 	H 	0.01780 0.48170 0.17090 0.02300
C 	C 	0.13140 0.39320 0.15530 -0.04900
H 	H 	0.13900 0.38340 0.17310 0.02600
H 	H 	0.12650 0.41370 0.16060 0.02600
H 	H 	0.12100 0.33660 0.15380 0.02600
C 	C 	0.10990 0.37280 0.23540 -0.04800
H 	H 	0.10420 0.39350 0.23860 0.02400
H 	H 	0.12500 0.37220 0.21990 0.02400
C 	C 	0.06240 0.35620 0.25050 -0.05700
H 	H 	0.04490 0.34490 0.24450 0.02900
H 	H 	0.05620 0.37660 0.25470 0.02900
C 	C 	0.09260 0.32550 0.22200 -0.04000
H 	H 	0.10680 0.32400 0.20560 0.02200
H 	H 	0.07490 0.31410 0.21660 0.02300
H 	H 	0.08890 0.06400 0.62360 0.02700
H 	H 	0.03560 0.06040 0.65240 0.02600
H 	H 	0.00460 0.96700 0.72050 0.02600
H 	H 	0.04000 0.92060 0.73490 0.02500
C 	C 	0.04480 0.94430 0.66830 -0.05300
H 	H 	0.02660 0.93480 0.66110 0.02800
H 	H 	0.05960 0.94320 0.65250 0.02600
N 	N 	0.08458 0.85609 0.72615 -0.13800
C 	C 	0.03840 0.97700 0.67580 -0.04500
H 	H 	0.05120 0.98980 0.66390 0.02500
H 	H 	0.01780 0.98170 0.67090 0.02300
C 	C 	0.13140 0.89320 0.65530 -0.04900
H 	H 	0.13900 0.88340 0.67310 0.02600
H 	H 	0.12650 0.91370 0.66060 0.02600
H 	H 	0.12100 0.83660 0.65380 0.02600
C 	C 	0.10990 0.87280 0.73540 -0.04800
H 	H 	0.10420 0.89350 0.73860 0.02400
H 	H 	0.12500 0.87220 0.71990 0.02400
C 	C 	0.06240 0.85620 0.75050 -0.05700
H 	H 	0.04490 0.84490 0.74450 0.02900
H 	H 	0.05620 0.87660 0.75470 0.02900
C 	C 	0.09260 0.82550 0.72200 -0.04000
H 	H 	0.10680 0.82400 0.70560 0.02200
H 	H 	0.07490 0.81410 0.71660 0.02300
H 	H 	0.66110 0.06400 0.12640 0.02700
H 	H 	0.71440 0.06040 0.09760 0.02600
H 	H 	0.74540 0.96700 0.02950 0.02600
H 	H 	0.71000 0.92060 0.01510 0.02500
C 	C 	0.70520 0.94430 0.08170 -0.05300
H 	H 	0.72340 0.93480 0.08890 0.02800
H 	H 	0.69040 0.94320 0.09750 0.02600
N 	N 	0.66542 0.85609 0.02385 -0.13800
C 	C 	0.71160 0.97700 0.07420 -0.04500
H 	H 	0.69880 0.98980 0.08610 0.02500
H 	H 	0.73220 0.98170 0.07910 0.02300
C 	C 	0.61860 0.89320 0.09470 -0.04900
H 	H 	0.61100 0.88340 0.07690 0.02600
H 	H 	0.62350 0.91370 0.08940 0.02600
H 	H 	0.62900 0.83660 0.09620 0.02600
C 	C 	0.64010 0.87280 0.01460 -0.04800
H 	H 	0.64580 0.89350 0.01140 0.02400
H 	H 	0.62500 0.87220 0.03010 0.02400
C 	C 	0.68760 0.85620 0.99950 -0.05700
H 	H 	0.70510 0.84490 0.00550 0.02900
H 	H 	0.69380 0.87660 0.99530 0.02900
C 	C 	0.65740 0.82550 0.02800 -0.04000
H 	H 	0.64320 0.82400 0.04440 0.02200
H 	H 	0.67510 0.81410 0.03340 0.02300
H 	H 	0.66110 0.56400 0.62640 0.02700
H 	H 	0.71440 0.56040 0.59760 0.02600
H 	H 	0.74540 0.46700 0.52950 0.02600
H 	H 	0.71000 0.42060 0.51510 0.02500
C 	C 	0.70520 0.44430 0.58170 -0.05300
H 	H 	0.72340 0.43480 0.58890 0.02800
H 	H 	0.69040 0.44320 0.59750 0.02600
N 	N 	0.66542 0.35609 0.52385 -0.13800
C 	C 	0.71160 0.47700 0.57420 -0.04500
H 	H 	0.69880 0.48980 0.58610 0.02500
H 	H 	0.73220 0.48170 0.57910 0.02300
C 	C 	0.61860 0.39320 0.59470 -0.04900
H 	H 	0.61100 0.38340 0.57690 0.02600
H 	H 	0.62350 0.41370 0.58940 0.02600
H 	H 	0.62900 0.33660 0.59620 0.02600
C 	C 	0.64010 0.37280 0.51460 -0.04800
H 	H 	0.64580 0.39350 0.51140 0.02400
H 	H 	0.62500 0.37220 0.53010 0.02400
C 	C 	0.68760 0.35620 0.49950 -0.05700
H 	H 	0.70510 0.34490 0.50550 0.02900
H 	H 	0.69380 0.37660 0.49530 0.02900
C 	C 	0.65740 0.32550 0.52800 -0.04000
H 	H 	0.64320 0.32400 0.54440 0.02200
H 	H 	0.67510 0.31410 0.53340 0.02300
H 	H 	0.16110 0.06400 0.62640 0.02700
H 	H 	0.21440 0.06040 0.59760 0.02600
H 	H 	0.24540 0.96700 0.52950 0.02600
H 	H 	0.21000 0.92060 0.51510 0.02500
C 	C 	0.20520 0.94430 0.58170 -0.05300
H 	H 	0.22340 0.93480 0.58890 0.02800
H 	H 	0.19040 0.94320 0.59750 0.02600
N 	N 	0.16542 0.85609 0.52385 -0.13800
C 	C 	0.21160 0.97700 0.57420 -0.04500
H 	H 	0.19880 0.98980 0.58610 0.02500
H 	H 	0.23220 0.98170 0.57910 0.02300
C 	C 	0.11860 0.89320 0.59470 -0.04900
H 	H 	0.11100 0.88340 0.57690 0.02600
H 	H 	0.12350 0.91370 0.58940 0.02600
H 	H 	0.12900 0.83660 0.59620 0.02600
C 	C 	0.14010 0.87280 0.51460 -0.04800
H 	H 	0.14580 0.89350 0.51140 0.02400
H 	H 	0.12500 0.87220 0.53010 0.02400
C 	C 	0.18760 0.85620 0.49950 -0.05700
H 	H 	0.20510 0.84490 0.50550 0.02900
H 	H 	0.19380 0.87660 0.49530 0.02900
C 	C 	0.15740 0.82550 0.52800 -0.04000
H 	H 	0.14320 0.82400 0.54440 0.02200
H 	H 	0.17510 0.81410 0.53340 0.02300
H 	H 	0.16110 0.56400 0.12640 0.02700
H 	H 	0.21440 0.56040 0.09760 0.02600
H 	H 	0.24540 0.46700 0.02950 0.02600
H 	H 	0.21000 0.42060 0.01510 0.02500
C 	C 	0.20520 0.44430 0.08170 -0.05300
H 	H 	0.22340 0.43480 0.08890 0.02800
H 	H 	0.19040 0.44320 0.09750 0.02600
N 	N 	0.16542 0.35609 0.02385 -0.13800
C 	C 	0.21160 0.47700 0.07420 -0.04500
H 	H 	0.19880 0.48980 0.08610 0.02500
H 	H 	0.23220 0.48170 0.07910 0.02300
C 	C 	0.11860 0.39320 0.09470 -0.04900
H 	H 	0.11100 0.38340 0.07690 0.02600
H 	H 	0.12350 0.41370 0.08940 0.02600
H 	H 	0.12900 0.33660 0.09620 0.02600
C 	C 	0.14010 0.37280 0.01460 -0.04800
H 	H 	0.14580 0.39350 0.01140 0.02400
H 	H 	0.12500 0.37220 0.03010 0.02400
C 	C 	0.18760 0.35620 0.99950 -0.05700
H 	H 	0.20510 0.34490 0.00550 0.02900
H 	H 	0.19380 0.37660 0.99530 0.02900
C 	C 	0.15740 0.32550 0.02800 -0.04000
H 	H 	0.14320 0.32400 0.04440 0.02200
H 	H 	0.17510 0.31410 0.03340 0.02300
H 	H 	0.16110 0.68600 0.12360 0.02700
H 	H 	0.21440 0.68960 0.15240 0.02600
H 	H 	0.24540 0.78300 0.22050 0.02600
H 	H 	0.21000 0.82940 0.23490 0.02500
C 	C 	0.20520 0.80570 0.16830 -0.05300
H 	H 	0.22340 0.81520 0.16110 0.02800
H 	H 	0.19040 0.80680 0.15250 0.02600
N 	N 	0.16542 0.89391 0.22615 -0.13800
C 	C 	0.21160 0.77300 0.17580 -0.04500
H 	H 	0.19880 0.76020 0.16390 0.02500
H 	H 	0.23220 0.76830 0.17090 0.02300
C 	C 	0.11860 0.85680 0.15530 -0.04900
H 	H 	0.11100 0.86660 0.17310 0.02600
H 	H 	0.12350 0.83630 0.16060 0.02600
H 	H 	0.12900 0.91340 0.15380 0.02600
C 	C 	0.14010 0.87720 0.23540 -0.04800
H 	H 	0.14580 0.85650 0.23860 0.02400
H 	H 	0.12500 0.87780 0.21990 0.02400
C 	C 	0.18760 0.89380 0.25050 -0.05700
H 	H 	0.20510 0.90510 0.24450 0.02900
H 	H 	0.19380 0.87340 0.25470 0.02900
C 	C 	0.15740 0.92450 0.22200 -0.04000
H 	H 	0.14320 0.92600 0.20560 0.02200
H 	H 	0.17510 0.93590 0.21660 0.02300
H 	H 	0.16110 0.18600 0.62360 0.02700
H 	H 	0.21440 0.18960 0.65240 0.02600
H 	H 	0.24540 0.28300 0.72050 0.02600
H 	H 	0.21000 0.32940 0.73490 0.02500
C 	C 	0.20520 0.30570 0.66830 -0.05300
H 	H 	0.22340 0.31520 0.66110 0.02800
H 	H 	0.19040 0.30680 0.65250 0.02600
N 	N 	0.16542 0.39391 0.72615 -0.13800
C 	C 	0.21160 0.27300 0.67580 -0.04500
H 	H 	0.19880 0.26020 0.66390 0.02500
H 	H 	0.23220 0.26830 0.67090 0.02300
C 	C 	0.11860 0.35680 0.65530 -0.04900
H 	H 	0.11100 0.36660 0.67310 0.02600
H 	H 	0.12350 0.33630 0.66060 0.02600
H 	H 	0.12900 0.41340 0.65380 0.02600
C 	C 	0.14010 0.37720 0.73540 -0.04800
H 	H 	0.14580 0.35650 0.73860 0.02400
H 	H 	0.12500 0.37780 0.71990 0.02400
C 	C 	0.18760 0.39380 0.75050 -0.05700
H 	H 	0.20510 0.40510 0.74450 0.02900
H 	H 	0.19380 0.37340 0.75470 0.02900
C 	C 	0.15740 0.42450 0.72200 -0.04000
H 	H 	0.14320 0.42600 0.70560 0.02200
H 	H 	0.17510 0.43590 0.71660 0.02300
H 	H 	0.66110 0.68600 0.62360 0.02700
H 	H 	0.71440 0.68960 0.65240 0.02600
H 	H 	0.74540 0.78300 0.72050 0.02600
H 	H 	0.71000 0.82940 0.73490 0.02500
C 	C 	0.70520 0.80570 0.66830 -0.05300
H 	H 	0.72340 0.81520 0.66110 0.02800
H 	H 	0.69040 0.80680 0.65250 0.02600
N 	N 	0.66542 0.89391 0.72615 -0.13800
C 	C 	0.71160 0.77300 0.67580 -0.04500
H 	H 	0.69880 0.76020 0.66390 0.02500
H 	H 	0.73220 0.76830 0.67090 0.02300
C 	C 	0.61860 0.85680 0.65530 -0.04900
H 	H 	0.61100 0.86660 0.67310 0.02600
H 	H 	0.62350 0.83630 0.66060 0.02600
H 	H 	0.62900 0.91340 0.65380 0.02600
C 	C 	0.64010 0.87720 0.73540 -0.04800
H 	H 	0.64580 0.85650 0.73860 0.02400
H 	H 	0.62500 0.87780 0.71990 0.02400
C 	C 	0.68760 0.89380 0.75050 -0.05700
H 	H 	0.70510 0.90510 0.74450 0.02900
H 	H 	0.69380 0.87340 0.75470 0.02900
C 	C 	0.65740 0.92450 0.72200 -0.04000
H 	H 	0.64320 0.92600 0.70560 0.02200
H 	H 	0.67510 0.93590 0.71660 0.02300
H 	H 	0.66110 0.18600 0.12360 0.02700
H 	H 	0.71440 0.18960 0.15240 0.02600
H 	H 	0.74540 0.28300 0.22050 0.02600
H 	H 	0.71000 0.32940 0.23490 0.02500
C 	C 	0.70520 0.30570 0.16830 -0.05300
H 	H 	0.72340 0.31520 0.16110 0.02800
H 	H 	0.69040 0.30680 0.15250 0.02600
N 	N 	0.66542 0.39391 0.22615 -0.13800
C 	C 	0.71160 0.27300 0.17580 -0.04500
H 	H 	0.69880 0.26020 0.16390 0.02500
H 	H 	0.73220 0.26830 0.17090 0.02300
C 	C 	0.61860 0.35680 0.15530 -0.04900
H 	H 	0.61100 0.36660 0.17310 0.02600
H 	H 	0.62350 0.33630 0.16060 0.02600
H 	H 	0.62900 0.41340 0.15380 0.02600
C 	C 	0.64010 0.37720 0.23540 -0.04800
H 	H 	0.64580 0.35650 0.23860 0.02400
H 	H 	0.62500 0.37780 0.21990 0.02400
C 	C 	0.68760 0.39380 0.25050 -0.05700
H 	H 	0.70510 0.40510 0.24450 0.02900
H 	H 	0.69380 0.37340 0.25470 0.02900
C 	C 	0.65740 0.42450 0.22200 -0.04000
H 	H 	0.64320 0.42600 0.20560 0.02200
H 	H 	0.67510 0.43590 0.21660 0.02300
H 	H 	0.62640 0.08890 0.18600 0.02700
H 	H 	0.59760 0.03560 0.18960 0.02600
H 	H 	0.52950 0.00460 0.28300 0.02600
H 	H 	0.51510 0.04000 0.32940 0.02500
C 	C 	0.58170 0.04480 0.30570 -0.05300
H 	H 	0.58890 0.02660 0.31520 0.02800
H 	H 	0.59750 0.05960 0.30680 0.02600
N 	N 	0.52385 0.08458 0.39391 -0.13800
C 	C 	0.57420 0.03840 0.27300 -0.04500
H 	H 	0.58610 0.05120 0.26020 0.02500
H 	H 	0.57910 0.01780 0.26830 0.02300
C 	C 	0.59470 0.13140 0.35680 -0.04900
H 	H 	0.57690 0.13900 0.36660 0.02600
H 	H 	0.58940 0.12650 0.33630 0.02600
H 	H 	0.59620 0.12100 0.41340 0.02600
C 	C 	0.51460 0.10990 0.37720 -0.04800
H 	H 	0.51140 0.10420 0.35650 0.02400
H 	H 	0.53010 0.12500 0.37780 0.02400
C 	C 	0.49950 0.06240 0.39380 -0.05700
H 	H 	0.50550 0.04490 0.40510 0.02900
H 	H 	0.49530 0.05620 0.37340 0.02900
C 	C 	0.52800 0.09260 0.42450 -0.04000
H 	H 	0.54440 0.10680 0.42600 0.02200
H 	H 	0.53340 0.07490 0.43590 0.02300
H 	H 	0.62640 0.58890 0.68600 0.02700
H 	H 	0.59760 0.53560 0.68960 0.02600
H 	H 	0.52950 0.50460 0.78300 0.02600
H 	H 	0.51510 0.54000 0.82940 0.02500
C 	C 	0.58170 0.54480 0.80570 -0.05300
H 	H 	0.58890 0.52660 0.81520 0.02800
H 	H 	0.59750 0.55960 0.80680 0.02600
N 	N 	0.52385 0.58458 0.89391 -0.13800
C 	C 	0.57420 0.53840 0.77300 -0.04500
H 	H 	0.58610 0.55120 0.76020 0.02500
H 	H 	0.57910 0.51780 0.76830 0.02300
C 	C 	0.59470 0.63140 0.85680 -0.04900
H 	H 	0.57690 0.63900 0.86660 0.02600
H 	H 	0.58940 0.62650 0.83630 0.02600
H 	H 	0.59620 0.62100 0.91340 0.02600
C 	C 	0.51460 0.60990 0.87720 -0.04800
H 	H 	0.51140 0.60420 0.85650 0.02400
H 	H 	0.53010 0.62500 0.87780 0.02400
C 	C 	0.49950 0.56240 0.89380 -0.05700
H 	H 	0.50550 0.54490 0.90510 0.02900
H 	H 	0.49530 0.55620 0.87340 0.02900
C 	C 	0.52800 0.59260 0.92450 -0.04000
H 	H 	0.54440 0.60680 0.92600 0.02200
H 	H 	0.53340 0.57490 0.93590 0.02300
H 	H 	0.12640 0.08890 0.68600 0.02700
H 	H 	0.09760 0.03560 0.68960 0.02600
H 	H 	0.02950 0.00460 0.78300 0.02600
H 	H 	0.01510 0.04000 0.82940 0.02500
C 	C 	0.08170 0.04480 0.80570 -0.05300
H 	H 	0.08890 0.02660 0.81520 0.02800
H 	H 	0.09750 0.05960 0.80680 0.02600
N 	N 	0.02385 0.08458 0.89391 -0.13800
C 	C 	0.07420 0.03840 0.77300 -0.04500
H 	H 	0.08610 0.05120 0.76020 0.02500
H 	H 	0.07910 0.01780 0.76830 0.02300
C 	C 	0.09470 0.13140 0.85680 -0.04900
H 	H 	0.07690 0.13900 0.86660 0.02600
H 	H 	0.08940 0.12650 0.83630 0.02600
H 	H 	0.09620 0.12100 0.91340 0.02600
C 	C 	0.01460 0.10990 0.87720 -0.04800
H 	H 	0.01140 0.10420 0.85650 0.02400
H 	H 	0.03010 0.12500 0.87780 0.02400
C 	C 	0.99950 0.06240 0.89380 -0.05700
H 	H 	0.00550 0.04490 0.90510 0.02900
H 	H 	0.99530 0.05620 0.87340 0.02900
C 	C 	0.02800 0.09260 0.92450 -0.04000
H 	H 	0.04440 0.10680 0.92600 0.02200
H 	H 	0.03340 0.07490 0.93590 0.02300
H 	H 	0.12640 0.58890 0.18600 0.02700
H 	H 	0.09760 0.53560 0.18960 0.02600
H 	H 	0.02950 0.50460 0.28300 0.02600
H 	H 	0.01510 0.54000 0.32940 0.02500
C 	C 	0.08170 0.54480 0.30570 -0.05300
H 	H 	0.08890 0.52660 0.31520 0.02800
H 	H 	0.09750 0.55960 0.30680 0.02600
N 	N 	0.02385 0.58458 0.39391 -0.13800
C 	C 	0.07420 0.53840 0.27300 -0.04500
H 	H 	0.08610 0.55120 0.26020 0.02500
H 	H 	0.07910 0.51780 0.26830 0.02300
C 	C 	0.09470 0.63140 0.35680 -0.04900
H 	H 	0.07690 0.63900 0.36660 0.02600
H 	H 	0.08940 0.62650 0.33630 0.02600
H 	H 	0.09620 0.62100 0.41340 0.02600
C 	C 	0.01460 0.60990 0.37720 -0.04800
H 	H 	0.01140 0.60420 0.35650 0.02400
H 	H 	0.03010 0.62500 0.37780 0.02400
C 	C 	0.99950 0.56240 0.39380 -0.05700
H 	H 	0.00550 0.54490 0.40510 0.02900
H 	H 	0.99530 0.55620 0.37340 0.02900
C 	C 	0.02800 0.59260 0.42450 -0.04000
H 	H 	0.04440 0.60680 0.42600 0.02200
H 	H 	0.03340 0.57490 0.43590 0.02300
H 	H 	0.62360 0.58890 0.56400 0.02700
H 	H 	0.65240 0.53560 0.56040 0.02600
H 	H 	0.72050 0.50460 0.46700 0.02600
H 	H 	0.73490 0.54000 0.42060 0.02500
C 	C 	0.66830 0.54480 0.44430 -0.05300
H 	H 	0.66110 0.52660 0.43480 0.02800
H 	H 	0.65250 0.55960 0.44320 0.02600
N 	N 	0.72615 0.58458 0.35609 -0.13800
C 	C 	0.67580 0.53840 0.47700 -0.04500
H 	H 	0.66390 0.55120 0.48980 0.02500
H 	H 	0.67090 0.51780 0.48170 0.02300
C 	C 	0.65530 0.63140 0.39320 -0.04900
H 	H 	0.67310 0.63900 0.38340 0.02600
H 	H 	0.66060 0.62650 0.41370 0.02600
H 	H 	0.65380 0.62100 0.33660 0.02600
C 	C 	0.73540 0.60990 0.37280 -0.04800
H 	H 	0.73860 0.60420 0.39350 0.02400
H 	H 	0.71990 0.62500 0.37220 0.02400
C 	C 	0.75050 0.56240 0.35620 -0.05700
H 	H 	0.74450 0.54490 0.34490 0.02900
H 	H 	0.75470 0.55620 0.37660 0.02900
C 	C 	0.72200 0.59260 0.32550 -0.04000
H 	H 	0.70560 0.60680 0.32400 0.02200
H 	H 	0.71660 0.57490 0.31410 0.02300
H 	H 	0.62360 0.08890 0.06400 0.02700
H 	H 	0.65240 0.03560 0.06040 0.02600
H 	H 	0.72050 0.00460 0.96700 0.02600
H 	H 	0.73490 0.04000 0.92060 0.02500
C 	C 	0.66830 0.04480 0.94430 -0.05300
H 	H 	0.66110 0.02660 0.93480 0.02800
H 	H 	0.65250 0.05960 0.94320 0.02600
N 	N 	0.72615 0.08458 0.85609 -0.13800
C 	C 	0.67580 0.03840 0.97700 -0.04500
H 	H 	0.66390 0.05120 0.98980 0.02500
H 	H 	0.67090 0.01780 0.98170 0.02300
C 	C 	0.65530 0.13140 0.89320 -0.04900
H 	H 	0.67310 0.13900 0.88340 0.02600
H 	H 	0.66060 0.12650 0.91370 0.02600
H 	H 	0.65380 0.12100 0.83660 0.02600
C 	C 	0.73540 0.10990 0.87280 -0.04800
H 	H 	0.73860 0.10420 0.89350 0.02400
H 	H 	0.71990 0.12500 0.87220 0.02400
C 	C 	0.75050 0.06240 0.85620 -0.05700
H 	H 	0.74450 0.04490 0.84490 0.02900
H 	H 	0.75470 0.05620 0.87660 0.02900
C 	C 	0.72200 0.09260 0.82550 -0.04000
H 	H 	0.70560 0.10680 0.82400 0.02200
H 	H 	0.71660 0.07490 0.81410 0.02300
H 	H 	0.12360 0.58890 0.06400 0.02700
H 	H 	0.15240 0.53560 0.06040 0.02600
H 	H 	0.22050 0.50460 0.96700 0.02600
H 	H 	0.23490 0.54000 0.92060 0.02500
C 	C 	0.16830 0.54480 0.94430 -0.05300
H 	H 	0.16110 0.52660 0.93480 0.02800
H 	H 	0.15250 0.55960 0.94320 0.02600
N 	N 	0.22615 0.58458 0.85609 -0.13800
C 	C 	0.17580 0.53840 0.97700 -0.04500
H 	H 	0.16390 0.55120 0.98980 0.02500
H 	H 	0.17090 0.51780 0.98170 0.02300
C 	C 	0.15530 0.63140 0.89320 -0.04900
H 	H 	0.17310 0.63900 0.88340 0.02600
H 	H 	0.16060 0.62650 0.91370 0.02600
H 	H 	0.15380 0.62100 0.83660 0.02600
C 	C 	0.23540 0.60990 0.87280 -0.04800
H 	H 	0.23860 0.60420 0.89350 0.02400
H 	H 	0.21990 0.62500 0.87220 0.02400
C 	C 	0.25050 0.56240 0.85620 -0.05700
H 	H 	0.24450 0.54490 0.84490 0.02900
H 	H 	0.25470 0.55620 0.87660 0.02900
C 	C 	0.22200 0.59260 0.82550 -0.04000
H 	H 	0.20560 0.60680 0.82400 0.02200
H 	H 	0.21660 0.57490 0.81410 0.02300
H 	H 	0.12360 0.08890 0.56400 0.02700
H 	H 	0.15240 0.03560 0.56040 0.02600
H 	H 	0.22050 0.00460 0.46700 0.02600
H 	H 	0.23490 0.04000 0.42060 0.02500
C 	C 	0.16830 0.04480 0.44430 -0.05300
H 	H 	0.16110 0.02660 0.43480 0.02800
H 	H 	0.15250 0.05960 0.44320 0.02600
N 	N 	0.22615 0.08458 0.35609 -0.13800
C 	C 	0.17580 0.03840 0.47700 -0.04500
H 	H 	0.16390 0.05120 0.48980 0.02500
H 	H 	0.17090 0.01780 0.48170 0.02300
C 	C 	0.15530 0.13140 0.39320 -0.04900
H 	H 	0.17310 0.13900 0.38340 0.02600
H 	H 	0.16060 0.12650 0.41370 0.02600
H 	H 	0.15380 0.12100 0.33660 0.02600
C 	C 	0.23540 0.10990 0.37280 -0.04800
H 	H 	0.23860 0.10420 0.39350 0.02400
H 	H 	0.21990 0.12500 0.37220 0.02400
C 	C 	0.25050 0.06240 0.35620 -0.05700
H 	H 	0.24450 0.04490 0.34490 0.02900
H 	H 	0.25470 0.05620 0.37660 0.02900
C 	C 	0.22200 0.09260 0.32550 -0.04000
H 	H 	0.20560 0.10680 0.32400 0.02200
H 	H 	0.21660 0.07490 0.31410 0.02300
H 	H 	0.12640 0.66110 0.06400 0.02700
H 	H 	0.09760 0.71440 0.06040 0.02600
H 	H 	0.02950 0.74540 0.96700 0.02600
H 	H 	0.01510 0.71000 0.92060 0.02500
C 	C 	0.08170 0.70520 0.94430 -0.05300
H 	H 	0.08890 0.72340 0.93480 0.02800
H 	H 	0.09750 0.69040 0.94320 0.02600
N 	N 	0.02385 0.66542 0.85609 -0.13800
C 	C 	0.07420 0.71160 0.97700 -0.04500
H 	H 	0.08610 0.69880 0.98980 0.02500
H 	H 	0.07910 0.73220 0.98170 0.02300
C 	C 	0.09470 0.61860 0.89320 -0.04900
H 	H 	0.07690 0.61100 0.88340 0.02600
H 	H 	0.08940 0.62350 0.91370 0.02600
H 	H 	0.09620 0.62900 0.83660 0.02600
C 	C 	0.01460 0.64010 0.87280 -0.04800
H 	H 	0.01140 0.64580 0.89350 0.02400
H 	H 	0.03010 0.62500 0.87220 0.02400
C 	C 	0.99950 0.68760 0.85620 -0.05700
H 	H 	0.00550 0.70510 0.84490 0.02900
H 	H 	0.99530 0.69380 0.87660 0.02900
C 	C 	0.02800 0.65740 0.82550 -0.04000
H 	H 	0.04440 0.64320 0.82400 0.02200
H 	H 	0.03340 0.67510 0.81410 0.02300
H 	H 	0.12640 0.16110 0.56400 0.02700
H 	H 	0.09760 0.21440 0.56040 0.02600
H 	H 	0.02950 0.24540 0.46700 0.02600
H 	H 	0.01510 0.21000 0.42060 0.02500
C 	C 	0.08170 0.20520 0.44430 -0.05300
H 	H 	0.08890 0.22340 0.43480 0.02800
H 	H 	0.09750 0.19040 0.44320 0.02600
N 	N 	0.02385 0.16542 0.35609 -0.13800
C 	C 	0.07420 0.21160 0.47700 -0.04500
H 	H 	0.08610 0.19880 0.48980 0.02500
H 	H 	0.07910 0.23220 0.48170 0.02300
C 	C 	0.09470 0.11860 0.39320 -0.04900
H 	H 	0.07690 0.11100 0.38340 0.02600
H 	H 	0.08940 0.12350 0.41370 0.02600
H 	H 	0.09620 0.12900 0.33660 0.02600
C 	C 	0.01460 0.14010 0.37280 -0.04800
H 	H 	0.01140 0.14580 0.39350 0.02400
H 	H 	0.03010 0.12500 0.37220 0.02400
C 	C 	0.99950 0.18760 0.35620 -0.05700
H 	H 	0.00550 0.20510 0.34490 0.02900
H 	H 	0.99530 0.19380 0.37660 0.02900
C 	C 	0.02800 0.15740 0.32550 -0.04000
H 	H 	0.04440 0.14320 0.32400 0.02200
H 	H 	0.03340 0.17510 0.31410 0.02300
H 	H 	0.62640 0.66110 0.56400 0.02700
H 	H 	0.59760 0.71440 0.56040 0.02600
H 	H 	0.52950 0.74540 0.46700 0.02600
H 	H 	0.51510 0.71000 0.42060 0.02500
C 	C 	0.58170 0.70520 0.44430 -0.05300
H 	H 	0.58890 0.72340 0.43480 0.02800
H 	H 	0.59750 0.69040 0.44320 0.02600
N 	N 	0.52385 0.66542 0.35609 -0.13800
C 	C 	0.57420 0.71160 0.47700 -0.04500
H 	H 	0.58610 0.69880 0.48980 0.02500
H 	H 	0.57910 0.73220 0.48170 0.02300
C 	C 	0.59470 0.61860 0.39320 -0.04900
H 	H 	0.57690 0.61100 0.38340 0.02600
H 	H 	0.58940 0.62350 0.41370 0.02600
H 	H 	0.59620 0.62900 0.33660 0.02600
C 	C 	0.51460 0.64010 0.37280 -0.04800
H 	H 	0.51140 0.64580 0.39350 0.02400
H 	H 	0.53010 0.62500 0.37220 0.02400
C 	C 	0.49950 0.68760 0.35620 -0.05700
H 	H 	0.50550 0.70510 0.34490 0.02900
H 	H 	0.49530 0.69380 0.37660 0.02900
C 	C 	0.52800 0.65740 0.32550 -0.04000
H 	H 	0.54440 0.64320 0.32400 0.02200
H 	H 	0.53340 0.67510 0.31410 0.02300
H 	H 	0.62640 0.16110 0.06400 0.02700
H 	H 	0.59760 0.21440 0.06040 0.02600
H 	H 	0.52950 0.24540 0.96700 0.02600
H 	H 	0.51510 0.21000 0.92060 0.02500
C 	C 	0.58170 0.20520 0.94430 -0.05300
H 	H 	0.58890 0.22340 0.93480 0.02800
H 	H 	0.59750 0.19040 0.94320 0.02600
N 	N 	0.52385 0.16542 0.85609 -0.13800
C 	C 	0.57420 0.21160 0.97700 -0.04500
H 	H 	0.58610 0.19880 0.98980 0.02500
H 	H 	0.57910 0.23220 0.98170 0.02300
C 	C 	0.59470 0.11860 0.89320 -0.04900
H 	H 	0.57690 0.11100 0.88340 0.02600
H 	H 	0.58940 0.12350 0.91370 0.02600
H 	H 	0.59620 0.12900 0.83660 0.02600
C 	C 	0.51460 0.14010 0.87280 -0.04800
H 	H 	0.51140 0.14580 0.89350 0.02400
H 	H 	0.53010 0.12500 0.87220 0.02400
C 	C 	0.49950 0.18760 0.85620 -0.05700
H 	H 	0.50550 0.20510 0.84490 0.02900
H 	H 	0.49530 0.19380 0.87660 0.02900
C 	C 	0.52800 0.15740 0.82550 -0.04000
H 	H 	0.54440 0.14320 0.82400 0.02200
H 	H 	0.53340 0.17510 0.81410 0.02300
H 	H 	0.12360 0.16110 0.68600 0.02700
H 	H 	0.15240 0.21440 0.68960 0.02600
H 	H 	0.22050 0.24540 0.78300 0.02600
H 	H 	0.23490 0.21000 0.82940 0.02500
C 	C 	0.16830 0.20520 0.80570 -0.05300
H 	H 	0.16110 0.22340 0.81520 0.02800
H 	H 	0.15250 0.19040 0.80680 0.02600
N 	N 	0.22615 0.16542 0.89391 -0.13800
C 	C 	0.17580 0.21160 0.77300 -0.04500
H 	H 	0.16390 0.19880 0.76020 0.02500
H 	H 	0.17090 0.23220 0.76830 0.02300
C 	C 	0.15530 0.11860 0.85680 -0.04900
H 	H 	0.17310 0.11100 0.86660 0.02600
H 	H 	0.16060 0.12350 0.83630 0.02600
H 	H 	0.15380 0.12900 0.91340 0.02600
C 	C 	0.23540 0.14010 0.87720 -0.04800
H 	H 	0.23860 0.14580 0.85650 0.02400
H 	H 	0.21990 0.12500 0.87780 0.02400
C 	C 	0.25050 0.18760 0.89380 -0.05700
H 	H 	0.24450 0.20510 0.90510 0.02900
H 	H 	0.25470 0.19380 0.87340 0.02900
C 	C 	0.22200 0.15740 0.92450 -0.04000
H 	H 	0.20560 0.14320 0.92600 0.02200
H 	H 	0.21660 0.17510 0.93590 0.02300
H 	H 	0.12360 0.66110 0.18600 0.02700
H 	H 	0.15240 0.71440 0.18960 0.02600
H 	H 	0.22050 0.74540 0.28300 0.02600
H 	H 	0.23490 0.71000 0.32940 0.02500
C 	C 	0.16830 0.70520 0.30570 -0.05300
H 	H 	0.16110 0.72340 0.31520 0.02800
H 	H 	0.15250 0.69040 0.30680 0.02600
N 	N 	0.22615 0.66542 0.39391 -0.13800
C 	C 	0.17580 0.71160 0.27300 -0.04500
H 	H 	0.16390 0.69880 0.26020 0.02500
H 	H 	0.17090 0.73220 0.26830 0.02300
C 	C 	0.15530 0.61860 0.35680 -0.04900
H 	H 	0.17310 0.61100 0.36660 0.02600
H 	H 	0.16060 0.62350 0.33630 0.02600
H 	H 	0.15380 0.62900 0.41340 0.02600
C 	C 	0.23540 0.64010 0.37720 -0.04800
H 	H 	0.23860 0.64580 0.35650 0.02400
H 	H 	0.21990 0.62500 0.37780 0.02400
C 	C 	0.25050 0.68760 0.39380 -0.05700
H 	H 	0.24450 0.70510 0.40510 0.02900
H 	H 	0.25470 0.69380 0.37340 0.02900
C 	C 	0.22200 0.65740 0.42450 -0.04000
H 	H 	0.20560 0.64320 0.42600 0.02200
H 	H 	0.21660 0.67510 0.43590 0.02300
H 	H 	0.62360 0.16110 0.18600 0.02700
H 	H 	0.65240 0.21440 0.18960 0.02600
H 	H 	0.72050 0.24540 0.28300 0.02600
H 	H 	0.73490 0.21000 0.32940 0.02500
C 	C 	0.66830 0.20520 0.30570 -0.05300
H 	H 	0.66110 0.22340 0.31520 0.02800
H 	H 	0.65250 0.19040 0.30680 0.02600
N 	N 	0.72615 0.16542 0.39391 -0.13800
C 	C 	0.67580 0.21160 0.27300 -0.04500
H 	H 	0.66390 0.19880 0.26020 0.02500
H 	H 	0.67090 0.23220 0.26830 0.02300
C 	C 	0.65530 0.11860 0.35680 -0.04900
H 	H 	0.67310 0.11100 0.36660 0.02600
H 	H 	0.66060 0.12350 0.33630 0.02600
H 	H 	0.65380 0.12900 0.41340 0.02600
C 	C 	0.73540 0.14010 0.37720 -0.04800
H 	H 	0.73860 0.14580 0.35650 0.02400
H 	H 	0.71990 0.12500 0.37780 0.02400
C 	C 	0.75050 0.18760 0.39380 -0.05700
H 	H 	0.74450 0.20510 0.40510 0.02900
H 	H 	0.75470 0.19380 0.37340 0.02900
C 	C 	0.72200 0.15740 0.42450 -0.04000
H 	H 	0.70560 0.14320 0.42600 0.02200
H 	H 	0.71660 0.17510 0.43590 0.02300
H 	H 	0.62360 0.66110 0.68600 0.02700
H 	H 	0.65240 0.71440 0.68960 0.02600
H 	H 	0.72050 0.74540 0.78300 0.02600
H 	H 	0.73490 0.71000 0.82940 0.02500
C 	C 	0.66830 0.70520 0.80570 -0.05300
H 	H 	0.66110 0.72340 0.81520 0.02800
H 	H 	0.65250 0.69040 0.80680 0.02600
N 	N 	0.72615 0.66542 0.89391 -0.13800
C 	C 	0.67580 0.71160 0.77300 -0.04500
H 	H 	0.66390 0.69880 0.76020 0.02500
H 	H 	0.67090 0.73220 0.76830 0.02300
C 	C 	0.65530 0.61860 0.85680 -0.04900
H 	H 	0.67310 0.61100 0.86660 0.02600
H 	H 	0.66060 0.62350 0.83630 0.02600
H 	H 	0.65380 0.62900 0.91340 0.02600
C 	C 	0.73540 0.64010 0.87720 -0.04800
H 	H 	0.73860 0.64580 0.85650 0.02400
H 	H 	0.71990 0.62500 0.87780 0.02400
C 	C 	0.75050 0.68760 0.89380 -0.05700
H 	H 	0.74450 0.70510 0.90510 0.02900
H 	H 	0.75470 0.69380 0.87340 0.02900
C 	C 	0.72200 0.65740 0.92450 -0.04000
H 	H 	0.70560 0.64320 0.92600 0.02200
H 	H 	0.71660 0.67510 0.93590 0.02300
H 	H 	0.37640 0.43600 0.41110 0.02700
H 	H 	0.34760 0.43960 0.46440 0.02600
H 	H 	0.27950 0.53300 0.49540 0.02600
H 	H 	0.26510 0.57940 0.46000 0.02500
C 	C 	0.33170 0.55570 0.45520 -0.05300
H 	H 	0.33890 0.56520 0.47340 0.02800
H 	H 	0.34750 0.55680 0.44040 0.02600
N 	N 	0.27385 0.64391 0.41542 -0.13800
C 	C 	0.32420 0.52300 0.46160 -0.04500
H 	H 	0.33610 0.51020 0.44880 0.02500
H 	H 	0.32910 0.51830 0.48220 0.02300
C 	C 	0.34470 0.60680 0.36860 -0.04900
H 	H 	0.32690 0.61660 0.36100 0.02600
H 	H 	0.33940 0.58630 0.37350 0.02600
H 	H 	0.34620 0.66340 0.37900 0.02600
C 	C 	0.26460 0.62720 0.39010 -0.04800
H 	H 	0.26140 0.60650 0.39580 0.02400
H 	H 	0.28010 0.62780 0.37500 0.02400
C 	C 	0.24950 0.64380 0.43760 -0.05700
H 	H 	0.25550 0.65510 0.45510 0.02900
H 	H 	0.24530 0.62340 0.44380 0.02900
C 	C 	0.27800 0.67450 0.40740 -0.04000
H 	H 	0.29440 0.67600 0.39320 0.02200
H 	H 	0.28340 0.68590 0.42510 0.02300
H 	H 	0.37640 0.93600 0.91110 0.02700
H 	H 	0.34760 0.93960 0.96440 0.02600
H 	H 	0.27950 0.03300 0.99540 0.02600
H 	H 	0.26510 0.07940 0.96000 0.02500
C 	C 	0.33170 0.05570 0.95520 -0.05300
H 	H 	0.33890 0.06520 0.97340 0.02800
H 	H 	0.34750 0.05680 0.94040 0.02600
N 	N 	0.27385 0.14391 0.91542 -0.13800
C 	C 	0.32420 0.02300 0.96160 -0.04500
H 	H 	0.33610 0.01020 0.94880 0.02500
H 	H 	0.32910 0.01830 0.98220 0.02300
C 	C 	0.34470 0.10680 0.86860 -0.04900
H 	H 	0.32690 0.11660 0.86100 0.02600
H 	H 	0.33940 0.08630 0.87350 0.02600
H 	H 	0.34620 0.16340 0.87900 0.02600
C 	C 	0.26460 0.12720 0.89010 -0.04800
H 	H 	0.26140 0.10650 0.89580 0.02400
H 	H 	0.28010 0.12780 0.87500 0.02400
C 	C 	0.24950 0.14380 0.93760 -0.05700
H 	H 	0.25550 0.15510 0.95510 0.02900
H 	H 	0.24530 0.12340 0.94380 0.02900
C 	C 	0.27800 0.17450 0.90740 -0.04000
H 	H 	0.29440 0.17600 0.89320 0.02200
H 	H 	0.28340 0.18590 0.92510 0.02300
H 	H 	0.87640 0.43600 0.91110 0.02700
H 	H 	0.84760 0.43960 0.96440 0.02600
H 	H 	0.77950 0.53300 0.99540 0.02600
H 	H 	0.76510 0.57940 0.96000 0.02500
C 	C 	0.83170 0.55570 0.95520 -0.05300
H 	H 	0.83890 0.56520 0.97340 0.02800
H 	H 	0.84750 0.55680 0.94040 0.02600
N 	N 	0.77385 0.64391 0.91542 -0.13800
C 	C 	0.82420 0.52300 0.96160 -0.04500
H 	H 	0.83610 0.51020 0.94880 0.02500
H 	H 	0.82910 0.51830 0.98220 0.02300
C 	C 	0.84470 0.60680 0.86860 -0.04900
H 	H 	0.82690 0.61660 0.86100 0.02600
H 	H 	0.83940 0.58630 0.87350 0.02600
H 	H 	0.84620 0.66340 0.87900 0.02600
C 	C 	0.76460 0.62720 0.89010 -0.04800
H 	H 	0.76140 0.60650 0.89580 0.02400
H 	H 	0.78010 0.62780 0.87500 0.02400
C 	C 	0.74950 0.64380 0.93760 -0.05700
H 	H 	0.75550 0.65510 0.95510 0.02900
H 	H 	0.74530 0.62340 0.94380 0.02900
C 	C 	0.77800 0.67450 0.90740 -0.04000
H 	H 	0.79440 0.67600 0.89320 0.02200
H 	H 	0.78340 0.68590 0.92510 0.02300
H 	H 	0.87640 0.93600 0.41110 0.02700
H 	H 	0.84760 0.93960 0.46440 0.02600
H 	H 	0.77950 0.03300 0.49540 0.02600
H 	H 	0.76510 0.07940 0.46000 0.02500
C 	C 	0.83170 0.05570 0.45520 -0.05300
H 	H 	0.83890 0.06520 0.47340 0.02800
H 	H 	0.84750 0.05680 0.44040 0.02600
N 	N 	0.77385 0.14391 0.41542 -0.13800
C 	C 	0.82420 0.02300 0.46160 -0.04500
H 	H 	0.83610 0.01020 0.44880 0.02500
H 	H 	0.82910 0.01830 0.48220 0.02300
C 	C 	0.84470 0.10680 0.36860 -0.04900
H 	H 	0.82690 0.11660 0.36100 0.02600
H 	H 	0.83940 0.08630 0.37350 0.02600
H 	H 	0.84620 0.16340 0.37900 0.02600
C 	C 	0.76460 0.12720 0.39010 -0.04800
H 	H 	0.76140 0.10650 0.39580 0.02400
H 	H 	0.78010 0.12780 0.37500 0.02400
C 	C 	0.74950 0.14380 0.43760 -0.05700
H 	H 	0.75550 0.15510 0.45510 0.02900
H 	H 	0.74530 0.12340 0.44380 0.02900
C 	C 	0.77800 0.17450 0.40740 -0.04000
H 	H 	0.79440 0.17600 0.39320 0.02200
H 	H 	0.78340 0.18590 0.42510 0.02300
H 	H 	0.37360 0.81400 0.91110 0.02700
H 	H 	0.40240 0.81040 0.96440 0.02600
H 	H 	0.47050 0.71700 0.99540 0.02600
H 	H 	0.48490 0.67060 0.96000 0.02500
C 	C 	0.41830 0.69430 0.95520 -0.05300
H 	H 	0.41110 0.68480 0.97340 0.02800
H 	H 	0.40250 0.69320 0.94040 0.02600
N 	N 	0.47615 0.60609 0.91542 -0.13800
C 	C 	0.42580 0.72700 0.96160 -0.04500
H 	H 	0.41390 0.73980 0.94880 0.02500
H 	H 	0.42090 0.73170 0.98220 0.02300
C 	C 	0.40530 0.64320 0.86860 -0.04900
H 	H 	0.42310 0.63340 0.86100 0.02600
H 	H 	0.41060 0.66370 0.87350 0.02600
H 	H 	0.40380 0.58660 0.87900 0.02600
C 	C 	0.48540 0.62280 0.89010 -0.04800
H 	H 	0.48860 0.64350 0.89580 0.02400
H 	H 	0.46990 0.62220 0.87500 0.02400
C 	C 	0.50050 0.60620 0.93760 -0.05700
H 	H 	0.49450 0.59490 0.95510 0.02900
H 	H 	0.50470 0.62660 0.94380 0.02900
C 	C 	0.47200 0.57550 0.90740 -0.04000
H 	H 	0.45560 0.57400 0.89320 0.02200
H 	H 	0.46660 0.56410 0.92510 0.02300
H 	H 	0.37360 0.31400 0.41110 0.02700
H 	H 	0.40240 0.31040 0.46440 0.02600
H 	H 	0.47050 0.21700 0.49540 0.02600
H 	H 	0.48490 0.17060 0.46000 0.02500
C 	C 	0.41830 0.19430 0.45520 -0.05300
H 	H 	0.41110 0.18480 0.47340 0.02800
H 	H 	0.40250 0.19320 0.44040 0.02600
N 	N 	0.47615 0.10609 0.41542 -0.13800
C 	C 	0.42580 0.22700 0.46160 -0.04500
H 	H 	0.41390 0.23980 0.44880 0.02500
H 	H 	0.42090 0.23170 0.48220 0.02300
C 	C 	0.40530 0.14320 0.36860 -0.04900
H 	H 	0.42310 0.13340 0.36100 0.02600
H 	H 	0.41060 0.16370 0.37350 0.02600
H 	H 	0.40380 0.08660 0.37900 0.02600
C 	C 	0.48540 0.12280 0.39010 -0.04800
H 	H 	0.48860 0.14350 0.39580 0.02400
H 	H 	0.46990 0.12220 0.37500 0.02400
C 	C 	0.50050 0.10620 0.43760 -0.05700
H 	H 	0.49450 0.09490 0.45510 0.02900
H 	H 	0.50470 0.12660 0.44380 0.02900
C 	C 	0.47200 0.07550 0.40740 -0.04000
H 	H 	0.45560 0.07400 0.39320 0.02200
H 	H 	0.46660 0.06410 0.42510 0.02300
H 	H 	0.87360 0.81400 0.41110 0.02700
H 	H 	0.90240 0.81040 0.46440 0.02600
H 	H 	0.97050 0.71700 0.49540 0.02600
H 	H 	0.98490 0.67060 0.46000 0.02500
C 	C 	0.91830 0.69430 0.45520 -0.05300
H 	H 	0.91110 0.68480 0.47340 0.02800
H 	H 	0.90250 0.69320 0.44040 0.02600
N 	N 	0.97615 0.60609 0.41542 -0.13800
C 	C 	0.92580 0.72700 0.46160 -0.04500
H 	H 	0.91390 0.73980 0.44880 0.02500
H 	H 	0.92090 0.73170 0.48220 0.02300
C 	C 	0.90530 0.64320 0.36860 -0.04900
H 	H 	0.92310 0.63340 0.36100 0.02600
H 	H 	0.91060 0.66370 0.37350 0.02600
H 	H 	0.90380 0.58660 0.37900 0.02600
C 	C 	0.98540 0.62280 0.39010 -0.04800
H 	H 	0.98860 0.64350 0.39580 0.02400
H 	H 	0.96990 0.62220 0.37500 0.02400
C 	C 	0.00050 0.60620 0.43760 -0.05700
H 	H 	0.99450 0.59490 0.45510 0.02900
H 	H 	0.00470 0.62660 0.44380 0.02900
C 	C 	0.97200 0.57550 0.40740 -0.04000
H 	H 	0.95560 0.57400 0.39320 0.02200
H 	H 	0.96660 0.56410 0.42510 0.02300
H 	H 	0.87360 0.31400 0.91110 0.02700
H 	H 	0.90240 0.31040 0.96440 0.02600
H 	H 	0.97050 0.21700 0.99540 0.02600
H 	H 	0.98490 0.17060 0.96000 0.02500
C 	C 	0.91830 0.19430 0.95520 -0.05300
H 	H 	0.91110 0.18480 0.97340 0.02800
H 	H 	0.90250 0.19320 0.94040 0.02600
N 	N 	0.97615 0.10609 0.91542 -0.13800
C 	C 	0.92580 0.22700 0.96160 -0.04500
H 	H 	0.91390 0.23980 0.94880 0.02500
H 	H 	0.92090 0.23170 0.98220 0.02300
C 	C 	0.90530 0.14320 0.86860 -0.04900
H 	H 	0.92310 0.13340 0.86100 0.02600
H 	H 	0.91060 0.16370 0.87350 0.02600
H 	H 	0.90380 0.08660 0.87900 0.02600
C 	C 	0.98540 0.12280 0.89010 -0.04800
H 	H 	0.98860 0.14350 0.89580 0.02400
H 	H 	0.96990 0.12220 0.87500 0.02400
C 	C 	0.00050 0.10620 0.93760 -0.05700
H 	H 	0.99450 0.09490 0.95510 0.02900
H 	H 	0.00470 0.12660 0.94380 0.02900
C 	C 	0.97200 0.07550 0.90740 -0.04000
H 	H 	0.95560 0.07400 0.89320 0.02200
H 	H 	0.96660 0.06410 0.92510 0.02300
H 	H 	0.87640 0.31400 0.83890 0.02700
H 	H 	0.84760 0.31040 0.78560 0.02600
H 	H 	0.77950 0.21700 0.75460 0.02600
H 	H 	0.76510 0.17060 0.79000 0.02500
C 	C 	0.83170 0.19430 0.79480 -0.05300
H 	H 	0.83890 0.18480 0.77660 0.02800
H 	H 	0.84750 0.19320 0.80960 0.02600
N 	N 	0.77385 0.10609 0.83458 -0.13800
C 	C 	0.82420 0.22700 0.78840 -0.04500
H 	H 	0.83610 0.23980 0.80120 0.02500
H 	H 	0.82910 0.23170 0.76780 0.02300
C 	C 	0.84470 0.14320 0.88140 -0.04900
H 	H 	0.82690 0.13340 0.88900 0.02600
H 	H 	0.83940 0.16370 0.87650 0.02600
H 	H 	0.84620 0.08660 0.87100 0.02600
C 	C 	0.76460 0.12280 0.85990 -0.04800
H 	H 	0.76140 0.14350 0.85420 0.02400
H 	H 	0.78010 0.12220 0.87500 0.02400
C 	C 	0.74950 0.10620 0.81240 -0.05700
H 	H 	0.75550 0.09490 0.79490 0.02900
H 	H 	0.74530 0.12660 0.80620 0.02900
C 	C 	0.77800 0.07550 0.84260 -0.04000
H 	H 	0.79440 0.07400 0.85680 0.02200
H 	H 	0.78340 0.06410 0.82490 0.02300
H 	H 	0.87640 0.81400 0.33890 0.02700
H 	H 	0.84760 0.81040 0.28560 0.02600
H 	H 	0.77950 0.71700 0.25460 0.02600
H 	H 	0.76510 0.67060 0.29000 0.02500
C 	C 	0.83170 0.69430 0.29480 -0.05300
H 	H 	0.83890 0.68480 0.27660 0.02800
H 	H 	0.84750 0.69320 0.30960 0.02600
N 	N 	0.77385 0.60609 0.33458 -0.13800
C 	C 	0.82420 0.72700 0.28840 -0.04500
H 	H 	0.83610 0.73980 0.30120 0.02500
H 	H 	0.82910 0.73170 0.26780 0.02300
C 	C 	0.84470 0.64320 0.38140 -0.04900
H 	H 	0.82690 0.63340 0.38900 0.02600
H 	H 	0.83940 0.66370 0.37650 0.02600
H 	H 	0.84620 0.58660 0.37100 0.02600
C 	C 	0.76460 0.62280 0.35990 -0.04800
H 	H 	0.76140 0.64350 0.35420 0.02400
H 	H 	0.78010 0.62220 0.37500 0.02400
C 	C 	0.74950 0.60620 0.31240 -0.05700
H 	H 	0.75550 0.59490 0.29490 0.02900
H 	H 	0.74530 0.62660 0.30620 0.02900
C 	C 	0.77800 0.57550 0.34260 -0.04000
H 	H 	0.79440 0.57400 0.35680 0.02200
H 	H 	0.78340 0.56410 0.32490 0.02300
H 	H 	0.37640 0.31400 0.33890 0.02700
H 	H 	0.34760 0.31040 0.28560 0.02600
H 	H 	0.27950 0.21700 0.25460 0.02600
H 	H 	0.26510 0.17060 0.29000 0.02500
C 	C 	0.33170 0.19430 0.29480 -0.05300
H 	H 	0.33890 0.18480 0.27660 0.02800
H 	H 	0.34750 0.19320 0.30960 0.02600
N 	N 	0.27385 0.10609 0.33458 -0.13800
C 	C 	0.32420 0.22700 0.28840 -0.04500
H 	H 	0.33610 0.23980 0.30120 0.02500
H 	H 	0.32910 0.23170 0.26780 0.02300
C 	C 	0.34470 0.14320 0.38140 -0.04900
H 	H 	0.32690 0.13340 0.38900 0.02600
H 	H 	0.33940 0.16370 0.37650 0.02600
H 	H 	0.34620 0.08660 0.37100 0.02600
C 	C 	0.26460 0.12280 0.35990 -0.04800
H 	H 	0.26140 0.14350 0.35420 0.02400
H 	H 	0.28010 0.12220 0.37500 0.02400
C 	C 	0.24950 0.10620 0.31240 -0.05700
H 	H 	0.25550 0.09490 0.29490 0.02900
H 	H 	0.24530 0.12660 0.30620 0.02900
C 	C 	0.27800 0.07550 0.34260 -0.04000
H 	H 	0.29440 0.07400 0.35680 0.02200
H 	H 	0.28340 0.06410 0.32490 0.02300
H 	H 	0.37640 0.81400 0.83890 0.02700
H 	H 	0.34760 0.81040 0.78560 0.02600
H 	H 	0.27950 0.71700 0.75460 0.02600
H 	H 	0.26510 0.67060 0.79000 0.02500
C 	C 	0.33170 0.69430 0.79480 -0.05300
H 	H 	0.33890 0.68480 0.77660 0.02800
H 	H 	0.34750 0.69320 0.80960 0.02600
N 	N 	0.27385 0.60609 0.83458 -0.13800
C 	C 	0.32420 0.72700 0.78840 -0.04500
H 	H 	0.33610 0.73980 0.80120 0.02500
H 	H 	0.32910 0.73170 0.76780 0.02300
C 	C 	0.34470 0.64320 0.88140 -0.04900
H 	H 	0.32690 0.63340 0.88900 0.02600
H 	H 	0.33940 0.66370 0.87650 0.02600
H 	H 	0.34620 0.58660 0.87100 0.02600
C 	C 	0.26460 0.62280 0.85990 -0.04800
H 	H 	0.26140 0.64350 0.85420 0.02400
H 	H 	0.28010 0.62220 0.87500 0.02400
C 	C 	0.24950 0.60620 0.81240 -0.05700
H 	H 	0.25550 0.59490 0.79490 0.02900
H 	H 	0.24530 0.62660 0.80620 0.02900
C 	C 	0.27800 0.57550 0.84260 -0.04000
H 	H 	0.29440 0.57400 0.85680 0.02200
H 	H 	0.28340 0.56410 0.82490 0.02300
H 	H 	0.87360 0.93600 0.33890 0.02700
H 	H 	0.90240 0.93960 0.28560 0.02600
H 	H 	0.97050 0.03300 0.25460 0.02600
H 	H 	0.98490 0.07940 0.29000 0.02500
C 	C 	0.91830 0.05570 0.29480 -0.05300
H 	H 	0.91110 0.06520 0.27660 0.02800
H 	H 	0.90250 0.05680 0.30960 0.02600
N 	N 	0.97615 0.14391 0.33458 -0.13800
C 	C 	0.92580 0.02300 0.28840 -0.04500
H 	H 	0.91390 0.01020 0.30120 0.02500
H 	H 	0.92090 0.01830 0.26780 0.02300
C 	C 	0.90530 0.10680 0.38140 -0.04900
H 	H 	0.92310 0.11660 0.38900 0.02600
H 	H 	0.91060 0.08630 0.37650 0.02600
H 	H 	0.90380 0.16340 0.37100 0.02600
C 	C 	0.98540 0.12720 0.35990 -0.04800
H 	H 	0.98860 0.10650 0.35420 0.02400
H 	H 	0.96990 0.12780 0.37500 0.02400
C 	C 	0.00050 0.14380 0.31240 -0.05700
H 	H 	0.99450 0.15510 0.29490 0.02900
H 	H 	0.00470 0.12340 0.30620 0.02900
C 	C 	0.97200 0.17450 0.34260 -0.04000
H 	H 	0.95560 0.17600 0.35680 0.02200
H 	H 	0.96660 0.18590 0.32490 0.02300
H 	H 	0.87360 0.43600 0.83890 0.02700
H 	H 	0.90240 0.43960 0.78560 0.02600
H 	H 	0.97050 0.53300 0.75460 0.02600
H 	H 	0.98490 0.57940 0.79000 0.02500
C 	C 	0.91830 0.55570 0.79480 -0.05300
H 	H 	0.91110 0.56520 0.77660 0.02800
H 	H 	0.90250 0.55680 0.80960 0.02600
N 	N 	0.97615 0.64391 0.83458 -0.13800
C 	C 	0.92580 0.52300 0.78840 -0.04500
H 	H 	0.91390 0.51020 0.80120 0.02500
H 	H 	0.92090 0.51830 0.76780 0.02300
C 	C 	0.90530 0.60680 0.88140 -0.04900
H 	H 	0.92310 0.61660 0.88900 0.02600
H 	H 	0.91060 0.58630 0.87650 0.02600
H 	H 	0.90380 0.66340 0.87100 0.02600
C 	C 	0.98540 0.62720 0.85990 -0.04800
H 	H 	0.98860 0.60650 0.85420 0.02400
H 	H 	0.96990 0.62780 0.87500 0.02400
C 	C 	0.00050 0.64380 0.81240 -0.05700
H 	H 	0.99450 0.65510 0.79490 0.02900
H 	H 	0.00470 0.62340 0.80620 0.02900
C 	C 	0.97200 0.67450 0.84260 -0.04000
H 	H 	0.95560 0.67600 0.85680 0.02200
H 	H 	0.96660 0.68590 0.82490 0.02300
H 	H 	0.37360 0.93600 0.83890 0.02700
H 	H 	0.40240 0.93960 0.78560 0.02600
H 	H 	0.47050 0.03300 0.75460 0.02600
H 	H 	0.48490 0.07940 0.79000 0.02500
C 	C 	0.41830 0.05570 0.79480 -0.05300
H 	H 	0.41110 0.06520 0.77660 0.02800
H 	H 	0.40250 0.05680 0.80960 0.02600
N 	N 	0.47615 0.14391 0.83458 -0.13800
C 	C 	0.42580 0.02300 0.78840 -0.04500
H 	H 	0.41390 0.01020 0.80120 0.02500
H 	H 	0.42090 0.01830 0.76780 0.02300
C 	C 	0.40530 0.10680 0.88140 -0.04900
H 	H 	0.42310 0.11660 0.88900 0.02600
H 	H 	0.41060 0.08630 0.87650 0.02600
H 	H 	0.40380 0.16340 0.87100 0.02600
C 	C 	0.48540 0.12720 0.85990 -0.04800
H 	H 	0.48860 0.10650 0.85420 0.02400
H 	H 	0.46990 0.12780 0.87500 0.02400
C 	C 	0.50050 0.14380 0.81240 -0.05700
H 	H 	0.49450 0.15510 0.79490 0.02900
H 	H 	0.50470 0.12340 0.80620 0.02900
C 	C 	0.47200 0.17450 0.84260 -0.04000
H 	H 	0.45560 0.17600 0.85680 0.02200
H 	H 	0.46660 0.18590 0.82490 0.02300
H 	H 	0.37360 0.43600 0.33890 0.02700
H 	H 	0.40240 0.43960 0.28560 0.02600
H 	H 	0.47050 0.53300 0.25460 0.02600
H 	H 	0.48490 0.57940 0.29000 0.02500
C 	C 	0.41830 0.55570 0.29480 -0.05300
H 	H 	0.41110 0.56520 0.27660 0.02800
H 	H 	0.40250 0.55680 0.30960 0.02600
N 	N 	0.47615 0.64391 0.33458 -0.13800
C 	C 	0.42580 0.52300 0.28840 -0.04500
H 	H 	0.41390 0.51020 0.30120 0.02500
H 	H 	0.42090 0.51830 0.26780 0.02300
C 	C 	0.40530 0.60680 0.38140 -0.04900
H 	H 	0.42310 0.61660 0.38900 0.02600
H 	H 	0.41060 0.58630 0.37650 0.02600
H 	H 	0.40380 0.66340 0.37100 0.02600
C 	C 	0.48540 0.62720 0.35990 -0.04800
H 	H 	0.48860 0.60650 0.35420 0.02400
H 	H 	0.46990 0.62780 0.37500 0.02400
C 	C 	0.50050 0.64380 0.31240 -0.05700
H 	H 	0.49450 0.65510 0.29490 0.02900
H 	H 	0.50470 0.62340 0.30620 0.02900
C 	C 	0.47200 0.67450 0.34260 -0.04000
H 	H 	0.45560 0.67600 0.35680 0.02200
H 	H 	0.46660 0.68590 0.32490 0.02300
H 	H 	0.93600 0.33890 0.87360 0.02700
H 	H 	0.93960 0.28560 0.90240 0.02600
H 	H 	0.03300 0.25460 0.97050 0.02600
H 	H 	0.07940 0.29000 0.98490 0.02500
C 	C 	0.05570 0.29480 0.91830 -0.05300
H 	H 	0.06520 0.27660 0.91110 0.02800
H 	H 	0.05680 0.30960 0.90250 0.02600
N 	N 	0.14391 0.33458 0.97615 -0.13800
C 	C 	0.02300 0.28840 0.92580 -0.04500
H 	H 	0.01020 0.30120 0.91390 0.02500
H 	H 	0.01830 0.26780 0.92090 0.02300
C 	C 	0.10680 0.38140 0.90530 -0.04900
H 	H 	0.11660 0.38900 0.92310 0.02600
H 	H 	0.08630 0.37650 0.91060 0.02600
H 	H 	0.16340 0.37100 0.90380 0.02600
C 	C 	0.12720 0.35990 0.98540 -0.04800
H 	H 	0.10650 0.35420 0.98860 0.02400
H 	H 	0.12780 0.37500 0.96990 0.02400
C 	C 	0.14380 0.31240 0.00050 -0.05700
H 	H 	0.15510 0.29490 0.99450 0.02900
H 	H 	0.12340 0.30620 0.00470 0.02900
C 	C 	0.17450 0.34260 0.97200 -0.04000
H 	H 	0.17600 0.35680 0.95560 0.02200
H 	H 	0.18590 0.32490 0.96660 0.02300
H 	H 	0.93600 0.83890 0.37360 0.02700
H 	H 	0.93960 0.78560 0.40240 0.02600
H 	H 	0.03300 0.75460 0.47050 0.02600
H 	H 	0.07940 0.79000 0.48490 0.02500
C 	C 	0.05570 0.79480 0.41830 -0.05300
H 	H 	0.06520 0.77660 0.41110 0.02800
H 	H 	0.05680 0.80960 0.40250 0.02600
N 	N 	0.14391 0.83458 0.47615 -0.13800
C 	C 	0.02300 0.78840 0.42580 -0.04500
H 	H 	0.01020 0.80120 0.41390 0.02500
H 	H 	0.01830 0.76780 0.42090 0.02300
C 	C 	0.10680 0.88140 0.40530 -0.04900
H 	H 	0.11660 0.88900 0.42310 0.02600
H 	H 	0.08630 0.87650 0.41060 0.02600
H 	H 	0.16340 0.87100 0.40380 0.02600
C 	C 	0.12720 0.85990 0.48540 -0.04800
H 	H 	0.10650 0.85420 0.48860 0.02400
H 	H 	0.12780 0.87500 0.46990 0.02400
C 	C 	0.14380 0.81240 0.50050 -0.05700
H 	H 	0.15510 0.79490 0.49450 0.02900
H 	H 	0.12340 0.80620 0.50470 0.02900
C 	C 	0.17450 0.84260 0.47200 -0.04000
H 	H 	0.17600 0.85680 0.45560 0.02200
H 	H 	0.18590 0.82490 0.46660 0.02300
H 	H 	0.43600 0.33890 0.37360 0.02700
H 	H 	0.43960 0.28560 0.40240 0.02600
H 	H 	0.53300 0.25460 0.47050 0.02600
H 	H 	0.57940 0.29000 0.48490 0.02500
C 	C 	0.55570 0.29480 0.41830 -0.05300
H 	H 	0.56520 0.27660 0.41110 0.02800
H 	H 	0.55680 0.30960 0.40250 0.02600
N 	N 	0.64391 0.33458 0.47615 -0.13800
C 	C 	0.52300 0.28840 0.42580 -0.04500
H 	H 	0.51020 0.30120 0.41390 0.02500
H 	H 	0.51830 0.26780 0.42090 0.02300
C 	C 	0.60680 0.38140 0.40530 -0.04900
H 	H 	0.61660 0.38900 0.42310 0.02600
H 	H 	0.58630 0.37650 0.41060 0.02600
H 	H 	0.66340 0.37100 0.40380 0.02600
C 	C 	0.62720 0.35990 0.48540 -0.04800
H 	H 	0.60650 0.35420 0.48860 0.02400
H 	H 	0.62780 0.37500 0.46990 0.02400
C 	C 	0.64380 0.31240 0.50050 -0.05700
H 	H 	0.65510 0.29490 0.49450 0.02900
H 	H 	0.62340 0.30620 0.50470 0.02900
C 	C 	0.67450 0.34260 0.47200 -0.04000
H 	H 	0.67600 0.35680 0.45560 0.02200
H 	H 	0.68590 0.32490 0.46660 0.02300
H 	H 	0.43600 0.83890 0.87360 0.02700
H 	H 	0.43960 0.78560 0.90240 0.02600
H 	H 	0.53300 0.75460 0.97050 0.02600
H 	H 	0.57940 0.79000 0.98490 0.02500
C 	C 	0.55570 0.79480 0.91830 -0.05300
H 	H 	0.56520 0.77660 0.91110 0.02800
H 	H 	0.55680 0.80960 0.90250 0.02600
N 	N 	0.64391 0.83458 0.97615 -0.13800
C 	C 	0.52300 0.78840 0.92580 -0.04500
H 	H 	0.51020 0.80120 0.91390 0.02500
H 	H 	0.51830 0.76780 0.92090 0.02300
C 	C 	0.60680 0.88140 0.90530 -0.04900
H 	H 	0.61660 0.88900 0.92310 0.02600
H 	H 	0.58630 0.87650 0.91060 0.02600
H 	H 	0.66340 0.87100 0.90380 0.02600
C 	C 	0.62720 0.85990 0.98540 -0.04800
H 	H 	0.60650 0.85420 0.98860 0.02400
H 	H 	0.62780 0.87500 0.96990 0.02400
C 	C 	0.64380 0.81240 0.00050 -0.05700
H 	H 	0.65510 0.79490 0.99450 0.02900
H 	H 	0.62340 0.80620 0.00470 0.02900
C 	C 	0.67450 0.84260 0.97200 -0.04000
H 	H 	0.67600 0.85680 0.95560 0.02200
H 	H 	0.68590 0.82490 0.96660 0.02300
H 	H 	0.31400 0.83890 0.87640 0.02700
H 	H 	0.31040 0.78560 0.84760 0.02600
H 	H 	0.21700 0.75460 0.77950 0.02600
H 	H 	0.17060 0.79000 0.76510 0.02500
C 	C 	0.19430 0.79480 0.83170 -0.05300
H 	H 	0.18480 0.77660 0.83890 0.02800
H 	H 	0.19320 0.80960 0.84750 0.02600
N 	N 	0.10609 0.83458 0.77385 -0.13800
C 	C 	0.22700 0.78840 0.82420 -0.04500
H 	H 	0.23980 0.80120 0.83610 0.02500
H 	H 	0.23170 0.76780 0.82910 0.02300
C 	C 	0.14320 0.88140 0.84470 -0.04900
H 	H 	0.13340 0.88900 0.82690 0.02600
H 	H 	0.16370 0.87650 0.83940 0.02600
H 	H 	0.08660 0.87100 0.84620 0.02600
C 	C 	0.12280 0.85990 0.76460 -0.04800
H 	H 	0.14350 0.85420 0.76140 0.02400
H 	H 	0.12220 0.87500 0.78010 0.02400
C 	C 	0.10620 0.81240 0.74950 -0.05700
H 	H 	0.09490 0.79490 0.75550 0.02900
H 	H 	0.12660 0.80620 0.74530 0.02900
C 	C 	0.07550 0.84260 0.77800 -0.04000
H 	H 	0.07400 0.85680 0.79440 0.02200
H 	H 	0.06410 0.82490 0.78340 0.02300
H 	H 	0.31400 0.33890 0.37640 0.02700
H 	H 	0.31040 0.28560 0.34760 0.02600
H 	H 	0.21700 0.25460 0.27950 0.02600
H 	H 	0.17060 0.29000 0.26510 0.02500
C 	C 	0.19430 0.29480 0.33170 -0.05300
H 	H 	0.18480 0.27660 0.33890 0.02800
H 	H 	0.19320 0.30960 0.34750 0.02600
N 	N 	0.10609 0.33458 0.27385 -0.13800
C 	C 	0.22700 0.28840 0.32420 -0.04500
H 	H 	0.23980 0.30120 0.33610 0.02500
H 	H 	0.23170 0.26780 0.32910 0.02300
C 	C 	0.14320 0.38140 0.34470 -0.04900
H 	H 	0.13340 0.38900 0.32690 0.02600
H 	H 	0.16370 0.37650 0.33940 0.02600
H 	H 	0.08660 0.37100 0.34620 0.02600
C 	C 	0.12280 0.35990 0.26460 -0.04800
H 	H 	0.14350 0.35420 0.26140 0.02400
H 	H 	0.12220 0.37500 0.28010 0.02400
C 	C 	0.10620 0.31240 0.24950 -0.05700
H 	H 	0.09490 0.29490 0.25550 0.02900
H 	H 	0.12660 0.30620 0.24530 0.02900
C 	C 	0.07550 0.34260 0.27800 -0.04000
H 	H 	0.07400 0.35680 0.29440 0.02200
H 	H 	0.06410 0.32490 0.28340 0.02300
H 	H 	0.81400 0.83890 0.37640 0.02700
H 	H 	0.81040 0.78560 0.34760 0.02600
H 	H 	0.71700 0.75460 0.27950 0.02600
H 	H 	0.67060 0.79000 0.26510 0.02500
C 	C 	0.69430 0.79480 0.33170 -0.05300
H 	H 	0.68480 0.77660 0.33890 0.02800
H 	H 	0.69320 0.80960 0.34750 0.02600
N 	N 	0.60609 0.83458 0.27385 -0.13800
C 	C 	0.72700 0.78840 0.32420 -0.04500
H 	H 	0.73980 0.80120 0.33610 0.02500
H 	H 	0.73170 0.76780 0.32910 0.02300
C 	C 	0.64320 0.88140 0.34470 -0.04900
H 	H 	0.63340 0.88900 0.32690 0.02600
H 	H 	0.66370 0.87650 0.33940 0.02600
H 	H 	0.58660 0.87100 0.34620 0.02600
C 	C 	0.62280 0.85990 0.26460 -0.04800
H 	H 	0.64350 0.85420 0.26140 0.02400
H 	H 	0.62220 0.87500 0.28010 0.02400
C 	C 	0.60620 0.81240 0.24950 -0.05700
H 	H 	0.59490 0.79490 0.25550 0.02900
H 	H 	0.62660 0.80620 0.24530 0.02900
C 	C 	0.57550 0.84260 0.27800 -0.04000
H 	H 	0.57400 0.85680 0.29440 0.02200
H 	H 	0.56410 0.82490 0.28340 0.02300
H 	H 	0.81400 0.33890 0.87640 0.02700
H 	H 	0.81040 0.28560 0.84760 0.02600
H 	H 	0.71700 0.25460 0.77950 0.02600
H 	H 	0.67060 0.29000 0.76510 0.02500
C 	C 	0.69430 0.29480 0.83170 -0.05300
H 	H 	0.68480 0.27660 0.83890 0.02800
H 	H 	0.69320 0.30960 0.84750 0.02600
N 	N 	0.60609 0.33458 0.77385 -0.13800
C 	C 	0.72700 0.28840 0.82420 -0.04500
H 	H 	0.73980 0.30120 0.83610 0.02500
H 	H 	0.73170 0.26780 0.82910 0.02300
C 	C 	0.64320 0.38140 0.84470 -0.04900
H 	H 	0.63340 0.38900 0.82690 0.02600
H 	H 	0.66370 0.37650 0.83940 0.02600
H 	H 	0.58660 0.37100 0.84620 0.02600
C 	C 	0.62280 0.35990 0.76460 -0.04800
H 	H 	0.64350 0.35420 0.76140 0.02400
H 	H 	0.62220 0.37500 0.78010 0.02400
C 	C 	0.60620 0.31240 0.74950 -0.05700
H 	H 	0.59490 0.29490 0.75550 0.02900
H 	H 	0.62660 0.30620 0.74530 0.02900
C 	C 	0.57550 0.34260 0.77800 -0.04000
H 	H 	0.57400 0.35680 0.79440 0.02200
H 	H 	0.56410 0.32490 0.78340 0.02300
H 	H 	0.81400 0.91110 0.37360 0.02700
H 	H 	0.81040 0.96440 0.40240 0.02600
H 	H 	0.71700 0.99540 0.47050 0.02600
H 	H 	0.67060 0.96000 0.48490 0.02500
C 	C 	0.69430 0.95520 0.41830 -0.05300
H 	H 	0.68480 0.97340 0.41110 0.02800
H 	H 	0.69320 0.94040 0.40250 0.02600
N 	N 	0.60609 0.91542 0.47615 -0.13800
C 	C 	0.72700 0.96160 0.42580 -0.04500
H 	H 	0.73980 0.94880 0.41390 0.02500
H 	H 	0.73170 0.98220 0.42090 0.02300
C 	C 	0.64320 0.86860 0.40530 -0.04900
H 	H 	0.63340 0.86100 0.42310 0.02600
H 	H 	0.66370 0.87350 0.41060 0.02600
H 	H 	0.58660 0.87900 0.40380 0.02600
C 	C 	0.62280 0.89010 0.48540 -0.04800
H 	H 	0.64350 0.89580 0.48860 0.02400
H 	H 	0.62220 0.87500 0.46990 0.02400
C 	C 	0.60620 0.93760 0.50050 -0.05700
H 	H 	0.59490 0.95510 0.49450 0.02900
H 	H 	0.62660 0.94380 0.50470 0.02900
C 	C 	0.57550 0.90740 0.47200 -0.04000
H 	H 	0.57400 0.89320 0.45560 0.02200
H 	H 	0.56410 0.92510 0.46660 0.02300
H 	H 	0.81400 0.41110 0.87360 0.02700
H 	H 	0.81040 0.46440 0.90240 0.02600
H 	H 	0.71700 0.49540 0.97050 0.02600
H 	H 	0.67060 0.46000 0.98490 0.02500
C 	C 	0.69430 0.45520 0.91830 -0.05300
H 	H 	0.68480 0.47340 0.91110 0.02800
H 	H 	0.69320 0.44040 0.90250 0.02600
N 	N 	0.60609 0.41542 0.97615 -0.13800
C 	C 	0.72700 0.46160 0.92580 -0.04500
H 	H 	0.73980 0.44880 0.91390 0.02500
H 	H 	0.73170 0.48220 0.92090 0.02300
C 	C 	0.64320 0.36860 0.90530 -0.04900
H 	H 	0.63340 0.36100 0.92310 0.02600
H 	H 	0.66370 0.37350 0.91060 0.02600
H 	H 	0.58660 0.37900 0.90380 0.02600
C 	C 	0.62280 0.39010 0.98540 -0.04800
H 	H 	0.64350 0.39580 0.98860 0.02400
H 	H 	0.62220 0.37500 0.96990 0.02400
C 	C 	0.60620 0.43760 0.00050 -0.05700
H 	H 	0.59490 0.45510 0.99450 0.02900
H 	H 	0.62660 0.44380 0.00470 0.02900
C 	C 	0.57550 0.40740 0.97200 -0.04000
H 	H 	0.57400 0.39320 0.95560 0.02200
H 	H 	0.56410 0.42510 0.96660 0.02300
H 	H 	0.31400 0.91110 0.87360 0.02700
H 	H 	0.31040 0.96440 0.90240 0.02600
H 	H 	0.21700 0.99540 0.97050 0.02600
H 	H 	0.17060 0.96000 0.98490 0.02500
C 	C 	0.19430 0.95520 0.91830 -0.05300
H 	H 	0.18480 0.97340 0.91110 0.02800
H 	H 	0.19320 0.94040 0.90250 0.02600
N 	N 	0.10609 0.91542 0.97615 -0.13800
C 	C 	0.22700 0.96160 0.92580 -0.04500
H 	H 	0.23980 0.94880 0.91390 0.02500
H 	H 	0.23170 0.98220 0.92090 0.02300
C 	C 	0.14320 0.86860 0.90530 -0.04900
H 	H 	0.13340 0.86100 0.92310 0.02600
H 	H 	0.16370 0.87350 0.91060 0.02600
H 	H 	0.08660 0.87900 0.90380 0.02600
C 	C 	0.12280 0.89010 0.98540 -0.04800
H 	H 	0.14350 0.89580 0.98860 0.02400
H 	H 	0.12220 0.87500 0.96990 0.02400
C 	C 	0.10620 0.93760 0.00050 -0.05700
H 	H 	0.09490 0.95510 0.99450 0.02900
H 	H 	0.12660 0.94380 0.00470 0.02900
C 	C 	0.07550 0.90740 0.97200 -0.04000
H 	H 	0.07400 0.89320 0.95560 0.02200
H 	H 	0.06410 0.92510 0.96660 0.02300
H 	H 	0.31400 0.41110 0.37360 0.02700
H 	H 	0.31040 0.46440 0.40240 0.02600
H 	H 	0.21700 0.49540 0.47050 0.02600
H 	H 	0.17060 0.46000 0.48490 0.02500
C 	C 	0.19430 0.45520 0.41830 -0.05300
H 	H 	0.18480 0.47340 0.41110 0.02800
H 	H 	0.19320 0.44040 0.40250 0.02600
N 	N 	0.10609 0.41542 0.47615 -0.13800
C 	C 	0.22700 0.46160 0.42580 -0.04500
H 	H 	0.23980 0.44880 0.41390 0.02500
H 	H 	0.23170 0.48220 0.42090 0.02300
C 	C 	0.14320 0.36860 0.40530 -0.04900
H 	H 	0.13340 0.36100 0.42310 0.02600
H 	H 	0.16370 0.37350 0.41060 0.02600
H 	H 	0.08660 0.37900 0.40380 0.02600
C 	C 	0.12280 0.39010 0.48540 -0.04800
H 	H 	0.14350 0.39580 0.48860 0.02400
H 	H 	0.12220 0.37500 0.46990 0.02400
C 	C 	0.10620 0.43760 0.50050 -0.05700
H 	H 	0.09490 0.45510 0.49450 0.02900
H 	H 	0.12660 0.44380 0.50470 0.02900
C 	C 	0.07550 0.40740 0.47200 -0.04000
H 	H 	0.07400 0.39320 0.45560 0.02200
H 	H 	0.06410 0.42510 0.46660 0.02300
H 	H 	0.43600 0.41110 0.37640 0.02700
H 	H 	0.43960 0.46440 0.34760 0.02600
H 	H 	0.53300 0.49540 0.27950 0.02600
H 	H 	0.57940 0.46000 0.26510 0.02500
C 	C 	0.55570 0.45520 0.33170 -0.05300
H 	H 	0.56520 0.47340 0.33890 0.02800
H 	H 	0.55680 0.44040 0.34750 0.02600
N 	N 	0.64391 0.41542 0.27385 -0.13800
C 	C 	0.52300 0.46160 0.32420 -0.04500
H 	H 	0.51020 0.44880 0.33610 0.02500
H 	H 	0.51830 0.48220 0.32910 0.02300
C 	C 	0.60680 0.36860 0.34470 -0.04900
H 	H 	0.61660 0.36100 0.32690 0.02600
H 	H 	0.58630 0.37350 0.33940 0.02600
H 	H 	0.66340 0.37900 0.34620 0.02600
C 	C 	0.62720 0.39010 0.26460 -0.04800
H 	H 	0.60650 0.39580 0.26140 0.02400
H 	H 	0.62780 0.37500 0.28010 0.02400
C 	C 	0.64380 0.43760 0.24950 -0.05700
H 	H 	0.65510 0.45510 0.25550 0.02900
H 	H 	0.62340 0.44380 0.24530 0.02900
C 	C 	0.67450 0.40740 0.27800 -0.04000
H 	H 	0.67600 0.39320 0.29440 0.02200
H 	H 	0.68590 0.42510 0.28340 0.02300
H 	H 	0.43600 0.91110 0.87640 0.02700
H 	H 	0.43960 0.96440 0.84760 0.02600
H 	H 	0.53300 0.99540 0.77950 0.02600
H 	H 	0.57940 0.96000 0.76510 0.02500
C 	C 	0.55570 0.95520 0.83170 -0.05300
H 	H 	0.56520 0.97340 0.83890 0.02800
H 	H 	0.55680 0.94040 0.84750 0.02600
N 	N 	0.64391 0.91542 0.77385 -0.13800
C 	C 	0.52300 0.96160 0.82420 -0.04500
H 	H 	0.51020 0.94880 0.83610 0.02500
H 	H 	0.51830 0.98220 0.82910 0.02300
C 	C 	0.60680 0.86860 0.84470 -0.04900
H 	H 	0.61660 0.86100 0.82690 0.02600
H 	H 	0.58630 0.87350 0.83940 0.02600
H 	H 	0.66340 0.87900 0.84620 0.02600
C 	C 	0.62720 0.89010 0.76460 -0.04800
H 	H 	0.60650 0.89580 0.76140 0.02400
H 	H 	0.62780 0.87500 0.78010 0.02400
C 	C 	0.64380 0.93760 0.74950 -0.05700
H 	H 	0.65510 0.95510 0.75550 0.02900
H 	H 	0.62340 0.94380 0.74530 0.02900
C 	C 	0.67450 0.90740 0.77800 -0.04000
H 	H 	0.67600 0.89320 0.79440 0.02200
H 	H 	0.68590 0.92510 0.78340 0.02300
H 	H 	0.93600 0.41110 0.87640 0.02700
H 	H 	0.93960 0.46440 0.84760 0.02600
H 	H 	0.03300 0.49540 0.77950 0.02600
H 	H 	0.07940 0.46000 0.76510 0.02500
C 	C 	0.05570 0.45520 0.83170 -0.05300
H 	H 	0.06520 0.47340 0.83890 0.02800
H 	H 	0.05680 0.44040 0.84750 0.02600
N 	N 	0.14391 0.41542 0.77385 -0.13800
C 	C 	0.02300 0.46160 0.82420 -0.04500
H 	H 	0.01020 0.44880 0.83610 0.02500
H 	H 	0.01830 0.48220 0.82910 0.02300
C 	C 	0.10680 0.36860 0.84470 -0.04900
H 	H 	0.11660 0.36100 0.82690 0.02600
H 	H 	0.08630 0.37350 0.83940 0.02600
H 	H 	0.16340 0.37900 0.84620 0.02600
C 	C 	0.12720 0.39010 0.76460 -0.04800
H 	H 	0.10650 0.39580 0.76140 0.02400
H 	H 	0.12780 0.37500 0.78010 0.02400
C 	C 	0.14380 0.43760 0.74950 -0.05700
H 	H 	0.15510 0.45510 0.75550 0.02900
H 	H 	0.12340 0.44380 0.74530 0.02900
C 	C 	0.17450 0.40740 0.77800 -0.04000
H 	H 	0.17600 0.39320 0.79440 0.02200
H 	H 	0.18590 0.42510 0.78340 0.02300
H 	H 	0.93600 0.91110 0.37640 0.02700
H 	H 	0.93960 0.96440 0.34760 0.02600
H 	H 	0.03300 0.99540 0.27950 0.02600
H 	H 	0.07940 0.96000 0.26510 0.02500
C 	C 	0.05570 0.95520 0.33170 -0.05300
H 	H 	0.06520 0.97340 0.33890 0.02800
H 	H 	0.05680 0.94040 0.34750 0.02600
N 	N 	0.14391 0.91542 0.27385 -0.13800
C 	C 	0.02300 0.96160 0.32420 -0.04500
H 	H 	0.01020 0.94880 0.33610 0.02500
H 	H 	0.01830 0.98220 0.32910 0.02300
C 	C 	0.10680 0.86860 0.34470 -0.04900
H 	H 	0.11660 0.86100 0.32690 0.02600
H 	H 	0.08630 0.87350 0.33940 0.02600
H 	H 	0.16340 0.87900 0.34620 0.02600
C 	C 	0.12720 0.89010 0.26460 -0.04800
H 	H 	0.10650 0.89580 0.26140 0.02400
H 	H 	0.12780 0.87500 0.28010 0.02400
C 	C 	0.14380 0.93760 0.24950 -0.05700
H 	H 	0.15510 0.95510 0.25550 0.02900
H 	H 	0.12340 0.94380 0.24530 0.02900
C 	C 	0.17450 0.90740 0.27800 -0.04000
H 	H 	0.17600 0.89320 0.29440 0.02200
H 	H 	0.18590 0.92510 0.28340 0.02300
H 	H 	0.83890 0.87640 0.31400 0.02700
H 	H 	0.78560 0.84760 0.31040 0.02600
H 	H 	0.75460 0.77950 0.21700 0.02600
H 	H 	0.79000 0.76510 0.17060 0.02500
C 	C 	0.79480 0.83170 0.19430 -0.05300
H 	H 	0.77660 0.83890 0.18480 0.02800
H 	H 	0.80960 0.84750 0.19320 0.02600
N 	N 	0.83458 0.77385 0.10609 -0.13800
C 	C 	0.78840 0.82420 0.22700 -0.04500
H 	H 	0.80120 0.83610 0.23980 0.02500
H 	H 	0.76780 0.82910 0.23170 0.02300
C 	C 	0.88140 0.84470 0.14320 -0.04900
H 	H 	0.88900 0.82690 0.13340 0.02600
H 	H 	0.87650 0.83940 0.16370 0.02600
H 	H 	0.87100 0.84620 0.08660 0.02600
C 	C 	0.85990 0.76460 0.12280 -0.04800
H 	H 	0.85420 0.76140 0.14350 0.02400
H 	H 	0.87500 0.78010 0.12220 0.02400
C 	C 	0.81240 0.74950 0.10620 -0.05700
H 	H 	0.79490 0.75550 0.09490 0.02900
H 	H 	0.80620 0.74530 0.12660 0.02900
C 	C 	0.84260 0.77800 0.07550 -0.04000
H 	H 	0.85680 0.79440 0.07400 0.02200
H 	H 	0.82490 0.78340 0.06410 0.02300
H 	H 	0.83890 0.37640 0.81400 0.02700
H 	H 	0.78560 0.34760 0.81040 0.02600
H 	H 	0.75460 0.27950 0.71700 0.02600
H 	H 	0.79000 0.26510 0.67060 0.02500
C 	C 	0.79480 0.33170 0.69430 -0.05300
H 	H 	0.77660 0.33890 0.68480 0.02800
H 	H 	0.80960 0.34750 0.69320 0.02600
N 	N 	0.83458 0.27385 0.60609 -0.13800
C 	C 	0.78840 0.32420 0.72700 -0.04500
H 	H 	0.80120 0.33610 0.73980 0.02500
H 	H 	0.76780 0.32910 0.73170 0.02300
C 	C 	0.88140 0.34470 0.64320 -0.04900
H 	H 	0.88900 0.32690 0.63340 0.02600
H 	H 	0.87650 0.33940 0.66370 0.02600
H 	H 	0.87100 0.34620 0.58660 0.02600
C 	C 	0.85990 0.26460 0.62280 -0.04800
H 	H 	0.85420 0.26140 0.64350 0.02400
H 	H 	0.87500 0.28010 0.62220 0.02400
C 	C 	0.81240 0.24950 0.60620 -0.05700
H 	H 	0.79490 0.25550 0.59490 0.02900
H 	H 	0.80620 0.24530 0.62660 0.02900
C 	C 	0.84260 0.27800 0.57550 -0.04000
H 	H 	0.85680 0.29440 0.57400 0.02200
H 	H 	0.82490 0.28340 0.56410 0.02300
H 	H 	0.33890 0.87640 0.81400 0.02700
H 	H 	0.28560 0.84760 0.81040 0.02600
H 	H 	0.25460 0.77950 0.71700 0.02600
H 	H 	0.29000 0.76510 0.67060 0.02500
C 	C 	0.29480 0.83170 0.69430 -0.05300
H 	H 	0.27660 0.83890 0.68480 0.02800
H 	H 	0.30960 0.84750 0.69320 0.02600
N 	N 	0.33458 0.77385 0.60609 -0.13800
C 	C 	0.28840 0.82420 0.72700 -0.04500
H 	H 	0.30120 0.83610 0.73980 0.02500
H 	H 	0.26780 0.82910 0.73170 0.02300
C 	C 	0.38140 0.84470 0.64320 -0.04900
H 	H 	0.38900 0.82690 0.63340 0.02600
H 	H 	0.37650 0.83940 0.66370 0.02600
H 	H 	0.37100 0.84620 0.58660 0.02600
C 	C 	0.35990 0.76460 0.62280 -0.04800
H 	H 	0.35420 0.76140 0.64350 0.02400
H 	H 	0.37500 0.78010 0.62220 0.02400
C 	C 	0.31240 0.74950 0.60620 -0.05700
H 	H 	0.29490 0.75550 0.59490 0.02900
H 	H 	0.30620 0.74530 0.62660 0.02900
C 	C 	0.34260 0.77800 0.57550 -0.04000
H 	H 	0.35680 0.79440 0.57400 0.02200
H 	H 	0.32490 0.78340 0.56410 0.02300
H 	H 	0.33890 0.37640 0.31400 0.02700
H 	H 	0.28560 0.34760 0.31040 0.02600
H 	H 	0.25460 0.27950 0.21700 0.02600
H 	H 	0.29000 0.26510 0.17060 0.02500
C 	C 	0.29480 0.33170 0.19430 -0.05300
H 	H 	0.27660 0.33890 0.18480 0.02800
H 	H 	0.30960 0.34750 0.19320 0.02600
N 	N 	0.33458 0.27385 0.10609 -0.13800
C 	C 	0.28840 0.32420 0.22700 -0.04500
H 	H 	0.30120 0.33610 0.23980 0.02500
H 	H 	0.26780 0.32910 0.23170 0.02300
C 	C 	0.38140 0.34470 0.14320 -0.04900
H 	H 	0.38900 0.32690 0.13340 0.02600
H 	H 	0.37650 0.33940 0.16370 0.02600
H 	H 	0.37100 0.34620 0.08660 0.02600
C 	C 	0.35990 0.26460 0.12280 -0.04800
H 	H 	0.35420 0.26140 0.14350 0.02400
H 	H 	0.37500 0.28010 0.12220 0.02400
C 	C 	0.31240 0.24950 0.10620 -0.05700
H 	H 	0.29490 0.25550 0.09490 0.02900
H 	H 	0.30620 0.24530 0.12660 0.02900
C 	C 	0.34260 0.27800 0.07550 -0.04000
H 	H 	0.35680 0.29440 0.07400 0.02200
H 	H 	0.32490 0.28340 0.06410 0.02300
H 	H 	0.33890 0.87360 0.93600 0.02700
H 	H 	0.28560 0.90240 0.93960 0.02600
H 	H 	0.25460 0.97050 0.03300 0.02600
H 	H 	0.29000 0.98490 0.07940 0.02500
C 	C 	0.29480 0.91830 0.05570 -0.05300
H 	H 	0.27660 0.91110 0.06520 0.02800
H 	H 	0.30960 0.90250 0.05680 0.02600
N 	N 	0.33458 0.97615 0.14391 -0.13800
C 	C 	0.28840 0.92580 0.02300 -0.04500
H 	H 	0.30120 0.91390 0.01020 0.02500
H 	H 	0.26780 0.92090 0.01830 0.02300
C 	C 	0.38140 0.90530 0.10680 -0.04900
H 	H 	0.38900 0.92310 0.11660 0.02600
H 	H 	0.37650 0.91060 0.08630 0.02600
H 	H 	0.37100 0.90380 0.16340 0.02600
C 	C 	0.35990 0.98540 0.12720 -0.04800
H 	H 	0.35420 0.98860 0.10650 0.02400
H 	H 	0.37500 0.96990 0.12780 0.02400
C 	C 	0.31240 0.00050 0.14380 -0.05700
H 	H 	0.29490 0.99450 0.15510 0.02900
H 	H 	0.30620 0.00470 0.12340 0.02900
C 	C 	0.34260 0.97200 0.17450 -0.04000
H 	H 	0.35680 0.95560 0.17600 0.02200
H 	H 	0.32490 0.96660 0.18590 0.02300
H 	H 	0.33890 0.37360 0.43600 0.02700
H 	H 	0.28560 0.40240 0.43960 0.02600
H 	H 	0.25460 0.47050 0.53300 0.02600
H 	H 	0.29000 0.48490 0.57940 0.02500
C 	C 	0.29480 0.41830 0.55570 -0.05300
H 	H 	0.27660 0.41110 0.56520 0.02800
H 	H 	0.30960 0.40250 0.55680 0.02600
N 	N 	0.33458 0.47615 0.64391 -0.13800
C 	C 	0.28840 0.42580 0.52300 -0.04500
H 	H 	0.30120 0.41390 0.51020 0.02500
H 	H 	0.26780 0.42090 0.51830 0.02300
C 	C 	0.38140 0.40530 0.60680 -0.04900
H 	H 	0.38900 0.42310 0.61660 0.02600
H 	H 	0.37650 0.41060 0.58630 0.02600
H 	H 	0.37100 0.40380 0.66340 0.02600
C 	C 	0.35990 0.48540 0.62720 -0.04800
H 	H 	0.35420 0.48860 0.60650 0.02400
H 	H 	0.37500 0.46990 0.62780 0.02400
C 	C 	0.31240 0.50050 0.64380 -0.05700
H 	H 	0.29490 0.49450 0.65510 0.02900
H 	H 	0.30620 0.50470 0.62340 0.02900
C 	C 	0.34260 0.47200 0.67450 -0.04000
H 	H 	0.35680 0.45560 0.67600 0.02200
H 	H 	0.32490 0.46660 0.68590 0.02300
H 	H 	0.83890 0.87360 0.43600 0.02700
H 	H 	0.78560 0.90240 0.43960 0.02600
H 	H 	0.75460 0.97050 0.53300 0.02600
H 	H 	0.79000 0.98490 0.57940 0.02500
C 	C 	0.79480 0.91830 0.55570 -0.05300
H 	H 	0.77660 0.91110 0.56520 0.02800
H 	H 	0.80960 0.90250 0.55680 0.02600
N 	N 	0.83458 0.97615 0.64391 -0.13800
C 	C 	0.78840 0.92580 0.52300 -0.04500
H 	H 	0.80120 0.91390 0.51020 0.02500
H 	H 	0.76780 0.92090 0.51830 0.02300
C 	C 	0.88140 0.90530 0.60680 -0.04900
H 	H 	0.88900 0.92310 0.61660 0.02600
H 	H 	0.87650 0.91060 0.58630 0.02600
H 	H 	0.87100 0.90380 0.66340 0.02600
C 	C 	0.85990 0.98540 0.62720 -0.04800
H 	H 	0.85420 0.98860 0.60650 0.02400
H 	H 	0.87500 0.96990 0.62780 0.02400
C 	C 	0.81240 0.00050 0.64380 -0.05700
H 	H 	0.79490 0.99450 0.65510 0.02900
H 	H 	0.80620 0.00470 0.62340 0.02900
C 	C 	0.84260 0.97200 0.67450 -0.04000
H 	H 	0.85680 0.95560 0.67600 0.02200
H 	H 	0.82490 0.96660 0.68590 0.02300
H 	H 	0.83890 0.37360 0.93600 0.02700
H 	H 	0.78560 0.40240 0.93960 0.02600
H 	H 	0.75460 0.47050 0.03300 0.02600
H 	H 	0.79000 0.48490 0.07940 0.02500
C 	C 	0.79480 0.41830 0.05570 -0.05300
H 	H 	0.77660 0.41110 0.06520 0.02800
H 	H 	0.80960 0.40250 0.05680 0.02600
N 	N 	0.83458 0.47615 0.14391 -0.13800
C 	C 	0.78840 0.42580 0.02300 -0.04500
H 	H 	0.80120 0.41390 0.01020 0.02500
H 	H 	0.76780 0.42090 0.01830 0.02300
C 	C 	0.88140 0.40530 0.10680 -0.04900
H 	H 	0.88900 0.42310 0.11660 0.02600
H 	H 	0.87650 0.41060 0.08630 0.02600
H 	H 	0.87100 0.40380 0.16340 0.02600
C 	C 	0.85990 0.48540 0.12720 -0.04800
H 	H 	0.85420 0.48860 0.10650 0.02400
H 	H 	0.87500 0.46990 0.12780 0.02400
C 	C 	0.81240 0.50050 0.14380 -0.05700
H 	H 	0.79490 0.49450 0.15510 0.02900
H 	H 	0.80620 0.50470 0.12340 0.02900
C 	C 	0.84260 0.47200 0.17450 -0.04000
H 	H 	0.85680 0.45560 0.17600 0.02200
H 	H 	0.82490 0.46660 0.18590 0.02300
H 	H 	0.41110 0.37640 0.43600 0.02700
H 	H 	0.46440 0.34760 0.43960 0.02600
H 	H 	0.49540 0.27950 0.53300 0.02600
H 	H 	0.46000 0.26510 0.57940 0.02500
C 	C 	0.45520 0.33170 0.55570 -0.05300
H 	H 	0.47340 0.33890 0.56520 0.02800
H 	H 	0.44040 0.34750 0.55680 0.02600
N 	N 	0.41542 0.27385 0.64391 -0.13800
C 	C 	0.46160 0.32420 0.52300 -0.04500
H 	H 	0.44880 0.33610 0.51020 0.02500
H 	H 	0.48220 0.32910 0.51830 0.02300
C 	C 	0.36860 0.34470 0.60680 -0.04900
H 	H 	0.36100 0.32690 0.61660 0.02600
H 	H 	0.37350 0.33940 0.58630 0.02600
H 	H 	0.37900 0.34620 0.66340 0.02600
C 	C 	0.39010 0.26460 0.62720 -0.04800
H 	H 	0.39580 0.26140 0.60650 0.02400
H 	H 	0.37500 0.28010 0.62780 0.02400
C 	C 	0.43760 0.24950 0.64380 -0.05700
H 	H 	0.45510 0.25550 0.65510 0.02900
H 	H 	0.44380 0.24530 0.62340 0.02900
C 	C 	0.40740 0.27800 0.67450 -0.04000
H 	H 	0.39320 0.29440 0.67600 0.02200
H 	H 	0.42510 0.28340 0.68590 0.02300
H 	H 	0.41110 0.87640 0.93600 0.02700
H 	H 	0.46440 0.84760 0.93960 0.02600
H 	H 	0.49540 0.77950 0.03300 0.02600
H 	H 	0.46000 0.76510 0.07940 0.02500
C 	C 	0.45520 0.83170 0.05570 -0.05300
H 	H 	0.47340 0.83890 0.06520 0.02800
H 	H 	0.44040 0.84750 0.05680 0.02600
N 	N 	0.41542 0.77385 0.14391 -0.13800
C 	C 	0.46160 0.82420 0.02300 -0.04500
H 	H 	0.44880 0.83610 0.01020 0.02500
H 	H 	0.48220 0.82910 0.01830 0.02300
C 	C 	0.36860 0.84470 0.10680 -0.04900
H 	H 	0.36100 0.82690 0.11660 0.02600
H 	H 	0.37350 0.83940 0.08630 0.02600
H 	H 	0.37900 0.84620 0.16340 0.02600
C 	C 	0.39010 0.76460 0.12720 -0.04800
H 	H 	0.39580 0.76140 0.10650 0.02400
H 	H 	0.37500 0.78010 0.12780 0.02400
C 	C 	0.43760 0.74950 0.14380 -0.05700
H 	H 	0.45510 0.75550 0.15510 0.02900
H 	H 	0.44380 0.74530 0.12340 0.02900
C 	C 	0.40740 0.77800 0.17450 -0.04000
H 	H 	0.39320 0.79440 0.17600 0.02200
H 	H 	0.42510 0.78340 0.18590 0.02300
H 	H 	0.91110 0.37640 0.93600 0.02700
H 	H 	0.96440 0.34760 0.93960 0.02600
H 	H 	0.99540 0.27950 0.03300 0.02600
H 	H 	0.96000 0.26510 0.07940 0.02500
C 	C 	0.95520 0.33170 0.05570 -0.05300
H 	H 	0.97340 0.33890 0.06520 0.02800
H 	H 	0.94040 0.34750 0.05680 0.02600
N 	N 	0.91542 0.27385 0.14391 -0.13800
C 	C 	0.96160 0.32420 0.02300 -0.04500
H 	H 	0.94880 0.33610 0.01020 0.02500
H 	H 	0.98220 0.32910 0.01830 0.02300
C 	C 	0.86860 0.34470 0.10680 -0.04900
H 	H 	0.86100 0.32690 0.11660 0.02600
H 	H 	0.87350 0.33940 0.08630 0.02600
H 	H 	0.87900 0.34620 0.16340 0.02600
C 	C 	0.89010 0.26460 0.12720 -0.04800
H 	H 	0.89580 0.26140 0.10650 0.02400
H 	H 	0.87500 0.28010 0.12780 0.02400
C 	C 	0.93760 0.24950 0.14380 -0.05700
H 	H 	0.95510 0.25550 0.15510 0.02900
H 	H 	0.94380 0.24530 0.12340 0.02900
C 	C 	0.90740 0.27800 0.17450 -0.04000
H 	H 	0.89320 0.29440 0.17600 0.02200
H 	H 	0.92510 0.28340 0.18590 0.02300
H 	H 	0.91110 0.87640 0.43600 0.02700
H 	H 	0.96440 0.84760 0.43960 0.02600
H 	H 	0.99540 0.77950 0.53300 0.02600
H 	H 	0.96000 0.76510 0.57940 0.02500
C 	C 	0.95520 0.83170 0.55570 -0.05300
H 	H 	0.97340 0.83890 0.56520 0.02800
H 	H 	0.94040 0.84750 0.55680 0.02600
N 	N 	0.91542 0.77385 0.64391 -0.13800
C 	C 	0.96160 0.82420 0.52300 -0.04500
H 	H 	0.94880 0.83610 0.51020 0.02500
H 	H 	0.98220 0.82910 0.51830 0.02300
C 	C 	0.86860 0.84470 0.60680 -0.04900
H 	H 	0.86100 0.82690 0.61660 0.02600
H 	H 	0.87350 0.83940 0.58630 0.02600
H 	H 	0.87900 0.84620 0.66340 0.02600
C 	C 	0.89010 0.76460 0.62720 -0.04800
H 	H 	0.89580 0.76140 0.60650 0.02400
H 	H 	0.87500 0.78010 0.62780 0.02400
C 	C 	0.93760 0.74950 0.64380 -0.05700
H 	H 	0.95510 0.75550 0.65510 0.02900
H 	H 	0.94380 0.74530 0.62340 0.02900
C 	C 	0.90740 0.77800 0.67450 -0.04000
H 	H 	0.89320 0.79440 0.67600 0.02200
H 	H 	0.92510 0.78340 0.68590 0.02300
H 	H 	0.91110 0.37360 0.81400 0.02700
H 	H 	0.96440 0.40240 0.81040 0.02600
H 	H 	0.99540 0.47050 0.71700 0.02600
H 	H 	0.96000 0.48490 0.67060 0.02500
C 	C 	0.95520 0.41830 0.69430 -0.05300
H 	H 	0.97340 0.41110 0.68480 0.02800
H 	H 	0.94040 0.40250 0.69320 0.02600
N 	N 	0.91542 0.47615 0.60609 -0.13800
C 	C 	0.96160 0.42580 0.72700 -0.04500
H 	H 	0.94880 0.41390 0.73980 0.02500
H 	H 	0.98220 0.42090 0.73170 0.02300
C 	C 	0.86860 0.40530 0.64320 -0.04900
H 	H 	0.86100 0.42310 0.63340 0.02600
H 	H 	0.87350 0.41060 0.66370 0.02600
H 	H 	0.87900 0.40380 0.58660 0.02600
C 	C 	0.89010 0.48540 0.62280 -0.04800
H 	H 	0.89580 0.48860 0.64350 0.02400
H 	H 	0.87500 0.46990 0.62220 0.02400
C 	C 	0.93760 0.50050 0.60620 -0.05700
H 	H 	0.95510 0.49450 0.59490 0.02900
H 	H 	0.94380 0.50470 0.62660 0.02900
C 	C 	0.90740 0.47200 0.57550 -0.04000
H 	H 	0.89320 0.45560 0.57400 0.02200
H 	H 	0.92510 0.46660 0.56410 0.02300
H 	H 	0.91110 0.87360 0.31400 0.02700
H 	H 	0.96440 0.90240 0.31040 0.02600
H 	H 	0.99540 0.97050 0.21700 0.02600
H 	H 	0.96000 0.98490 0.17060 0.02500
C 	C 	0.95520 0.91830 0.19430 -0.05300
H 	H 	0.97340 0.91110 0.18480 0.02800
H 	H 	0.94040 0.90250 0.19320 0.02600
N 	N 	0.91542 0.97615 0.10609 -0.13800
C 	C 	0.96160 0.92580 0.22700 -0.04500
H 	H 	0.94880 0.91390 0.23980 0.02500
H 	H 	0.98220 0.92090 0.23170 0.02300
C 	C 	0.86860 0.90530 0.14320 -0.04900
H 	H 	0.86100 0.92310 0.13340 0.02600
H 	H 	0.87350 0.91060 0.16370 0.02600
H 	H 	0.87900 0.90380 0.08660 0.02600
C 	C 	0.89010 0.98540 0.12280 -0.04800
H 	H 	0.89580 0.98860 0.14350 0.02400
H 	H 	0.87500 0.96990 0.12220 0.02400
C 	C 	0.93760 0.00050 0.10620 -0.05700
H 	H 	0.95510 0.99450 0.09490 0.02900
H 	H 	0.94380 0.00470 0.12660 0.02900
C 	C 	0.90740 0.97200 0.07550 -0.04000
H 	H 	0.89320 0.95560 0.07400 0.02200
H 	H 	0.92510 0.96660 0.06410 0.02300
H 	H 	0.41110 0.37360 0.31400 0.02700
H 	H 	0.46440 0.40240 0.31040 0.02600
H 	H 	0.49540 0.47050 0.21700 0.02600
H 	H 	0.46000 0.48490 0.17060 0.02500
C 	C 	0.45520 0.41830 0.19430 -0.05300
H 	H 	0.47340 0.41110 0.18480 0.02800
H 	H 	0.44040 0.40250 0.19320 0.02600
N 	N 	0.41542 0.47615 0.10609 -0.13800
C 	C 	0.46160 0.42580 0.22700 -0.04500
H 	H 	0.44880 0.41390 0.23980 0.02500
H 	H 	0.48220 0.42090 0.23170 0.02300
C 	C 	0.36860 0.40530 0.14320 -0.04900
H 	H 	0.36100 0.42310 0.13340 0.02600
H 	H 	0.37350 0.41060 0.16370 0.02600
H 	H 	0.37900 0.40380 0.08660 0.02600
C 	C 	0.39010 0.48540 0.12280 -0.04800
H 	H 	0.39580 0.48860 0.14350 0.02400
H 	H 	0.37500 0.46990 0.12220 0.02400
C 	C 	0.43760 0.50050 0.10620 -0.05700
H 	H 	0.45510 0.49450 0.09490 0.02900
H 	H 	0.44380 0.50470 0.12660 0.02900
C 	C 	0.40740 0.47200 0.07550 -0.04000
H 	H 	0.39320 0.45560 0.07400 0.02200
H 	H 	0.42510 0.46660 0.06410 0.02300
H 	H 	0.41110 0.87360 0.81400 0.02700
H 	H 	0.46440 0.90240 0.81040 0.02600
H 	H 	0.49540 0.97050 0.71700 0.02600
H 	H 	0.46000 0.98490 0.67060 0.02500
C 	C 	0.45520 0.91830 0.69430 -0.05300
H 	H 	0.47340 0.91110 0.68480 0.02800
H 	H 	0.44040 0.90250 0.69320 0.02600
N 	N 	0.41542 0.97615 0.60609 -0.13800
C 	C 	0.46160 0.92580 0.72700 -0.04500
H 	H 	0.44880 0.91390 0.73980 0.02500
H 	H 	0.48220 0.92090 0.73170 0.02300
C 	C 	0.36860 0.90530 0.64320 -0.04900
H 	H 	0.36100 0.92310 0.63340 0.02600
H 	H 	0.37350 0.91060 0.66370 0.02600
H 	H 	0.37900 0.90380 0.58660 0.02600
C 	C 	0.39010 0.98540 0.62280 -0.04800
H 	H 	0.39580 0.98860 0.64350 0.02400
H 	H 	0.37500 0.96990 0.62220 0.02400
C 	C 	0.43760 0.00050 0.60620 -0.05700
H 	H 	0.45510 0.99450 0.59490 0.02900
H 	H 	0.44380 0.00470 0.62660 0.02900
C 	C 	0.40740 0.97200 0.57550 -0.04000
H 	H 	0.39320 0.95560 0.57400 0.02200
H 	H 	0.42510 0.96660 0.56410 0.02300
H 	H 	0.81400 0.37360 0.91110 0.02700
H 	H 	0.81040 0.40240 0.96440 0.02600
H 	H 	0.71700 0.47050 0.99540 0.02600
H 	H 	0.67060 0.48490 0.96000 0.02500
C 	C 	0.69430 0.41830 0.95520 -0.05300
H 	H 	0.68480 0.41110 0.97340 0.02800
H 	H 	0.69320 0.40250 0.94040 0.02600
N 	N 	0.60609 0.47615 0.91542 -0.13800
C 	C 	0.72700 0.42580 0.96160 -0.04500
H 	H 	0.73980 0.41390 0.94880 0.02500
H 	H 	0.73170 0.42090 0.98220 0.02300
C 	C 	0.64320 0.40530 0.86860 -0.04900
H 	H 	0.63340 0.42310 0.86100 0.02600
H 	H 	0.66370 0.41060 0.87350 0.02600
H 	H 	0.58660 0.40380 0.87900 0.02600
C 	C 	0.62280 0.48540 0.89010 -0.04800
H 	H 	0.64350 0.48860 0.89580 0.02400
H 	H 	0.62220 0.46990 0.87500 0.02400
C 	C 	0.60620 0.50050 0.93760 -0.05700
H 	H 	0.59490 0.49450 0.95510 0.02900
H 	H 	0.62660 0.50470 0.94380 0.02900
C 	C 	0.57550 0.47200 0.90740 -0.04000
H 	H 	0.57400 0.45560 0.89320 0.02200
H 	H 	0.56410 0.46660 0.92510 0.02300
H 	H 	0.81400 0.87360 0.41110 0.02700
H 	H 	0.81040 0.90240 0.46440 0.02600
H 	H 	0.71700 0.97050 0.49540 0.02600
H 	H 	0.67060 0.98490 0.46000 0.02500
C 	C 	0.69430 0.91830 0.45520 -0.05300
H 	H 	0.68480 0.91110 0.47340 0.02800
H 	H 	0.69320 0.90250 0.44040 0.02600
N 	N 	0.60609 0.97615 0.41542 -0.13800
C 	C 	0.72700 0.92580 0.46160 -0.04500
H 	H 	0.73980 0.91390 0.44880 0.02500
H 	H 	0.73170 0.92090 0.48220 0.02300
C 	C 	0.64320 0.90530 0.36860 -0.04900
H 	H 	0.63340 0.92310 0.36100 0.02600
H 	H 	0.66370 0.91060 0.37350 0.02600
H 	H 	0.58660 0.90380 0.37900 0.02600
C 	C 	0.62280 0.98540 0.39010 -0.04800
H 	H 	0.64350 0.98860 0.39580 0.02400
H 	H 	0.62220 0.96990 0.37500 0.02400
C 	C 	0.60620 0.00050 0.43760 -0.05700
H 	H 	0.59490 0.99450 0.45510 0.02900
H 	H 	0.62660 0.00470 0.44380 0.02900
C 	C 	0.57550 0.97200 0.40740 -0.04000
H 	H 	0.57400 0.95560 0.39320 0.02200
H 	H 	0.56410 0.96660 0.42510 0.02300
H 	H 	0.31400 0.37360 0.41110 0.02700
H 	H 	0.31040 0.40240 0.46440 0.02600
H 	H 	0.21700 0.47050 0.49540 0.02600
H 	H 	0.17060 0.48490 0.46000 0.02500
C 	C 	0.19430 0.41830 0.45520 -0.05300
H 	H 	0.18480 0.41110 0.47340 0.02800
H 	H 	0.19320 0.40250 0.44040 0.02600
N 	N 	0.10609 0.47615 0.41542 -0.13800
C 	C 	0.22700 0.42580 0.46160 -0.04500
H 	H 	0.23980 0.41390 0.44880 0.02500
H 	H 	0.23170 0.42090 0.48220 0.02300
C 	C 	0.14320 0.40530 0.36860 -0.04900
H 	H 	0.13340 0.42310 0.36100 0.02600
H 	H 	0.16370 0.41060 0.37350 0.02600
H 	H 	0.08660 0.40380 0.37900 0.02600
C 	C 	0.12280 0.48540 0.39010 -0.04800
H 	H 	0.14350 0.48860 0.39580 0.02400
H 	H 	0.12220 0.46990 0.37500 0.02400
C 	C 	0.10620 0.50050 0.43760 -0.05700
H 	H 	0.09490 0.49450 0.45510 0.02900
H 	H 	0.12660 0.50470 0.44380 0.02900
C 	C 	0.07550 0.47200 0.40740 -0.04000
H 	H 	0.07400 0.45560 0.39320 0.02200
H 	H 	0.06410 0.46660 0.42510 0.02300
H 	H 	0.31400 0.87360 0.91110 0.02700
H 	H 	0.31040 0.90240 0.96440 0.02600
H 	H 	0.21700 0.97050 0.99540 0.02600
H 	H 	0.17060 0.98490 0.96000 0.02500
C 	C 	0.19430 0.91830 0.95520 -0.05300
H 	H 	0.18480 0.91110 0.97340 0.02800
H 	H 	0.19320 0.90250 0.94040 0.02600
N 	N 	0.10609 0.97615 0.91542 -0.13800
C 	C 	0.22700 0.92580 0.96160 -0.04500
H 	H 	0.23980 0.91390 0.94880 0.02500
H 	H 	0.23170 0.92090 0.98220 0.02300
C 	C 	0.14320 0.90530 0.86860 -0.04900
H 	H 	0.13340 0.92310 0.86100 0.02600
H 	H 	0.16370 0.91060 0.87350 0.02600
H 	H 	0.08660 0.90380 0.87900 0.02600
C 	C 	0.12280 0.98540 0.89010 -0.04800
H 	H 	0.14350 0.98860 0.89580 0.02400
H 	H 	0.12220 0.96990 0.87500 0.02400
C 	C 	0.10620 0.00050 0.93760 -0.05700
H 	H 	0.09490 0.99450 0.95510 0.02900
H 	H 	0.12660 0.00470 0.94380 0.02900
C 	C 	0.07550 0.97200 0.90740 -0.04000
H 	H 	0.07400 0.95560 0.89320 0.02200
H 	H 	0.06410 0.96660 0.92510 0.02300
H 	H 	0.43600 0.37640 0.41110 0.02700
H 	H 	0.43960 0.34760 0.46440 0.02600
H 	H 	0.53300 0.27950 0.49540 0.02600
H 	H 	0.57940 0.26510 0.46000 0.02500
C 	C 	0.55570 0.33170 0.45520 -0.05300
H 	H 	0.56520 0.33890 0.47340 0.02800
H 	H 	0.55680 0.34750 0.44040 0.02600
N 	N 	0.64391 0.27385 0.41542 -0.13800
C 	C 	0.52300 0.32420 0.46160 -0.04500
H 	H 	0.51020 0.33610 0.44880 0.02500
H 	H 	0.51830 0.32910 0.48220 0.02300
C 	C 	0.60680 0.34470 0.36860 -0.04900
H 	H 	0.61660 0.32690 0.36100 0.02600
H 	H 	0.58630 0.33940 0.37350 0.02600
H 	H 	0.66340 0.34620 0.37900 0.02600
C 	C 	0.62720 0.26460 0.39010 -0.04800
H 	H 	0.60650 0.26140 0.39580 0.02400
H 	H 	0.62780 0.28010 0.37500 0.02400
C 	C 	0.64380 0.24950 0.43760 -0.05700
H 	H 	0.65510 0.25550 0.45510 0.02900
H 	H 	0.62340 0.24530 0.44380 0.02900
C 	C 	0.67450 0.27800 0.40740 -0.04000
H 	H 	0.67600 0.29440 0.39320 0.02200
H 	H 	0.68590 0.28340 0.42510 0.02300
H 	H 	0.43600 0.87640 0.91110 0.02700
H 	H 	0.43960 0.84760 0.96440 0.02600
H 	H 	0.53300 0.77950 0.99540 0.02600
H 	H 	0.57940 0.76510 0.96000 0.02500
C 	C 	0.55570 0.83170 0.95520 -0.05300
H 	H 	0.56520 0.83890 0.97340 0.02800
H 	H 	0.55680 0.84750 0.94040 0.02600
N 	N 	0.64391 0.77385 0.91542 -0.13800
C 	C 	0.52300 0.82420 0.96160 -0.04500
H 	H 	0.51020 0.83610 0.94880 0.02500
H 	H 	0.51830 0.82910 0.98220 0.02300
C 	C 	0.60680 0.84470 0.86860 -0.04900
H 	H 	0.61660 0.82690 0.86100 0.02600
H 	H 	0.58630 0.83940 0.87350 0.02600
H 	H 	0.66340 0.84620 0.87900 0.02600
C 	C 	0.62720 0.76460 0.89010 -0.04800
H 	H 	0.60650 0.76140 0.89580 0.02400
H 	H 	0.62780 0.78010 0.87500 0.02400
C 	C 	0.64380 0.74950 0.93760 -0.05700
H 	H 	0.65510 0.75550 0.95510 0.02900
H 	H 	0.62340 0.74530 0.94380 0.02900
C 	C 	0.67450 0.77800 0.90740 -0.04000
H 	H 	0.67600 0.79440 0.89320 0.02200
H 	H 	0.68590 0.78340 0.92510 0.02300
H 	H 	0.93600 0.37640 0.91110 0.02700
H 	H 	0.93960 0.34760 0.96440 0.02600
H 	H 	0.03300 0.27950 0.99540 0.02600
H 	H 	0.07940 0.26510 0.96000 0.02500
C 	C 	0.05570 0.33170 0.95520 -0.05300
H 	H 	0.06520 0.33890 0.97340 0.02800
H 	H 	0.05680 0.34750 0.94040 0.02600
N 	N 	0.14391 0.27385 0.91542 -0.13800
C 	C 	0.02300 0.32420 0.96160 -0.04500
H 	H 	0.01020 0.33610 0.94880 0.02500
H 	H 	0.01830 0.32910 0.98220 0.02300
C 	C 	0.10680 0.34470 0.86860 -0.04900
H 	H 	0.11660 0.32690 0.86100 0.02600
H 	H 	0.08630 0.33940 0.87350 0.02600
H 	H 	0.16340 0.34620 0.87900 0.02600
C 	C 	0.12720 0.26460 0.89010 -0.04800
H 	H 	0.10650 0.26140 0.89580 0.02400
H 	H 	0.12780 0.28010 0.87500 0.02400
C 	C 	0.14380 0.24950 0.93760 -0.05700
H 	H 	0.15510 0.25550 0.95510 0.02900
H 	H 	0.12340 0.24530 0.94380 0.02900
C 	C 	0.17450 0.27800 0.90740 -0.04000
H 	H 	0.17600 0.29440 0.89320 0.02200
H 	H 	0.18590 0.28340 0.92510 0.02300
H 	H 	0.93600 0.87640 0.41110 0.02700
H 	H 	0.93960 0.84760 0.46440 0.02600
H 	H 	0.03300 0.77950 0.49540 0.02600
H 	H 	0.07940 0.76510 0.46000 0.02500
C 	C 	0.05570 0.83170 0.45520 -0.05300
H 	H 	0.06520 0.83890 0.47340 0.02800
H 	H 	0.05680 0.84750 0.44040 0.02600
N 	N 	0.14391 0.77385 0.41542 -0.13800
C 	C 	0.02300 0.82420 0.46160 -0.04500
H 	H 	0.01020 0.83610 0.44880 0.02500
H 	H 	0.01830 0.82910 0.48220 0.02300
C 	C 	0.10680 0.84470 0.36860 -0.04900
H 	H 	0.11660 0.82690 0.36100 0.02600
H 	H 	0.08630 0.83940 0.37350 0.02600
H 	H 	0.16340 0.84620 0.37900 0.02600
C 	C 	0.12720 0.76460 0.39010 -0.04800
H 	H 	0.10650 0.76140 0.39580 0.02400
H 	H 	0.12780 0.78010 0.37500 0.02400
C 	C 	0.14380 0.74950 0.43760 -0.05700
H 	H 	0.15510 0.75550 0.45510 0.02900
H 	H 	0.12340 0.74530 0.44380 0.02900
C 	C 	0.17450 0.77800 0.40740 -0.04000
H 	H 	0.17600 0.79440 0.39320 0.02200
H 	H 	0.18590 0.78340 0.42510 0.02300
H 	H 	0.93600 0.87360 0.33890 0.02700
H 	H 	0.93960 0.90240 0.28560 0.02600
H 	H 	0.03300 0.97050 0.25460 0.02600
H 	H 	0.07940 0.98490 0.29000 0.02500
C 	C 	0.05570 0.91830 0.29480 -0.05300
H 	H 	0.06520 0.91110 0.27660 0.02800
H 	H 	0.05680 0.90250 0.30960 0.02600
N 	N 	0.14391 0.97615 0.33458 -0.13800
C 	C 	0.02300 0.92580 0.28840 -0.04500
H 	H 	0.01020 0.91390 0.30120 0.02500
H 	H 	0.01830 0.92090 0.26780 0.02300
C 	C 	0.10680 0.90530 0.38140 -0.04900
H 	H 	0.11660 0.92310 0.38900 0.02600
H 	H 	0.08630 0.91060 0.37650 0.02600
H 	H 	0.16340 0.90380 0.37100 0.02600
C 	C 	0.12720 0.98540 0.35990 -0.04800
H 	H 	0.10650 0.98860 0.35420 0.02400
H 	H 	0.12780 0.96990 0.37500 0.02400
C 	C 	0.14380 0.00050 0.31240 -0.05700
H 	H 	0.15510 0.99450 0.29490 0.02900
H 	H 	0.12340 0.00470 0.30620 0.02900
C 	C 	0.17450 0.97200 0.34260 -0.04000
H 	H 	0.17600 0.95560 0.35680 0.02200
H 	H 	0.18590 0.96660 0.32490 0.02300
H 	H 	0.93600 0.37360 0.83890 0.02700
H 	H 	0.93960 0.40240 0.78560 0.02600
H 	H 	0.03300 0.47050 0.75460 0.02600
H 	H 	0.07940 0.48490 0.79000 0.02500
C 	C 	0.05570 0.41830 0.79480 -0.05300
H 	H 	0.06520 0.41110 0.77660 0.02800
H 	H 	0.05680 0.40250 0.80960 0.02600
N 	N 	0.14391 0.47615 0.83458 -0.13800
C 	C 	0.02300 0.42580 0.78840 -0.04500
H 	H 	0.01020 0.41390 0.80120 0.02500
H 	H 	0.01830 0.42090 0.76780 0.02300
C 	C 	0.10680 0.40530 0.88140 -0.04900
H 	H 	0.11660 0.42310 0.88900 0.02600
H 	H 	0.08630 0.41060 0.87650 0.02600
H 	H 	0.16340 0.40380 0.87100 0.02600
C 	C 	0.12720 0.48540 0.85990 -0.04800
H 	H 	0.10650 0.48860 0.85420 0.02400
H 	H 	0.12780 0.46990 0.87500 0.02400
C 	C 	0.14380 0.50050 0.81240 -0.05700
H 	H 	0.15510 0.49450 0.79490 0.02900
H 	H 	0.12340 0.50470 0.80620 0.02900
C 	C 	0.17450 0.47200 0.84260 -0.04000
H 	H 	0.17600 0.45560 0.85680 0.02200
H 	H 	0.18590 0.46660 0.82490 0.02300
H 	H 	0.43600 0.87360 0.83890 0.02700
H 	H 	0.43960 0.90240 0.78560 0.02600
H 	H 	0.53300 0.97050 0.75460 0.02600
H 	H 	0.57940 0.98490 0.79000 0.02500
C 	C 	0.55570 0.91830 0.79480 -0.05300
H 	H 	0.56520 0.91110 0.77660 0.02800
H 	H 	0.55680 0.90250 0.80960 0.02600
N 	N 	0.64391 0.97615 0.83458 -0.13800
C 	C 	0.52300 0.92580 0.78840 -0.04500
H 	H 	0.51020 0.91390 0.80120 0.02500
H 	H 	0.51830 0.92090 0.76780 0.02300
C 	C 	0.60680 0.90530 0.88140 -0.04900
H 	H 	0.61660 0.92310 0.88900 0.02600
H 	H 	0.58630 0.91060 0.87650 0.02600
H 	H 	0.66340 0.90380 0.87100 0.02600
C 	C 	0.62720 0.98540 0.85990 -0.04800
H 	H 	0.60650 0.98860 0.85420 0.02400
H 	H 	0.62780 0.96990 0.87500 0.02400
C 	C 	0.64380 0.00050 0.81240 -0.05700
H 	H 	0.65510 0.99450 0.79490 0.02900
H 	H 	0.62340 0.00470 0.80620 0.02900
C 	C 	0.67450 0.97200 0.84260 -0.04000
H 	H 	0.67600 0.95560 0.85680 0.02200
H 	H 	0.68590 0.96660 0.82490 0.02300
H 	H 	0.43600 0.37360 0.33890 0.02700
H 	H 	0.43960 0.40240 0.28560 0.02600
H 	H 	0.53300 0.47050 0.25460 0.02600
H 	H 	0.57940 0.48490 0.29000 0.02500
C 	C 	0.55570 0.41830 0.29480 -0.05300
H 	H 	0.56520 0.41110 0.27660 0.02800
H 	H 	0.55680 0.40250 0.30960 0.02600
N 	N 	0.64391 0.47615 0.33458 -0.13800
C 	C 	0.52300 0.42580 0.28840 -0.04500
H 	H 	0.51020 0.41390 0.30120 0.02500
H 	H 	0.51830 0.42090 0.26780 0.02300
C 	C 	0.60680 0.40530 0.38140 -0.04900
H 	H 	0.61660 0.42310 0.38900 0.02600
H 	H 	0.58630 0.41060 0.37650 0.02600
H 	H 	0.66340 0.40380 0.37100 0.02600
C 	C 	0.62720 0.48540 0.35990 -0.04800
H 	H 	0.60650 0.48860 0.35420 0.02400
H 	H 	0.62780 0.46990 0.37500 0.02400
C 	C 	0.64380 0.50050 0.31240 -0.05700
H 	H 	0.65510 0.49450 0.29490 0.02900
H 	H 	0.62340 0.50470 0.30620 0.02900
C 	C 	0.67450 0.47200 0.34260 -0.04000
H 	H 	0.67600 0.45560 0.35680 0.02200
H 	H 	0.68590 0.46660 0.32490 0.02300
H 	H 	0.31400 0.87640 0.83890 0.02700
H 	H 	0.31040 0.84760 0.78560 0.02600
H 	H 	0.21700 0.77950 0.75460 0.02600
H 	H 	0.17060 0.76510 0.79000 0.02500
C 	C 	0.19430 0.83170 0.79480 -0.05300
H 	H 	0.18480 0.83890 0.77660 0.02800
H 	H 	0.19320 0.84750 0.80960 0.02600
N 	N 	0.10609 0.77385 0.83458 -0.13800
C 	C 	0.22700 0.82420 0.78840 -0.04500
H 	H 	0.23980 0.83610 0.80120 0.02500
H 	H 	0.23170 0.82910 0.76780 0.02300
C 	C 	0.14320 0.84470 0.88140 -0.04900
H 	H 	0.13340 0.82690 0.88900 0.02600
H 	H 	0.16370 0.83940 0.87650 0.02600
H 	H 	0.08660 0.84620 0.87100 0.02600
C 	C 	0.12280 0.76460 0.85990 -0.04800
H 	H 	0.14350 0.76140 0.85420 0.02400
H 	H 	0.12220 0.78010 0.87500 0.02400
C 	C 	0.10620 0.74950 0.81240 -0.05700
H 	H 	0.09490 0.75550 0.79490 0.02900
H 	H 	0.12660 0.74530 0.80620 0.02900
C 	C 	0.07550 0.77800 0.84260 -0.04000
H 	H 	0.07400 0.79440 0.85680 0.02200
H 	H 	0.06410 0.78340 0.82490 0.02300
H 	H 	0.31400 0.37640 0.33890 0.02700
H 	H 	0.31040 0.34760 0.28560 0.02600
H 	H 	0.21700 0.27950 0.25460 0.02600
H 	H 	0.17060 0.26510 0.29000 0.02500
C 	C 	0.19430 0.33170 0.29480 -0.05300
H 	H 	0.18480 0.33890 0.27660 0.02800
H 	H 	0.19320 0.34750 0.30960 0.02600
N 	N 	0.10609 0.27385 0.33458 -0.13800
C 	C 	0.22700 0.32420 0.28840 -0.04500
H 	H 	0.23980 0.33610 0.30120 0.02500
H 	H 	0.23170 0.32910 0.26780 0.02300
C 	C 	0.14320 0.34470 0.38140 -0.04900
H 	H 	0.13340 0.32690 0.38900 0.02600
H 	H 	0.16370 0.33940 0.37650 0.02600
H 	H 	0.08660 0.34620 0.37100 0.02600
C 	C 	0.12280 0.26460 0.35990 -0.04800
H 	H 	0.14350 0.26140 0.35420 0.02400
H 	H 	0.12220 0.28010 0.37500 0.02400
C 	C 	0.10620 0.24950 0.31240 -0.05700
H 	H 	0.09490 0.25550 0.29490 0.02900
H 	H 	0.12660 0.24530 0.30620 0.02900
C 	C 	0.07550 0.27800 0.34260 -0.04000
H 	H 	0.07400 0.29440 0.35680 0.02200
H 	H 	0.06410 0.28340 0.32490 0.02300
H 	H 	0.81400 0.87640 0.33890 0.02700
H 	H 	0.81040 0.84760 0.28560 0.02600
H 	H 	0.71700 0.77950 0.25460 0.02600
H 	H 	0.67060 0.76510 0.29000 0.02500
C 	C 	0.69430 0.83170 0.29480 -0.05300
H 	H 	0.68480 0.83890 0.27660 0.02800
H 	H 	0.69320 0.84750 0.30960 0.02600
N 	N 	0.60609 0.77385 0.33458 -0.13800
C 	C 	0.72700 0.82420 0.28840 -0.04500
H 	H 	0.73980 0.83610 0.30120 0.02500
H 	H 	0.73170 0.82910 0.26780 0.02300
C 	C 	0.64320 0.84470 0.38140 -0.04900
H 	H 	0.63340 0.82690 0.38900 0.02600
H 	H 	0.66370 0.83940 0.37650 0.02600
H 	H 	0.58660 0.84620 0.37100 0.02600
C 	C 	0.62280 0.76460 0.35990 -0.04800
H 	H 	0.64350 0.76140 0.35420 0.02400
H 	H 	0.62220 0.78010 0.37500 0.02400
C 	C 	0.60620 0.74950 0.31240 -0.05700
H 	H 	0.59490 0.75550 0.29490 0.02900
H 	H 	0.62660 0.74530 0.30620 0.02900
C 	C 	0.57550 0.77800 0.34260 -0.04000
H 	H 	0.57400 0.79440 0.35680 0.02200
H 	H 	0.56410 0.78340 0.32490 0.02300
H 	H 	0.81400 0.37640 0.83890 0.02700
H 	H 	0.81040 0.34760 0.78560 0.02600
H 	H 	0.71700 0.27950 0.75460 0.02600
H 	H 	0.67060 0.26510 0.79000 0.02500
C 	C 	0.69430 0.33170 0.79480 -0.05300
H 	H 	0.68480 0.33890 0.77660 0.02800
H 	H 	0.69320 0.34750 0.80960 0.02600
N 	N 	0.60609 0.27385 0.83458 -0.13800
C 	C 	0.72700 0.32420 0.78840 -0.04500
H 	H 	0.73980 0.33610 0.80120 0.02500
H 	H 	0.73170 0.32910 0.76780 0.02300
C 	C 	0.64320 0.34470 0.88140 -0.04900
H 	H 	0.63340 0.32690 0.88900 0.02600
H 	H 	0.66370 0.33940 0.87650 0.02600
H 	H 	0.58660 0.34620 0.87100 0.02600
C 	C 	0.62280 0.26460 0.85990 -0.04800
H 	H 	0.64350 0.26140 0.85420 0.02400
H 	H 	0.62220 0.28010 0.87500 0.02400
C 	C 	0.60620 0.24950 0.81240 -0.05700
H 	H 	0.59490 0.25550 0.79490 0.02900
H 	H 	0.62660 0.24530 0.80620 0.02900
C 	C 	0.57550 0.27800 0.84260 -0.04000
H 	H 	0.57400 0.29440 0.85680 0.02200
H 	H 	0.56410 0.28340 0.82490 0.02300
H 	H 	0.91110 0.81400 0.37360 0.02700
H 	H 	0.96440 0.81040 0.40240 0.02600
H 	H 	0.99540 0.71700 0.47050 0.02600
H 	H 	0.96000 0.67060 0.48490 0.02500
C 	C 	0.95520 0.69430 0.41830 -0.05300
H 	H 	0.97340 0.68480 0.41110 0.02800
H 	H 	0.94040 0.69320 0.40250 0.02600
N 	N 	0.91542 0.60609 0.47615 -0.13800
C 	C 	0.96160 0.72700 0.42580 -0.04500
H 	H 	0.94880 0.73980 0.41390 0.02500
H 	H 	0.98220 0.73170 0.42090 0.02300
C 	C 	0.86860 0.64320 0.40530 -0.04900
H 	H 	0.86100 0.63340 0.42310 0.02600
H 	H 	0.87350 0.66370 0.41060 0.02600
H 	H 	0.87900 0.58660 0.40380 0.02600
C 	C 	0.89010 0.62280 0.48540 -0.04800
H 	H 	0.89580 0.64350 0.48860 0.02400
H 	H 	0.87500 0.62220 0.46990 0.02400
C 	C 	0.93760 0.60620 0.50050 -0.05700
H 	H 	0.95510 0.59490 0.49450 0.02900
H 	H 	0.94380 0.62660 0.50470 0.02900
C 	C 	0.90740 0.57550 0.47200 -0.04000
H 	H 	0.89320 0.57400 0.45560 0.02200
H 	H 	0.92510 0.56410 0.46660 0.02300
H 	H 	0.91110 0.31400 0.87360 0.02700
H 	H 	0.96440 0.31040 0.90240 0.02600
H 	H 	0.99540 0.21700 0.97050 0.02600
H 	H 	0.96000 0.17060 0.98490 0.02500
C 	C 	0.95520 0.19430 0.91830 -0.05300
H 	H 	0.97340 0.18480 0.91110 0.02800
H 	H 	0.94040 0.19320 0.90250 0.02600
N 	N 	0.91542 0.10609 0.97615 -0.13800
C 	C 	0.96160 0.22700 0.92580 -0.04500
H 	H 	0.94880 0.23980 0.91390 0.02500
H 	H 	0.98220 0.23170 0.92090 0.02300
C 	C 	0.86860 0.14320 0.90530 -0.04900
H 	H 	0.86100 0.13340 0.92310 0.02600
H 	H 	0.87350 0.16370 0.91060 0.02600
H 	H 	0.87900 0.08660 0.90380 0.02600
C 	C 	0.89010 0.12280 0.98540 -0.04800
H 	H 	0.89580 0.14350 0.98860 0.02400
H 	H 	0.87500 0.12220 0.96990 0.02400
C 	C 	0.93760 0.10620 0.00050 -0.05700
H 	H 	0.95510 0.09490 0.99450 0.02900
H 	H 	0.94380 0.12660 0.00470 0.02900
C 	C 	0.90740 0.07550 0.97200 -0.04000
H 	H 	0.89320 0.07400 0.95560 0.02200
H 	H 	0.92510 0.06410 0.96660 0.02300
H 	H 	0.41110 0.81400 0.87360 0.02700
H 	H 	0.46440 0.81040 0.90240 0.02600
H 	H 	0.49540 0.71700 0.97050 0.02600
H 	H 	0.46000 0.67060 0.98490 0.02500
C 	C 	0.45520 0.69430 0.91830 -0.05300
H 	H 	0.47340 0.68480 0.91110 0.02800
H 	H 	0.44040 0.69320 0.90250 0.02600
N 	N 	0.41542 0.60609 0.97615 -0.13800
C 	C 	0.46160 0.72700 0.92580 -0.04500
H 	H 	0.44880 0.73980 0.91390 0.02500
H 	H 	0.48220 0.73170 0.92090 0.02300
C 	C 	0.36860 0.64320 0.90530 -0.04900
H 	H 	0.36100 0.63340 0.92310 0.02600
H 	H 	0.37350 0.66370 0.91060 0.02600
H 	H 	0.37900 0.58660 0.90380 0.02600
C 	C 	0.39010 0.62280 0.98540 -0.04800
H 	H 	0.39580 0.64350 0.98860 0.02400
H 	H 	0.37500 0.62220 0.96990 0.02400
C 	C 	0.43760 0.60620 0.00050 -0.05700
H 	H 	0.45510 0.59490 0.99450 0.02900
H 	H 	0.44380 0.62660 0.00470 0.02900
C 	C 	0.40740 0.57550 0.97200 -0.04000
H 	H 	0.39320 0.57400 0.95560 0.02200
H 	H 	0.42510 0.56410 0.96660 0.02300
H 	H 	0.41110 0.31400 0.37360 0.02700
H 	H 	0.46440 0.31040 0.40240 0.02600
H 	H 	0.49540 0.21700 0.47050 0.02600
H 	H 	0.46000 0.17060 0.48490 0.02500
C 	C 	0.45520 0.19430 0.41830 -0.05300
H 	H 	0.47340 0.18480 0.41110 0.02800
H 	H 	0.44040 0.19320 0.40250 0.02600
N 	N 	0.41542 0.10609 0.47615 -0.13800
C 	C 	0.46160 0.22700 0.42580 -0.04500
H 	H 	0.44880 0.23980 0.41390 0.02500
H 	H 	0.48220 0.23170 0.42090 0.02300
C 	C 	0.36860 0.14320 0.40530 -0.04900
H 	H 	0.36100 0.13340 0.42310 0.02600
H 	H 	0.37350 0.16370 0.41060 0.02600
H 	H 	0.37900 0.08660 0.40380 0.02600
C 	C 	0.39010 0.12280 0.48540 -0.04800
H 	H 	0.39580 0.14350 0.48860 0.02400
H 	H 	0.37500 0.12220 0.46990 0.02400
C 	C 	0.43760 0.10620 0.50050 -0.05700
H 	H 	0.45510 0.09490 0.49450 0.02900
H 	H 	0.44380 0.12660 0.50470 0.02900
C 	C 	0.40740 0.07550 0.47200 -0.04000
H 	H 	0.39320 0.07400 0.45560 0.02200
H 	H 	0.42510 0.06410 0.46660 0.02300
H 	H 	0.41110 0.43600 0.37640 0.02700
H 	H 	0.46440 0.43960 0.34760 0.02600
H 	H 	0.49540 0.53300 0.27950 0.02600
H 	H 	0.46000 0.57940 0.26510 0.02500
C 	C 	0.45520 0.55570 0.33170 -0.05300
H 	H 	0.47340 0.56520 0.33890 0.02800
H 	H 	0.44040 0.55680 0.34750 0.02600
N 	N 	0.41542 0.64391 0.27385 -0.13800
C 	C 	0.46160 0.52300 0.32420 -0.04500
H 	H 	0.44880 0.51020 0.33610 0.02500
H 	H 	0.48220 0.51830 0.32910 0.02300
C 	C 	0.36860 0.60680 0.34470 -0.04900
H 	H 	0.36100 0.61660 0.32690 0.02600
H 	H 	0.37350 0.58630 0.33940 0.02600
H 	H 	0.37900 0.66340 0.34620 0.02600
C 	C 	0.39010 0.62720 0.26460 -0.04800
H 	H 	0.39580 0.60650 0.26140 0.02400
H 	H 	0.37500 0.62780 0.28010 0.02400
C 	C 	0.43760 0.64380 0.24950 -0.05700
H 	H 	0.45510 0.65510 0.25550 0.02900
H 	H 	0.44380 0.62340 0.24530 0.02900
C 	C 	0.40740 0.67450 0.27800 -0.04000
H 	H 	0.39320 0.67600 0.29440 0.02200
H 	H 	0.42510 0.68590 0.28340 0.02300
H 	H 	0.41110 0.93600 0.87640 0.02700
H 	H 	0.46440 0.93960 0.84760 0.02600
H 	H 	0.49540 0.03300 0.77950 0.02600
H 	H 	0.46000 0.07940 0.76510 0.02500
C 	C 	0.45520 0.05570 0.83170 -0.05300
H 	H 	0.47340 0.06520 0.83890 0.02800
H 	H 	0.44040 0.05680 0.84750 0.02600
N 	N 	0.41542 0.14391 0.77385 -0.13800
C 	C 	0.46160 0.02300 0.82420 -0.04500
H 	H 	0.44880 0.01020 0.83610 0.02500
H 	H 	0.48220 0.01830 0.82910 0.02300
C 	C 	0.36860 0.10680 0.84470 -0.04900
H 	H 	0.36100 0.11660 0.82690 0.02600
H 	H 	0.37350 0.08630 0.83940 0.02600
H 	H 	0.37900 0.16340 0.84620 0.02600
C 	C 	0.39010 0.12720 0.76460 -0.04800
H 	H 	0.39580 0.10650 0.76140 0.02400
H 	H 	0.37500 0.12780 0.78010 0.02400
C 	C 	0.43760 0.14380 0.74950 -0.05700
H 	H 	0.45510 0.15510 0.75550 0.02900
H 	H 	0.44380 0.12340 0.74530 0.02900
C 	C 	0.40740 0.17450 0.77800 -0.04000
H 	H 	0.39320 0.17600 0.79440 0.02200
H 	H 	0.42510 0.18590 0.78340 0.02300
H 	H 	0.91110 0.43600 0.87640 0.02700
H 	H 	0.96440 0.43960 0.84760 0.02600
H 	H 	0.99540 0.53300 0.77950 0.02600
H 	H 	0.96000 0.57940 0.76510 0.02500
C 	C 	0.95520 0.55570 0.83170 -0.05300
H 	H 	0.97340 0.56520 0.83890 0.02800
H 	H 	0.94040 0.55680 0.84750 0.02600
N 	N 	0.91542 0.64391 0.77385 -0.13800
C 	C 	0.96160 0.52300 0.82420 -0.04500
H 	H 	0.94880 0.51020 0.83610 0.02500
H 	H 	0.98220 0.51830 0.82910 0.02300
C 	C 	0.86860 0.60680 0.84470 -0.04900
H 	H 	0.86100 0.61660 0.82690 0.02600
H 	H 	0.87350 0.58630 0.83940 0.02600
H 	H 	0.87900 0.66340 0.84620 0.02600
C 	C 	0.89010 0.62720 0.76460 -0.04800
H 	H 	0.89580 0.60650 0.76140 0.02400
H 	H 	0.87500 0.62780 0.78010 0.02400
C 	C 	0.93760 0.64380 0.74950 -0.05700
H 	H 	0.95510 0.65510 0.75550 0.02900
H 	H 	0.94380 0.62340 0.74530 0.02900
C 	C 	0.90740 0.67450 0.77800 -0.04000
H 	H 	0.89320 0.67600 0.79440 0.02200
H 	H 	0.92510 0.68590 0.78340 0.02300
H 	H 	0.91110 0.93600 0.37640 0.02700
H 	H 	0.96440 0.93960 0.34760 0.02600
H 	H 	0.99540 0.03300 0.27950 0.02600
H 	H 	0.96000 0.07940 0.26510 0.02500
C 	C 	0.95520 0.05570 0.33170 -0.05300
H 	H 	0.97340 0.06520 0.33890 0.02800
H 	H 	0.94040 0.05680 0.34750 0.02600
N 	N 	0.91542 0.14391 0.27385 -0.13800
C 	C 	0.96160 0.02300 0.32420 -0.04500
H 	H 	0.94880 0.01020 0.33610 0.02500
H 	H 	0.98220 0.01830 0.32910 0.02300
C 	C 	0.86860 0.10680 0.34470 -0.04900
H 	H 	0.86100 0.11660 0.32690 0.02600
H 	H 	0.87350 0.08630 0.33940 0.02600
H 	H 	0.87900 0.16340 0.34620 0.02600
C 	C 	0.89010 0.12720 0.26460 -0.04800
H 	H 	0.89580 0.10650 0.26140 0.02400
H 	H 	0.87500 0.12780 0.28010 0.02400
C 	C 	0.93760 0.14380 0.24950 -0.05700
H 	H 	0.95510 0.15510 0.25550 0.02900
H 	H 	0.94380 0.12340 0.24530 0.02900
C 	C 	0.90740 0.17450 0.27800 -0.04000
H 	H 	0.89320 0.17600 0.29440 0.02200
H 	H 	0.92510 0.18590 0.28340 0.02300
H 	H 	0.33890 0.93600 0.87360 0.02700
H 	H 	0.28560 0.93960 0.90240 0.02600
H 	H 	0.25460 0.03300 0.97050 0.02600
H 	H 	0.29000 0.07940 0.98490 0.02500
C 	C 	0.29480 0.05570 0.91830 -0.05300
H 	H 	0.27660 0.06520 0.91110 0.02800
H 	H 	0.30960 0.05680 0.90250 0.02600
N 	N 	0.33458 0.14391 0.97615 -0.13800
C 	C 	0.28840 0.02300 0.92580 -0.04500
H 	H 	0.30120 0.01020 0.91390 0.02500
H 	H 	0.26780 0.01830 0.92090 0.02300
C 	C 	0.38140 0.10680 0.90530 -0.04900
H 	H 	0.38900 0.11660 0.92310 0.02600
H 	H 	0.37650 0.08630 0.91060 0.02600
H 	H 	0.37100 0.16340 0.90380 0.02600
C 	C 	0.35990 0.12720 0.98540 -0.04800
H 	H 	0.35420 0.10650 0.98860 0.02400
H 	H 	0.37500 0.12780 0.96990 0.02400
C 	C 	0.31240 0.14380 0.00050 -0.05700
H 	H 	0.29490 0.15510 0.99450 0.02900
H 	H 	0.30620 0.12340 0.00470 0.02900
C 	C 	0.34260 0.17450 0.97200 -0.04000
H 	H 	0.35680 0.17600 0.95560 0.02200
H 	H 	0.32490 0.18590 0.96660 0.02300
H 	H 	0.33890 0.43600 0.37360 0.02700
H 	H 	0.28560 0.43960 0.40240 0.02600
H 	H 	0.25460 0.53300 0.47050 0.02600
H 	H 	0.29000 0.57940 0.48490 0.02500
C 	C 	0.29480 0.55570 0.41830 -0.05300
H 	H 	0.27660 0.56520 0.41110 0.02800
H 	H 	0.30960 0.55680 0.40250 0.02600
N 	N 	0.33458 0.64391 0.47615 -0.13800
C 	C 	0.28840 0.52300 0.42580 -0.04500
H 	H 	0.30120 0.51020 0.41390 0.02500
H 	H 	0.26780 0.51830 0.42090 0.02300
C 	C 	0.38140 0.60680 0.40530 -0.04900
H 	H 	0.38900 0.61660 0.42310 0.02600
H 	H 	0.37650 0.58630 0.41060 0.02600
H 	H 	0.37100 0.66340 0.40380 0.02600
C 	C 	0.35990 0.62720 0.48540 -0.04800
H 	H 	0.35420 0.60650 0.48860 0.02400
H 	H 	0.37500 0.62780 0.46990 0.02400
C 	C 	0.31240 0.64380 0.50050 -0.05700
H 	H 	0.29490 0.65510 0.49450 0.02900
H 	H 	0.30620 0.62340 0.50470 0.02900
C 	C 	0.34260 0.67450 0.47200 -0.04000
H 	H 	0.35680 0.67600 0.45560 0.02200
H 	H 	0.32490 0.68590 0.46660 0.02300
H 	H 	0.83890 0.93600 0.37360 0.02700
H 	H 	0.78560 0.93960 0.40240 0.02600
H 	H 	0.75460 0.03300 0.47050 0.02600
H 	H 	0.79000 0.07940 0.48490 0.02500
C 	C 	0.79480 0.05570 0.41830 -0.05300
H 	H 	0.77660 0.06520 0.41110 0.02800
H 	H 	0.80960 0.05680 0.40250 0.02600
N 	N 	0.83458 0.14391 0.47615 -0.13800
C 	C 	0.78840 0.02300 0.42580 -0.04500
H 	H 	0.80120 0.01020 0.41390 0.02500
H 	H 	0.76780 0.01830 0.42090 0.02300
C 	C 	0.88140 0.10680 0.40530 -0.04900
H 	H 	0.88900 0.11660 0.42310 0.02600
H 	H 	0.87650 0.08630 0.41060 0.02600
H 	H 	0.87100 0.16340 0.40380 0.02600
C 	C 	0.85990 0.12720 0.48540 -0.04800
H 	H 	0.85420 0.10650 0.48860 0.02400
H 	H 	0.87500 0.12780 0.46990 0.02400
C 	C 	0.81240 0.14380 0.50050 -0.05700
H 	H 	0.79490 0.15510 0.49450 0.02900
H 	H 	0.80620 0.12340 0.50470 0.02900
C 	C 	0.84260 0.17450 0.47200 -0.04000
H 	H 	0.85680 0.17600 0.45560 0.02200
H 	H 	0.82490 0.18590 0.46660 0.02300
H 	H 	0.83890 0.43600 0.87360 0.02700
H 	H 	0.78560 0.43960 0.90240 0.02600
H 	H 	0.75460 0.53300 0.97050 0.02600
H 	H 	0.79000 0.57940 0.98490 0.02500
C 	C 	0.79480 0.55570 0.91830 -0.05300
H 	H 	0.77660 0.56520 0.91110 0.02800
H 	H 	0.80960 0.55680 0.90250 0.02600
N 	N 	0.83458 0.64391 0.97615 -0.13800
C 	C 	0.78840 0.52300 0.92580 -0.04500
H 	H 	0.80120 0.51020 0.91390 0.02500
H 	H 	0.76780 0.51830 0.92090 0.02300
C 	C 	0.88140 0.60680 0.90530 -0.04900
H 	H 	0.88900 0.61660 0.92310 0.02600
H 	H 	0.87650 0.58630 0.91060 0.02600
H 	H 	0.87100 0.66340 0.90380 0.02600
C 	C 	0.85990 0.62720 0.98540 -0.04800
H 	H 	0.85420 0.60650 0.98860 0.02400
H 	H 	0.87500 0.62780 0.96990 0.02400
C 	C 	0.81240 0.64380 0.00050 -0.05700
H 	H 	0.79490 0.65510 0.99450 0.02900
H 	H 	0.80620 0.62340 0.00470 0.02900
C 	C 	0.84260 0.67450 0.97200 -0.04000
H 	H 	0.85680 0.67600 0.95560 0.02200
H 	H 	0.82490 0.68590 0.96660 0.02300
H 	H 	0.83890 0.31400 0.87640 0.02700
H 	H 	0.78560 0.31040 0.84760 0.02600
H 	H 	0.75460 0.21700 0.77950 0.02600
H 	H 	0.79000 0.17060 0.76510 0.02500
C 	C 	0.79480 0.19430 0.83170 -0.05300
H 	H 	0.77660 0.18480 0.83890 0.02800
H 	H 	0.80960 0.19320 0.84750 0.02600
N 	N 	0.83458 0.10609 0.77385 -0.13800
C 	C 	0.78840 0.22700 0.82420 -0.04500
H 	H 	0.80120 0.23980 0.83610 0.02500
H 	H 	0.76780 0.23170 0.82910 0.02300
C 	C 	0.88140 0.14320 0.84470 -0.04900
H 	H 	0.88900 0.13340 0.82690 0.02600
H 	H 	0.87650 0.16370 0.83940 0.02600
H 	H 	0.87100 0.08660 0.84620 0.02600
C 	C 	0.85990 0.12280 0.76460 -0.04800
H 	H 	0.85420 0.14350 0.76140 0.02400
H 	H 	0.87500 0.12220 0.78010 0.02400
C 	C 	0.81240 0.10620 0.74950 -0.05700
H 	H 	0.79490 0.09490 0.75550 0.02900
H 	H 	0.80620 0.12660 0.74530 0.02900
C 	C 	0.84260 0.07550 0.77800 -0.04000
H 	H 	0.85680 0.07400 0.79440 0.02200
H 	H 	0.82490 0.06410 0.78340 0.02300
H 	H 	0.83890 0.81400 0.37640 0.02700
H 	H 	0.78560 0.81040 0.34760 0.02600
H 	H 	0.75460 0.71700 0.27950 0.02600
H 	H 	0.79000 0.67060 0.26510 0.02500
C 	C 	0.79480 0.69430 0.33170 -0.05300
H 	H 	0.77660 0.68480 0.33890 0.02800
H 	H 	0.80960 0.69320 0.34750 0.02600
N 	N 	0.83458 0.60609 0.27385 -0.13800
C 	C 	0.78840 0.72700 0.32420 -0.04500
H 	H 	0.80120 0.73980 0.33610 0.02500
H 	H 	0.76780 0.73170 0.32910 0.02300
C 	C 	0.88140 0.64320 0.34470 -0.04900
H 	H 	0.88900 0.63340 0.32690 0.02600
H 	H 	0.87650 0.66370 0.33940 0.02600
H 	H 	0.87100 0.58660 0.34620 0.02600
C 	C 	0.85990 0.62280 0.26460 -0.04800
H 	H 	0.85420 0.64350 0.26140 0.02400
H 	H 	0.87500 0.62220 0.28010 0.02400
C 	C 	0.81240 0.60620 0.24950 -0.05700
H 	H 	0.79490 0.59490 0.25550 0.02900
H 	H 	0.80620 0.62660 0.24530 0.02900
C 	C 	0.84260 0.57550 0.27800 -0.04000
H 	H 	0.85680 0.57400 0.29440 0.02200
H 	H 	0.82490 0.56410 0.28340 0.02300
H 	H 	0.33890 0.31400 0.37640 0.02700
H 	H 	0.28560 0.31040 0.34760 0.02600
H 	H 	0.25460 0.21700 0.27950 0.02600
H 	H 	0.29000 0.17060 0.26510 0.02500
C 	C 	0.29480 0.19430 0.33170 -0.05300
H 	H 	0.27660 0.18480 0.33890 0.02800
H 	H 	0.30960 0.19320 0.34750 0.02600
N 	N 	0.33458 0.10609 0.27385 -0.13800
C 	C 	0.28840 0.22700 0.32420 -0.04500
H 	H 	0.30120 0.23980 0.33610 0.02500
H 	H 	0.26780 0.23170 0.32910 0.02300
C 	C 	0.38140 0.14320 0.34470 -0.04900
H 	H 	0.38900 0.13340 0.32690 0.02600
H 	H 	0.37650 0.16370 0.33940 0.02600
H 	H 	0.37100 0.08660 0.34620 0.02600
C 	C 	0.35990 0.12280 0.26460 -0.04800
H 	H 	0.35420 0.14350 0.26140 0.02400
H 	H 	0.37500 0.12220 0.28010 0.02400
C 	C 	0.31240 0.10620 0.24950 -0.05700
H 	H 	0.29490 0.09490 0.25550 0.02900
H 	H 	0.30620 0.12660 0.24530 0.02900
C 	C 	0.34260 0.07550 0.27800 -0.04000
H 	H 	0.35680 0.07400 0.29440 0.02200
H 	H 	0.32490 0.06410 0.28340 0.02300
H 	H 	0.33890 0.81400 0.87640 0.02700
H 	H 	0.28560 0.81040 0.84760 0.02600
H 	H 	0.25460 0.71700 0.77950 0.02600
H 	H 	0.29000 0.67060 0.76510 0.02500
C 	C 	0.29480 0.69430 0.83170 -0.05300
H 	H 	0.27660 0.68480 0.83890 0.02800
H 	H 	0.30960 0.69320 0.84750 0.02600
N 	N 	0.33458 0.60609 0.77385 -0.13800
C 	C 	0.28840 0.72700 0.82420 -0.04500
H 	H 	0.30120 0.73980 0.83610 0.02500
H 	H 	0.26780 0.73170 0.82910 0.02300
C 	C 	0.38140 0.64320 0.84470 -0.04900
H 	H 	0.38900 0.63340 0.82690 0.02600
H 	H 	0.37650 0.66370 0.83940 0.02600
H 	H 	0.37100 0.58660 0.84620 0.02600
C 	C 	0.35990 0.62280 0.76460 -0.04800
H 	H 	0.35420 0.64350 0.76140 0.02400
H 	H 	0.37500 0.62220 0.78010 0.02400
C 	C 	0.31240 0.60620 0.74950 -0.05700
H 	H 	0.29490 0.59490 0.75550 0.02900
H 	H 	0.30620 0.62660 0.74530 0.02900
C 	C 	0.34260 0.57550 0.77800 -0.04000
H 	H 	0.35680 0.57400 0.79440 0.02200
H 	H 	0.32490 0.56410 0.78340 0.02300
H 	H 	0.37360 0.91110 0.81400 0.02700
H 	H 	0.40240 0.96440 0.81040 0.02600
H 	H 	0.47050 0.99540 0.71700 0.02600
H 	H 	0.48490 0.96000 0.67060 0.02500
C 	C 	0.41830 0.95520 0.69430 -0.05300
H 	H 	0.41110 0.97340 0.68480 0.02800
H 	H 	0.40250 0.94040 0.69320 0.02600
N 	N 	0.47615 0.91542 0.60609 -0.13800
C 	C 	0.42580 0.96160 0.72700 -0.04500
H 	H 	0.41390 0.94880 0.73980 0.02500
H 	H 	0.42090 0.98220 0.73170 0.02300
C 	C 	0.40530 0.86860 0.64320 -0.04900
H 	H 	0.42310 0.86100 0.63340 0.02600
H 	H 	0.41060 0.87350 0.66370 0.02600
H 	H 	0.40380 0.87900 0.58660 0.02600
C 	C 	0.48540 0.89010 0.62280 -0.04800
H 	H 	0.48860 0.89580 0.64350 0.02400
H 	H 	0.46990 0.87500 0.62220 0.02400
C 	C 	0.50050 0.93760 0.60620 -0.05700
H 	H 	0.49450 0.95510 0.59490 0.02900
H 	H 	0.50470 0.94380 0.62660 0.02900
C 	C 	0.47200 0.90740 0.57550 -0.04000
H 	H 	0.45560 0.89320 0.57400 0.02200
H 	H 	0.46660 0.92510 0.56410 0.02300
H 	H 	0.37360 0.41110 0.31400 0.02700
H 	H 	0.40240 0.46440 0.31040 0.02600
H 	H 	0.47050 0.49540 0.21700 0.02600
H 	H 	0.48490 0.46000 0.17060 0.02500
C 	C 	0.41830 0.45520 0.19430 -0.05300
H 	H 	0.41110 0.47340 0.18480 0.02800
H 	H 	0.40250 0.44040 0.19320 0.02600
N 	N 	0.47615 0.41542 0.10609 -0.13800
C 	C 	0.42580 0.46160 0.22700 -0.04500
H 	H 	0.41390 0.44880 0.23980 0.02500
H 	H 	0.42090 0.48220 0.23170 0.02300
C 	C 	0.40530 0.36860 0.14320 -0.04900
H 	H 	0.42310 0.36100 0.13340 0.02600
H 	H 	0.41060 0.37350 0.16370 0.02600
H 	H 	0.40380 0.37900 0.08660 0.02600
C 	C 	0.48540 0.39010 0.12280 -0.04800
H 	H 	0.48860 0.39580 0.14350 0.02400
H 	H 	0.46990 0.37500 0.12220 0.02400
C 	C 	0.50050 0.43760 0.10620 -0.05700
H 	H 	0.49450 0.45510 0.09490 0.02900
H 	H 	0.50470 0.44380 0.12660 0.02900
C 	C 	0.47200 0.40740 0.07550 -0.04000
H 	H 	0.45560 0.39320 0.07400 0.02200
H 	H 	0.46660 0.42510 0.06410 0.02300
H 	H 	0.87360 0.91110 0.31400 0.02700
H 	H 	0.90240 0.96440 0.31040 0.02600
H 	H 	0.97050 0.99540 0.21700 0.02600
H 	H 	0.98490 0.96000 0.17060 0.02500
C 	C 	0.91830 0.95520 0.19430 -0.05300
H 	H 	0.91110 0.97340 0.18480 0.02800
H 	H 	0.90250 0.94040 0.19320 0.02600
N 	N 	0.97615 0.91542 0.10609 -0.13800
C 	C 	0.92580 0.96160 0.22700 -0.04500
H 	H 	0.91390 0.94880 0.23980 0.02500
H 	H 	0.92090 0.98220 0.23170 0.02300
C 	C 	0.90530 0.86860 0.14320 -0.04900
H 	H 	0.92310 0.86100 0.13340 0.02600
H 	H 	0.91060 0.87350 0.16370 0.02600
H 	H 	0.90380 0.87900 0.08660 0.02600
C 	C 	0.98540 0.89010 0.12280 -0.04800
H 	H 	0.98860 0.89580 0.14350 0.02400
H 	H 	0.96990 0.87500 0.12220 0.02400
C 	C 	0.00050 0.93760 0.10620 -0.05700
H 	H 	0.99450 0.95510 0.09490 0.02900
H 	H 	0.00470 0.94380 0.12660 0.02900
C 	C 	0.97200 0.90740 0.07550 -0.04000
H 	H 	0.95560 0.89320 0.07400 0.02200
H 	H 	0.96660 0.92510 0.06410 0.02300
H 	H 	0.87360 0.41110 0.81400 0.02700
H 	H 	0.90240 0.46440 0.81040 0.02600
H 	H 	0.97050 0.49540 0.71700 0.02600
H 	H 	0.98490 0.46000 0.67060 0.02500
C 	C 	0.91830 0.45520 0.69430 -0.05300
H 	H 	0.91110 0.47340 0.68480 0.02800
H 	H 	0.90250 0.44040 0.69320 0.02600
N 	N 	0.97615 0.41542 0.60609 -0.13800
C 	C 	0.92580 0.46160 0.72700 -0.04500
H 	H 	0.91390 0.44880 0.73980 0.02500
H 	H 	0.92090 0.48220 0.73170 0.02300
C 	C 	0.90530 0.36860 0.64320 -0.04900
H 	H 	0.92310 0.36100 0.63340 0.02600
H 	H 	0.91060 0.37350 0.66370 0.02600
H 	H 	0.90380 0.37900 0.58660 0.02600
C 	C 	0.98540 0.39010 0.62280 -0.04800
H 	H 	0.98860 0.39580 0.64350 0.02400
H 	H 	0.96990 0.37500 0.62220 0.02400
C 	C 	0.00050 0.43760 0.60620 -0.05700
H 	H 	0.99450 0.45510 0.59490 0.02900
H 	H 	0.00470 0.44380 0.62660 0.02900
C 	C 	0.97200 0.40740 0.57550 -0.04000
H 	H 	0.95560 0.39320 0.57400 0.02200
H 	H 	0.96660 0.42510 0.56410 0.02300
H 	H 	0.37640 0.41110 0.43600 0.02700
H 	H 	0.34760 0.46440 0.43960 0.02600
H 	H 	0.27950 0.49540 0.53300 0.02600
H 	H 	0.26510 0.46000 0.57940 0.02500
C 	C 	0.33170 0.45520 0.55570 -0.05300
H 	H 	0.33890 0.47340 0.56520 0.02800
H 	H 	0.34750 0.44040 0.55680 0.02600
N 	N 	0.27385 0.41542 0.64391 -0.13800
C 	C 	0.32420 0.46160 0.52300 -0.04500
H 	H 	0.33610 0.44880 0.51020 0.02500
H 	H 	0.32910 0.48220 0.51830 0.02300
C 	C 	0.34470 0.36860 0.60680 -0.04900
H 	H 	0.32690 0.36100 0.61660 0.02600
H 	H 	0.33940 0.37350 0.58630 0.02600
H 	H 	0.34620 0.37900 0.66340 0.02600
C 	C 	0.26460 0.39010 0.62720 -0.04800
H 	H 	0.26140 0.39580 0.60650 0.02400
H 	H 	0.28010 0.37500 0.62780 0.02400
C 	C 	0.24950 0.43760 0.64380 -0.05700
H 	H 	0.25550 0.45510 0.65510 0.02900
H 	H 	0.24530 0.44380 0.62340 0.02900
C 	C 	0.27800 0.40740 0.67450 -0.04000
H 	H 	0.29440 0.39320 0.67600 0.02200
H 	H 	0.28340 0.42510 0.68590 0.02300
H 	H 	0.37640 0.91110 0.93600 0.02700
H 	H 	0.34760 0.96440 0.93960 0.02600
H 	H 	0.27950 0.99540 0.03300 0.02600
H 	H 	0.26510 0.96000 0.07940 0.02500
C 	C 	0.33170 0.95520 0.05570 -0.05300
H 	H 	0.33890 0.97340 0.06520 0.02800
H 	H 	0.34750 0.94040 0.05680 0.02600
N 	N 	0.27385 0.91542 0.14391 -0.13800
C 	C 	0.32420 0.96160 0.02300 -0.04500
H 	H 	0.33610 0.94880 0.01020 0.02500
H 	H 	0.32910 0.98220 0.01830 0.02300
C 	C 	0.34470 0.86860 0.10680 -0.04900
H 	H 	0.32690 0.86100 0.11660 0.02600
H 	H 	0.33940 0.87350 0.08630 0.02600
H 	H 	0.34620 0.87900 0.16340 0.02600
C 	C 	0.26460 0.89010 0.12720 -0.04800
H 	H 	0.26140 0.89580 0.10650 0.02400
H 	H 	0.28010 0.87500 0.12780 0.02400
C 	C 	0.24950 0.93760 0.14380 -0.05700
H 	H 	0.25550 0.95510 0.15510 0.02900
H 	H 	0.24530 0.94380 0.12340 0.02900
C 	C 	0.27800 0.90740 0.17450 -0.04000
H 	H 	0.29440 0.89320 0.17600 0.02200
H 	H 	0.28340 0.92510 0.18590 0.02300
H 	H 	0.87640 0.41110 0.93600 0.02700
H 	H 	0.84760 0.46440 0.93960 0.02600
H 	H 	0.77950 0.49540 0.03300 0.02600
H 	H 	0.76510 0.46000 0.07940 0.02500
C 	C 	0.83170 0.45520 0.05570 -0.05300
H 	H 	0.83890 0.47340 0.06520 0.02800
H 	H 	0.84750 0.44040 0.05680 0.02600
N 	N 	0.77385 0.41542 0.14391 -0.13800
C 	C 	0.82420 0.46160 0.02300 -0.04500
H 	H 	0.83610 0.44880 0.01020 0.02500
H 	H 	0.82910 0.48220 0.01830 0.02300
C 	C 	0.84470 0.36860 0.10680 -0.04900
H 	H 	0.82690 0.36100 0.11660 0.02600
H 	H 	0.83940 0.37350 0.08630 0.02600
H 	H 	0.84620 0.37900 0.16340 0.02600
C 	C 	0.76460 0.39010 0.12720 -0.04800
H 	H 	0.76140 0.39580 0.10650 0.02400
H 	H 	0.78010 0.37500 0.12780 0.02400
C 	C 	0.74950 0.43760 0.14380 -0.05700
H 	H 	0.75550 0.45510 0.15510 0.02900
H 	H 	0.74530 0.44380 0.12340 0.02900
C 	C 	0.77800 0.40740 0.17450 -0.04000
H 	H 	0.79440 0.39320 0.17600 0.02200
H 	H 	0.78340 0.42510 0.18590 0.02300
H 	H 	0.87640 0.91110 0.43600 0.02700
H 	H 	0.84760 0.96440 0.43960 0.02600
H 	H 	0.77950 0.99540 0.53300 0.02600
H 	H 	0.76510 0.96000 0.57940 0.02500
C 	C 	0.83170 0.95520 0.55570 -0.05300
H 	H 	0.83890 0.97340 0.56520 0.02800
H 	H 	0.84750 0.94040 0.55680 0.02600
N 	N 	0.77385 0.91542 0.64391 -0.13800
C 	C 	0.82420 0.96160 0.52300 -0.04500
H 	H 	0.83610 0.94880 0.51020 0.02500
H 	H 	0.82910 0.98220 0.51830 0.02300
C 	C 	0.84470 0.86860 0.60680 -0.04900
H 	H 	0.82690 0.86100 0.61660 0.02600
H 	H 	0.83940 0.87350 0.58630 0.02600
H 	H 	0.84620 0.87900 0.66340 0.02600
C 	C 	0.76460 0.89010 0.62720 -0.04800
H 	H 	0.76140 0.89580 0.60650 0.02400
H 	H 	0.78010 0.87500 0.62780 0.02400
C 	C 	0.74950 0.93760 0.64380 -0.05700
H 	H 	0.75550 0.95510 0.65510 0.02900
H 	H 	0.74530 0.94380 0.62340 0.02900
C 	C 	0.77800 0.90740 0.67450 -0.04000
H 	H 	0.79440 0.89320 0.67600 0.02200
H 	H 	0.78340 0.92510 0.68590 0.02300
H 	H 	0.87360 0.33890 0.93600 0.02700
H 	H 	0.90240 0.28560 0.93960 0.02600
H 	H 	0.97050 0.25460 0.03300 0.02600
H 	H 	0.98490 0.29000 0.07940 0.02500
C 	C 	0.91830 0.29480 0.05570 -0.05300
H 	H 	0.91110 0.27660 0.06520 0.02800
H 	H 	0.90250 0.30960 0.05680 0.02600
N 	N 	0.97615 0.33458 0.14391 -0.13800
C 	C 	0.92580 0.28840 0.02300 -0.04500
H 	H 	0.91390 0.30120 0.01020 0.02500
H 	H 	0.92090 0.26780 0.01830 0.02300
C 	C 	0.90530 0.38140 0.10680 -0.04900
H 	H 	0.92310 0.38900 0.11660 0.02600
H 	H 	0.91060 0.37650 0.08630 0.02600
H 	H 	0.90380 0.37100 0.16340 0.02600
C 	C 	0.98540 0.35990 0.12720 -0.04800
H 	H 	0.98860 0.35420 0.10650 0.02400
H 	H 	0.96990 0.37500 0.12780 0.02400
C 	C 	0.00050 0.31240 0.14380 -0.05700
H 	H 	0.99450 0.29490 0.15510 0.02900
H 	H 	0.00470 0.30620 0.12340 0.02900
C 	C 	0.97200 0.34260 0.17450 -0.04000
H 	H 	0.95560 0.35680 0.17600 0.02200
H 	H 	0.96660 0.32490 0.18590 0.02300
H 	H 	0.87360 0.83890 0.43600 0.02700
H 	H 	0.90240 0.78560 0.43960 0.02600
H 	H 	0.97050 0.75460 0.53300 0.02600
H 	H 	0.98490 0.79000 0.57940 0.02500
C 	C 	0.91830 0.79480 0.55570 -0.05300
H 	H 	0.91110 0.77660 0.56520 0.02800
H 	H 	0.90250 0.80960 0.55680 0.02600
N 	N 	0.97615 0.83458 0.64391 -0.13800
C 	C 	0.92580 0.78840 0.52300 -0.04500
H 	H 	0.91390 0.80120 0.51020 0.02500
H 	H 	0.92090 0.76780 0.51830 0.02300
C 	C 	0.90530 0.88140 0.60680 -0.04900
H 	H 	0.92310 0.88900 0.61660 0.02600
H 	H 	0.91060 0.87650 0.58630 0.02600
H 	H 	0.90380 0.87100 0.66340 0.02600
C 	C 	0.98540 0.85990 0.62720 -0.04800
H 	H 	0.98860 0.85420 0.60650 0.02400
H 	H 	0.96990 0.87500 0.62780 0.02400
C 	C 	0.00050 0.81240 0.64380 -0.05700
H 	H 	0.99450 0.79490 0.65510 0.02900
H 	H 	0.00470 0.80620 0.62340 0.02900
C 	C 	0.97200 0.84260 0.67450 -0.04000
H 	H 	0.95560 0.85680 0.67600 0.02200
H 	H 	0.96660 0.82490 0.68590 0.02300
H 	H 	0.37360 0.33890 0.43600 0.02700
H 	H 	0.40240 0.28560 0.43960 0.02600
H 	H 	0.47050 0.25460 0.53300 0.02600
H 	H 	0.48490 0.29000 0.57940 0.02500
C 	C 	0.41830 0.29480 0.55570 -0.05300
H 	H 	0.41110 0.27660 0.56520 0.02800
H 	H 	0.40250 0.30960 0.55680 0.02600
N 	N 	0.47615 0.33458 0.64391 -0.13800
C 	C 	0.42580 0.28840 0.52300 -0.04500
H 	H 	0.41390 0.30120 0.51020 0.02500
H 	H 	0.42090 0.26780 0.51830 0.02300
C 	C 	0.40530 0.38140 0.60680 -0.04900
H 	H 	0.42310 0.38900 0.61660 0.02600
H 	H 	0.41060 0.37650 0.58630 0.02600
H 	H 	0.40380 0.37100 0.66340 0.02600
C 	C 	0.48540 0.35990 0.62720 -0.04800
H 	H 	0.48860 0.35420 0.60650 0.02400
H 	H 	0.46990 0.37500 0.62780 0.02400
C 	C 	0.50050 0.31240 0.64380 -0.05700
H 	H 	0.49450 0.29490 0.65510 0.02900
H 	H 	0.50470 0.30620 0.62340 0.02900
C 	C 	0.47200 0.34260 0.67450 -0.04000
H 	H 	0.45560 0.35680 0.67600 0.02200
H 	H 	0.46660 0.32490 0.68590 0.02300
H 	H 	0.37360 0.83890 0.93600 0.02700
H 	H 	0.40240 0.78560 0.93960 0.02600
H 	H 	0.47050 0.75460 0.03300 0.02600
H 	H 	0.48490 0.79000 0.07940 0.02500
C 	C 	0.41830 0.79480 0.05570 -0.05300
H 	H 	0.41110 0.77660 0.06520 0.02800
H 	H 	0.40250 0.80960 0.05680 0.02600
N 	N 	0.47615 0.83458 0.14391 -0.13800
C 	C 	0.42580 0.78840 0.02300 -0.04500
H 	H 	0.41390 0.80120 0.01020 0.02500
H 	H 	0.42090 0.76780 0.01830 0.02300
C 	C 	0.40530 0.88140 0.10680 -0.04900
H 	H 	0.42310 0.88900 0.11660 0.02600
H 	H 	0.41060 0.87650 0.08630 0.02600
H 	H 	0.40380 0.87100 0.16340 0.02600
C 	C 	0.48540 0.85990 0.12720 -0.04800
H 	H 	0.48860 0.85420 0.10650 0.02400
H 	H 	0.46990 0.87500 0.12780 0.02400
C 	C 	0.50050 0.81240 0.14380 -0.05700
H 	H 	0.49450 0.79490 0.15510 0.02900
H 	H 	0.50470 0.80620 0.12340 0.02900
C 	C 	0.47200 0.84260 0.17450 -0.04000
H 	H 	0.45560 0.85680 0.17600 0.02200
H 	H 	0.46660 0.82490 0.18590 0.02300
H 	H 	0.87640 0.83890 0.31400 0.02700
H 	H 	0.84760 0.78560 0.31040 0.02600
H 	H 	0.77950 0.75460 0.21700 0.02600
H 	H 	0.76510 0.79000 0.17060 0.02500
C 	C 	0.83170 0.79480 0.19430 -0.05300
H 	H 	0.83890 0.77660 0.18480 0.02800
H 	H 	0.84750 0.80960 0.19320 0.02600
N 	N 	0.77385 0.83458 0.10609 -0.13800
C 	C 	0.82420 0.78840 0.22700 -0.04500
H 	H 	0.83610 0.80120 0.23980 0.02500
H 	H 	0.82910 0.76780 0.23170 0.02300
C 	C 	0.84470 0.88140 0.14320 -0.04900
H 	H 	0.82690 0.88900 0.13340 0.02600
H 	H 	0.83940 0.87650 0.16370 0.02600
H 	H 	0.84620 0.87100 0.08660 0.02600
C 	C 	0.76460 0.85990 0.12280 -0.04800
H 	H 	0.76140 0.85420 0.14350 0.02400
H 	H 	0.78010 0.87500 0.12220 0.02400
C 	C 	0.74950 0.81240 0.10620 -0.05700
H 	H 	0.75550 0.79490 0.09490 0.02900
H 	H 	0.74530 0.80620 0.12660 0.02900
C 	C 	0.77800 0.84260 0.07550 -0.04000
H 	H 	0.79440 0.85680 0.07400 0.02200
H 	H 	0.78340 0.82490 0.06410 0.02300
H 	H 	0.87640 0.33890 0.81400 0.02700
H 	H 	0.84760 0.28560 0.81040 0.02600
H 	H 	0.77950 0.25460 0.71700 0.02600
H 	H 	0.76510 0.29000 0.67060 0.02500
C 	C 	0.83170 0.29480 0.69430 -0.05300
H 	H 	0.83890 0.27660 0.68480 0.02800
H 	H 	0.84750 0.30960 0.69320 0.02600
N 	N 	0.77385 0.33458 0.60609 -0.13800
C 	C 	0.82420 0.28840 0.72700 -0.04500
H 	H 	0.83610 0.30120 0.73980 0.02500
H 	H 	0.82910 0.26780 0.73170 0.02300
C 	C 	0.84470 0.38140 0.64320 -0.04900
H 	H 	0.82690 0.38900 0.63340 0.02600
H 	H 	0.83940 0.37650 0.66370 0.02600
H 	H 	0.84620 0.37100 0.58660 0.02600
C 	C 	0.76460 0.35990 0.62280 -0.04800
H 	H 	0.76140 0.35420 0.64350 0.02400
H 	H 	0.78010 0.37500 0.62220 0.02400
C 	C 	0.74950 0.31240 0.60620 -0.05700
H 	H 	0.75550 0.29490 0.59490 0.02900
H 	H 	0.74530 0.30620 0.62660 0.02900
C 	C 	0.77800 0.34260 0.57550 -0.04000
H 	H 	0.79440 0.35680 0.57400 0.02200
H 	H 	0.78340 0.32490 0.56410 0.02300
H 	H 	0.37640 0.83890 0.81400 0.02700
H 	H 	0.34760 0.78560 0.81040 0.02600
H 	H 	0.27950 0.75460 0.71700 0.02600
H 	H 	0.26510 0.79000 0.67060 0.02500
C 	C 	0.33170 0.79480 0.69430 -0.05300
H 	H 	0.33890 0.77660 0.68480 0.02800
H 	H 	0.34750 0.80960 0.69320 0.02600
N 	N 	0.27385 0.83458 0.60609 -0.13800
C 	C 	0.32420 0.78840 0.72700 -0.04500
H 	H 	0.33610 0.80120 0.73980 0.02500
H 	H 	0.32910 0.76780 0.73170 0.02300
C 	C 	0.34470 0.88140 0.64320 -0.04900
H 	H 	0.32690 0.88900 0.63340 0.02600
H 	H 	0.33940 0.87650 0.66370 0.02600
H 	H 	0.34620 0.87100 0.58660 0.02600
C 	C 	0.26460 0.85990 0.62280 -0.04800
H 	H 	0.26140 0.85420 0.64350 0.02400
H 	H 	0.28010 0.87500 0.62220 0.02400
C 	C 	0.24950 0.81240 0.60620 -0.05700
H 	H 	0.25550 0.79490 0.59490 0.02900
H 	H 	0.24530 0.80620 0.62660 0.02900
C 	C 	0.27800 0.84260 0.57550 -0.04000
H 	H 	0.29440 0.85680 0.57400 0.02200
H 	H 	0.28340 0.82490 0.56410 0.02300
H 	H 	0.37640 0.33890 0.31400 0.02700
H 	H 	0.34760 0.28560 0.31040 0.02600
H 	H 	0.27950 0.25460 0.21700 0.02600
H 	H 	0.26510 0.29000 0.17060 0.02500
C 	C 	0.33170 0.29480 0.19430 -0.05300
H 	H 	0.33890 0.27660 0.18480 0.02800
H 	H 	0.34750 0.30960 0.19320 0.02600
N 	N 	0.27385 0.33458 0.10609 -0.13800
C 	C 	0.32420 0.28840 0.22700 -0.04500
H 	H 	0.33610 0.30120 0.23980 0.02500
H 	H 	0.32910 0.26780 0.23170 0.02300
C 	C 	0.34470 0.38140 0.14320 -0.04900
H 	H 	0.32690 0.38900 0.13340 0.02600
H 	H 	0.33940 0.37650 0.16370 0.02600
H 	H 	0.34620 0.37100 0.08660 0.02600
C 	C 	0.26460 0.35990 0.12280 -0.04800
H 	H 	0.26140 0.35420 0.14350 0.02400
H 	H 	0.28010 0.37500 0.12220 0.02400
C 	C 	0.24950 0.31240 0.10620 -0.05700
H 	H 	0.25550 0.29490 0.09490 0.02900
H 	H 	0.24530 0.30620 0.12660 0.02900
C 	C 	0.27800 0.34260 0.07550 -0.04000
H 	H 	0.29440 0.35680 0.07400 0.02200
H 	H 	0.28340 0.32490 0.06410 0.02300
H 	H 	0.62360 0.56400 0.58890 0.02700
H 	H 	0.65240 0.56040 0.53560 0.02600
H 	H 	0.72050 0.46700 0.50460 0.02600
H 	H 	0.73490 0.42060 0.54000 0.02500
C 	C 	0.66830 0.44430 0.54480 -0.05300
H 	H 	0.66110 0.43480 0.52660 0.02800
H 	H 	0.65250 0.44320 0.55960 0.02600
N 	N 	0.72615 0.35609 0.58458 -0.13800
C 	C 	0.67580 0.47700 0.53840 -0.04500
H 	H 	0.66390 0.48980 0.55120 0.02500
H 	H 	0.67090 0.48170 0.51780 0.02300
C 	C 	0.65530 0.39320 0.63140 -0.04900
H 	H 	0.67310 0.38340 0.63900 0.02600
H 	H 	0.66060 0.41370 0.62650 0.02600
H 	H 	0.65380 0.33660 0.62100 0.02600
C 	C 	0.73540 0.37280 0.60990 -0.04800
H 	H 	0.73860 0.39350 0.60420 0.02400
H 	H 	0.71990 0.37220 0.62500 0.02400
C 	C 	0.75050 0.35620 0.56240 -0.05700
H 	H 	0.74450 0.34490 0.54490 0.02900
H 	H 	0.75470 0.37660 0.55620 0.02900
C 	C 	0.72200 0.32550 0.59260 -0.04000
H 	H 	0.70560 0.32400 0.60680 0.02200
H 	H 	0.71660 0.31410 0.57490 0.02300
H 	H 	0.62360 0.06400 0.08890 0.02700
H 	H 	0.65240 0.06040 0.03560 0.02600
H 	H 	0.72050 0.96700 0.00460 0.02600
H 	H 	0.73490 0.92060 0.04000 0.02500
C 	C 	0.66830 0.94430 0.04480 -0.05300
H 	H 	0.66110 0.93480 0.02660 0.02800
H 	H 	0.65250 0.94320 0.05960 0.02600
N 	N 	0.72615 0.85609 0.08458 -0.13800
C 	C 	0.67580 0.97700 0.03840 -0.04500
H 	H 	0.66390 0.98980 0.05120 0.02500
H 	H 	0.67090 0.98170 0.01780 0.02300
C 	C 	0.65530 0.89320 0.13140 -0.04900
H 	H 	0.67310 0.88340 0.13900 0.02600
H 	H 	0.66060 0.91370 0.12650 0.02600
H 	H 	0.65380 0.83660 0.12100 0.02600
C 	C 	0.73540 0.87280 0.10990 -0.04800
H 	H 	0.73860 0.89350 0.10420 0.02400
H 	H 	0.71990 0.87220 0.12500 0.02400
C 	C 	0.75050 0.85620 0.06240 -0.05700
H 	H 	0.74450 0.84490 0.04490 0.02900
H 	H 	0.75470 0.87660 0.05620 0.02900
C 	C 	0.72200 0.82550 0.09260 -0.04000
H 	H 	0.70560 0.82400 0.10680 0.02200
H 	H 	0.71660 0.81410 0.07490 0.02300
H 	H 	0.12360 0.56400 0.08890 0.02700
H 	H 	0.15240 0.56040 0.03560 0.02600
H 	H 	0.22050 0.46700 0.00460 0.02600
H 	H 	0.23490 0.42060 0.04000 0.02500
C 	C 	0.16830 0.44430 0.04480 -0.05300
H 	H 	0.16110 0.43480 0.02660 0.02800
H 	H 	0.15250 0.44320 0.05960 0.02600
N 	N 	0.22615 0.35609 0.08458 -0.13800
C 	C 	0.17580 0.47700 0.03840 -0.04500
H 	H 	0.16390 0.48980 0.05120 0.02500
H 	H 	0.17090 0.48170 0.01780 0.02300
C 	C 	0.15530 0.39320 0.13140 -0.04900
H 	H 	0.17310 0.38340 0.13900 0.02600
H 	H 	0.16060 0.41370 0.12650 0.02600
H 	H 	0.15380 0.33660 0.12100 0.02600
C 	C 	0.23540 0.37280 0.10990 -0.04800
H 	H 	0.23860 0.39350 0.10420 0.02400
H 	H 	0.21990 0.37220 0.12500 0.02400
C 	C 	0.25050 0.35620 0.06240 -0.05700
H 	H 	0.24450 0.34490 0.04490 0.02900
H 	H 	0.25470 0.37660 0.05620 0.02900
C 	C 	0.22200 0.32550 0.09260 -0.04000
H 	H 	0.20560 0.32400 0.10680 0.02200
H 	H 	0.21660 0.31410 0.07490 0.02300
H 	H 	0.12360 0.06400 0.58890 0.02700
H 	H 	0.15240 0.06040 0.53560 0.02600
H 	H 	0.22050 0.96700 0.50460 0.02600
H 	H 	0.23490 0.92060 0.54000 0.02500
C 	C 	0.16830 0.94430 0.54480 -0.05300
H 	H 	0.16110 0.93480 0.52660 0.02800
H 	H 	0.15250 0.94320 0.55960 0.02600
N 	N 	0.22615 0.85609 0.58458 -0.13800
C 	C 	0.17580 0.97700 0.53840 -0.04500
H 	H 	0.16390 0.98980 0.55120 0.02500
H 	H 	0.17090 0.98170 0.51780 0.02300
C 	C 	0.15530 0.89320 0.63140 -0.04900
H 	H 	0.17310 0.88340 0.63900 0.02600
H 	H 	0.16060 0.91370 0.62650 0.02600
H 	H 	0.15380 0.83660 0.62100 0.02600
C 	C 	0.23540 0.87280 0.60990 -0.04800
H 	H 	0.23860 0.89350 0.60420 0.02400
H 	H 	0.21990 0.87220 0.62500 0.02400
C 	C 	0.25050 0.85620 0.56240 -0.05700
H 	H 	0.24450 0.84490 0.54490 0.02900
H 	H 	0.25470 0.87660 0.55620 0.02900
C 	C 	0.22200 0.82550 0.59260 -0.04000
H 	H 	0.20560 0.82400 0.60680 0.02200
H 	H 	0.21660 0.81410 0.57490 0.02300
H 	H 	0.62640 0.18600 0.08890 0.02700
H 	H 	0.59760 0.18960 0.03560 0.02600
H 	H 	0.52950 0.28300 0.00460 0.02600
H 	H 	0.51510 0.32940 0.04000 0.02500
C 	C 	0.58170 0.30570 0.04480 -0.05300
H 	H 	0.58890 0.31520 0.02660 0.02800
H 	H 	0.59750 0.30680 0.05960 0.02600
N 	N 	0.52385 0.39391 0.08458 -0.13800
C 	C 	0.57420 0.27300 0.03840 -0.04500
H 	H 	0.58610 0.26020 0.05120 0.02500
H 	H 	0.57910 0.26830 0.01780 0.02300
C 	C 	0.59470 0.35680 0.13140 -0.04900
H 	H 	0.57690 0.36660 0.13900 0.02600
H 	H 	0.58940 0.33630 0.12650 0.02600
H 	H 	0.59620 0.41340 0.12100 0.02600
C 	C 	0.51460 0.37720 0.10990 -0.04800
H 	H 	0.51140 0.35650 0.10420 0.02400
H 	H 	0.53010 0.37780 0.12500 0.02400
C 	C 	0.49950 0.39380 0.06240 -0.05700
H 	H 	0.50550 0.40510 0.04490 0.02900
H 	H 	0.49530 0.37340 0.05620 0.02900
C 	C 	0.52800 0.42450 0.09260 -0.04000
H 	H 	0.54440 0.42600 0.10680 0.02200
H 	H 	0.53340 0.43590 0.07490 0.02300
H 	H 	0.62640 0.68600 0.58890 0.02700
H 	H 	0.59760 0.68960 0.53560 0.02600
H 	H 	0.52950 0.78300 0.50460 0.02600
H 	H 	0.51510 0.82940 0.54000 0.02500
C 	C 	0.58170 0.80570 0.54480 -0.05300
H 	H 	0.58890 0.81520 0.52660 0.02800
H 	H 	0.59750 0.80680 0.55960 0.02600
N 	N 	0.52385 0.89391 0.58458 -0.13800
C 	C 	0.57420 0.77300 0.53840 -0.04500
H 	H 	0.58610 0.76020 0.55120 0.02500
H 	H 	0.57910 0.76830 0.51780 0.02300
C 	C 	0.59470 0.85680 0.63140 -0.04900
H 	H 	0.57690 0.86660 0.63900 0.02600
H 	H 	0.58940 0.83630 0.62650 0.02600
H 	H 	0.59620 0.91340 0.62100 0.02600
C 	C 	0.51460 0.87720 0.60990 -0.04800
H 	H 	0.51140 0.85650 0.60420 0.02400
H 	H 	0.53010 0.87780 0.62500 0.02400
C 	C 	0.49950 0.89380 0.56240 -0.05700
H 	H 	0.50550 0.90510 0.54490 0.02900
H 	H 	0.49530 0.87340 0.55620 0.02900
C 	C 	0.52800 0.92450 0.59260 -0.04000
H 	H 	0.54440 0.92600 0.60680 0.02200
H 	H 	0.53340 0.93590 0.57490 0.02300
H 	H 	0.12640 0.18600 0.58890 0.02700
H 	H 	0.09760 0.18960 0.53560 0.02600
H 	H 	0.02950 0.28300 0.50460 0.02600
H 	H 	0.01510 0.32940 0.54000 0.02500
C 	C 	0.08170 0.30570 0.54480 -0.05300
H 	H 	0.08890 0.31520 0.52660 0.02800
H 	H 	0.09750 0.30680 0.55960 0.02600
N 	N 	0.02385 0.39391 0.58458 -0.13800
C 	C 	0.07420 0.27300 0.53840 -0.04500
H 	H 	0.08610 0.26020 0.55120 0.02500
H 	H 	0.07910 0.26830 0.51780 0.02300
C 	C 	0.09470 0.35680 0.63140 -0.04900
H 	H 	0.07690 0.36660 0.63900 0.02600
H 	H 	0.08940 0.33630 0.62650 0.02600
H 	H 	0.09620 0.41340 0.62100 0.02600
C 	C 	0.01460 0.37720 0.60990 -0.04800
H 	H 	0.01140 0.35650 0.60420 0.02400
H 	H 	0.03010 0.37780 0.62500 0.02400
C 	C 	0.99950 0.39380 0.56240 -0.05700
H 	H 	0.00550 0.40510 0.54490 0.02900
H 	H 	0.99530 0.37340 0.55620 0.02900
C 	C 	0.02800 0.42450 0.59260 -0.04000
H 	H 	0.04440 0.42600 0.60680 0.02200
H 	H 	0.03340 0.43590 0.57490 0.02300
H 	H 	0.12640 0.68600 0.08890 0.02700
H 	H 	0.09760 0.68960 0.03560 0.02600
H 	H 	0.02950 0.78300 0.00460 0.02600
H 	H 	0.01510 0.82940 0.04000 0.02500
C 	C 	0.08170 0.80570 0.04480 -0.05300
H 	H 	0.08890 0.81520 0.02660 0.02800
H 	H 	0.09750 0.80680 0.05960 0.02600
N 	N 	0.02385 0.89391 0.08458 -0.13800
C 	C 	0.07420 0.77300 0.03840 -0.04500
H 	H 	0.08610 0.76020 0.05120 0.02500
H 	H 	0.07910 0.76830 0.01780 0.02300
C 	C 	0.09470 0.85680 0.13140 -0.04900
H 	H 	0.07690 0.86660 0.13900 0.02600
H 	H 	0.08940 0.83630 0.12650 0.02600
H 	H 	0.09620 0.91340 0.12100 0.02600
C 	C 	0.01460 0.87720 0.10990 -0.04800
H 	H 	0.01140 0.85650 0.10420 0.02400
H 	H 	0.03010 0.87780 0.12500 0.02400
C 	C 	0.99950 0.89380 0.06240 -0.05700
H 	H 	0.00550 0.90510 0.04490 0.02900
H 	H 	0.99530 0.87340 0.05620 0.02900
C 	C 	0.02800 0.92450 0.09260 -0.04000
H 	H 	0.04440 0.92600 0.10680 0.02200
H 	H 	0.03340 0.93590 0.07490 0.02300
H 	H 	0.12360 0.68600 0.16110 0.02700
H 	H 	0.15240 0.68960 0.21440 0.02600
H 	H 	0.22050 0.78300 0.24540 0.02600
H 	H 	0.23490 0.82940 0.21000 0.02500
C 	C 	0.16830 0.80570 0.20520 -0.05300
H 	H 	0.16110 0.81520 0.22340 0.02800
H 	H 	0.15250 0.80680 0.19040 0.02600
N 	N 	0.22615 0.89391 0.16542 -0.13800
C 	C 	0.17580 0.77300 0.21160 -0.04500
H 	H 	0.16390 0.76020 0.19880 0.02500
H 	H 	0.17090 0.76830 0.23220 0.02300
C 	C 	0.15530 0.85680 0.11860 -0.04900
H 	H 	0.17310 0.86660 0.11100 0.02600
H 	H 	0.16060 0.83630 0.12350 0.02600
H 	H 	0.15380 0.91340 0.12900 0.02600
C 	C 	0.23540 0.87720 0.14010 -0.04800
H 	H 	0.23860 0.85650 0.14580 0.02400
H 	H 	0.21990 0.87780 0.12500 0.02400
C 	C 	0.25050 0.89380 0.18760 -0.05700
H 	H 	0.24450 0.90510 0.20510 0.02900
H 	H 	0.25470 0.87340 0.19380 0.02900
C 	C 	0.22200 0.92450 0.15740 -0.04000
H 	H 	0.20560 0.92600 0.14320 0.02200
H 	H 	0.21660 0.93590 0.17510 0.02300
H 	H 	0.12360 0.18600 0.66110 0.02700
H 	H 	0.15240 0.18960 0.71440 0.02600
H 	H 	0.22050 0.28300 0.74540 0.02600
H 	H 	0.23490 0.32940 0.71000 0.02500
C 	C 	0.16830 0.30570 0.70520 -0.05300
H 	H 	0.16110 0.31520 0.72340 0.02800
H 	H 	0.15250 0.30680 0.69040 0.02600
N 	N 	0.22615 0.39391 0.66542 -0.13800
C 	C 	0.17580 0.27300 0.71160 -0.04500
H 	H 	0.16390 0.26020 0.69880 0.02500
H 	H 	0.17090 0.26830 0.73220 0.02300
C 	C 	0.15530 0.35680 0.61860 -0.04900
H 	H 	0.17310 0.36660 0.61100 0.02600
H 	H 	0.16060 0.33630 0.62350 0.02600
H 	H 	0.15380 0.41340 0.62900 0.02600
C 	C 	0.23540 0.37720 0.64010 -0.04800
H 	H 	0.23860 0.35650 0.64580 0.02400
H 	H 	0.21990 0.37780 0.62500 0.02400
C 	C 	0.25050 0.39380 0.68760 -0.05700
H 	H 	0.24450 0.40510 0.70510 0.02900
H 	H 	0.25470 0.37340 0.69380 0.02900
C 	C 	0.22200 0.42450 0.65740 -0.04000
H 	H 	0.20560 0.42600 0.64320 0.02200
H 	H 	0.21660 0.43590 0.67510 0.02300
H 	H 	0.62360 0.68600 0.66110 0.02700
H 	H 	0.65240 0.68960 0.71440 0.02600
H 	H 	0.72050 0.78300 0.74540 0.02600
H 	H 	0.73490 0.82940 0.71000 0.02500
C 	C 	0.66830 0.80570 0.70520 -0.05300
H 	H 	0.66110 0.81520 0.72340 0.02800
H 	H 	0.65250 0.80680 0.69040 0.02600
N 	N 	0.72615 0.89391 0.66542 -0.13800
C 	C 	0.67580 0.77300 0.71160 -0.04500
H 	H 	0.66390 0.76020 0.69880 0.02500
H 	H 	0.67090 0.76830 0.73220 0.02300
C 	C 	0.65530 0.85680 0.61860 -0.04900
H 	H 	0.67310 0.86660 0.61100 0.02600
H 	H 	0.66060 0.83630 0.62350 0.02600
H 	H 	0.65380 0.91340 0.62900 0.02600
C 	C 	0.73540 0.87720 0.64010 -0.04800
H 	H 	0.73860 0.85650 0.64580 0.02400
H 	H 	0.71990 0.87780 0.62500 0.02400
C 	C 	0.75050 0.89380 0.68760 -0.05700
H 	H 	0.74450 0.90510 0.70510 0.02900
H 	H 	0.75470 0.87340 0.69380 0.02900
C 	C 	0.72200 0.92450 0.65740 -0.04000
H 	H 	0.70560 0.92600 0.64320 0.02200
H 	H 	0.71660 0.93590 0.67510 0.02300
H 	H 	0.62360 0.18600 0.16110 0.02700
H 	H 	0.65240 0.18960 0.21440 0.02600
H 	H 	0.72050 0.28300 0.24540 0.02600
H 	H 	0.73490 0.32940 0.21000 0.02500
C 	C 	0.66830 0.30570 0.20520 -0.05300
H 	H 	0.66110 0.31520 0.22340 0.02800
H 	H 	0.65250 0.30680 0.19040 0.02600
N 	N 	0.72615 0.39391 0.16542 -0.13800
C 	C 	0.67580 0.27300 0.21160 -0.04500
H 	H 	0.66390 0.26020 0.19880 0.02500
H 	H 	0.67090 0.26830 0.23220 0.02300
C 	C 	0.65530 0.35680 0.11860 -0.04900
H 	H 	0.67310 0.36660 0.11100 0.02600
H 	H 	0.66060 0.33630 0.12350 0.02600
H 	H 	0.65380 0.41340 0.12900 0.02600
C 	C 	0.73540 0.37720 0.14010 -0.04800
H 	H 	0.73860 0.35650 0.14580 0.02400
H 	H 	0.71990 0.37780 0.12500 0.02400
C 	C 	0.75050 0.39380 0.18760 -0.05700
H 	H 	0.74450 0.40510 0.20510 0.02900
H 	H 	0.75470 0.37340 0.19380 0.02900
C 	C 	0.72200 0.42450 0.15740 -0.04000
H 	H 	0.70560 0.42600 0.14320 0.02200
H 	H 	0.71660 0.43590 0.17510 0.02300
H 	H 	0.12640 0.06400 0.66110 0.02700
H 	H 	0.09760 0.06040 0.71440 0.02600
H 	H 	0.02950 0.96700 0.74540 0.02600
H 	H 	0.01510 0.92060 0.71000 0.02500
C 	C 	0.08170 0.94430 0.70520 -0.05300
H 	H 	0.08890 0.93480 0.72340 0.02800
H 	H 	0.09750 0.94320 0.69040 0.02600
N 	N 	0.02385 0.85609 0.66542 -0.13800
C 	C 	0.07420 0.97700 0.71160 -0.04500
H 	H 	0.08610 0.98980 0.69880 0.02500
H 	H 	0.07910 0.98170 0.73220 0.02300
C 	C 	0.09470 0.89320 0.61860 -0.04900
H 	H 	0.07690 0.88340 0.61100 0.02600
H 	H 	0.08940 0.91370 0.62350 0.02600
H 	H 	0.09620 0.83660 0.62900 0.02600
C 	C 	0.01460 0.87280 0.64010 -0.04800
H 	H 	0.01140 0.89350 0.64580 0.02400
H 	H 	0.03010 0.87220 0.62500 0.02400
C 	C 	0.99950 0.85620 0.68760 -0.05700
H 	H 	0.00550 0.84490 0.70510 0.02900
H 	H 	0.99530 0.87660 0.69380 0.02900
C 	C 	0.02800 0.82550 0.65740 -0.04000
H 	H 	0.04440 0.82400 0.64320 0.02200
H 	H 	0.03340 0.81410 0.67510 0.02300
H 	H 	0.12640 0.56400 0.16110 0.02700
H 	H 	0.09760 0.56040 0.21440 0.02600
H 	H 	0.02950 0.46700 0.24540 0.02600
H 	H 	0.01510 0.42060 0.21000 0.02500
C 	C 	0.08170 0.44430 0.20520 -0.05300
H 	H 	0.08890 0.43480 0.22340 0.02800
H 	H 	0.09750 0.44320 0.19040 0.02600
N 	N 	0.02385 0.35609 0.16542 -0.13800
C 	C 	0.07420 0.47700 0.21160 -0.04500
H 	H 	0.08610 0.48980 0.19880 0.02500
H 	H 	0.07910 0.48170 0.23220 0.02300
C 	C 	0.09470 0.39320 0.11860 -0.04900
H 	H 	0.07690 0.38340 0.11100 0.02600
H 	H 	0.08940 0.41370 0.12350 0.02600
H 	H 	0.09620 0.33660 0.12900 0.02600
C 	C 	0.01460 0.37280 0.14010 -0.04800
H 	H 	0.01140 0.39350 0.14580 0.02400
H 	H 	0.03010 0.37220 0.12500 0.02400
C 	C 	0.99950 0.35620 0.18760 -0.05700
H 	H 	0.00550 0.34490 0.20510 0.02900
H 	H 	0.99530 0.37660 0.19380 0.02900
C 	C 	0.02800 0.32550 0.15740 -0.04000
H 	H 	0.04440 0.32400 0.14320 0.02200
H 	H 	0.03340 0.31410 0.17510 0.02300
H 	H 	0.62640 0.06400 0.16110 0.02700
H 	H 	0.59760 0.06040 0.21440 0.02600
H 	H 	0.52950 0.96700 0.24540 0.02600
H 	H 	0.51510 0.92060 0.21000 0.02500
C 	C 	0.58170 0.94430 0.20520 -0.05300
H 	H 	0.58890 0.93480 0.22340 0.02800
H 	H 	0.59750 0.94320 0.19040 0.02600
N 	N 	0.52385 0.85609 0.16542 -0.13800
C 	C 	0.57420 0.97700 0.21160 -0.04500
H 	H 	0.58610 0.98980 0.19880 0.02500
H 	H 	0.57910 0.98170 0.23220 0.02300
C 	C 	0.59470 0.89320 0.11860 -0.04900
H 	H 	0.57690 0.88340 0.11100 0.02600
H 	H 	0.58940 0.91370 0.12350 0.02600
H 	H 	0.59620 0.83660 0.12900 0.02600
C 	C 	0.51460 0.87280 0.14010 -0.04800
H 	H 	0.51140 0.89350 0.14580 0.02400
H 	H 	0.53010 0.87220 0.12500 0.02400
C 	C 	0.49950 0.85620 0.18760 -0.05700
H 	H 	0.50550 0.84490 0.20510 0.02900
H 	H 	0.49530 0.87660 0.19380 0.02900
C 	C 	0.52800 0.82550 0.15740 -0.04000
H 	H 	0.54440 0.82400 0.14320 0.02200
H 	H 	0.53340 0.81410 0.17510 0.02300
H 	H 	0.62640 0.56400 0.66110 0.02700
H 	H 	0.59760 0.56040 0.71440 0.02600
H 	H 	0.52950 0.46700 0.74540 0.02600
H 	H 	0.51510 0.42060 0.71000 0.02500
C 	C 	0.58170 0.44430 0.70520 -0.05300
H 	H 	0.58890 0.43480 0.72340 0.02800
H 	H 	0.59750 0.44320 0.69040 0.02600
N 	N 	0.52385 0.35609 0.66542 -0.13800
C 	C 	0.57420 0.47700 0.71160 -0.04500
H 	H 	0.58610 0.48980 0.69880 0.02500
H 	H 	0.57910 0.48170 0.73220 0.02300
C 	C 	0.59470 0.39320 0.61860 -0.04900
H 	H 	0.57690 0.38340 0.61100 0.02600
H 	H 	0.58940 0.41370 0.62350 0.02600
H 	H 	0.59620 0.33660 0.62900 0.02600
C 	C 	0.51460 0.37280 0.64010 -0.04800
H 	H 	0.51140 0.39350 0.64580 0.02400
H 	H 	0.53010 0.37220 0.62500 0.02400
C 	C 	0.49950 0.35620 0.68760 -0.05700
H 	H 	0.50550 0.34490 0.70510 0.02900
H 	H 	0.49530 0.37660 0.69380 0.02900
C 	C 	0.52800 0.32550 0.65740 -0.04000
H 	H 	0.54440 0.32400 0.64320 0.02200
H 	H 	0.53340 0.31410 0.67510 0.02300
H 	H 	0.06400 0.66110 0.12640 0.02700
H 	H 	0.06040 0.71440 0.09760 0.02600
H 	H 	0.96700 0.74540 0.02950 0.02600
H 	H 	0.92060 0.71000 0.01510 0.02500
C 	C 	0.94430 0.70520 0.08170 -0.05300
H 	H 	0.93480 0.72340 0.08890 0.02800
H 	H 	0.94320 0.69040 0.09750 0.02600
N 	N 	0.85609 0.66542 0.02385 -0.13800
C 	C 	0.97700 0.71160 0.07420 -0.04500
H 	H 	0.98980 0.69880 0.08610 0.02500
H 	H 	0.98170 0.73220 0.07910 0.02300
C 	C 	0.89320 0.61860 0.09470 -0.04900
H 	H 	0.88340 0.61100 0.07690 0.02600
H 	H 	0.91370 0.62350 0.08940 0.02600
H 	H 	0.83660 0.62900 0.09620 0.02600
C 	C 	0.87280 0.64010 0.01460 -0.04800
H 	H 	0.89350 0.64580 0.01140 0.02400
H 	H 	0.87220 0.62500 0.03010 0.02400
C 	C 	0.85620 0.68760 0.99950 -0.05700
H 	H 	0.84490 0.70510 0.00550 0.02900
H 	H 	0.87660 0.69380 0.99530 0.02900
C 	C 	0.82550 0.65740 0.02800 -0.04000
H 	H 	0.82400 0.64320 0.04440 0.02200
H 	H 	0.81410 0.67510 0.03340 0.02300
H 	H 	0.06400 0.16110 0.62640 0.02700
H 	H 	0.06040 0.21440 0.59760 0.02600
H 	H 	0.96700 0.24540 0.52950 0.02600
H 	H 	0.92060 0.21000 0.51510 0.02500
C 	C 	0.94430 0.20520 0.58170 -0.05300
H 	H 	0.93480 0.22340 0.58890 0.02800
H 	H 	0.94320 0.19040 0.59750 0.02600
N 	N 	0.85609 0.16542 0.52385 -0.13800
C 	C 	0.97700 0.21160 0.57420 -0.04500
H 	H 	0.98980 0.19880 0.58610 0.02500
H 	H 	0.98170 0.23220 0.57910 0.02300
C 	C 	0.89320 0.11860 0.59470 -0.04900
H 	H 	0.88340 0.11100 0.57690 0.02600
H 	H 	0.91370 0.12350 0.58940 0.02600
H 	H 	0.83660 0.12900 0.59620 0.02600
C 	C 	0.87280 0.14010 0.51460 -0.04800
H 	H 	0.89350 0.14580 0.51140 0.02400
H 	H 	0.87220 0.12500 0.53010 0.02400
C 	C 	0.85620 0.18760 0.49950 -0.05700
H 	H 	0.84490 0.20510 0.50550 0.02900
H 	H 	0.87660 0.19380 0.49530 0.02900
C 	C 	0.82550 0.15740 0.52800 -0.04000
H 	H 	0.82400 0.14320 0.54440 0.02200
H 	H 	0.81410 0.17510 0.53340 0.02300
H 	H 	0.56400 0.66110 0.62640 0.02700
H 	H 	0.56040 0.71440 0.59760 0.02600
H 	H 	0.46700 0.74540 0.52950 0.02600
H 	H 	0.42060 0.71000 0.51510 0.02500
C 	C 	0.44430 0.70520 0.58170 -0.05300
H 	H 	0.43480 0.72340 0.58890 0.02800
H 	H 	0.44320 0.69040 0.59750 0.02600
N 	N 	0.35609 0.66542 0.52385 -0.13800
C 	C 	0.47700 0.71160 0.57420 -0.04500
H 	H 	0.48980 0.69880 0.58610 0.02500
H 	H 	0.48170 0.73220 0.57910 0.02300
C 	C 	0.39320 0.61860 0.59470 -0.04900
H 	H 	0.38340 0.61100 0.57690 0.02600
H 	H 	0.41370 0.62350 0.58940 0.02600
H 	H 	0.33660 0.62900 0.59620 0.02600
C 	C 	0.37280 0.64010 0.51460 -0.04800
H 	H 	0.39350 0.64580 0.51140 0.02400
H 	H 	0.37220 0.62500 0.53010 0.02400
C 	C 	0.35620 0.68760 0.49950 -0.05700
H 	H 	0.34490 0.70510 0.50550 0.02900
H 	H 	0.37660 0.69380 0.49530 0.02900
C 	C 	0.32550 0.65740 0.52800 -0.04000
H 	H 	0.32400 0.64320 0.54440 0.02200
H 	H 	0.31410 0.67510 0.53340 0.02300
H 	H 	0.56400 0.16110 0.12640 0.02700
H 	H 	0.56040 0.21440 0.09760 0.02600
H 	H 	0.46700 0.24540 0.02950 0.02600
H 	H 	0.42060 0.21000 0.01510 0.02500
C 	C 	0.44430 0.20520 0.08170 -0.05300
H 	H 	0.43480 0.22340 0.08890 0.02800
H 	H 	0.44320 0.19040 0.09750 0.02600
N 	N 	0.35609 0.16542 0.02385 -0.13800
C 	C 	0.47700 0.21160 0.07420 -0.04500
H 	H 	0.48980 0.19880 0.08610 0.02500
H 	H 	0.48170 0.23220 0.07910 0.02300
C 	C 	0.39320 0.11860 0.09470 -0.04900
H 	H 	0.38340 0.11100 0.07690 0.02600
H 	H 	0.41370 0.12350 0.08940 0.02600
H 	H 	0.33660 0.12900 0.09620 0.02600
C 	C 	0.37280 0.14010 0.01460 -0.04800
H 	H 	0.39350 0.14580 0.01140 0.02400
H 	H 	0.37220 0.12500 0.03010 0.02400
C 	C 	0.35620 0.18760 0.99950 -0.05700
H 	H 	0.34490 0.20510 0.00550 0.02900
H 	H 	0.37660 0.19380 0.99530 0.02900
C 	C 	0.32550 0.15740 0.02800 -0.04000
H 	H 	0.32400 0.14320 0.04440 0.02200
H 	H 	0.31410 0.17510 0.03340 0.02300
H 	H 	0.68600 0.16110 0.12360 0.02700
H 	H 	0.68960 0.21440 0.15240 0.02600
H 	H 	0.78300 0.24540 0.22050 0.02600
H 	H 	0.82940 0.21000 0.23490 0.02500
C 	C 	0.80570 0.20520 0.16830 -0.05300
H 	H 	0.81520 0.22340 0.16110 0.02800
H 	H 	0.80680 0.19040 0.15250 0.02600
N 	N 	0.89391 0.16542 0.22615 -0.13800
C 	C 	0.77300 0.21160 0.17580 -0.04500
H 	H 	0.76020 0.19880 0.16390 0.02500
H 	H 	0.76830 0.23220 0.17090 0.02300
C 	C 	0.85680 0.11860 0.15530 -0.04900
H 	H 	0.86660 0.11100 0.17310 0.02600
H 	H 	0.83630 0.12350 0.16060 0.02600
H 	H 	0.91340 0.12900 0.15380 0.02600
C 	C 	0.87720 0.14010 0.23540 -0.04800
H 	H 	0.85650 0.14580 0.23860 0.02400
H 	H 	0.87780 0.12500 0.21990 0.02400
C 	C 	0.89380 0.18760 0.25050 -0.05700
H 	H 	0.90510 0.20510 0.24450 0.02900
H 	H 	0.87340 0.19380 0.25470 0.02900
C 	C 	0.92450 0.15740 0.22200 -0.04000
H 	H 	0.92600 0.14320 0.20560 0.02200
H 	H 	0.93590 0.17510 0.21660 0.02300
H 	H 	0.68600 0.66110 0.62360 0.02700
H 	H 	0.68960 0.71440 0.65240 0.02600
H 	H 	0.78300 0.74540 0.72050 0.02600
H 	H 	0.82940 0.71000 0.73490 0.02500
C 	C 	0.80570 0.70520 0.66830 -0.05300
H 	H 	0.81520 0.72340 0.66110 0.02800
H 	H 	0.80680 0.69040 0.65250 0.02600
N 	N 	0.89391 0.66542 0.72615 -0.13800
C 	C 	0.77300 0.71160 0.67580 -0.04500
H 	H 	0.76020 0.69880 0.66390 0.02500
H 	H 	0.76830 0.73220 0.67090 0.02300
C 	C 	0.85680 0.61860 0.65530 -0.04900
H 	H 	0.86660 0.61100 0.67310 0.02600
H 	H 	0.83630 0.62350 0.66060 0.02600
H 	H 	0.91340 0.62900 0.65380 0.02600
C 	C 	0.87720 0.64010 0.73540 -0.04800
H 	H 	0.85650 0.64580 0.73860 0.02400
H 	H 	0.87780 0.62500 0.71990 0.02400
C 	C 	0.89380 0.68760 0.75050 -0.05700
H 	H 	0.90510 0.70510 0.74450 0.02900
H 	H 	0.87340 0.69380 0.75470 0.02900
C 	C 	0.92450 0.65740 0.72200 -0.04000
H 	H 	0.92600 0.64320 0.70560 0.02200
H 	H 	0.93590 0.67510 0.71660 0.02300
H 	H 	0.18600 0.16110 0.62360 0.02700
H 	H 	0.18960 0.21440 0.65240 0.02600
H 	H 	0.28300 0.24540 0.72050 0.02600
H 	H 	0.32940 0.21000 0.73490 0.02500
C 	C 	0.30570 0.20520 0.66830 -0.05300
H 	H 	0.31520 0.22340 0.66110 0.02800
H 	H 	0.30680 0.19040 0.65250 0.02600
N 	N 	0.39391 0.16542 0.72615 -0.13800
C 	C 	0.27300 0.21160 0.67580 -0.04500
H 	H 	0.26020 0.19880 0.66390 0.02500
H 	H 	0.26830 0.23220 0.67090 0.02300
C 	C 	0.35680 0.11860 0.65530 -0.04900
H 	H 	0.36660 0.11100 0.67310 0.02600
H 	H 	0.33630 0.12350 0.66060 0.02600
H 	H 	0.41340 0.12900 0.65380 0.02600
C 	C 	0.37720 0.14010 0.73540 -0.04800
H 	H 	0.35650 0.14580 0.73860 0.02400
H 	H 	0.37780 0.12500 0.71990 0.02400
C 	C 	0.39380 0.18760 0.75050 -0.05700
H 	H 	0.40510 0.20510 0.74450 0.02900
H 	H 	0.37340 0.19380 0.75470 0.02900
C 	C 	0.42450 0.15740 0.72200 -0.04000
H 	H 	0.42600 0.14320 0.70560 0.02200
H 	H 	0.43590 0.17510 0.71660 0.02300
H 	H 	0.18600 0.66110 0.12360 0.02700
H 	H 	0.18960 0.71440 0.15240 0.02600
H 	H 	0.28300 0.74540 0.22050 0.02600
H 	H 	0.32940 0.71000 0.23490 0.02500
C 	C 	0.30570 0.70520 0.16830 -0.05300
H 	H 	0.31520 0.72340 0.16110 0.02800
H 	H 	0.30680 0.69040 0.15250 0.02600
N 	N 	0.39391 0.66542 0.22615 -0.13800
C 	C 	0.27300 0.71160 0.17580 -0.04500
H 	H 	0.26020 0.69880 0.16390 0.02500
H 	H 	0.26830 0.73220 0.17090 0.02300
C 	C 	0.35680 0.61860 0.15530 -0.04900
H 	H 	0.36660 0.61100 0.17310 0.02600
H 	H 	0.33630 0.62350 0.16060 0.02600
H 	H 	0.41340 0.62900 0.15380 0.02600
C 	C 	0.37720 0.64010 0.23540 -0.04800
H 	H 	0.35650 0.64580 0.23860 0.02400
H 	H 	0.37780 0.62500 0.21990 0.02400
C 	C 	0.39380 0.68760 0.25050 -0.05700
H 	H 	0.40510 0.70510 0.24450 0.02900
H 	H 	0.37340 0.69380 0.25470 0.02900
C 	C 	0.42450 0.65740 0.22200 -0.04000
H 	H 	0.42600 0.64320 0.20560 0.02200
H 	H 	0.43590 0.67510 0.21660 0.02300
H 	H 	0.18600 0.08890 0.62640 0.02700
H 	H 	0.18960 0.03560 0.59760 0.02600
H 	H 	0.28300 0.00460 0.52950 0.02600
H 	H 	0.32940 0.04000 0.51510 0.02500
C 	C 	0.30570 0.04480 0.58170 -0.05300
H 	H 	0.31520 0.02660 0.58890 0.02800
H 	H 	0.30680 0.05960 0.59750 0.02600
N 	N 	0.39391 0.08458 0.52385 -0.13800
C 	C 	0.27300 0.03840 0.57420 -0.04500
H 	H 	0.26020 0.05120 0.58610 0.02500
H 	H 	0.26830 0.01780 0.57910 0.02300
C 	C 	0.35680 0.13140 0.59470 -0.04900
H 	H 	0.36660 0.13900 0.57690 0.02600
H 	H 	0.33630 0.12650 0.58940 0.02600
H 	H 	0.41340 0.12100 0.59620 0.02600
C 	C 	0.37720 0.10990 0.51460 -0.04800
H 	H 	0.35650 0.10420 0.51140 0.02400
H 	H 	0.37780 0.12500 0.53010 0.02400
C 	C 	0.39380 0.06240 0.49950 -0.05700
H 	H 	0.40510 0.04490 0.50550 0.02900
H 	H 	0.37340 0.05620 0.49530 0.02900
C 	C 	0.42450 0.09260 0.52800 -0.04000
H 	H 	0.42600 0.10680 0.54440 0.02200
H 	H 	0.43590 0.07490 0.53340 0.02300
H 	H 	0.18600 0.58890 0.12640 0.02700
H 	H 	0.18960 0.53560 0.09760 0.02600
H 	H 	0.28300 0.50460 0.02950 0.02600
H 	H 	0.32940 0.54000 0.01510 0.02500
C 	C 	0.30570 0.54480 0.08170 -0.05300
H 	H 	0.31520 0.52660 0.08890 0.02800
H 	H 	0.30680 0.55960 0.09750 0.02600
N 	N 	0.39391 0.58458 0.02385 -0.13800
C 	C 	0.27300 0.53840 0.07420 -0.04500
H 	H 	0.26020 0.55120 0.08610 0.02500
H 	H 	0.26830 0.51780 0.07910 0.02300
C 	C 	0.35680 0.63140 0.09470 -0.04900
H 	H 	0.36660 0.63900 0.07690 0.02600
H 	H 	0.33630 0.62650 0.08940 0.02600
H 	H 	0.41340 0.62100 0.09620 0.02600
C 	C 	0.37720 0.60990 0.01460 -0.04800
H 	H 	0.35650 0.60420 0.01140 0.02400
H 	H 	0.37780 0.62500 0.03010 0.02400
C 	C 	0.39380 0.56240 0.99950 -0.05700
H 	H 	0.40510 0.54490 0.00550 0.02900
H 	H 	0.37340 0.55620 0.99530 0.02900
C 	C 	0.42450 0.59260 0.02800 -0.04000
H 	H 	0.42600 0.60680 0.04440 0.02200
H 	H 	0.43590 0.57490 0.03340 0.02300
H 	H 	0.68600 0.08890 0.12640 0.02700
H 	H 	0.68960 0.03560 0.09760 0.02600
H 	H 	0.78300 0.00460 0.02950 0.02600
H 	H 	0.82940 0.04000 0.01510 0.02500
C 	C 	0.80570 0.04480 0.08170 -0.05300
H 	H 	0.81520 0.02660 0.08890 0.02800
H 	H 	0.80680 0.05960 0.09750 0.02600
N 	N 	0.89391 0.08458 0.02385 -0.13800
C 	C 	0.77300 0.03840 0.07420 -0.04500
H 	H 	0.76020 0.05120 0.08610 0.02500
H 	H 	0.76830 0.01780 0.07910 0.02300
C 	C 	0.85680 0.13140 0.09470 -0.04900
H 	H 	0.86660 0.13900 0.07690 0.02600
H 	H 	0.83630 0.12650 0.08940 0.02600
H 	H 	0.91340 0.12100 0.09620 0.02600
C 	C 	0.87720 0.10990 0.01460 -0.04800
H 	H 	0.85650 0.10420 0.01140 0.02400
H 	H 	0.87780 0.12500 0.03010 0.02400
C 	C 	0.89380 0.06240 0.99950 -0.05700
H 	H 	0.90510 0.04490 0.00550 0.02900
H 	H 	0.87340 0.05620 0.99530 0.02900
C 	C 	0.92450 0.09260 0.02800 -0.04000
H 	H 	0.92600 0.10680 0.04440 0.02200
H 	H 	0.93590 0.07490 0.03340 0.02300
H 	H 	0.68600 0.58890 0.62640 0.02700
H 	H 	0.68960 0.53560 0.59760 0.02600
H 	H 	0.78300 0.50460 0.52950 0.02600
H 	H 	0.82940 0.54000 0.51510 0.02500
C 	C 	0.80570 0.54480 0.58170 -0.05300
H 	H 	0.81520 0.52660 0.58890 0.02800
H 	H 	0.80680 0.55960 0.59750 0.02600
N 	N 	0.89391 0.58458 0.52385 -0.13800
C 	C 	0.77300 0.53840 0.57420 -0.04500
H 	H 	0.76020 0.55120 0.58610 0.02500
H 	H 	0.76830 0.51780 0.57910 0.02300
C 	C 	0.85680 0.63140 0.59470 -0.04900
H 	H 	0.86660 0.63900 0.57690 0.02600
H 	H 	0.83630 0.62650 0.58940 0.02600
H 	H 	0.91340 0.62100 0.59620 0.02600
C 	C 	0.87720 0.60990 0.51460 -0.04800
H 	H 	0.85650 0.60420 0.51140 0.02400
H 	H 	0.87780 0.62500 0.53010 0.02400
C 	C 	0.89380 0.56240 0.49950 -0.05700
H 	H 	0.90510 0.54490 0.50550 0.02900
H 	H 	0.87340 0.55620 0.49530 0.02900
C 	C 	0.92450 0.59260 0.52800 -0.04000
H 	H 	0.92600 0.60680 0.54440 0.02200
H 	H 	0.93590 0.57490 0.53340 0.02300
H 	H 	0.56400 0.58890 0.62360 0.02700
H 	H 	0.56040 0.53560 0.65240 0.02600
H 	H 	0.46700 0.50460 0.72050 0.02600
H 	H 	0.42060 0.54000 0.73490 0.02500
C 	C 	0.44430 0.54480 0.66830 -0.05300
H 	H 	0.43480 0.52660 0.66110 0.02800
H 	H 	0.44320 0.55960 0.65250 0.02600
N 	N 	0.35609 0.58458 0.72615 -0.13800
C 	C 	0.47700 0.53840 0.67580 -0.04500
H 	H 	0.48980 0.55120 0.66390 0.02500
H 	H 	0.48170 0.51780 0.67090 0.02300
C 	C 	0.39320 0.63140 0.65530 -0.04900
H 	H 	0.38340 0.63900 0.67310 0.02600
H 	H 	0.41370 0.62650 0.66060 0.02600
H 	H 	0.33660 0.62100 0.65380 0.02600
C 	C 	0.37280 0.60990 0.73540 -0.04800
H 	H 	0.39350 0.60420 0.73860 0.02400
H 	H 	0.37220 0.62500 0.71990 0.02400
C 	C 	0.35620 0.56240 0.75050 -0.05700
H 	H 	0.34490 0.54490 0.74450 0.02900
H 	H 	0.37660 0.55620 0.75470 0.02900
C 	C 	0.32550 0.59260 0.72200 -0.04000
H 	H 	0.32400 0.60680 0.70560 0.02200
H 	H 	0.31410 0.57490 0.71660 0.02300
H 	H 	0.56400 0.08890 0.12360 0.02700
H 	H 	0.56040 0.03560 0.15240 0.02600
H 	H 	0.46700 0.00460 0.22050 0.02600
H 	H 	0.42060 0.04000 0.23490 0.02500
C 	C 	0.44430 0.04480 0.16830 -0.05300
H 	H 	0.43480 0.02660 0.16110 0.02800
H 	H 	0.44320 0.05960 0.15250 0.02600
N 	N 	0.35609 0.08458 0.22615 -0.13800
C 	C 	0.47700 0.03840 0.17580 -0.04500
H 	H 	0.48980 0.05120 0.16390 0.02500
H 	H 	0.48170 0.01780 0.17090 0.02300
C 	C 	0.39320 0.13140 0.15530 -0.04900
H 	H 	0.38340 0.13900 0.17310 0.02600
H 	H 	0.41370 0.12650 0.16060 0.02600
H 	H 	0.33660 0.12100 0.15380 0.02600
C 	C 	0.37280 0.10990 0.23540 -0.04800
H 	H 	0.39350 0.10420 0.23860 0.02400
H 	H 	0.37220 0.12500 0.21990 0.02400
C 	C 	0.35620 0.06240 0.25050 -0.05700
H 	H 	0.34490 0.04490 0.24450 0.02900
H 	H 	0.37660 0.05620 0.25470 0.02900
C 	C 	0.32550 0.09260 0.22200 -0.04000
H 	H 	0.32400 0.10680 0.20560 0.02200
H 	H 	0.31410 0.07490 0.21660 0.02300
H 	H 	0.06400 0.58890 0.12360 0.02700
H 	H 	0.06040 0.53560 0.15240 0.02600
H 	H 	0.96700 0.50460 0.22050 0.02600
H 	H 	0.92060 0.54000 0.23490 0.02500
C 	C 	0.94430 0.54480 0.16830 -0.05300
H 	H 	0.93480 0.52660 0.16110 0.02800
H 	H 	0.94320 0.55960 0.15250 0.02600
N 	N 	0.85609 0.58458 0.22615 -0.13800
C 	C 	0.97700 0.53840 0.17580 -0.04500
H 	H 	0.98980 0.55120 0.16390 0.02500
H 	H 	0.98170 0.51780 0.17090 0.02300
C 	C 	0.89320 0.63140 0.15530 -0.04900
H 	H 	0.88340 0.63900 0.17310 0.02600
H 	H 	0.91370 0.62650 0.16060 0.02600
H 	H 	0.83660 0.62100 0.15380 0.02600
C 	C 	0.87280 0.60990 0.23540 -0.04800
H 	H 	0.89350 0.60420 0.23860 0.02400
H 	H 	0.87220 0.62500 0.21990 0.02400
C 	C 	0.85620 0.56240 0.25050 -0.05700
H 	H 	0.84490 0.54490 0.24450 0.02900
H 	H 	0.87660 0.55620 0.25470 0.02900
C 	C 	0.82550 0.59260 0.22200 -0.04000
H 	H 	0.82400 0.60680 0.20560 0.02200
H 	H 	0.81410 0.57490 0.21660 0.02300
H 	H 	0.06400 0.08890 0.62360 0.02700
H 	H 	0.06040 0.03560 0.65240 0.02600
H 	H 	0.96700 0.00460 0.72050 0.02600
H 	H 	0.92060 0.04000 0.73490 0.02500
C 	C 	0.94430 0.04480 0.66830 -0.05300
H 	H 	0.93480 0.02660 0.66110 0.02800
H 	H 	0.94320 0.05960 0.65250 0.02600
N 	N 	0.85609 0.08458 0.72615 -0.13800
C 	C 	0.97700 0.03840 0.67580 -0.04500
H 	H 	0.98980 0.05120 0.66390 0.02500
H 	H 	0.98170 0.01780 0.67090 0.02300
C 	C 	0.89320 0.13140 0.65530 -0.04900
H 	H 	0.88340 0.13900 0.67310 0.02600
H 	H 	0.91370 0.12650 0.66060 0.02600
H 	H 	0.83660 0.12100 0.65380 0.02600
C 	C 	0.87280 0.10990 0.73540 -0.04800
H 	H 	0.89350 0.10420 0.73860 0.02400
H 	H 	0.87220 0.12500 0.71990 0.02400
C 	C 	0.85620 0.06240 0.75050 -0.05700
H 	H 	0.84490 0.04490 0.74450 0.02900
H 	H 	0.87660 0.05620 0.75470 0.02900
C 	C 	0.82550 0.09260 0.72200 -0.04000
H 	H 	0.82400 0.10680 0.70560 0.02200
H 	H 	0.81410 0.07490 0.71660 0.02300
H 	H 	0.16110 0.12360 0.68600 0.02700
H 	H 	0.21440 0.15240 0.68960 0.02600
H 	H 	0.24540 0.22050 0.78300 0.02600
H 	H 	0.21000 0.23490 0.82940 0.02500
C 	C 	0.20520 0.16830 0.80570 -0.05300
H 	H 	0.22340 0.16110 0.81520 0.02800
H 	H 	0.19040 0.15250 0.80680 0.02600
N 	N 	0.16542 0.22615 0.89391 -0.13800
C 	C 	0.21160 0.17580 0.77300 -0.04500
H 	H 	0.19880 0.16390 0.76020 0.02500
H 	H 	0.23220 0.17090 0.76830 0.02300
C 	C 	0.11860 0.15530 0.85680 -0.04900
H 	H 	0.11100 0.17310 0.86660 0.02600
H 	H 	0.12350 0.16060 0.83630 0.02600
H 	H 	0.12900 0.15380 0.91340 0.02600
C 	C 	0.14010 0.23540 0.87720 -0.04800
H 	H 	0.14580 0.23860 0.85650 0.02400
H 	H 	0.12500 0.21990 0.87780 0.02400
C 	C 	0.18760 0.25050 0.89380 -0.05700
H 	H 	0.20510 0.24450 0.90510 0.02900
H 	H 	0.19380 0.25470 0.87340 0.02900
C 	C 	0.15740 0.22200 0.92450 -0.04000
H 	H 	0.14320 0.20560 0.92600 0.02200
H 	H 	0.17510 0.21660 0.93590 0.02300
H 	H 	0.16110 0.62360 0.18600 0.02700
H 	H 	0.21440 0.65240 0.18960 0.02600
H 	H 	0.24540 0.72050 0.28300 0.02600
H 	H 	0.21000 0.73490 0.32940 0.02500
C 	C 	0.20520 0.66830 0.30570 -0.05300
H 	H 	0.22340 0.66110 0.31520 0.02800
H 	H 	0.19040 0.65250 0.30680 0.02600
N 	N 	0.16542 0.72615 0.39391 -0.13800
C 	C 	0.21160 0.67580 0.27300 -0.04500
H 	H 	0.19880 0.66390 0.26020 0.02500
H 	H 	0.23220 0.67090 0.26830 0.02300
C 	C 	0.11860 0.65530 0.35680 -0.04900
H 	H 	0.11100 0.67310 0.36660 0.02600
H 	H 	0.12350 0.66060 0.33630 0.02600
H 	H 	0.12900 0.65380 0.41340 0.02600
C 	C 	0.14010 0.73540 0.37720 -0.04800
H 	H 	0.14580 0.73860 0.35650 0.02400
H 	H 	0.12500 0.71990 0.37780 0.02400
C 	C 	0.18760 0.75050 0.39380 -0.05700
H 	H 	0.20510 0.74450 0.40510 0.02900
H 	H 	0.19380 0.75470 0.37340 0.02900
C 	C 	0.15740 0.72200 0.42450 -0.04000
H 	H 	0.14320 0.70560 0.42600 0.02200
H 	H 	0.17510 0.71660 0.43590 0.02300
H 	H 	0.66110 0.12360 0.18600 0.02700
H 	H 	0.71440 0.15240 0.18960 0.02600
H 	H 	0.74540 0.22050 0.28300 0.02600
H 	H 	0.71000 0.23490 0.32940 0.02500
C 	C 	0.70520 0.16830 0.30570 -0.05300
H 	H 	0.72340 0.16110 0.31520 0.02800
H 	H 	0.69040 0.15250 0.30680 0.02600
N 	N 	0.66542 0.22615 0.39391 -0.13800
C 	C 	0.71160 0.17580 0.27300 -0.04500
H 	H 	0.69880 0.16390 0.26020 0.02500
H 	H 	0.73220 0.17090 0.26830 0.02300
C 	C 	0.61860 0.15530 0.35680 -0.04900
H 	H 	0.61100 0.17310 0.36660 0.02600
H 	H 	0.62350 0.16060 0.33630 0.02600
H 	H 	0.62900 0.15380 0.41340 0.02600
C 	C 	0.64010 0.23540 0.37720 -0.04800
H 	H 	0.64580 0.23860 0.35650 0.02400
H 	H 	0.62500 0.21990 0.37780 0.02400
C 	C 	0.68760 0.25050 0.39380 -0.05700
H 	H 	0.70510 0.24450 0.40510 0.02900
H 	H 	0.69380 0.25470 0.37340 0.02900
C 	C 	0.65740 0.22200 0.42450 -0.04000
H 	H 	0.64320 0.20560 0.42600 0.02200
H 	H 	0.67510 0.21660 0.43590 0.02300
H 	H 	0.66110 0.62360 0.68600 0.02700
H 	H 	0.71440 0.65240 0.68960 0.02600
H 	H 	0.74540 0.72050 0.78300 0.02600
H 	H 	0.71000 0.73490 0.82940 0.02500
C 	C 	0.70520 0.66830 0.80570 -0.05300
H 	H 	0.72340 0.66110 0.81520 0.02800
H 	H 	0.69040 0.65250 0.80680 0.02600
N 	N 	0.66542 0.72615 0.89391 -0.13800
C 	C 	0.71160 0.67580 0.77300 -0.04500
H 	H 	0.69880 0.66390 0.76020 0.02500
H 	H 	0.73220 0.67090 0.76830 0.02300
C 	C 	0.61860 0.65530 0.85680 -0.04900
H 	H 	0.61100 0.67310 0.86660 0.02600
H 	H 	0.62350 0.66060 0.83630 0.02600
H 	H 	0.62900 0.65380 0.91340 0.02600
C 	C 	0.64010 0.73540 0.87720 -0.04800
H 	H 	0.64580 0.73860 0.85650 0.02400
H 	H 	0.62500 0.71990 0.87780 0.02400
C 	C 	0.68760 0.75050 0.89380 -0.05700
H 	H 	0.70510 0.74450 0.90510 0.02900
H 	H 	0.69380 0.75470 0.87340 0.02900
C 	C 	0.65740 0.72200 0.92450 -0.04000
H 	H 	0.64320 0.70560 0.92600 0.02200
H 	H 	0.67510 0.71660 0.93590 0.02300
H 	H 	0.66110 0.12640 0.06400 0.02700
H 	H 	0.71440 0.09760 0.06040 0.02600
H 	H 	0.74540 0.02950 0.96700 0.02600
H 	H 	0.71000 0.01510 0.92060 0.02500
C 	C 	0.70520 0.08170 0.94430 -0.05300
H 	H 	0.72340 0.08890 0.93480 0.02800
H 	H 	0.69040 0.09750 0.94320 0.02600
N 	N 	0.66542 0.02385 0.85609 -0.13800
C 	C 	0.71160 0.07420 0.97700 -0.04500
H 	H 	0.69880 0.08610 0.98980 0.02500
H 	H 	0.73220 0.07910 0.98170 0.02300
C 	C 	0.61860 0.09470 0.89320 -0.04900
H 	H 	0.61100 0.07690 0.88340 0.02600
H 	H 	0.62350 0.08940 0.91370 0.02600
H 	H 	0.62900 0.09620 0.83660 0.02600
C 	C 	0.64010 0.01460 0.87280 -0.04800
H 	H 	0.64580 0.01140 0.89350 0.02400
H 	H 	0.62500 0.03010 0.87220 0.02400
C 	C 	0.68760 0.99950 0.85620 -0.05700
H 	H 	0.70510 0.00550 0.84490 0.02900
H 	H 	0.69380 0.99530 0.87660 0.02900
C 	C 	0.65740 0.02800 0.82550 -0.04000
H 	H 	0.64320 0.04440 0.82400 0.02200
H 	H 	0.67510 0.03340 0.81410 0.02300
H 	H 	0.66110 0.62640 0.56400 0.02700
H 	H 	0.71440 0.59760 0.56040 0.02600
H 	H 	0.74540 0.52950 0.46700 0.02600
H 	H 	0.71000 0.51510 0.42060 0.02500
C 	C 	0.70520 0.58170 0.44430 -0.05300
H 	H 	0.72340 0.58890 0.43480 0.02800
H 	H 	0.69040 0.59750 0.44320 0.02600
N 	N 	0.66542 0.52385 0.35609 -0.13800
C 	C 	0.71160 0.57420 0.47700 -0.04500
H 	H 	0.69880 0.58610 0.48980 0.02500
H 	H 	0.73220 0.57910 0.48170 0.02300
C 	C 	0.61860 0.59470 0.39320 -0.04900
H 	H 	0.61100 0.57690 0.38340 0.02600
H 	H 	0.62350 0.58940 0.41370 0.02600
H 	H 	0.62900 0.59620 0.33660 0.02600
C 	C 	0.64010 0.51460 0.37280 -0.04800
H 	H 	0.64580 0.51140 0.39350 0.02400
H 	H 	0.62500 0.53010 0.37220 0.02400
C 	C 	0.68760 0.49950 0.35620 -0.05700
H 	H 	0.70510 0.50550 0.34490 0.02900
H 	H 	0.69380 0.49530 0.37660 0.02900
C 	C 	0.65740 0.52800 0.32550 -0.04000
H 	H 	0.64320 0.54440 0.32400 0.02200
H 	H 	0.67510 0.53340 0.31410 0.02300
H 	H 	0.16110 0.12640 0.56400 0.02700
H 	H 	0.21440 0.09760 0.56040 0.02600
H 	H 	0.24540 0.02950 0.46700 0.02600
H 	H 	0.21000 0.01510 0.42060 0.02500
C 	C 	0.20520 0.08170 0.44430 -0.05300
H 	H 	0.22340 0.08890 0.43480 0.02800
H 	H 	0.19040 0.09750 0.44320 0.02600
N 	N 	0.16542 0.02385 0.35609 -0.13800
C 	C 	0.21160 0.07420 0.47700 -0.04500
H 	H 	0.19880 0.08610 0.48980 0.02500
H 	H 	0.23220 0.07910 0.48170 0.02300
C 	C 	0.11860 0.09470 0.39320 -0.04900
H 	H 	0.11100 0.07690 0.38340 0.02600
H 	H 	0.12350 0.08940 0.41370 0.02600
H 	H 	0.12900 0.09620 0.33660 0.02600
C 	C 	0.14010 0.01460 0.37280 -0.04800
H 	H 	0.14580 0.01140 0.39350 0.02400
H 	H 	0.12500 0.03010 0.37220 0.02400
C 	C 	0.18760 0.99950 0.35620 -0.05700
H 	H 	0.20510 0.00550 0.34490 0.02900
H 	H 	0.19380 0.99530 0.37660 0.02900
C 	C 	0.15740 0.02800 0.32550 -0.04000
H 	H 	0.14320 0.04440 0.32400 0.02200
H 	H 	0.17510 0.03340 0.31410 0.02300
H 	H 	0.16110 0.62640 0.06400 0.02700
H 	H 	0.21440 0.59760 0.06040 0.02600
H 	H 	0.24540 0.52950 0.96700 0.02600
H 	H 	0.21000 0.51510 0.92060 0.02500
C 	C 	0.20520 0.58170 0.94430 -0.05300
H 	H 	0.22340 0.58890 0.93480 0.02800
H 	H 	0.19040 0.59750 0.94320 0.02600
N 	N 	0.16542 0.52385 0.85609 -0.13800
C 	C 	0.21160 0.57420 0.97700 -0.04500
H 	H 	0.19880 0.58610 0.98980 0.02500
H 	H 	0.23220 0.57910 0.98170 0.02300
C 	C 	0.11860 0.59470 0.89320 -0.04900
H 	H 	0.11100 0.57690 0.88340 0.02600
H 	H 	0.12350 0.58940 0.91370 0.02600
H 	H 	0.12900 0.59620 0.83660 0.02600
C 	C 	0.14010 0.51460 0.87280 -0.04800
H 	H 	0.14580 0.51140 0.89350 0.02400
H 	H 	0.12500 0.53010 0.87220 0.02400
C 	C 	0.18760 0.49950 0.85620 -0.05700
H 	H 	0.20510 0.50550 0.84490 0.02900
H 	H 	0.19380 0.49530 0.87660 0.02900
C 	C 	0.15740 0.52800 0.82550 -0.04000
H 	H 	0.14320 0.54440 0.82400 0.02200
H 	H 	0.17510 0.53340 0.81410 0.02300
H 	H 	0.58890 0.62360 0.56400 0.02700
H 	H 	0.53560 0.65240 0.56040 0.02600
H 	H 	0.50460 0.72050 0.46700 0.02600
H 	H 	0.54000 0.73490 0.42060 0.02500
C 	C 	0.54480 0.66830 0.44430 -0.05300
H 	H 	0.52660 0.66110 0.43480 0.02800
H 	H 	0.55960 0.65250 0.44320 0.02600
N 	N 	0.58458 0.72615 0.35609 -0.13800
C 	C 	0.53840 0.67580 0.47700 -0.04500
H 	H 	0.55120 0.66390 0.48980 0.02500
H 	H 	0.51780 0.67090 0.48170 0.02300
C 	C 	0.63140 0.65530 0.39320 -0.04900
H 	H 	0.63900 0.67310 0.38340 0.02600
H 	H 	0.62650 0.66060 0.41370 0.02600
H 	H 	0.62100 0.65380 0.33660 0.02600
C 	C 	0.60990 0.73540 0.37280 -0.04800
H 	H 	0.60420 0.73860 0.39350 0.02400
H 	H 	0.62500 0.71990 0.37220 0.02400
C 	C 	0.56240 0.75050 0.35620 -0.05700
H 	H 	0.54490 0.74450 0.34490 0.02900
H 	H 	0.55620 0.75470 0.37660 0.02900
C 	C 	0.59260 0.72200 0.32550 -0.04000
H 	H 	0.60680 0.70560 0.32400 0.02200
H 	H 	0.57490 0.71660 0.31410 0.02300
H 	H 	0.58890 0.12360 0.06400 0.02700
H 	H 	0.53560 0.15240 0.06040 0.02600
H 	H 	0.50460 0.22050 0.96700 0.02600
H 	H 	0.54000 0.23490 0.92060 0.02500
C 	C 	0.54480 0.16830 0.94430 -0.05300
H 	H 	0.52660 0.16110 0.93480 0.02800
H 	H 	0.55960 0.15250 0.94320 0.02600
N 	N 	0.58458 0.22615 0.85609 -0.13800
C 	C 	0.53840 0.17580 0.97700 -0.04500
H 	H 	0.55120 0.16390 0.98980 0.02500
H 	H 	0.51780 0.17090 0.98170 0.02300
C 	C 	0.63140 0.15530 0.89320 -0.04900
H 	H 	0.63900 0.17310 0.88340 0.02600
H 	H 	0.62650 0.16060 0.91370 0.02600
H 	H 	0.62100 0.15380 0.83660 0.02600
C 	C 	0.60990 0.23540 0.87280 -0.04800
H 	H 	0.60420 0.23860 0.89350 0.02400
H 	H 	0.62500 0.21990 0.87220 0.02400
C 	C 	0.56240 0.25050 0.85620 -0.05700
H 	H 	0.54490 0.24450 0.84490 0.02900
H 	H 	0.55620 0.25470 0.87660 0.02900
C 	C 	0.59260 0.22200 0.82550 -0.04000
H 	H 	0.60680 0.20560 0.82400 0.02200
H 	H 	0.57490 0.21660 0.81410 0.02300
H 	H 	0.08890 0.62360 0.06400 0.02700
H 	H 	0.03560 0.65240 0.06040 0.02600
H 	H 	0.00460 0.72050 0.96700 0.02600
H 	H 	0.04000 0.73490 0.92060 0.02500
C 	C 	0.04480 0.66830 0.94430 -0.05300
H 	H 	0.02660 0.66110 0.93480 0.02800
H 	H 	0.05960 0.65250 0.94320 0.02600
N 	N 	0.08458 0.72615 0.85609 -0.13800
C 	C 	0.03840 0.67580 0.97700 -0.04500
H 	H 	0.05120 0.66390 0.98980 0.02500
H 	H 	0.01780 0.67090 0.98170 0.02300
C 	C 	0.13140 0.65530 0.89320 -0.04900
H 	H 	0.13900 0.67310 0.88340 0.02600
H 	H 	0.12650 0.66060 0.91370 0.02600
H 	H 	0.12100 0.65380 0.83660 0.02600
C 	C 	0.10990 0.73540 0.87280 -0.04800
H 	H 	0.10420 0.73860 0.89350 0.02400
H 	H 	0.12500 0.71990 0.87220 0.02400
C 	C 	0.06240 0.75050 0.85620 -0.05700
H 	H 	0.04490 0.74450 0.84490 0.02900
H 	H 	0.05620 0.75470 0.87660 0.02900
C 	C 	0.09260 0.72200 0.82550 -0.04000
H 	H 	0.10680 0.70560 0.82400 0.02200
H 	H 	0.07490 0.71660 0.81410 0.02300
H 	H 	0.08890 0.12360 0.56400 0.02700
H 	H 	0.03560 0.15240 0.56040 0.02600
H 	H 	0.00460 0.22050 0.46700 0.02600
H 	H 	0.04000 0.23490 0.42060 0.02500
C 	C 	0.04480 0.16830 0.44430 -0.05300
H 	H 	0.02660 0.16110 0.43480 0.02800
H 	H 	0.05960 0.15250 0.44320 0.02600
N 	N 	0.08458 0.22615 0.35609 -0.13800
C 	C 	0.03840 0.17580 0.47700 -0.04500
H 	H 	0.05120 0.16390 0.48980 0.02500
H 	H 	0.01780 0.17090 0.48170 0.02300
C 	C 	0.13140 0.15530 0.39320 -0.04900
H 	H 	0.13900 0.17310 0.38340 0.02600
H 	H 	0.12650 0.16060 0.41370 0.02600
H 	H 	0.12100 0.15380 0.33660 0.02600
C 	C 	0.10990 0.23540 0.37280 -0.04800
H 	H 	0.10420 0.23860 0.39350 0.02400
H 	H 	0.12500 0.21990 0.37220 0.02400
C 	C 	0.06240 0.25050 0.35620 -0.05700
H 	H 	0.04490 0.24450 0.34490 0.02900
H 	H 	0.05620 0.25470 0.37660 0.02900
C 	C 	0.09260 0.22200 0.32550 -0.04000
H 	H 	0.10680 0.20560 0.32400 0.02200
H 	H 	0.07490 0.21660 0.31410 0.02300
H 	H 	0.08890 0.62640 0.18600 0.02700
H 	H 	0.03560 0.59760 0.18960 0.02600
H 	H 	0.00460 0.52950 0.28300 0.02600
H 	H 	0.04000 0.51510 0.32940 0.02500
C 	C 	0.04480 0.58170 0.30570 -0.05300
H 	H 	0.02660 0.58890 0.31520 0.02800
H 	H 	0.05960 0.59750 0.30680 0.02600
N 	N 	0.08458 0.52385 0.39391 -0.13800
C 	C 	0.03840 0.57420 0.27300 -0.04500
H 	H 	0.05120 0.58610 0.26020 0.02500
H 	H 	0.01780 0.57910 0.26830 0.02300
C 	C 	0.13140 0.59470 0.35680 -0.04900
H 	H 	0.13900 0.57690 0.36660 0.02600
H 	H 	0.12650 0.58940 0.33630 0.02600
H 	H 	0.12100 0.59620 0.41340 0.02600
C 	C 	0.10990 0.51460 0.37720 -0.04800
H 	H 	0.10420 0.51140 0.35650 0.02400
H 	H 	0.12500 0.53010 0.37780 0.02400
C 	C 	0.06240 0.49950 0.39380 -0.05700
H 	H 	0.04490 0.50550 0.40510 0.02900
H 	H 	0.05620 0.49530 0.37340 0.02900
C 	C 	0.09260 0.52800 0.42450 -0.04000
H 	H 	0.10680 0.54440 0.42600 0.02200
H 	H 	0.07490 0.53340 0.43590 0.02300
H 	H 	0.08890 0.12640 0.68600 0.02700
H 	H 	0.03560 0.09760 0.68960 0.02600
H 	H 	0.00460 0.02950 0.78300 0.02600
H 	H 	0.04000 0.01510 0.82940 0.02500
C 	C 	0.04480 0.08170 0.80570 -0.05300
H 	H 	0.02660 0.08890 0.81520 0.02800
H 	H 	0.05960 0.09750 0.80680 0.02600
N 	N 	0.08458 0.02385 0.89391 -0.13800
C 	C 	0.03840 0.07420 0.77300 -0.04500
H 	H 	0.05120 0.08610 0.76020 0.02500
H 	H 	0.01780 0.07910 0.76830 0.02300
C 	C 	0.13140 0.09470 0.85680 -0.04900
H 	H 	0.13900 0.07690 0.86660 0.02600
H 	H 	0.12650 0.08940 0.83630 0.02600
H 	H 	0.12100 0.09620 0.91340 0.02600
C 	C 	0.10990 0.01460 0.87720 -0.04800
H 	H 	0.10420 0.01140 0.85650 0.02400
H 	H 	0.12500 0.03010 0.87780 0.02400
C 	C 	0.06240 0.99950 0.89380 -0.05700
H 	H 	0.04490 0.00550 0.90510 0.02900
H 	H 	0.05620 0.99530 0.87340 0.02900
C 	C 	0.09260 0.02800 0.92450 -0.04000
H 	H 	0.10680 0.04440 0.92600 0.02200
H 	H 	0.07490 0.03340 0.93590 0.02300
H 	H 	0.58890 0.62640 0.68600 0.02700
H 	H 	0.53560 0.59760 0.68960 0.02600
H 	H 	0.50460 0.52950 0.78300 0.02600
H 	H 	0.54000 0.51510 0.82940 0.02500
C 	C 	0.54480 0.58170 0.80570 -0.05300
H 	H 	0.52660 0.58890 0.81520 0.02800
H 	H 	0.55960 0.59750 0.80680 0.02600
N 	N 	0.58458 0.52385 0.89391 -0.13800
C 	C 	0.53840 0.57420 0.77300 -0.04500
H 	H 	0.55120 0.58610 0.76020 0.02500
H 	H 	0.51780 0.57910 0.76830 0.02300
C 	C 	0.63140 0.59470 0.85680 -0.04900
H 	H 	0.63900 0.57690 0.86660 0.02600
H 	H 	0.62650 0.58940 0.83630 0.02600
H 	H 	0.62100 0.59620 0.91340 0.02600
C 	C 	0.60990 0.51460 0.87720 -0.04800
H 	H 	0.60420 0.51140 0.85650 0.02400
H 	H 	0.62500 0.53010 0.87780 0.02400
C 	C 	0.56240 0.49950 0.89380 -0.05700
H 	H 	0.54490 0.50550 0.90510 0.02900
H 	H 	0.55620 0.49530 0.87340 0.02900
C 	C 	0.59260 0.52800 0.92450 -0.04000
H 	H 	0.60680 0.54440 0.92600 0.02200
H 	H 	0.57490 0.53340 0.93590 0.02300
H 	H 	0.58890 0.12640 0.18600 0.02700
H 	H 	0.53560 0.09760 0.18960 0.02600
H 	H 	0.50460 0.02950 0.28300 0.02600
H 	H 	0.54000 0.01510 0.32940 0.02500
C 	C 	0.54480 0.08170 0.30570 -0.05300
H 	H 	0.52660 0.08890 0.31520 0.02800
H 	H 	0.55960 0.09750 0.30680 0.02600
N 	N 	0.58458 0.02385 0.39391 -0.13800
C 	C 	0.53840 0.07420 0.27300 -0.04500
H 	H 	0.55120 0.08610 0.26020 0.02500
H 	H 	0.51780 0.07910 0.26830 0.02300
C 	C 	0.63140 0.09470 0.35680 -0.04900
H 	H 	0.63900 0.07690 0.36660 0.02600
H 	H 	0.62650 0.08940 0.33630 0.02600
H 	H 	0.62100 0.09620 0.41340 0.02600
C 	C 	0.60990 0.01460 0.37720 -0.04800
H 	H 	0.60420 0.01140 0.35650 0.02400
H 	H 	0.62500 0.03010 0.37780 0.02400
C 	C 	0.56240 0.99950 0.39380 -0.05700
H 	H 	0.54490 0.00550 0.40510 0.02900
H 	H 	0.55620 0.99530 0.37340 0.02900
C 	C 	0.59260 0.02800 0.42450 -0.04000
H 	H 	0.60680 0.04440 0.42600 0.02200
H 	H 	0.57490 0.03340 0.43590 0.02300
Ag	Ag	0.12500 0.62500 0.12500 0.52700
Ag	Ag	0.12500 0.12500 0.62500 0.52700
Ag	Ag	0.62500 0.62500 0.62500 0.52700
Ag	Ag	0.62500 0.12500 0.12500 0.52700
Ag	Ag	0.37500 0.37500 0.37500 0.52700
Ag	Ag	0.37500 0.87500 0.87500 0.52700
Ag	Ag	0.87500 0.37500 0.87500 0.52700
Ag	Ag	0.87500 0.87500 0.37500 0.52700
N 	N 	0.15480 0.59520 0.09520 -0.13600
Ag	Ag	0.21760 0.53240 0.03240 0.52500
N 	N 	0.18750 0.56250 0.06250 -0.13600
N 	N 	0.59520 0.65480 0.59520 -0.13600
Ag	Ag	0.53240 0.71760 0.53240 0.52500
N 	N 	0.56250 0.68750 0.56250 -0.13600
N 	N 	0.09520 0.09520 0.65480 -0.13600
Ag	Ag	0.03240 0.03240 0.71760 0.52500
N 	N 	0.06250 0.06250 0.68750 -0.13600
N 	N 	0.65480 0.15480 0.15480 -0.13600
Ag	Ag	0.71760 0.21760 0.21760 0.52500
N 	N 	0.68750 0.18750 0.18750 -0.13600
N 	N 	0.65480 0.65480 0.65480 -0.13600
Ag	Ag	0.71760 0.71760 0.71760 0.52500
N 	N 	0.68750 0.68750 0.68750 -0.13600
N 	N 	0.09520 0.15480 0.59520 -0.13600
Ag	Ag	0.03240 0.21760 0.53240 0.52500
N 	N 	0.06250 0.18750 0.56250 -0.13600
N 	N 	0.59520 0.59520 0.65480 -0.13600
Ag	Ag	0.53240 0.53240 0.71760 0.52500
N 	N 	0.56250 0.56250 0.68750 -0.13600
N 	N 	0.65480 0.09520 0.09520 -0.13600
Ag	Ag	0.71760 0.03240 0.03240 0.52500
N 	N 	0.68750 0.06250 0.06250 -0.13600
N 	N 	0.15480 0.65480 0.15480 -0.13600
Ag	Ag	0.21760 0.71760 0.21760 0.52500
N 	N 	0.18750 0.68750 0.18750 -0.13600
N 	N 	0.59520 0.09520 0.15480 -0.13600
Ag	Ag	0.53240 0.03240 0.21760 0.52500
N 	N 	0.56250 0.06250 0.18750 -0.13600
N 	N 	0.65480 0.59520 0.59520 -0.13600
Ag	Ag	0.71760 0.53240 0.53240 0.52500
N 	N 	0.68750 0.56250 0.56250 -0.13600
N 	N 	0.09520 0.65480 0.09520 -0.13600
Ag	Ag	0.03240 0.71760 0.03240 0.52500
N 	N 	0.06250 0.68750 0.06250 -0.13600
N 	N 	0.15480 0.15480 0.65480 -0.13600
Ag	Ag	0.21760 0.21760 0.71760 0.52500
N 	N 	0.18750 0.18750 0.68750 -0.13600
N 	N 	0.34520 0.40480 0.40480 -0.13600
Ag	Ag	0.28240 0.46760 0.46760 0.52500
N 	N 	0.31250 0.43750 0.43750 -0.13600
N 	N 	0.40480 0.84520 0.90480 -0.13600
Ag	Ag	0.46760 0.78240 0.96760 0.52500
N 	N 	0.43750 0.81250 0.93750 -0.13600
N 	N 	0.84520 0.34520 0.84520 -0.13600
Ag	Ag	0.78240 0.28240 0.78240 0.52500
N 	N 	0.81250 0.31250 0.81250 -0.13600
N 	N 	0.90480 0.90480 0.34520 -0.13600
Ag	Ag	0.96760 0.96760 0.28240 0.52500
N 	N 	0.93750 0.93750 0.31250 -0.13600
N 	N 	0.90480 0.34520 0.90480 -0.13600
Ag	Ag	0.96760 0.28240 0.96760 0.52500
N 	N 	0.93750 0.31250 0.93750 -0.13600
N 	N 	0.34520 0.84520 0.84520 -0.13600
Ag	Ag	0.28240 0.78240 0.78240 0.52500
N 	N 	0.31250 0.81250 0.81250 -0.13600
N 	N 	0.34520 0.34520 0.34520 -0.13600
Ag	Ag	0.28240 0.28240 0.28240 0.52500
N 	N 	0.31250 0.31250 0.31250 -0.13600
N 	N 	0.84520 0.90480 0.40480 -0.13600
Ag	Ag	0.78240 0.96760 0.46760 0.52500
N 	N 	0.81250 0.93750 0.43750 -0.13600
N 	N 	0.40480 0.40480 0.34520 -0.13600
Ag	Ag	0.46760 0.46760 0.28240 0.52500
N 	N 	0.43750 0.43750 0.31250 -0.13600
N 	N 	0.84520 0.84520 0.34520 -0.13600
Ag	Ag	0.78240 0.78240 0.28240 0.52500
N 	N 	0.81250 0.81250 0.31250 -0.13600
N 	N 	0.34520 0.90480 0.90480 -0.13600
Ag	Ag	0.28240 0.96760 0.96760 0.52500
N 	N 	0.31250 0.93750 0.93750 -0.13600
N 	N 	0.40480 0.34520 0.40480 -0.13600
Ag	Ag	0.46760 0.28240 0.46760 0.52500
N 	N 	0.43750 0.31250 0.43750 -0.13600
N 	N 	0.90480 0.40480 0.84520 -0.13600
Ag	Ag	0.96760 0.46760 0.78240 0.52500
N 	N 	0.93750 0.43750 0.81250 -0.13600
N 	N 	0.84520 0.40480 0.90480 -0.13600
Ag	Ag	0.78240 0.46760 0.96760 0.52500
N 	N 	0.81250 0.43750 0.93750 -0.13600
N 	N 	0.90480 0.84520 0.40480 -0.13600
Ag	Ag	0.96760 0.78240 0.46760 0.52500
N 	N 	0.93750 0.81250 0.43750 -0.13600
N 	N 	0.40480 0.90480 0.84520 -0.13600
Ag	Ag	0.46760 0.96760 0.78240 0.52500
N 	N 	0.43750 0.93750 0.81250 -0.13600
N 	N 	0.59520 0.15480 0.09520 -0.13600
Ag	Ag	0.53240 0.21760 0.03240 0.52500
N 	N 	0.56250 0.18750 0.06250 -0.13600
N 	N 	0.15480 0.09520 0.59520 -0.13600
Ag	Ag	0.21760 0.03240 0.53240 0.52500
N 	N 	0.18750 0.06250 0.56250 -0.13600
N 	N 	0.09520 0.59520 0.15480 -0.13600
Ag	Ag	0.03240 0.53240 0.21760 0.52500
N 	N 	0.06250 0.56250 0.18750 -0.13600
C 	C 	0.17350 0.61370 0.07650 -0.05300
C 	C 	0.19350 0.59340 0.05650 -0.04900
C 	C 	0.17350 0.11370 0.57650 -0.05300
C 	C 	0.19350 0.09340 0.55650 -0.04900
C 	C 	0.67350 0.11370 0.07650 -0.05300
C 	C 	0.69350 0.09340 0.05650 -0.04900
C 	C 	0.57650 0.63630 0.57650 -0.05300
C 	C 	0.55650 0.65660 0.55650 -0.04900
C 	C 	0.57650 0.13630 0.07650 -0.05300
C 	C 	0.55650 0.15660 0.05650 -0.04900
C 	C 	0.07650 0.63630 0.07650 -0.05300
C 	C 	0.05650 0.65660 0.05650 -0.04900
C 	C 	0.07650 0.13630 0.57650 -0.05300
C 	C 	0.05650 0.15660 0.55650 -0.04900
C 	C 	0.07650 0.11370 0.67350 -0.05300
C 	C 	0.05650 0.09340 0.69350 -0.04900
C 	C 	0.57650 0.11370 0.17350 -0.05300
C 	C 	0.55650 0.09340 0.19350 -0.04900
C 	C 	0.67350 0.13630 0.17350 -0.05300
C 	C 	0.69350 0.15660 0.19350 -0.04900
C 	C 	0.67350 0.63630 0.67350 -0.05300
C 	C 	0.69350 0.65660 0.69350 -0.04900
C 	C 	0.07650 0.17350 0.61370 -0.05300
C 	C 	0.05650 0.19350 0.59340 -0.04900
C 	C 	0.07650 0.67350 0.11370 -0.05300
C 	C 	0.05650 0.69350 0.09340 -0.04900
C 	C 	0.57650 0.17350 0.11370 -0.05300
C 	C 	0.55650 0.19350 0.09340 -0.04900
C 	C 	0.57650 0.57650 0.63630 -0.05300
C 	C 	0.55650 0.55650 0.65660 -0.04900
C 	C 	0.57650 0.07650 0.13630 -0.05300
C 	C 	0.55650 0.05650 0.15660 -0.04900
C 	C 	0.07650 0.57650 0.13630 -0.05300
C 	C 	0.05650 0.55650 0.15660 -0.04900
C 	C 	0.07650 0.07650 0.63630 -0.05300
C 	C 	0.05650 0.05650 0.65660 -0.04900
C 	C 	0.67350 0.07650 0.11370 -0.05300
C 	C 	0.69350 0.05650 0.09340 -0.04900
C 	C 	0.67350 0.57650 0.61370 -0.05300
C 	C 	0.69350 0.55650 0.59340 -0.04900
C 	C 	0.17350 0.67350 0.13630 -0.05300
C 	C 	0.19350 0.69350 0.15660 -0.04900
C 	C 	0.17350 0.17350 0.63630 -0.05300
C 	C 	0.19350 0.19350 0.65660 -0.04900
C 	C 	0.67350 0.67350 0.63630 -0.05300
C 	C 	0.69350 0.69350 0.65660 -0.04900
C 	C 	0.61370 0.07650 0.17350 -0.05300
C 	C 	0.59340 0.05650 0.19350 -0.04900
C 	C 	0.61370 0.57650 0.67350 -0.05300
C 	C 	0.59340 0.55650 0.69350 -0.04900
C 	C 	0.11370 0.07650 0.67350 -0.05300
C 	C 	0.09340 0.05650 0.69350 -0.04900
C 	C 	0.63630 0.57650 0.57650 -0.05300
C 	C 	0.65660 0.55650 0.55650 -0.04900
C 	C 	0.63630 0.07650 0.07650 -0.05300
C 	C 	0.65660 0.05650 0.05650 -0.04900
C 	C 	0.13630 0.57650 0.07650 -0.05300
C 	C 	0.15660 0.55650 0.05650 -0.04900
C 	C 	0.13630 0.07650 0.57650 -0.05300
C 	C 	0.15660 0.05650 0.55650 -0.04900
C 	C 	0.11370 0.67350 0.07650 -0.05300
C 	C 	0.09340 0.69350 0.05650 -0.04900
C 	C 	0.11370 0.17350 0.57650 -0.05300
C 	C 	0.09340 0.19350 0.55650 -0.04900
C 	C 	0.13630 0.17350 0.67350 -0.05300
C 	C 	0.15660 0.19350 0.69350 -0.04900
C 	C 	0.63630 0.17350 0.17350 -0.05300
C 	C 	0.65660 0.19350 0.19350 -0.04900
C 	C 	0.63630 0.67350 0.67350 -0.05300
C 	C 	0.65660 0.69350 0.69350 -0.04900
C 	C 	0.36370 0.42350 0.42350 -0.05300
C 	C 	0.34340 0.44350 0.44350 -0.04900
C 	C 	0.36370 0.92350 0.92350 -0.05300
C 	C 	0.34340 0.94350 0.94350 -0.04900
C 	C 	0.86370 0.42350 0.92350 -0.05300
C 	C 	0.84340 0.44350 0.94350 -0.04900
C 	C 	0.86370 0.92350 0.42350 -0.05300
C 	C 	0.84340 0.94350 0.44350 -0.04900
C 	C 	0.38630 0.82650 0.92350 -0.05300
C 	C 	0.40660 0.80650 0.94350 -0.04900
C 	C 	0.38630 0.32650 0.42350 -0.05300
C 	C 	0.40660 0.30650 0.44350 -0.04900
C 	C 	0.86370 0.32650 0.82650 -0.05300
C 	C 	0.84340 0.30650 0.80650 -0.04900
C 	C 	0.36370 0.32650 0.32650 -0.05300
C 	C 	0.34340 0.30650 0.30650 -0.04900
C 	C 	0.36370 0.82650 0.82650 -0.05300
C 	C 	0.34340 0.80650 0.80650 -0.04900
C 	C 	0.88630 0.92350 0.32650 -0.05300
C 	C 	0.90660 0.94350 0.30650 -0.04900
C 	C 	0.88630 0.42350 0.82650 -0.05300
C 	C 	0.90660 0.44350 0.80650 -0.04900
C 	C 	0.92350 0.32650 0.88630 -0.05300
C 	C 	0.94350 0.30650 0.90660 -0.04900
C 	C 	0.42350 0.32650 0.38630 -0.05300
C 	C 	0.44350 0.30650 0.40660 -0.04900
C 	C 	0.32650 0.82650 0.86370 -0.05300
C 	C 	0.30650 0.80650 0.84340 -0.04900
C 	C 	0.32650 0.32650 0.36370 -0.05300
C 	C 	0.30650 0.30650 0.34340 -0.04900
C 	C 	0.82650 0.82650 0.36370 -0.05300
C 	C 	0.80650 0.80650 0.34340 -0.04900
C 	C 	0.82650 0.92350 0.38630 -0.05300
C 	C 	0.80650 0.94350 0.40660 -0.04900
C 	C 	0.82650 0.42350 0.88630 -0.05300
C 	C 	0.80650 0.44350 0.90660 -0.04900
C 	C 	0.42350 0.42350 0.36370 -0.05300
C 	C 	0.44350 0.44350 0.34340 -0.04900
C 	C 	0.42350 0.92350 0.86370 -0.05300
C 	C 	0.44350 0.94350 0.84340 -0.04900
C 	C 	0.92350 0.42350 0.86370 -0.05300
C 	C 	0.94350 0.44350 0.84340 -0.04900
C 	C 	0.92350 0.92350 0.36370 -0.05300
C 	C 	0.94350 0.94350 0.34340 -0.04900
C 	C 	0.82650 0.86370 0.32650 -0.05300
C 	C 	0.80650 0.84340 0.30650 -0.04900
C 	C 	0.82650 0.36370 0.82650 -0.05300
C 	C 	0.80650 0.34340 0.80650 -0.04900
C 	C 	0.32650 0.88630 0.92350 -0.05300
C 	C 	0.30650 0.90660 0.94350 -0.04900
C 	C 	0.32650 0.38630 0.42350 -0.05300
C 	C 	0.30650 0.40660 0.44350 -0.04900
C 	C 	0.42350 0.36370 0.42350 -0.05300
C 	C 	0.44350 0.34340 0.44350 -0.04900
C 	C 	0.42350 0.86370 0.92350 -0.05300
C 	C 	0.44350 0.84340 0.94350 -0.04900
C 	C 	0.92350 0.36370 0.92350 -0.05300
C 	C 	0.94350 0.34340 0.94350 -0.04900
C 	C 	0.92350 0.86370 0.42350 -0.05300
C 	C 	0.94350 0.84340 0.44350 -0.04900
C 	C 	0.92350 0.38630 0.82650 -0.05300
C 	C 	0.94350 0.40660 0.80650 -0.04900
C 	C 	0.42350 0.38630 0.32650 -0.05300
C 	C 	0.44350 0.40660 0.30650 -0.04900
C 	C 	0.82650 0.38630 0.92350 -0.05300
C 	C 	0.80650 0.40660 0.94350 -0.04900
C 	C 	0.82650 0.88630 0.42350 -0.05300
C 	C 	0.80650 0.90660 0.44350 -0.04900
C 	C 	0.92350 0.88630 0.32650 -0.05300
C 	C 	0.94350 0.90660 0.30650 -0.04900
C 	C 	0.42350 0.88630 0.82650 -0.05300
C 	C 	0.44350 0.90660 0.80650 -0.04900
C 	C 	0.32650 0.86370 0.82650 -0.05300
C 	C 	0.30650 0.84340 0.80650 -0.04900
C 	C 	0.32650 0.36370 0.32650 -0.05300
C 	C 	0.30650 0.34340 0.30650 -0.04900
C 	C 	0.92350 0.82650 0.38630 -0.05300
C 	C 	0.94350 0.80650 0.40660 -0.04900
C 	C 	0.42350 0.82650 0.88630 -0.05300
C 	C 	0.44350 0.80650 0.90660 -0.04900
C 	C 	0.32650 0.92350 0.88630 -0.05300
C 	C 	0.30650 0.94350 0.90660 -0.04900
C 	C 	0.32650 0.42350 0.38630 -0.05300
C 	C 	0.30650 0.44350 0.40660 -0.04900
C 	C 	0.82650 0.32650 0.86370 -0.05300
C 	C 	0.80650 0.30650 0.84340 -0.04900
C 	C 	0.38630 0.92350 0.82650 -0.05300
C 	C 	0.40660 0.94350 0.80650 -0.04900
C 	C 	0.38630 0.42350 0.32650 -0.05300
C 	C 	0.40660 0.44350 0.30650 -0.04900
C 	C 	0.88630 0.32650 0.92350 -0.05300
C 	C 	0.90660 0.30650 0.94350 -0.04900
C 	C 	0.88630 0.82650 0.42350 -0.05300
C 	C 	0.90660 0.80650 0.44350 -0.04900
C 	C 	0.86370 0.82650 0.32650 -0.05300
C 	C 	0.84340 0.80650 0.30650 -0.04900
C 	C 	0.61370 0.17350 0.07650 -0.05300
C 	C 	0.59340 0.19350 0.05650 -0.04900
C 	C 	0.61370 0.67350 0.57650 -0.05300
C 	C 	0.59340 0.69350 0.55650 -0.04900
C 	C 	0.13630 0.67350 0.17350 -0.05300
C 	C 	0.15660 0.69350 0.19350 -0.04900
C 	C 	0.11370 0.57650 0.17350 -0.05300
C 	C 	0.09340 0.55650 0.19350 -0.04900
C 	C 	0.57650 0.67350 0.61370 -0.05300
C 	C 	0.55650 0.69350 0.59340 -0.04900
C 	C 	0.67350 0.17350 0.13630 -0.05300
C 	C 	0.69350 0.19350 0.15660 -0.04900
C 	C 	0.17350 0.07650 0.61370 -0.05300
C 	C 	0.19350 0.05650 0.59340 -0.04900
C 	C 	0.17350 0.57650 0.11370 -0.05300
C 	C 	0.19350 0.55650 0.09340 -0.04900
C 	C 	0.17350 0.13630 0.67350 -0.05300
C 	C 	0.19350 0.15660 0.69350 -0.04900
C 	C 	0.17350 0.63630 0.17350 -0.05300
C 	C 	0.19350 0.65660 0.19350 -0.04900
C 	C 	0.67350 0.61370 0.57650 -0.05300
C 	C 	0.69350 0.59340 0.55650 -0.04900
C 	C 	0.07650 0.61370 0.17350 -0.05300
C 	C 	0.05650 0.59340 0.19350 -0.04900
C 	C 	0.57650 0.61370 0.67350 -0.05300
C 	C 	0.55650 0.59340 0.69350 -0.04900
Ag	Ag	0.37134 0.56760 0.06760 0.52400
N 	N 	0.26720 0.54341 0.04341 -0.13800
C 	C 	0.28680 0.52560 0.02560 -0.05100
N 	N 	0.32140 0.55554 0.05554 -0.13600
C 	C 	0.31930 0.53310 0.03310 -0.04400
N 	N 	0.37210 0.60474 0.10474 -0.13700
C 	C 	0.40270 0.61360 0.11360 -0.05000
Ag	Ag	0.87134 0.56760 0.56760 0.52400
N 	N 	0.76720 0.54341 0.54341 -0.13800
C 	C 	0.78680 0.52560 0.52560 -0.05100
N 	N 	0.82140 0.55554 0.55554 -0.13600
C 	C 	0.81930 0.53310 0.53310 -0.04400
N 	N 	0.87210 0.60474 0.60474 -0.13700
C 	C 	0.90270 0.61360 0.61360 -0.05000
Ag	Ag	0.37866 0.68240 0.56760 0.52400
N 	N 	0.48280 0.70659 0.54341 -0.13800
C 	C 	0.46320 0.72440 0.52560 -0.05100
N 	N 	0.42860 0.69446 0.55554 -0.13600
C 	C 	0.43070 0.71690 0.53310 -0.04400
N 	N 	0.37790 0.64526 0.60474 -0.13700
C 	C 	0.34730 0.63640 0.61360 -0.05000
Ag	Ag	0.37866 0.18240 0.06760 0.52400
N 	N 	0.48280 0.20659 0.04341 -0.13800
C 	C 	0.46320 0.22440 0.02560 -0.05100
N 	N 	0.42860 0.19446 0.05554 -0.13600
C 	C 	0.43070 0.21690 0.03310 -0.04400
N 	N 	0.37790 0.14526 0.10474 -0.13700
C 	C 	0.34730 0.13640 0.11360 -0.05000
Ag	Ag	0.87866 0.06760 0.68240 0.52400
N 	N 	0.98280 0.04341 0.70659 -0.13800
C 	C 	0.96320 0.02560 0.72440 -0.05100
N 	N 	0.92860 0.05554 0.69446 -0.13600
C 	C 	0.93070 0.03310 0.71690 -0.04400
N 	N 	0.87790 0.10474 0.64526 -0.13700
C 	C 	0.84730 0.11360 0.63640 -0.05000
Ag	Ag	0.87866 0.56760 0.18240 0.52400
N 	N 	0.98280 0.54341 0.20659 -0.13800
C 	C 	0.96320 0.52560 0.22440 -0.05100
N 	N 	0.92860 0.55554 0.19446 -0.13600
C 	C 	0.93070 0.53310 0.21690 -0.04400
N 	N 	0.87790 0.60474 0.14526 -0.13700
C 	C 	0.84730 0.61360 0.13640 -0.05000
Ag	Ag	0.87134 0.18240 0.18240 0.52400
N 	N 	0.76720 0.20659 0.20659 -0.13800
C 	C 	0.78680 0.22440 0.22440 -0.05100
N 	N 	0.82140 0.19446 0.19446 -0.13600
C 	C 	0.81930 0.21690 0.21690 -0.04400
N 	N 	0.87210 0.14526 0.14526 -0.13700
C 	C 	0.90270 0.13640 0.13640 -0.05000
Ag	Ag	0.87134 0.68240 0.68240 0.52400
N 	N 	0.76720 0.70659 0.70659 -0.13800
C 	C 	0.78680 0.72440 0.72440 -0.05100
N 	N 	0.82140 0.69446 0.69446 -0.13600
C 	C 	0.81930 0.71690 0.71690 -0.04400
N 	N 	0.87210 0.64526 0.64526 -0.13700
C 	C 	0.90270 0.63640 0.63640 -0.05000
Ag	Ag	0.37134 0.18240 0.68240 0.52400
N 	N 	0.26720 0.20659 0.70659 -0.13800
C 	C 	0.28680 0.22440 0.72440 -0.05100
N 	N 	0.32140 0.19446 0.69446 -0.13600
C 	C 	0.31930 0.21690 0.71690 -0.04400
N 	N 	0.37210 0.14526 0.64526 -0.13700
C 	C 	0.40270 0.13640 0.63640 -0.05000
Ag	Ag	0.37134 0.68240 0.18240 0.52400
N 	N 	0.26720 0.70659 0.20659 -0.13800
C 	C 	0.28680 0.72440 0.22440 -0.05100
N 	N 	0.32140 0.69446 0.19446 -0.13600
C 	C 	0.31930 0.71690 0.21690 -0.04400
N 	N 	0.37210 0.64526 0.14526 -0.13700
C 	C 	0.40270 0.63640 0.13640 -0.05000
Ag	Ag	0.06760 0.37134 0.56760 0.52400
N 	N 	0.04341 0.26720 0.54341 -0.13800
C 	C 	0.02560 0.28680 0.52560 -0.05100
N 	N 	0.05554 0.32140 0.55554 -0.13600
C 	C 	0.03310 0.31930 0.53310 -0.04400
N 	N 	0.10474 0.37210 0.60474 -0.13700
C 	C 	0.11360 0.40270 0.61360 -0.05000
Ag	Ag	0.06760 0.87134 0.06760 0.52400
N 	N 	0.04341 0.76720 0.04341 -0.13800
C 	C 	0.02560 0.78680 0.02560 -0.05100
N 	N 	0.05554 0.82140 0.05554 -0.13600
C 	C 	0.03310 0.81930 0.03310 -0.04400
N 	N 	0.10474 0.87210 0.10474 -0.13700
C 	C 	0.11360 0.90270 0.11360 -0.05000
Ag	Ag	0.56760 0.87134 0.56760 0.52400
N 	N 	0.54341 0.76720 0.54341 -0.13800
C 	C 	0.52560 0.78680 0.52560 -0.05100
N 	N 	0.55554 0.82140 0.55554 -0.13600
C 	C 	0.53310 0.81930 0.53310 -0.04400
N 	N 	0.60474 0.87210 0.60474 -0.13700
C 	C 	0.61360 0.90270 0.61360 -0.05000
Ag	Ag	0.56760 0.37866 0.68240 0.52400
N 	N 	0.54341 0.48280 0.70659 -0.13800
C 	C 	0.52560 0.46320 0.72440 -0.05100
N 	N 	0.55554 0.42860 0.69446 -0.13600
C 	C 	0.53310 0.43070 0.71690 -0.04400
N 	N 	0.60474 0.37790 0.64526 -0.13700
C 	C 	0.61360 0.34730 0.63640 -0.05000
Ag	Ag	0.56760 0.87866 0.18240 0.52400
N 	N 	0.54341 0.98280 0.20659 -0.13800
C 	C 	0.52560 0.96320 0.22440 -0.05100
N 	N 	0.55554 0.92860 0.19446 -0.13600
C 	C 	0.53310 0.93070 0.21690 -0.04400
N 	N 	0.60474 0.87790 0.14526 -0.13700
C 	C 	0.61360 0.84730 0.13640 -0.05000
Ag	Ag	0.68240 0.87866 0.06760 0.52400
N 	N 	0.70659 0.98280 0.04341 -0.13800
C 	C 	0.72440 0.96320 0.02560 -0.05100
N 	N 	0.69446 0.92860 0.05554 -0.13600
C 	C 	0.71690 0.93070 0.03310 -0.04400
N 	N 	0.64526 0.87790 0.10474 -0.13700
C 	C 	0.63640 0.84730 0.11360 -0.05000
Ag	Ag	0.18240 0.87866 0.56760 0.52400
N 	N 	0.20659 0.98280 0.54341 -0.13800
C 	C 	0.22440 0.96320 0.52560 -0.05100
N 	N 	0.19446 0.92860 0.55554 -0.13600
C 	C 	0.21690 0.93070 0.53310 -0.04400
N 	N 	0.14526 0.87790 0.60474 -0.13700
C 	C 	0.13640 0.84730 0.61360 -0.05000
Ag	Ag	0.18240 0.87134 0.18240 0.52400
N 	N 	0.20659 0.76720 0.20659 -0.13800
C 	C 	0.22440 0.78680 0.22440 -0.05100
N 	N 	0.19446 0.82140 0.19446 -0.13600
C 	C 	0.21690 0.81930 0.21690 -0.04400
N 	N 	0.14526 0.87210 0.14526 -0.13700
C 	C 	0.13640 0.90270 0.13640 -0.05000
Ag	Ag	0.18240 0.37134 0.68240 0.52400
N 	N 	0.20659 0.26720 0.70659 -0.13800
C 	C 	0.22440 0.28680 0.72440 -0.05100
N 	N 	0.19446 0.32140 0.69446 -0.13600
C 	C 	0.21690 0.31930 0.71690 -0.04400
N 	N 	0.14526 0.37210 0.64526 -0.13700
C 	C 	0.13640 0.40270 0.63640 -0.05000
Ag	Ag	0.68240 0.87134 0.68240 0.52400
N 	N 	0.70659 0.76720 0.70659 -0.13800
C 	C 	0.72440 0.78680 0.72440 -0.05100
N 	N 	0.69446 0.82140 0.69446 -0.13600
C 	C 	0.71690 0.81930 0.71690 -0.04400
N 	N 	0.64526 0.87210 0.64526 -0.13700
C 	C 	0.63640 0.90270 0.63640 -0.05000
Ag	Ag	0.68240 0.37134 0.18240 0.52400
N 	N 	0.70659 0.26720 0.20659 -0.13800
C 	C 	0.72440 0.28680 0.22440 -0.05100
N 	N 	0.69446 0.32140 0.19446 -0.13600
C 	C 	0.71690 0.31930 0.21690 -0.04400
N 	N 	0.64526 0.37210 0.14526 -0.13700
C 	C 	0.63640 0.40270 0.13640 -0.05000
Ag	Ag	0.56760 0.06760 0.37134 0.52400
N 	N 	0.54341 0.04341 0.26720 -0.13800
C 	C 	0.52560 0.02560 0.28680 -0.05100
N 	N 	0.55554 0.05554 0.32140 -0.13600
C 	C 	0.53310 0.03310 0.31930 -0.04400
N 	N 	0.60474 0.10474 0.37210 -0.13700
C 	C 	0.61360 0.11360 0.40270 -0.05000
Ag	Ag	0.56760 0.56760 0.87134 0.52400
N 	N 	0.54341 0.54341 0.76720 -0.13800
C 	C 	0.52560 0.52560 0.78680 -0.05100
N 	N 	0.55554 0.55554 0.82140 -0.13600
C 	C 	0.53310 0.53310 0.81930 -0.04400
N 	N 	0.60474 0.60474 0.87210 -0.13700
C 	C 	0.61360 0.61360 0.90270 -0.05000
Ag	Ag	0.68240 0.56760 0.37866 0.52400
N 	N 	0.70659 0.54341 0.48280 -0.13800
C 	C 	0.72440 0.52560 0.46320 -0.05100
N 	N 	0.69446 0.55554 0.42860 -0.13600
C 	C 	0.71690 0.53310 0.43070 -0.04400
N 	N 	0.64526 0.60474 0.37790 -0.13700
C 	C 	0.63640 0.61360 0.34730 -0.05000
Ag	Ag	0.18240 0.56760 0.87866 0.52400
N 	N 	0.20659 0.54341 0.98280 -0.13800
C 	C 	0.22440 0.52560 0.96320 -0.05100
N 	N 	0.19446 0.55554 0.92860 -0.13600
C 	C 	0.21690 0.53310 0.93070 -0.04400
N 	N 	0.14526 0.60474 0.87790 -0.13700
C 	C 	0.13640 0.61360 0.84730 -0.05000
Ag	Ag	0.06760 0.68240 0.87866 0.52400
N 	N 	0.04341 0.70659 0.98280 -0.13800
C 	C 	0.02560 0.72440 0.96320 -0.05100
N 	N 	0.05554 0.69446 0.92860 -0.13600
C 	C 	0.03310 0.71690 0.93070 -0.04400
N 	N 	0.10474 0.64526 0.87790 -0.13700
C 	C 	0.11360 0.63640 0.84730 -0.05000
Ag	Ag	0.06760 0.18240 0.37866 0.52400
N 	N 	0.04341 0.20659 0.48280 -0.13800
C 	C 	0.02560 0.22440 0.46320 -0.05100
N 	N 	0.05554 0.19446 0.42860 -0.13600
C 	C 	0.03310 0.21690 0.43070 -0.04400
N 	N 	0.10474 0.14526 0.37790 -0.13700
C 	C 	0.11360 0.13640 0.34730 -0.05000
Ag	Ag	0.18240 0.18240 0.87134 0.52400
N 	N 	0.20659 0.20659 0.76720 -0.13800
C 	C 	0.22440 0.22440 0.78680 -0.05100
N 	N 	0.19446 0.19446 0.82140 -0.13600
C 	C 	0.21690 0.21690 0.81930 -0.04400
N 	N 	0.14526 0.14526 0.87210 -0.13700
C 	C 	0.13640 0.13640 0.90270 -0.05000
Ag	Ag	0.18240 0.68240 0.37134 0.52400
N 	N 	0.20659 0.70659 0.26720 -0.13800
C 	C 	0.22440 0.72440 0.28680 -0.05100
N 	N 	0.19446 0.69446 0.32140 -0.13600
C 	C 	0.21690 0.71690 0.31930 -0.04400
N 	N 	0.14526 0.64526 0.37210 -0.13700
C 	C 	0.13640 0.63640 0.40270 -0.05000
Ag	Ag	0.68240 0.18240 0.37134 0.52400
N 	N 	0.70659 0.20659 0.26720 -0.13800
C 	C 	0.72440 0.22440 0.28680 -0.05100
N 	N 	0.69446 0.19446 0.32140 -0.13600
C 	C 	0.71690 0.21690 0.31930 -0.04400
N 	N 	0.64526 0.14526 0.37210 -0.13700
C 	C 	0.63640 0.13640 0.40270 -0.05000
Ag	Ag	0.68240 0.68240 0.87134 0.52400
N 	N 	0.70659 0.70659 0.76720 -0.13800
C 	C 	0.72440 0.72440 0.78680 -0.05100
N 	N 	0.69446 0.69446 0.82140 -0.13600
C 	C 	0.71690 0.71690 0.81930 -0.04400
N 	N 	0.64526 0.64526 0.87210 -0.13700
C 	C 	0.63640 0.63640 0.90270 -0.05000
Ag	Ag	0.31760 0.62134 0.43240 0.52400
N 	N 	0.29341 0.51720 0.45659 -0.13800
C 	C 	0.27560 0.53680 0.47440 -0.05100
N 	N 	0.30554 0.57140 0.44446 -0.13600
C 	C 	0.28310 0.56930 0.46690 -0.04400
N 	N 	0.35474 0.62210 0.39526 -0.13700
C 	C 	0.36360 0.65270 0.38640 -0.05000
Ag	Ag	0.81760 0.62134 0.93240 0.52400
N 	N 	0.79341 0.51720 0.95659 -0.13800
C 	C 	0.77560 0.53680 0.97440 -0.05100
N 	N 	0.80554 0.57140 0.94446 -0.13600
C 	C 	0.78310 0.56930 0.96690 -0.04400
N 	N 	0.85474 0.62210 0.89526 -0.13700
C 	C 	0.86360 0.65270 0.88640 -0.05000
Ag	Ag	0.43240 0.62866 0.93240 0.52400
N 	N 	0.45659 0.73280 0.95659 -0.13800
C 	C 	0.47440 0.71320 0.97440 -0.05100
N 	N 	0.44446 0.67860 0.94446 -0.13600
C 	C 	0.46690 0.68070 0.96690 -0.04400
N 	N 	0.39526 0.62790 0.89526 -0.13700
C 	C 	0.38640 0.59730 0.88640 -0.05000
Ag	Ag	0.43240 0.12866 0.43240 0.52400
N 	N 	0.45659 0.23280 0.45659 -0.13800
C 	C 	0.47440 0.21320 0.47440 -0.05100
N 	N 	0.44446 0.17860 0.44446 -0.13600
C 	C 	0.46690 0.18070 0.46690 -0.04400
N 	N 	0.39526 0.12790 0.39526 -0.13700
C 	C 	0.38640 0.09730 0.38640 -0.05000
Ag	Ag	0.93240 0.12866 0.93240 0.52400
N 	N 	0.95659 0.23280 0.95659 -0.13800
C 	C 	0.97440 0.21320 0.97440 -0.05100
N 	N 	0.94446 0.17860 0.94446 -0.13600
C 	C 	0.96690 0.18070 0.96690 -0.04400
N 	N 	0.89526 0.12790 0.89526 -0.13700
C 	C 	0.88640 0.09730 0.88640 -0.05000
Ag	Ag	0.81760 0.12866 0.81760 0.52400
N 	N 	0.79341 0.23280 0.79341 -0.13800
C 	C 	0.77560 0.21320 0.77560 -0.05100
N 	N 	0.80554 0.17860 0.80554 -0.13600
C 	C 	0.78310 0.18070 0.78310 -0.04400
N 	N 	0.85474 0.12790 0.85474 -0.13700
C 	C 	0.86360 0.09730 0.86360 -0.05000
Ag	Ag	0.81760 0.62866 0.31760 0.52400
N 	N 	0.79341 0.73280 0.29341 -0.13800
C 	C 	0.77560 0.71320 0.27560 -0.05100
N 	N 	0.80554 0.67860 0.30554 -0.13600
C 	C 	0.78310 0.68070 0.28310 -0.04400
N 	N 	0.85474 0.62790 0.35474 -0.13700
C 	C 	0.86360 0.59730 0.36360 -0.05000
Ag	Ag	0.31760 0.12866 0.31760 0.52400
N 	N 	0.29341 0.23280 0.29341 -0.13800
C 	C 	0.27560 0.21320 0.27560 -0.05100
N 	N 	0.30554 0.17860 0.30554 -0.13600
C 	C 	0.28310 0.18070 0.28310 -0.04400
N 	N 	0.35474 0.12790 0.35474 -0.13700
C 	C 	0.36360 0.09730 0.36360 -0.05000
Ag	Ag	0.31760 0.62866 0.81760 0.52400
N 	N 	0.29341 0.73280 0.79341 -0.13800
C 	C 	0.27560 0.71320 0.77560 -0.05100
N 	N 	0.30554 0.67860 0.80554 -0.13600
C 	C 	0.28310 0.68070 0.78310 -0.04400
N 	N 	0.35474 0.62790 0.85474 -0.13700
C 	C 	0.36360 0.59730 0.86360 -0.05000
Ag	Ag	0.93240 0.12134 0.31760 0.52400
N 	N 	0.95659 0.01720 0.29341 -0.13800
C 	C 	0.97440 0.03680 0.27560 -0.05100
N 	N 	0.94446 0.07140 0.30554 -0.13600
C 	C 	0.96690 0.06930 0.28310 -0.04400
N 	N 	0.89526 0.12210 0.35474 -0.13700
C 	C 	0.88640 0.15270 0.36360 -0.05000
Ag	Ag	0.93240 0.62134 0.81760 0.52400
N 	N 	0.95659 0.51720 0.79341 -0.13800
C 	C 	0.97440 0.53680 0.77560 -0.05100
N 	N 	0.94446 0.57140 0.80554 -0.13600
C 	C 	0.96690 0.56930 0.78310 -0.04400
N 	N 	0.89526 0.62210 0.85474 -0.13700
C 	C 	0.88640 0.65270 0.86360 -0.05000
Ag	Ag	0.12134 0.31760 0.93240 0.52400
N 	N 	0.01720 0.29341 0.95659 -0.13800
C 	C 	0.03680 0.27560 0.97440 -0.05100
N 	N 	0.07140 0.30554 0.94446 -0.13600
C 	C 	0.06930 0.28310 0.96690 -0.04400
N 	N 	0.12210 0.35474 0.89526 -0.13700
C 	C 	0.15270 0.36360 0.88640 -0.05000
Ag	Ag	0.12134 0.81760 0.43240 0.52400
N 	N 	0.01720 0.79341 0.45659 -0.13800
C 	C 	0.03680 0.77560 0.47440 -0.05100
N 	N 	0.07140 0.80554 0.44446 -0.13600
C 	C 	0.06930 0.78310 0.46690 -0.04400
N 	N 	0.12210 0.85474 0.39526 -0.13700
C 	C 	0.15270 0.86360 0.38640 -0.05000
Ag	Ag	0.12866 0.81760 0.81760 0.52400
N 	N 	0.23280 0.79341 0.79341 -0.13800
C 	C 	0.21320 0.77560 0.77560 -0.05100
N 	N 	0.17860 0.80554 0.80554 -0.13600
C 	C 	0.18070 0.78310 0.78310 -0.04400
N 	N 	0.12790 0.85474 0.85474 -0.13700
C 	C 	0.09730 0.86360 0.86360 -0.05000
Ag	Ag	0.12866 0.31760 0.31760 0.52400
N 	N 	0.23280 0.29341 0.29341 -0.13800
C 	C 	0.21320 0.27560 0.27560 -0.05100
N 	N 	0.17860 0.30554 0.30554 -0.13600
C 	C 	0.18070 0.28310 0.28310 -0.04400
N 	N 	0.12790 0.35474 0.35474 -0.13700
C 	C 	0.09730 0.36360 0.36360 -0.05000
Ag	Ag	0.62866 0.81760 0.31760 0.52400
N 	N 	0.73280 0.79341 0.29341 -0.13800
C 	C 	0.71320 0.77560 0.27560 -0.05100
N 	N 	0.67860 0.80554 0.30554 -0.13600
C 	C 	0.68070 0.78310 0.28310 -0.04400
N 	N 	0.62790 0.85474 0.35474 -0.13700
C 	C 	0.59730 0.86360 0.36360 -0.05000
Ag	Ag	0.62866 0.31760 0.81760 0.52400
N 	N 	0.73280 0.29341 0.79341 -0.13800
C 	C 	0.71320 0.27560 0.77560 -0.05100
N 	N 	0.67860 0.30554 0.80554 -0.13600
C 	C 	0.68070 0.28310 0.78310 -0.04400
N 	N 	0.62790 0.35474 0.85474 -0.13700
C 	C 	0.59730 0.36360 0.86360 -0.05000
Ag	Ag	0.62866 0.93240 0.43240 0.52400
N 	N 	0.73280 0.95659 0.45659 -0.13800
C 	C 	0.71320 0.97440 0.47440 -0.05100
N 	N 	0.67860 0.94446 0.44446 -0.13600
C 	C 	0.68070 0.96690 0.46690 -0.04400
N 	N 	0.62790 0.89526 0.39526 -0.13700
C 	C 	0.59730 0.88640 0.38640 -0.05000
Ag	Ag	0.12866 0.93240 0.93240 0.52400
N 	N 	0.23280 0.95659 0.95659 -0.13800
C 	C 	0.21320 0.97440 0.97440 -0.05100
N 	N 	0.17860 0.94446 0.94446 -0.13600
C 	C 	0.18070 0.96690 0.96690 -0.04400
N 	N 	0.12790 0.89526 0.89526 -0.13700
C 	C 	0.09730 0.88640 0.88640 -0.05000
Ag	Ag	0.62134 0.43240 0.31760 0.52400
N 	N 	0.51720 0.45659 0.29341 -0.13800
C 	C 	0.53680 0.47440 0.27560 -0.05100
N 	N 	0.57140 0.44446 0.30554 -0.13600
C 	C 	0.56930 0.46690 0.28310 -0.04400
N 	N 	0.62210 0.39526 0.35474 -0.13700
C 	C 	0.65270 0.38640 0.36360 -0.05000
Ag	Ag	0.62134 0.93240 0.81760 0.52400
N 	N 	0.51720 0.95659 0.79341 -0.13800
C 	C 	0.53680 0.97440 0.77560 -0.05100
N 	N 	0.57140 0.94446 0.80554 -0.13600
C 	C 	0.56930 0.96690 0.78310 -0.04400
N 	N 	0.62210 0.89526 0.85474 -0.13700
C 	C 	0.65270 0.88640 0.86360 -0.05000
Ag	Ag	0.81760 0.81760 0.12866 0.52400
N 	N 	0.79341 0.79341 0.23280 -0.13800
C 	C 	0.77560 0.77560 0.21320 -0.05100
N 	N 	0.80554 0.80554 0.17860 -0.13600
C 	C 	0.78310 0.78310 0.18070 -0.04400
N 	N 	0.85474 0.85474 0.12790 -0.13700
C 	C 	0.86360 0.86360 0.09730 -0.05000
Ag	Ag	0.81760 0.31760 0.62866 0.52400
N 	N 	0.79341 0.29341 0.73280 -0.13800
C 	C 	0.77560 0.27560 0.71320 -0.05100
N 	N 	0.80554 0.30554 0.67860 -0.13600
C 	C 	0.78310 0.28310 0.68070 -0.04400
N 	N 	0.85474 0.35474 0.62790 -0.13700
C 	C 	0.86360 0.36360 0.59730 -0.05000
Ag	Ag	0.31760 0.81760 0.62866 0.52400
N 	N 	0.29341 0.79341 0.73280 -0.13800
C 	C 	0.27560 0.77560 0.71320 -0.05100
N 	N 	0.30554 0.80554 0.67860 -0.13600
C 	C 	0.28310 0.78310 0.68070 -0.04400
N 	N 	0.35474 0.85474 0.62790 -0.13700
C 	C 	0.36360 0.86360 0.59730 -0.05000
Ag	Ag	0.31760 0.31760 0.12866 0.52400
N 	N 	0.29341 0.29341 0.23280 -0.13800
C 	C 	0.27560 0.27560 0.21320 -0.05100
N 	N 	0.30554 0.30554 0.17860 -0.13600
C 	C 	0.28310 0.28310 0.18070 -0.04400
N 	N 	0.35474 0.35474 0.12790 -0.13700
C 	C 	0.36360 0.36360 0.09730 -0.05000
Ag	Ag	0.31760 0.93240 0.12134 0.52400
N 	N 	0.29341 0.95659 0.01720 -0.13800
C 	C 	0.27560 0.97440 0.03680 -0.05100
N 	N 	0.30554 0.94446 0.07140 -0.13600
C 	C 	0.28310 0.96690 0.06930 -0.04400
N 	N 	0.35474 0.89526 0.12210 -0.13700
C 	C 	0.36360 0.88640 0.15270 -0.05000
Ag	Ag	0.81760 0.93240 0.62134 0.52400
N 	N 	0.79341 0.95659 0.51720 -0.13800
C 	C 	0.77560 0.97440 0.53680 -0.05100
N 	N 	0.80554 0.94446 0.57140 -0.13600
C 	C 	0.78310 0.96690 0.56930 -0.04400
N 	N 	0.85474 0.89526 0.62210 -0.13700
C 	C 	0.86360 0.88640 0.65270 -0.05000
Ag	Ag	0.43240 0.31760 0.62134 0.52400
N 	N 	0.45659 0.29341 0.51720 -0.13800
C 	C 	0.47440 0.27560 0.53680 -0.05100
N 	N 	0.44446 0.30554 0.57140 -0.13600
C 	C 	0.46690 0.28310 0.56930 -0.04400
N 	N 	0.39526 0.35474 0.62210 -0.13700
C 	C 	0.38640 0.36360 0.65270 -0.05000
Ag	Ag	0.43240 0.81760 0.12134 0.52400
N 	N 	0.45659 0.79341 0.01720 -0.13800
C 	C 	0.47440 0.77560 0.03680 -0.05100
N 	N 	0.44446 0.80554 0.07140 -0.13600
C 	C 	0.46690 0.78310 0.06930 -0.04400
N 	N 	0.39526 0.85474 0.12210 -0.13700
C 	C 	0.38640 0.86360 0.15270 -0.05000
Ag	Ag	0.93240 0.43240 0.62866 0.52400
N 	N 	0.95659 0.45659 0.73280 -0.13800
C 	C 	0.97440 0.47440 0.71320 -0.05100
N 	N 	0.94446 0.44446 0.67860 -0.13600
C 	C 	0.96690 0.46690 0.68070 -0.04400
N 	N 	0.89526 0.39526 0.62790 -0.13700
C 	C 	0.88640 0.38640 0.59730 -0.05000
Ag	Ag	0.93240 0.93240 0.12866 0.52400
N 	N 	0.95659 0.95659 0.23280 -0.13800
C 	C 	0.97440 0.97440 0.21320 -0.05100
N 	N 	0.94446 0.94446 0.17860 -0.13600
C 	C 	0.96690 0.96690 0.18070 -0.04400
N 	N 	0.89526 0.89526 0.12790 -0.13700
C 	C 	0.88640 0.88640 0.09730 -0.05000
Ag	Ag	0.62866 0.43240 0.93240 0.52400
N 	N 	0.73280 0.45659 0.95659 -0.13800
C 	C 	0.71320 0.47440 0.97440 -0.05100
N 	N 	0.67860 0.44446 0.94446 -0.13600
C 	C 	0.68070 0.46690 0.96690 -0.04400
N 	N 	0.62790 0.39526 0.89526 -0.13700
C 	C 	0.59730 0.38640 0.88640 -0.05000
Ag	Ag	0.12866 0.43240 0.43240 0.52400
N 	N 	0.23280 0.45659 0.45659 -0.13800
C 	C 	0.21320 0.47440 0.47440 -0.05100
N 	N 	0.17860 0.44446 0.44446 -0.13600
C 	C 	0.18070 0.46690 0.46690 -0.04400
N 	N 	0.12790 0.39526 0.39526 -0.13700
C 	C 	0.09730 0.38640 0.38640 -0.05000
Ag	Ag	0.62134 0.31760 0.43240 0.52400
N 	N 	0.51720 0.29341 0.45659 -0.13800
C 	C 	0.53680 0.27560 0.47440 -0.05100
N 	N 	0.57140 0.30554 0.44446 -0.13600
C 	C 	0.56930 0.28310 0.46690 -0.04400
N 	N 	0.62210 0.35474 0.39526 -0.13700
C 	C 	0.65270 0.36360 0.38640 -0.05000
Ag	Ag	0.62134 0.81760 0.93240 0.52400
N 	N 	0.51720 0.79341 0.95659 -0.13800
C 	C 	0.53680 0.77560 0.97440 -0.05100
N 	N 	0.57140 0.80554 0.94446 -0.13600
C 	C 	0.56930 0.78310 0.96690 -0.04400
N 	N 	0.62210 0.85474 0.89526 -0.13700
C 	C 	0.65270 0.86360 0.88640 -0.05000
Ag	Ag	0.12134 0.93240 0.31760 0.52400
N 	N 	0.01720 0.95659 0.29341 -0.13800
C 	C 	0.03680 0.97440 0.27560 -0.05100
N 	N 	0.07140 0.94446 0.30554 -0.13600
C 	C 	0.06930 0.96690 0.28310 -0.04400
N 	N 	0.12210 0.89526 0.35474 -0.13700
C 	C 	0.15270 0.88640 0.36360 -0.05000
Ag	Ag	0.12134 0.43240 0.81760 0.52400
N 	N 	0.01720 0.45659 0.79341 -0.13800
C 	C 	0.03680 0.47440 0.77560 -0.05100
N 	N 	0.07140 0.44446 0.80554 -0.13600
C 	C 	0.06930 0.46690 0.78310 -0.04400
N 	N 	0.12210 0.39526 0.85474 -0.13700
C 	C 	0.15270 0.38640 0.86360 -0.05000
Ag	Ag	0.93240 0.62866 0.43240 0.52400
N 	N 	0.95659 0.73280 0.45659 -0.13800
C 	C 	0.97440 0.71320 0.47440 -0.05100
N 	N 	0.94446 0.67860 0.44446 -0.13600
C 	C 	0.96690 0.68070 0.46690 -0.04400
N 	N 	0.89526 0.62790 0.39526 -0.13700
C 	C 	0.88640 0.59730 0.38640 -0.05000
Ag	Ag	0.43240 0.62134 0.31760 0.52400
N 	N 	0.45659 0.51720 0.29341 -0.13800
C 	C 	0.47440 0.53680 0.27560 -0.05100
N 	N 	0.44446 0.57140 0.30554 -0.13600
C 	C 	0.46690 0.56930 0.28310 -0.04400
N 	N 	0.39526 0.62210 0.35474 -0.13700
C 	C 	0.38640 0.65270 0.36360 -0.05000
Ag	Ag	0.43240 0.12134 0.81760 0.52400
N 	N 	0.45659 0.01720 0.79341 -0.13800
C 	C 	0.47440 0.03680 0.77560 -0.05100
N 	N 	0.44446 0.07140 0.80554 -0.13600
C 	C 	0.46690 0.06930 0.78310 -0.04400
N 	N 	0.39526 0.12210 0.85474 -0.13700
C 	C 	0.38640 0.15270 0.86360 -0.05000
Ag	Ag	0.31760 0.12134 0.93240 0.52400
N 	N 	0.29341 0.01720 0.95659 -0.13800
C 	C 	0.27560 0.03680 0.97440 -0.05100
N 	N 	0.30554 0.07140 0.94446 -0.13600
C 	C 	0.28310 0.06930 0.96690 -0.04400
N 	N 	0.35474 0.12210 0.89526 -0.13700
C 	C 	0.36360 0.15270 0.88640 -0.05000
Ag	Ag	0.81760 0.12134 0.43240 0.52400
N 	N 	0.79341 0.01720 0.45659 -0.13800
C 	C 	0.77560 0.03680 0.47440 -0.05100
N 	N 	0.80554 0.07140 0.44446 -0.13600
C 	C 	0.78310 0.06930 0.46690 -0.04400
N 	N 	0.85474 0.12210 0.39526 -0.13700
C 	C 	0.86360 0.15270 0.38640 -0.05000
Ag	Ag	0.43240 0.93240 0.62866 0.52400
N 	N 	0.45659 0.95659 0.73280 -0.13800
C 	C 	0.47440 0.97440 0.71320 -0.05100
N 	N 	0.44446 0.94446 0.67860 -0.13600
C 	C 	0.46690 0.96690 0.68070 -0.04400
N 	N 	0.39526 0.89526 0.62790 -0.13700
C 	C 	0.38640 0.88640 0.59730 -0.05000
Ag	Ag	0.43240 0.43240 0.12866 0.52400
N 	N 	0.45659 0.45659 0.23280 -0.13800
C 	C 	0.47440 0.47440 0.21320 -0.05100
N 	N 	0.44446 0.44446 0.17860 -0.13600
C 	C 	0.46690 0.46690 0.18070 -0.04400
N 	N 	0.39526 0.39526 0.12790 -0.13700
C 	C 	0.38640 0.38640 0.09730 -0.05000
Ag	Ag	0.31760 0.43240 0.62134 0.52400
N 	N 	0.29341 0.45659 0.51720 -0.13800
C 	C 	0.27560 0.47440 0.53680 -0.05100
N 	N 	0.30554 0.44446 0.57140 -0.13600
C 	C 	0.28310 0.46690 0.56930 -0.04400
N 	N 	0.35474 0.39526 0.62210 -0.13700
C 	C 	0.36360 0.38640 0.65270 -0.05000
Ag	Ag	0.81760 0.43240 0.12134 0.52400
N 	N 	0.79341 0.45659 0.01720 -0.13800
C 	C 	0.77560 0.47440 0.03680 -0.05100
N 	N 	0.80554 0.44446 0.07140 -0.13600
C 	C 	0.78310 0.46690 0.06930 -0.04400
N 	N 	0.85474 0.39526 0.12210 -0.13700
C 	C 	0.86360 0.38640 0.15270 -0.05000
Ag	Ag	0.93240 0.31760 0.12134 0.52400
N 	N 	0.95659 0.29341 0.01720 -0.13800
C 	C 	0.97440 0.27560 0.03680 -0.05100
N 	N 	0.94446 0.30554 0.07140 -0.13600
C 	C 	0.96690 0.28310 0.06930 -0.04400
N 	N 	0.89526 0.35474 0.12210 -0.13700
C 	C 	0.88640 0.36360 0.15270 -0.05000
Ag	Ag	0.93240 0.81760 0.62134 0.52400
N 	N 	0.95659 0.79341 0.51720 -0.13800
C 	C 	0.97440 0.77560 0.53680 -0.05100
N 	N 	0.94446 0.80554 0.57140 -0.13600
C 	C 	0.96690 0.78310 0.56930 -0.04400
N 	N 	0.89526 0.85474 0.62210 -0.13700
C 	C 	0.88640 0.86360 0.65270 -0.05000
Ag	Ag	0.68240 0.37866 0.56760 0.52400
N 	N 	0.70659 0.48280 0.54341 -0.13800
C 	C 	0.72440 0.46320 0.52560 -0.05100
N 	N 	0.69446 0.42860 0.55554 -0.13600
C 	C 	0.71690 0.43070 0.53310 -0.04400
N 	N 	0.64526 0.37790 0.60474 -0.13700
C 	C 	0.63640 0.34730 0.61360 -0.05000
Ag	Ag	0.18240 0.37866 0.06760 0.52400
N 	N 	0.20659 0.48280 0.04341 -0.13800
C 	C 	0.22440 0.46320 0.02560 -0.05100
N 	N 	0.19446 0.42860 0.05554 -0.13600
C 	C 	0.21690 0.43070 0.03310 -0.04400
N 	N 	0.14526 0.37790 0.10474 -0.13700
C 	C 	0.13640 0.34730 0.11360 -0.05000
Ag	Ag	0.56760 0.37134 0.06760 0.52400
N 	N 	0.54341 0.26720 0.04341 -0.13800
C 	C 	0.52560 0.28680 0.02560 -0.05100
N 	N 	0.55554 0.32140 0.05554 -0.13600
C 	C 	0.53310 0.31930 0.03310 -0.04400
N 	N 	0.60474 0.37210 0.10474 -0.13700
C 	C 	0.61360 0.40270 0.11360 -0.05000
Ag	Ag	0.06760 0.87866 0.68240 0.52400
N 	N 	0.04341 0.98280 0.70659 -0.13800
C 	C 	0.02560 0.96320 0.72440 -0.05100
N 	N 	0.05554 0.92860 0.69446 -0.13600
C 	C 	0.03310 0.93070 0.71690 -0.04400
N 	N 	0.10474 0.87790 0.64526 -0.13700
C 	C 	0.11360 0.84730 0.63640 -0.05000
Ag	Ag	0.06760 0.37866 0.18240 0.52400
N 	N 	0.04341 0.48280 0.20659 -0.13800
C 	C 	0.02560 0.46320 0.22440 -0.05100
N 	N 	0.05554 0.42860 0.19446 -0.13600
C 	C 	0.03310 0.43070 0.21690 -0.04400
N 	N 	0.10474 0.37790 0.14526 -0.13700
C 	C 	0.11360 0.34730 0.13640 -0.05000
Ag	Ag	0.87866 0.68240 0.06760 0.52400
N 	N 	0.98280 0.70659 0.04341 -0.13800
C 	C 	0.96320 0.72440 0.02560 -0.05100
N 	N 	0.92860 0.69446 0.05554 -0.13600
C 	C 	0.93070 0.71690 0.03310 -0.04400
N 	N 	0.87790 0.64526 0.10474 -0.13700
C 	C 	0.84730 0.63640 0.11360 -0.05000
Ag	Ag	0.87866 0.18240 0.56760 0.52400
N 	N 	0.98280 0.20659 0.54341 -0.13800
C 	C 	0.96320 0.22440 0.52560 -0.05100
N 	N 	0.92860 0.19446 0.55554 -0.13600
C 	C 	0.93070 0.21690 0.53310 -0.04400
N 	N 	0.87790 0.14526 0.60474 -0.13700
C 	C 	0.84730 0.13640 0.61360 -0.05000
Ag	Ag	0.37134 0.06760 0.56760 0.52400
N 	N 	0.26720 0.04341 0.54341 -0.13800
C 	C 	0.28680 0.02560 0.52560 -0.05100
N 	N 	0.32140 0.05554 0.55554 -0.13600
C 	C 	0.31930 0.03310 0.53310 -0.04400
N 	N 	0.37210 0.10474 0.60474 -0.13700
C 	C 	0.40270 0.11360 0.61360 -0.05000
Ag	Ag	0.87134 0.06760 0.06760 0.52400
N 	N 	0.76720 0.04341 0.04341 -0.13800
C 	C 	0.78680 0.02560 0.02560 -0.05100
N 	N 	0.82140 0.05554 0.05554 -0.13600
C 	C 	0.81930 0.03310 0.03310 -0.04400
N 	N 	0.87210 0.10474 0.10474 -0.13700
C 	C 	0.90270 0.11360 0.11360 -0.05000
Ag	Ag	0.37866 0.56760 0.68240 0.52400
N 	N 	0.48280 0.54341 0.70659 -0.13800
C 	C 	0.46320 0.52560 0.72440 -0.05100
N 	N 	0.42860 0.55554 0.69446 -0.13600
C 	C 	0.43070 0.53310 0.71690 -0.04400
N 	N 	0.37790 0.60474 0.64526 -0.13700
C 	C 	0.34730 0.61360 0.63640 -0.05000
Ag	Ag	0.37866 0.06760 0.18240 0.52400
N 	N 	0.48280 0.04341 0.20659 -0.13800
C 	C 	0.46320 0.02560 0.22440 -0.05100
N 	N 	0.42860 0.05554 0.19446 -0.13600
C 	C 	0.43070 0.03310 0.21690 -0.04400
N 	N 	0.37790 0.10474 0.14526 -0.13700
C 	C 	0.34730 0.11360 0.13640 -0.05000
Ag	Ag	0.68240 0.06760 0.87866 0.52400
N 	N 	0.70659 0.04341 0.98280 -0.13800
C 	C 	0.72440 0.02560 0.96320 -0.05100
N 	N 	0.69446 0.05554 0.92860 -0.13600
C 	C 	0.71690 0.03310 0.93070 -0.04400
N 	N 	0.64526 0.10474 0.87790 -0.13700
C 	C 	0.63640 0.11360 0.84730 -0.05000
Ag	Ag	0.18240 0.06760 0.37866 0.52400
N 	N 	0.20659 0.04341 0.48280 -0.13800
C 	C 	0.22440 0.02560 0.46320 -0.05100
N 	N 	0.19446 0.05554 0.42860 -0.13600
C 	C 	0.21690 0.03310 0.43070 -0.04400
N 	N 	0.14526 0.10474 0.37790 -0.13700
C 	C 	0.13640 0.11360 0.34730 -0.05000
Ag	Ag	0.56760 0.68240 0.37866 0.52400
N 	N 	0.54341 0.70659 0.48280 -0.13800
C 	C 	0.52560 0.72440 0.46320 -0.05100
N 	N 	0.55554 0.69446 0.42860 -0.13600
C 	C 	0.53310 0.71690 0.43070 -0.04400
N 	N 	0.60474 0.64526 0.37790 -0.13700
C 	C 	0.61360 0.63640 0.34730 -0.05000
Ag	Ag	0.56760 0.18240 0.87866 0.52400
N 	N 	0.54341 0.20659 0.98280 -0.13800
C 	C 	0.52560 0.22440 0.96320 -0.05100
N 	N 	0.55554 0.19446 0.92860 -0.13600
C 	C 	0.53310 0.21690 0.93070 -0.04400
N 	N 	0.60474 0.14526 0.87790 -0.13700
C 	C 	0.61360 0.13640 0.84730 -0.05000
Ag	Ag	0.06760 0.56760 0.37134 0.52400
N 	N 	0.04341 0.54341 0.26720 -0.13800
C 	C 	0.02560 0.52560 0.28680 -0.05100
N 	N 	0.05554 0.55554 0.32140 -0.13600
C 	C 	0.03310 0.53310 0.31930 -0.04400
N 	N 	0.10474 0.60474 0.37210 -0.13700
C 	C 	0.11360 0.61360 0.40270 -0.05000
Ag	Ag	0.06760 0.06760 0.87134 0.52400
N 	N 	0.04341 0.04341 0.76720 -0.13800
C 	C 	0.02560 0.02560 0.78680 -0.05100
N 	N 	0.05554 0.05554 0.82140 -0.13600
C 	C 	0.03310 0.03310 0.81930 -0.04400
N 	N 	0.10474 0.10474 0.87210 -0.13700
C 	C 	0.11360 0.11360 0.90270 -0.05000
