data_crystal

_cell_length_a 25.92630
_cell_length_b 25.92630
_cell_length_c 19.65320
_cell_angle_alpha 90.00000
_cell_angle_beta  90.00000
_cell_angle_gamma 120.00000

_symmetry_space_group_name_	'P 1'
_symmetry_space_group_name_H-M	'P 1'

loop_
_symmetry_equiv_pos_as_xyz
  x,y,z

loop_
_atom_site_label
_atom_site_type_symbol
_atom_site_fract_x
_atom_site_fract_y
_atom_site_fract_z
_atom_site_charge
Zn	Zn	0.10131 0.43277 0.40307 1.19000
N 	N 	0.03600 0.37340 0.45850 -0.28400
C 	C 	0.02150 0.31670 0.47460 0.04500
C 	C 	0.04800 0.28210 0.44340 -0.12700
H 	H 	0.07620 0.29570 0.40740 0.05100
C 	C 	0.02360 0.22440 0.47720 0.05700
H 	H 	0.04160 0.20110 0.46710 -0.20300
C 	C 	0.03900 0.17800 0.45200 0.38200
H 	H 	0.00330 0.13890 0.44940 -0.09200
H 	H 	0.06760 0.17590 0.48380 -0.05300
H 	H 	0.05780 0.18930 0.40680 -0.08000
N 	N 	0.17200 0.43180 0.43680 -0.28800
C 	C 	0.19020 0.43380 0.50120 0.06000
C 	C 	0.15770 0.43280 0.56670 -0.18200
H 	H 	0.12010 0.43090 0.56760 0.08000
C 	C 	0.19080 0.43530 0.62720 0.12400
C 	C 	0.14700 0.43700 0.67900 0.73600
H 	H 	0.16850 0.46250 0.71680 -0.12500
H 	H 	0.11990 0.39610 0.69530 -0.16500
H 	H 	0.12300 0.45170 0.65610 -0.19300
N 	N 	0.11270 0.51290 0.42730 -0.29100
C 	C 	0.15990 0.55240 0.46120 0.00700
H 	H 	0.18890 0.54550 0.48200 0.01900
O 	O 	0.01330 0.54730 0.36870 -0.17100
N 	N 	0.08190 0.40580 0.30610 -0.28100
C 	C 	0.03110 0.35440 0.28350 -0.00200
H 	H 	0.00150 0.32450 0.31180 0.02100
O 	O 	0.18510 0.50970 0.30490 -0.16000
H 	H 	0.17470 0.43700 0.67000 -0.34300
Zn	Zn	0.56723 0.66854 0.40307 1.19100
N 	N 	0.62660 0.66260 0.45850 -0.28400
C 	C 	0.68330 0.70480 0.47460 0.04900
C 	C 	0.71790 0.76590 0.44340 -0.12900
H 	H 	0.70430 0.78050 0.40740 0.05300
C 	C 	0.77560 0.79920 0.47720 0.06300
H 	H 	0.79890 0.84050 0.46710 -0.20300
C 	C 	0.82200 0.86100 0.45200 0.38100
H 	H 	0.86110 0.86440 0.44940 -0.08900
H 	H 	0.82410 0.89170 0.48380 -0.05100
H 	H 	0.81070 0.86850 0.40680 -0.07800
N 	N 	0.56820 0.74020 0.43680 -0.28700
C 	C 	0.56620 0.75640 0.50120 0.06100
C 	C 	0.56720 0.72490 0.56670 -0.18100
H 	H 	0.56910 0.68920 0.56760 0.08100
C 	C 	0.56470 0.75550 0.62720 0.12500
C 	C 	0.56300 0.71000 0.67900 0.73800
H 	H 	0.53750 0.70600 0.71680 -0.12500
H 	H 	0.60390 0.72380 0.69530 -0.16300
H 	H 	0.54830 0.67130 0.65610 -0.19200
N 	N 	0.48710 0.59980 0.42730 -0.29000
C 	C 	0.44760 0.60750 0.46120 0.00700
H 	H 	0.45450 0.64340 0.48200 0.01900
O 	O 	0.45270 0.46600 0.36870 -0.17000
N 	N 	0.59420 0.67610 0.30610 -0.28100
C 	C 	0.64560 0.67670 0.28350 -0.00100
H 	H 	0.67550 0.67700 0.31180 0.02200
O 	O 	0.49030 0.67540 0.30490 -0.16000
H 	H 	0.56300 0.73770 0.67000 -0.34400
Zn	Zn	0.33146 0.89869 0.40307 1.19200
N 	N 	0.33740 0.96400 0.45850 -0.28300
C 	C 	0.29520 0.97850 0.47460 0.05400
C 	C 	0.23410 0.95200 0.44340 -0.13300
H 	H 	0.21950 0.92380 0.40740 0.05500
C 	C 	0.20080 0.97640 0.47720 0.07000
H 	H 	0.15950 0.95840 0.46710 -0.20400
C 	C 	0.13900 0.96100 0.45200 0.37900
H 	H 	0.13560 0.99670 0.44940 -0.08800
H 	H 	0.10830 0.93240 0.48380 -0.05000
H 	H 	0.13150 0.94220 0.40680 -0.07800
N 	N 	0.25980 0.82800 0.43680 -0.28700
C 	C 	0.24360 0.80980 0.50120 0.06100
C 	C 	0.27510 0.84230 0.56670 -0.18200
H 	H 	0.31080 0.87990 0.56760 0.08200
C 	C 	0.24450 0.80920 0.62720 0.12600
C 	C 	0.29000 0.85300 0.67900 0.73900
H 	H 	0.29400 0.83150 0.71680 -0.12400
H 	H 	0.27620 0.88010 0.69530 -0.16300
H 	H 	0.32870 0.87700 0.65610 -0.19100
N 	N 	0.40020 0.88730 0.42730 -0.29000
C 	C 	0.39250 0.84010 0.46120 0.00700
H 	H 	0.35660 0.81110 0.48200 0.01900
O 	O 	0.53400 0.98670 0.36870 -0.16900
N 	N 	0.32390 0.91810 0.30610 -0.28100
C 	C 	0.32330 0.96890 0.28350 -0.00100
H 	H 	0.32300 0.99850 0.31180 0.02200
O 	O 	0.32460 0.81490 0.30490 -0.16000
H 	H 	0.26230 0.82530 0.67000 -0.34400
Zn	Zn	0.89869 0.56723 0.90307 1.19200
N 	N 	0.96400 0.62660 0.95850 -0.28200
C 	C 	0.97850 0.68330 0.97460 0.05800
C 	C 	0.95200 0.71790 0.94340 -0.13500
H 	H 	0.92380 0.70430 0.90740 0.05600
C 	C 	0.97640 0.77560 0.97720 0.07500
H 	H 	0.95840 0.79890 0.96710 -0.20500
C 	C 	0.96100 0.82200 0.95200 0.37700
H 	H 	0.99670 0.86110 0.94940 -0.08600
H 	H 	0.93240 0.82410 0.98380 -0.04800
H 	H 	0.94220 0.81070 0.90680 -0.07700
N 	N 	0.82800 0.56820 0.93680 -0.28500
C 	C 	0.80980 0.56620 0.00120 0.05800
C 	C 	0.84230 0.56720 0.06670 -0.18100
H 	H 	0.87990 0.56910 0.06760 0.08100
C 	C 	0.80920 0.56470 0.12720 0.12500
C 	C 	0.85300 0.56300 0.17900 0.73800
H 	H 	0.83150 0.53750 0.21680 -0.12500
H 	H 	0.88010 0.60390 0.19530 -0.16300
H 	H 	0.87700 0.54830 0.15610 -0.19200
N 	N 	0.88730 0.48710 0.92730 -0.29000
C 	C 	0.84010 0.44760 0.96120 0.00800
H 	H 	0.81110 0.45450 0.98200 0.02000
O 	O 	0.98670 0.45270 0.86870 -0.16900
N 	N 	0.91810 0.59420 0.80610 -0.28100
C 	C 	0.96890 0.64560 0.78350 -0.00100
H 	H 	0.99850 0.67550 0.81180 0.02200
O 	O 	0.81490 0.49030 0.80490 -0.16000
H 	H 	0.82530 0.56300 0.17000 -0.34400
Zn	Zn	0.43277 0.33146 0.90307 1.19200
N 	N 	0.37340 0.33740 0.95850 -0.28200
C 	C 	0.31670 0.29520 0.97460 0.05500
C 	C 	0.28210 0.23410 0.94340 -0.13300
H 	H 	0.29570 0.21950 0.90740 0.05500
C 	C 	0.22440 0.20080 0.97720 0.07100
H 	H 	0.20110 0.15950 0.96710 -0.20400
C 	C 	0.17800 0.13900 0.95200 0.37800
H 	H 	0.13890 0.13560 0.94940 -0.08800
H 	H 	0.17590 0.10830 0.98380 -0.04900
H 	H 	0.18930 0.13150 0.90680 -0.07800
N 	N 	0.43180 0.25980 0.93680 -0.28500
C 	C 	0.43380 0.24360 0.00120 0.05800
C 	C 	0.43280 0.27510 0.06670 -0.18100
H 	H 	0.43090 0.31080 0.06760 0.08100
C 	C 	0.43530 0.24450 0.12720 0.12500
C 	C 	0.43700 0.29000 0.17900 0.73700
H 	H 	0.46250 0.29400 0.21680 -0.12500
H 	H 	0.39610 0.27620 0.19530 -0.16400
H 	H 	0.45170 0.32870 0.15610 -0.19200
N 	N 	0.51290 0.40020 0.92730 -0.29000
C 	C 	0.55240 0.39250 0.96120 0.00700
H 	H 	0.54550 0.35660 0.98200 0.02000
O 	O 	0.54730 0.53400 0.86870 -0.16900
N 	N 	0.40580 0.32390 0.80610 -0.28100
C 	C 	0.35440 0.32330 0.78350 -0.00100
H 	H 	0.32450 0.32300 0.81180 0.02200
O 	O 	0.50970 0.32460 0.80490 -0.16000
H 	H 	0.43700 0.26230 0.17000 -0.34300
Zn	Zn	0.66854 0.10131 0.90307 1.19200
N 	N 	0.66260 0.03600 0.95850 -0.28100
C 	C 	0.70480 0.02150 0.97460 0.05000
C 	C 	0.76590 0.04800 0.94340 -0.12900
H 	H 	0.78050 0.07620 0.90740 0.05300
C 	C 	0.79920 0.02360 0.97720 0.06300
H 	H 	0.84050 0.04160 0.96710 -0.20300
C 	C 	0.86100 0.03900 0.95200 0.38100
H 	H 	0.86440 0.00330 0.94940 -0.09000
H 	H 	0.89170 0.06760 0.98380 -0.05100
H 	H 	0.86850 0.05780 0.90680 -0.07900
N 	N 	0.74020 0.17200 0.93680 -0.28500
C 	C 	0.75640 0.19020 0.00120 0.05700
C 	C 	0.72490 0.15770 0.06670 -0.18100
H 	H 	0.68920 0.12010 0.06760 0.08000
C 	C 	0.75550 0.19080 0.12720 0.12400
C 	C 	0.71000 0.14700 0.17900 0.73600
H 	H 	0.70600 0.16850 0.21680 -0.12500
H 	H 	0.72380 0.11990 0.19530 -0.16400
H 	H 	0.67130 0.12300 0.15610 -0.19200
N 	N 	0.59980 0.11270 0.92730 -0.29000
C 	C 	0.60750 0.15990 0.96120 0.00700
H 	H 	0.64340 0.18890 0.98200 0.02000
O 	O 	0.46600 0.01330 0.86870 -0.17000
N 	N 	0.67610 0.08190 0.80610 -0.28100
C 	C 	0.67670 0.03110 0.78350 -0.00200
H 	H 	0.67700 0.00150 0.81180 0.02100
O 	O 	0.67540 0.18510 0.80490 -0.16000
H 	H 	0.73770 0.17470 0.17000 -0.34300
Zn	Zn	0.43277 0.10131 0.59693 1.19100
N 	N 	0.37340 0.03600 0.54150 -0.28300
C 	C 	0.31670 0.02150 0.52540 0.04400
C 	C 	0.28210 0.04800 0.55660 -0.12500
H 	H 	0.29570 0.07620 0.59260 0.05200
C 	C 	0.22440 0.02360 0.52280 0.05500
H 	H 	0.20110 0.04160 0.53290 -0.20200
C 	C 	0.17800 0.03900 0.54800 0.38400
H 	H 	0.13890 0.00330 0.55060 -0.09200
H 	H 	0.17590 0.06760 0.51620 -0.05200
H 	H 	0.18930 0.05780 0.59320 -0.08000
N 	N 	0.43180 0.17200 0.56320 -0.28700
C 	C 	0.43380 0.19020 0.49880 0.06000
C 	C 	0.43280 0.15770 0.43330 -0.18100
H 	H 	0.43090 0.12010 0.43240 0.08100
C 	C 	0.43530 0.19080 0.37280 0.12500
C 	C 	0.43700 0.14700 0.32100 0.73600
H 	H 	0.46250 0.16850 0.28320 -0.12400
H 	H 	0.39610 0.11990 0.30470 -0.16400
H 	H 	0.45170 0.12300 0.34390 -0.19200
N 	N 	0.51290 0.11270 0.57270 -0.29000
C 	C 	0.55240 0.15990 0.53880 0.00700
H 	H 	0.54550 0.18890 0.51800 0.01900
O 	O 	0.54730 0.01330 0.63130 -0.17100
N 	N 	0.40580 0.08190 0.69390 -0.28100
C 	C 	0.35440 0.03110 0.71650 -0.00200
H 	H 	0.32450 0.00150 0.68820 0.02100
O 	O 	0.50970 0.18510 0.69510 -0.16000
H 	H 	0.43700 0.17470 0.33000 -0.34300
Zn	Zn	0.66854 0.56723 0.59693 1.19100
N 	N 	0.66260 0.62660 0.54150 -0.28400
C 	C 	0.70480 0.68330 0.52540 0.04900
C 	C 	0.76590 0.71790 0.55660 -0.12900
H 	H 	0.78050 0.70430 0.59260 0.05300
C 	C 	0.79920 0.77560 0.52280 0.06300
H 	H 	0.84050 0.79890 0.53290 -0.20400
C 	C 	0.86100 0.82200 0.54800 0.38200
H 	H 	0.86440 0.86110 0.55060 -0.08900
H 	H 	0.89170 0.82410 0.51620 -0.05100
H 	H 	0.86850 0.81070 0.59320 -0.07800
N 	N 	0.74020 0.56820 0.56320 -0.28700
C 	C 	0.75640 0.56620 0.49880 0.06100
C 	C 	0.72490 0.56720 0.43330 -0.18100
H 	H 	0.68920 0.56910 0.43240 0.08100
C 	C 	0.75550 0.56470 0.37280 0.12500
C 	C 	0.71000 0.56300 0.32100 0.73800
H 	H 	0.70600 0.53750 0.28320 -0.12500
H 	H 	0.72380 0.60390 0.30470 -0.16300
H 	H 	0.67130 0.54830 0.34390 -0.19200
N 	N 	0.59980 0.48710 0.57270 -0.29000
C 	C 	0.60750 0.44760 0.53880 0.00700
H 	H 	0.64340 0.45450 0.51800 0.01900
O 	O 	0.46600 0.45270 0.63130 -0.17000
N 	N 	0.67610 0.59420 0.69390 -0.28100
C 	C 	0.67670 0.64560 0.71650 -0.00100
H 	H 	0.67700 0.67550 0.68820 0.02200
O 	O 	0.67540 0.49030 0.69510 -0.16000
H 	H 	0.73770 0.56300 0.33000 -0.34300
Zn	Zn	0.89869 0.33146 0.59693 1.19100
N 	N 	0.96400 0.33740 0.54150 -0.28300
C 	C 	0.97850 0.29520 0.52540 0.05200
C 	C 	0.95200 0.23410 0.55660 -0.13100
H 	H 	0.92380 0.21950 0.59260 0.05400
C 	C 	0.97640 0.20080 0.52280 0.06700
H 	H 	0.95840 0.15950 0.53290 -0.20400
C 	C 	0.96100 0.13900 0.54800 0.38000
H 	H 	0.99670 0.13560 0.55060 -0.08900
H 	H 	0.93240 0.10830 0.51620 -0.05000
H 	H 	0.94220 0.13150 0.59320 -0.07800
N 	N 	0.82800 0.25980 0.56320 -0.28700
C 	C 	0.80980 0.24360 0.49880 0.06100
C 	C 	0.84230 0.27510 0.43330 -0.18200
H 	H 	0.87990 0.31080 0.43240 0.08200
C 	C 	0.80920 0.24450 0.37280 0.12600
C 	C 	0.85300 0.29000 0.32100 0.73800
H 	H 	0.83150 0.29400 0.28320 -0.12500
H 	H 	0.88010 0.27620 0.30470 -0.16300
H 	H 	0.87700 0.32870 0.34390 -0.19200
N 	N 	0.88730 0.40020 0.57270 -0.29000
C 	C 	0.84010 0.39250 0.53880 0.00700
H 	H 	0.81110 0.35660 0.51800 0.01900
O 	O 	0.98670 0.53400 0.63130 -0.16900
N 	N 	0.91810 0.32390 0.69390 -0.28100
C 	C 	0.96890 0.32330 0.71650 -0.00100
H 	H 	0.99850 0.32300 0.68820 0.02200
O 	O 	0.81490 0.32460 0.69510 -0.16000
H 	H 	0.82530 0.26230 0.33000 -0.34400
Zn	Zn	0.56723 0.89869 0.09693 1.19100
N 	N 	0.62660 0.96400 0.04150 -0.28200
C 	C 	0.68330 0.97850 0.02540 0.04900
C 	C 	0.71790 0.95200 0.05660 -0.12900
H 	H 	0.70430 0.92380 0.09260 0.05300
C 	C 	0.77560 0.97640 0.02280 0.06300
H 	H 	0.79890 0.95840 0.03290 -0.20400
C 	C 	0.82200 0.96100 0.04800 0.38200
H 	H 	0.86110 0.99670 0.05060 -0.08900
H 	H 	0.82410 0.93240 0.01620 -0.05100
H 	H 	0.81070 0.94220 0.09320 -0.07800
N 	N 	0.56820 0.82800 0.06320 -0.28900
C 	C 	0.56620 0.80980 0.99880 0.06400
C 	C 	0.56720 0.84230 0.93330 -0.18200
H 	H 	0.56910 0.87990 0.93240 0.08300
C 	C 	0.56470 0.80920 0.87280 0.12700
C 	C 	0.56300 0.85300 0.82100 0.73900
H 	H 	0.53750 0.83150 0.78320 -0.12400
H 	H 	0.60390 0.88010 0.80470 -0.16300
H 	H 	0.54830 0.87700 0.84390 -0.19100
N 	N 	0.48710 0.88730 0.07270 -0.29000
C 	C 	0.44760 0.84010 0.03880 0.00700
H 	H 	0.45450 0.81110 0.01800 0.01800
O 	O 	0.45270 0.98670 0.13130 -0.16900
N 	N 	0.59420 0.91810 0.19390 -0.28100
C 	C 	0.64560 0.96890 0.21650 -0.00100
H 	H 	0.67550 0.99850 0.18820 0.02300
O 	O 	0.49030 0.81490 0.19510 -0.16000
H 	H 	0.56300 0.82530 0.83000 -0.34400
Zn	Zn	0.33146 0.43277 0.09693 1.19100
N 	N 	0.33740 0.37340 0.04150 -0.28300
C 	C 	0.29520 0.31670 0.02540 0.04300
C 	C 	0.23410 0.28210 0.05660 -0.12500
H 	H 	0.21950 0.29570 0.09260 0.05200
C 	C 	0.20080 0.22440 0.02280 0.05400
H 	H 	0.15950 0.20110 0.03290 -0.20200
C 	C 	0.13900 0.17800 0.04800 0.38400
H 	H 	0.13560 0.13890 0.05060 -0.09200
H 	H 	0.10830 0.17590 0.01620 -0.05300
H 	H 	0.13150 0.18930 0.09320 -0.08000
N 	N 	0.25980 0.43180 0.06320 -0.28900
C 	C 	0.24360 0.43380 0.99880 0.06400
C 	C 	0.27510 0.43280 0.93330 -0.18200
H 	H 	0.31080 0.43090 0.93240 0.08300
C 	C 	0.24450 0.43530 0.87280 0.12600
C 	C 	0.29000 0.43700 0.82100 0.73800
H 	H 	0.29400 0.46250 0.78320 -0.12400
H 	H 	0.27620 0.39610 0.80470 -0.16300
H 	H 	0.32870 0.45170 0.84390 -0.19200
N 	N 	0.40020 0.51290 0.07270 -0.29000
C 	C 	0.39250 0.55240 0.03880 0.00700
H 	H 	0.35660 0.54550 0.01800 0.01800
O 	O 	0.53400 0.54730 0.13130 -0.17000
N 	N 	0.32390 0.40580 0.19390 -0.28100
C 	C 	0.32330 0.35440 0.21650 -0.00100
H 	H 	0.32300 0.32450 0.18820 0.02200
O 	O 	0.32460 0.50970 0.19510 -0.16000
H 	H 	0.26230 0.43700 0.83000 -0.34400
Zn	Zn	0.10131 0.66854 0.09693 1.19100
N 	N 	0.03600 0.66260 0.04150 -0.28200
C 	C 	0.02150 0.70480 0.02540 0.04000
C 	C 	0.04800 0.76590 0.05660 -0.12200
H 	H 	0.07620 0.78050 0.09260 0.05100
C 	C 	0.02360 0.79920 0.02280 0.05000
H 	H 	0.04160 0.84050 0.03290 -0.20200
C 	C 	0.03900 0.86100 0.04800 0.38600
H 	H 	0.00330 0.86440 0.05060 -0.09300
H 	H 	0.06760 0.89170 0.01620 -0.05300
H 	H 	0.05780 0.86850 0.09320 -0.08000
N 	N 	0.17200 0.74020 0.06320 -0.28900
C 	C 	0.19020 0.75640 0.99880 0.06300
C 	C 	0.15770 0.72490 0.93330 -0.18100
H 	H 	0.12010 0.68920 0.93240 0.08200
C 	C 	0.19080 0.75550 0.87280 0.12500
C 	C 	0.14700 0.71000 0.82100 0.73700
H 	H 	0.16850 0.70600 0.78320 -0.12400
H 	H 	0.11990 0.72380 0.80470 -0.16400
H 	H 	0.12300 0.67130 0.84390 -0.19200
N 	N 	0.11270 0.59980 0.07270 -0.29000
C 	C 	0.15990 0.60750 0.03880 0.00700
H 	H 	0.18890 0.64340 0.01800 0.01800
O 	O 	0.01330 0.46600 0.13130 -0.17100
N 	N 	0.08190 0.67610 0.19390 -0.28100
C 	C 	0.03110 0.67670 0.21650 -0.00100
H 	H 	0.00150 0.67700 0.18820 0.02100
O 	O 	0.18510 0.67540 0.19510 -0.16000
H 	H 	0.17470 0.73770 0.83000 -0.34300
Zn	Zn	0.89869 0.56723 0.59693 1.19100
N 	N 	0.96400 0.62660 0.54150 -0.28300
C 	C 	0.97850 0.68330 0.52540 0.05300
C 	C 	0.95200 0.71790 0.55660 -0.13200
H 	H 	0.92380 0.70430 0.59260 0.05400
C 	C 	0.97640 0.77560 0.52280 0.06800
H 	H 	0.95840 0.79890 0.53290 -0.20400
C 	C 	0.96100 0.82200 0.54800 0.38000
H 	H 	0.99670 0.86110 0.55060 -0.08800
H 	H 	0.93240 0.82410 0.51620 -0.05000
H 	H 	0.94220 0.81070 0.59320 -0.07800
N 	N 	0.82800 0.56820 0.56320 -0.28700
C 	C 	0.80980 0.56620 0.49880 0.06100
C 	C 	0.84230 0.56720 0.43330 -0.18200
H 	H 	0.87990 0.56910 0.43240 0.08200
C 	C 	0.80920 0.56470 0.37280 0.12600
C 	C 	0.85300 0.56300 0.32100 0.73800
H 	H 	0.83150 0.53750 0.28320 -0.12500
H 	H 	0.88010 0.60390 0.30470 -0.16300
H 	H 	0.87700 0.54830 0.34390 -0.19200
N 	N 	0.88730 0.48710 0.57270 -0.29000
C 	C 	0.84010 0.44760 0.53880 0.00700
H 	H 	0.81110 0.45450 0.51800 0.01900
O 	O 	0.98670 0.45270 0.63130 -0.16900
N 	N 	0.91810 0.59420 0.69390 -0.28100
C 	C 	0.96890 0.64560 0.71650 -0.00100
H 	H 	0.99850 0.67550 0.68820 0.02200
O 	O 	0.81490 0.49030 0.69510 -0.16000
H 	H 	0.82530 0.56300 0.33000 -0.34400
Zn	Zn	0.43277 0.33146 0.59693 1.19100
N 	N 	0.37340 0.33740 0.54150 -0.28400
C 	C 	0.31670 0.29520 0.52540 0.04900
C 	C 	0.28210 0.23410 0.55660 -0.12900
H 	H 	0.29570 0.21950 0.59260 0.05300
C 	C 	0.22440 0.20080 0.52280 0.06300
H 	H 	0.20110 0.15950 0.53290 -0.20300
C 	C 	0.17800 0.13900 0.54800 0.38100
H 	H 	0.13890 0.13560 0.55060 -0.09000
H 	H 	0.17590 0.10830 0.51620 -0.05100
H 	H 	0.18930 0.13150 0.59320 -0.07900
N 	N 	0.43180 0.25980 0.56320 -0.28700
C 	C 	0.43380 0.24360 0.49880 0.06100
C 	C 	0.43280 0.27510 0.43330 -0.18100
H 	H 	0.43090 0.31080 0.43240 0.08100
C 	C 	0.43530 0.24450 0.37280 0.12500
C 	C 	0.43700 0.29000 0.32100 0.73700
H 	H 	0.46250 0.29400 0.28320 -0.12400
H 	H 	0.39610 0.27620 0.30470 -0.16300
H 	H 	0.45170 0.32870 0.34390 -0.19200
N 	N 	0.51290 0.40020 0.57270 -0.29000
C 	C 	0.55240 0.39250 0.53880 0.00700
H 	H 	0.54550 0.35660 0.51800 0.01900
O 	O 	0.54730 0.53400 0.63130 -0.17000
N 	N 	0.40580 0.32390 0.69390 -0.28100
C 	C 	0.35440 0.32330 0.71650 -0.00100
H 	H 	0.32450 0.32300 0.68820 0.02200
O 	O 	0.50970 0.32460 0.69510 -0.16000
H 	H 	0.43700 0.26230 0.33000 -0.34300
Zn	Zn	0.66854 0.10131 0.59693 1.19100
N 	N 	0.66260 0.03600 0.54150 -0.28300
C 	C 	0.70480 0.02150 0.52540 0.04300
C 	C 	0.76590 0.04800 0.55660 -0.12500
H 	H 	0.78050 0.07620 0.59260 0.05200
C 	C 	0.79920 0.02360 0.52280 0.05500
H 	H 	0.84050 0.04160 0.53290 -0.20200
C 	C 	0.86100 0.03900 0.54800 0.38400
H 	H 	0.86440 0.00330 0.55060 -0.09200
H 	H 	0.89170 0.06760 0.51620 -0.05300
H 	H 	0.86850 0.05780 0.59320 -0.07900
N 	N 	0.74020 0.17200 0.56320 -0.28700
C 	C 	0.75640 0.19020 0.49880 0.06000
C 	C 	0.72490 0.15770 0.43330 -0.18100
H 	H 	0.68920 0.12010 0.43240 0.08100
C 	C 	0.75550 0.19080 0.37280 0.12400
C 	C 	0.71000 0.14700 0.32100 0.73700
H 	H 	0.70600 0.16850 0.28320 -0.12500
H 	H 	0.72380 0.11990 0.30470 -0.16400
H 	H 	0.67130 0.12300 0.34390 -0.19200
N 	N 	0.59980 0.11270 0.57270 -0.29000
C 	C 	0.60750 0.15990 0.53880 0.00700
H 	H 	0.64340 0.18890 0.51800 0.01900
O 	O 	0.46600 0.01330 0.63130 -0.17100
N 	N 	0.67610 0.08190 0.69390 -0.28100
C 	C 	0.67670 0.03110 0.71650 -0.00200
H 	H 	0.67700 0.00150 0.68820 0.02100
O 	O 	0.67540 0.18510 0.69510 -0.16000
H 	H 	0.73770 0.17470 0.33000 -0.34300
Zn	Zn	0.10131 0.43277 0.09693 1.19100
N 	N 	0.03600 0.37340 0.04150 -0.28200
C 	C 	0.02150 0.31670 0.02540 0.04000
C 	C 	0.04800 0.28210 0.05660 -0.12200
H 	H 	0.07620 0.29570 0.09260 0.05100
C 	C 	0.02360 0.22440 0.02280 0.05000
H 	H 	0.04160 0.20110 0.03290 -0.20200
C 	C 	0.03900 0.17800 0.04800 0.38600
H 	H 	0.00330 0.13890 0.05060 -0.09300
H 	H 	0.06760 0.17590 0.01620 -0.05300
H 	H 	0.05780 0.18930 0.09320 -0.08000
N 	N 	0.17200 0.43180 0.06320 -0.28900
C 	C 	0.19020 0.43380 0.99880 0.06400
C 	C 	0.15770 0.43280 0.93330 -0.18100
H 	H 	0.12010 0.43090 0.93240 0.08200
C 	C 	0.19080 0.43530 0.87280 0.12500
C 	C 	0.14700 0.43700 0.82100 0.73700
H 	H 	0.16850 0.46250 0.78320 -0.12400
H 	H 	0.11990 0.39610 0.80470 -0.16400
H 	H 	0.12300 0.45170 0.84390 -0.19200
N 	N 	0.11270 0.51290 0.07270 -0.29000
C 	C 	0.15990 0.55240 0.03880 0.00700
H 	H 	0.18890 0.54550 0.01800 0.01800
O 	O 	0.01330 0.54730 0.13130 -0.17100
N 	N 	0.08190 0.40580 0.19390 -0.28100
C 	C 	0.03110 0.35440 0.21650 -0.00100
H 	H 	0.00150 0.32450 0.18820 0.02100
O 	O 	0.18510 0.50970 0.19510 -0.16000
H 	H 	0.17470 0.43700 0.83000 -0.34300
Zn	Zn	0.56723 0.66854 0.09693 1.19100
N 	N 	0.62660 0.66260 0.04150 -0.28300
C 	C 	0.68330 0.70480 0.02540 0.04300
C 	C 	0.71790 0.76590 0.05660 -0.12500
H 	H 	0.70430 0.78050 0.09260 0.05200
C 	C 	0.77560 0.79920 0.02280 0.05500
H 	H 	0.79890 0.84050 0.03290 -0.20300
C 	C 	0.82200 0.86100 0.04800 0.38400
H 	H 	0.86110 0.86440 0.05060 -0.09100
H 	H 	0.82410 0.89170 0.01620 -0.05200
H 	H 	0.81070 0.86850 0.09320 -0.07900
N 	N 	0.56820 0.74020 0.06320 -0.28900
C 	C 	0.56620 0.75640 0.99880 0.06400
C 	C 	0.56720 0.72490 0.93330 -0.18100
H 	H 	0.56910 0.68920 0.93240 0.08300
C 	C 	0.56470 0.75550 0.87280 0.12600
C 	C 	0.56300 0.71000 0.82100 0.73800
H 	H 	0.53750 0.70600 0.78320 -0.12500
H 	H 	0.60390 0.72380 0.80470 -0.16300
H 	H 	0.54830 0.67130 0.84390 -0.19200
N 	N 	0.48710 0.59980 0.07270 -0.29000
C 	C 	0.44760 0.60750 0.03880 0.00700
H 	H 	0.45450 0.64340 0.01800 0.01800
O 	O 	0.45270 0.46600 0.13130 -0.17000
N 	N 	0.59420 0.67610 0.19390 -0.28100
C 	C 	0.64560 0.67670 0.21650 -0.00100
H 	H 	0.67550 0.67700 0.18820 0.02200
O 	O 	0.49030 0.67540 0.19510 -0.16000
H 	H 	0.56300 0.73770 0.83000 -0.34400
Zn	Zn	0.33146 0.89869 0.09693 1.19100
N 	N 	0.33740 0.96400 0.04150 -0.28200
C 	C 	0.29520 0.97850 0.02540 0.04800
C 	C 	0.23410 0.95200 0.05660 -0.12900
H 	H 	0.21950 0.92380 0.09260 0.05300
C 	C 	0.20080 0.97640 0.02280 0.06200
H 	H 	0.15950 0.95840 0.03290 -0.20400
C 	C 	0.13900 0.96100 0.04800 0.38200
H 	H 	0.13560 0.99670 0.05060 -0.09000
H 	H 	0.10830 0.93240 0.01620 -0.05100
H 	H 	0.13150 0.94220 0.09320 -0.07800
N 	N 	0.25980 0.82800 0.06320 -0.28900
C 	C 	0.24360 0.80980 0.99880 0.06400
C 	C 	0.27510 0.84230 0.93330 -0.18200
H 	H 	0.31080 0.87990 0.93240 0.08300
C 	C 	0.24450 0.80920 0.87280 0.12700
C 	C 	0.29000 0.85300 0.82100 0.73900
H 	H 	0.29400 0.83150 0.78320 -0.12400
H 	H 	0.27620 0.88010 0.80470 -0.16300
H 	H 	0.32870 0.87700 0.84390 -0.19100
N 	N 	0.40020 0.88730 0.07270 -0.29000
C 	C 	0.39250 0.84010 0.03880 0.00700
H 	H 	0.35660 0.81110 0.01800 0.01800
O 	O 	0.53400 0.98670 0.13130 -0.16900
N 	N 	0.32390 0.91810 0.19390 -0.28100
C 	C 	0.32330 0.96890 0.21650 -0.00100
H 	H 	0.32300 0.99850 0.18820 0.02200
O 	O 	0.32460 0.81490 0.19510 -0.16000
H 	H 	0.26230 0.82530 0.83000 -0.34400
Zn	Zn	0.56723 0.89869 0.40307 1.19200
N 	N 	0.62660 0.96400 0.45850 -0.28300
C 	C 	0.68330 0.97850 0.47460 0.05400
C 	C 	0.71790 0.95200 0.44340 -0.13300
H 	H 	0.70430 0.92380 0.40740 0.05500
C 	C 	0.77560 0.97640 0.47720 0.07000
H 	H 	0.79890 0.95840 0.46710 -0.20400
C 	C 	0.82200 0.96100 0.45200 0.37900
H 	H 	0.86110 0.99670 0.44940 -0.08700
H 	H 	0.82410 0.93240 0.48380 -0.04900
H 	H 	0.81070 0.94220 0.40680 -0.07700
N 	N 	0.56820 0.82800 0.43680 -0.28700
C 	C 	0.56620 0.80980 0.50120 0.06100
C 	C 	0.56720 0.84230 0.56670 -0.18200
H 	H 	0.56910 0.87990 0.56760 0.08200
C 	C 	0.56470 0.80920 0.62720 0.12600
C 	C 	0.56300 0.85300 0.67900 0.73900
H 	H 	0.53750 0.83150 0.71680 -0.12500
H 	H 	0.60390 0.88010 0.69530 -0.16300
H 	H 	0.54830 0.87700 0.65610 -0.19200
N 	N 	0.48710 0.88730 0.42730 -0.29000
C 	C 	0.44760 0.84010 0.46120 0.00700
H 	H 	0.45450 0.81110 0.48200 0.01900
O 	O 	0.45270 0.98670 0.36870 -0.16900
N 	N 	0.59420 0.91810 0.30610 -0.28100
C 	C 	0.64560 0.96890 0.28350 -0.00100
H 	H 	0.67550 0.99850 0.31180 0.02300
O 	O 	0.49030 0.81490 0.30490 -0.16000
H 	H 	0.56300 0.82530 0.67000 -0.34400
Zn	Zn	0.33146 0.43277 0.40307 1.19100
N 	N 	0.33740 0.37340 0.45850 -0.28400
C 	C 	0.29520 0.31670 0.47460 0.04900
C 	C 	0.23410 0.28210 0.44340 -0.12900
H 	H 	0.21950 0.29570 0.40740 0.05300
C 	C 	0.20080 0.22440 0.47720 0.06200
H 	H 	0.15950 0.20110 0.46710 -0.20300
C 	C 	0.13900 0.17800 0.45200 0.38100
H 	H 	0.13560 0.13890 0.44940 -0.09000
H 	H 	0.10830 0.17590 0.48380 -0.05100
H 	H 	0.13150 0.18930 0.40680 -0.07900
N 	N 	0.25980 0.43180 0.43680 -0.28700
C 	C 	0.24360 0.43380 0.50120 0.06100
C 	C 	0.27510 0.43280 0.56670 -0.18100
H 	H 	0.31080 0.43090 0.56760 0.08100
C 	C 	0.24450 0.43530 0.62720 0.12500
C 	C 	0.29000 0.43700 0.67900 0.73700
H 	H 	0.29400 0.46250 0.71680 -0.12400
H 	H 	0.27620 0.39610 0.69530 -0.16300
H 	H 	0.32870 0.45170 0.65610 -0.19200
N 	N 	0.40020 0.51290 0.42730 -0.29000
C 	C 	0.39250 0.55240 0.46120 0.00700
H 	H 	0.35660 0.54550 0.48200 0.01900
O 	O 	0.53400 0.54730 0.36870 -0.17000
N 	N 	0.32390 0.40580 0.30610 -0.28100
C 	C 	0.32330 0.35440 0.28350 -0.00100
H 	H 	0.32300 0.32450 0.31180 0.02200
O 	O 	0.32460 0.50970 0.30490 -0.16000
H 	H 	0.26230 0.43700 0.67000 -0.34400
Zn	Zn	0.10131 0.66854 0.40307 1.19100
N 	N 	0.03600 0.66260 0.45850 -0.28300
C 	C 	0.02150 0.70480 0.47460 0.04500
C 	C 	0.04800 0.76590 0.44340 -0.12600
H 	H 	0.07620 0.78050 0.40740 0.05200
C 	C 	0.02360 0.79920 0.47720 0.05700
H 	H 	0.04160 0.84050 0.46710 -0.20300
C 	C 	0.03900 0.86100 0.45200 0.38300
H 	H 	0.00330 0.86440 0.44940 -0.09100
H 	H 	0.06760 0.89170 0.48380 -0.05200
H 	H 	0.05780 0.86850 0.40680 -0.07900
N 	N 	0.17200 0.74020 0.43680 -0.28700
C 	C 	0.19020 0.75640 0.50120 0.06000
C 	C 	0.15770 0.72490 0.56670 -0.18100
H 	H 	0.12010 0.68920 0.56760 0.08100
C 	C 	0.19080 0.75550 0.62720 0.12500
C 	C 	0.14700 0.71000 0.67900 0.73700
H 	H 	0.16850 0.70600 0.71680 -0.12500
H 	H 	0.11990 0.72380 0.69530 -0.16400
H 	H 	0.12300 0.67130 0.65610 -0.19200
N 	N 	0.11270 0.59980 0.42730 -0.29000
C 	C 	0.15990 0.60750 0.46120 0.00700
H 	H 	0.18890 0.64340 0.48200 0.01900
O 	O 	0.01330 0.46600 0.36870 -0.17100
N 	N 	0.08190 0.67610 0.30610 -0.28100
C 	C 	0.03110 0.67670 0.28350 -0.00200
H 	H 	0.00150 0.67700 0.31180 0.02100
O 	O 	0.18510 0.67540 0.30490 -0.16000
H 	H 	0.17470 0.73770 0.67000 -0.34300
Zn	Zn	0.43277 0.10131 0.90307 1.19200
N 	N 	0.37340 0.03600 0.95850 -0.28100
C 	C 	0.31670 0.02150 0.97460 0.05000
C 	C 	0.28210 0.04800 0.94340 -0.12900
H 	H 	0.29570 0.07620 0.90740 0.05300
C 	C 	0.22440 0.02360 0.97720 0.06300
H 	H 	0.20110 0.04160 0.96710 -0.20300
C 	C 	0.17800 0.03900 0.95200 0.38100
H 	H 	0.13890 0.00330 0.94940 -0.09000
H 	H 	0.17590 0.06760 0.98380 -0.05100
H 	H 	0.18930 0.05780 0.90680 -0.07900
N 	N 	0.43180 0.17200 0.93680 -0.28500
C 	C 	0.43380 0.19020 0.00120 0.05800
C 	C 	0.43280 0.15770 0.06670 -0.18100
H 	H 	0.43090 0.12010 0.06760 0.08000
C 	C 	0.43530 0.19080 0.12720 0.12400
C 	C 	0.43700 0.14700 0.17900 0.73600
H 	H 	0.46250 0.16850 0.21680 -0.12500
H 	H 	0.39610 0.11990 0.19530 -0.16400
H 	H 	0.45170 0.12300 0.15610 -0.19200
N 	N 	0.51290 0.11270 0.92730 -0.29000
C 	C 	0.55240 0.15990 0.96120 0.00700
H 	H 	0.54550 0.18890 0.98200 0.02000
O 	O 	0.54730 0.01330 0.86870 -0.17000
N 	N 	0.40580 0.08190 0.80610 -0.28100
C 	C 	0.35440 0.03110 0.78350 -0.00200
H 	H 	0.32450 0.00150 0.81180 0.02100
O 	O 	0.50970 0.18510 0.80490 -0.16000
H 	H 	0.43700 0.17470 0.17000 -0.34300
Zn	Zn	0.66854 0.56723 0.90307 1.19200
N 	N 	0.66260 0.62660 0.95850 -0.28200
C 	C 	0.70480 0.68330 0.97460 0.05500
C 	C 	0.76590 0.71790 0.94340 -0.13300
H 	H 	0.78050 0.70430 0.90740 0.05500
C 	C 	0.79920 0.77560 0.97720 0.07100
H 	H 	0.84050 0.79890 0.96710 -0.20400
C 	C 	0.86100 0.82200 0.95200 0.37900
H 	H 	0.86440 0.86110 0.94940 -0.08700
H 	H 	0.89170 0.82410 0.98380 -0.04900
H 	H 	0.86850 0.81070 0.90680 -0.07700
N 	N 	0.74020 0.56820 0.93680 -0.28500
C 	C 	0.75640 0.56620 0.00120 0.05800
C 	C 	0.72490 0.56720 0.06670 -0.18100
H 	H 	0.68920 0.56910 0.06760 0.08100
C 	C 	0.75550 0.56470 0.12720 0.12500
C 	C 	0.71000 0.56300 0.17900 0.73800
H 	H 	0.70600 0.53750 0.21680 -0.12500
H 	H 	0.72380 0.60390 0.19530 -0.16400
H 	H 	0.67130 0.54830 0.15610 -0.19200
N 	N 	0.59980 0.48710 0.92730 -0.29000
C 	C 	0.60750 0.44760 0.96120 0.00700
H 	H 	0.64340 0.45450 0.98200 0.02000
O 	O 	0.46600 0.45270 0.86870 -0.16900
N 	N 	0.67610 0.59420 0.80610 -0.28100
C 	C 	0.67670 0.64560 0.78350 -0.00100
H 	H 	0.67700 0.67550 0.81180 0.02200
O 	O 	0.67540 0.49030 0.80490 -0.16000
H 	H 	0.73770 0.56300 0.17000 -0.34300
Zn	Zn	0.89869 0.33146 0.90307 1.19200
N 	N 	0.96400 0.33740 0.95850 -0.28200
C 	C 	0.97850 0.29520 0.97460 0.05800
C 	C 	0.95200 0.23410 0.94340 -0.13500
H 	H 	0.92380 0.21950 0.90740 0.05600
C 	C 	0.97640 0.20080 0.97720 0.07500
H 	H 	0.95840 0.15950 0.96710 -0.20500
C 	C 	0.96100 0.13900 0.95200 0.37700
H 	H 	0.99670 0.13560 0.94940 -0.08700
H 	H 	0.93240 0.10830 0.98380 -0.04800
H 	H 	0.94220 0.13150 0.90680 -0.07700
N 	N 	0.82800 0.25980 0.93680 -0.28500
C 	C 	0.80980 0.24360 0.00120 0.05800
C 	C 	0.84230 0.27510 0.06670 -0.18200
H 	H 	0.87990 0.31080 0.06760 0.08100
C 	C 	0.80920 0.24450 0.12720 0.12600
C 	C 	0.85300 0.29000 0.17900 0.73800
H 	H 	0.83150 0.29400 0.21680 -0.12500
H 	H 	0.88010 0.27620 0.19530 -0.16300
H 	H 	0.87700 0.32870 0.15610 -0.19200
N 	N 	0.88730 0.40020 0.92730 -0.29000
C 	C 	0.84010 0.39250 0.96120 0.00800
H 	H 	0.81110 0.35660 0.98200 0.02000
O 	O 	0.98670 0.53400 0.86870 -0.16900
N 	N 	0.91810 0.32390 0.80610 -0.28100
C 	C 	0.96890 0.32330 0.78350 -0.00100
H 	H 	0.99850 0.32300 0.81180 0.02200
O 	O 	0.81490 0.32460 0.80490 -0.16000
H 	H 	0.82530 0.26230 0.17000 -0.34400
C 	C 	0.00000 0.38360 0.50000 0.07600
H 	H 	0.00000 0.42020 0.50000 -0.01200
C 	C 	0.61640 0.61640 0.50000 0.07800
H 	H 	0.57980 0.57980 0.50000 -0.01200
C 	C 	0.38360 0.00000 0.50000 0.07400
H 	H 	0.42020 0.00000 0.50000 -0.01200
C 	C 	0.00000 0.61640 -0.00000 0.07200
H 	H 	-0.00000 0.57980 -0.00000 -0.01200
C 	C 	0.38360 0.38360 -0.00000 0.07400
H 	H 	0.42020 0.42020 -0.00000 -0.01200
C 	C 	0.61640 0.00000 -0.00000 0.07000
H 	H 	0.57980 0.00000 -0.00000 -0.01200
C 	C 	0.00000 0.61640 0.50000 0.07600
H 	H 	0.00000 0.57980 0.50000 -0.01200
C 	C 	0.38360 0.38360 0.50000 0.07800
H 	H 	0.42020 0.42020 0.50000 -0.01200
C 	C 	0.61640 0.00000 0.50000 0.07400
H 	H 	0.57980 0.00000 0.50000 -0.01200
C 	C 	-0.00000 0.38360 -0.00000 0.07200
H 	H 	-0.00000 0.42020 -0.00000 -0.01200
C 	C 	0.61640 0.61640 -0.00000 0.07400
H 	H 	0.57980 0.57980 -0.00000 -0.01200
C 	C 	0.38360 0.00000 -0.00000 0.07000
H 	H 	0.42020 0.00000 -0.00000 -0.01200
C 	C 	0.21650 0.43300 0.39970 0.08700
H 	H 	0.21735 0.43470 0.35140 -0.01500
C 	C 	0.56700 0.78350 0.39970 0.08700
H 	H 	0.56530 0.78265 0.35140 -0.01500
C 	C 	0.21650 0.78350 0.39970 0.08700
H 	H 	0.21735 0.78265 0.35140 -0.01500
C 	C 	0.78350 0.56700 0.89970 0.08800
H 	H 	0.78265 0.56530 0.85140 -0.01500
C 	C 	0.43300 0.21650 0.89970 0.08800
H 	H 	0.43470 0.21735 0.85140 -0.01500
C 	C 	0.78350 0.21650 0.89970 0.08800
H 	H 	0.78265 0.21735 0.85140 -0.01500
C 	C 	0.43300 0.21650 0.60030 0.08700
H 	H 	0.43470 0.21735 0.64860 -0.01500
C 	C 	0.78350 0.56700 0.60030 0.08700
H 	H 	0.78265 0.56530 0.64860 -0.01500
C 	C 	0.78350 0.21650 0.60030 0.08700
H 	H 	0.78265 0.21735 0.64860 -0.01500
C 	C 	0.56700 0.78350 0.10030 0.08700
H 	H 	0.56530 0.78265 0.14860 -0.01500
C 	C 	0.21650 0.43300 0.10030 0.08700
H 	H 	0.21735 0.43470 0.14860 -0.01500
C 	C 	0.21650 0.78350 0.10030 0.08700
H 	H 	0.21735 0.78265 0.14860 -0.01500
C 	C 	0.09230 0.54615 0.41310 0.22700
N 	N 	0.03900 0.51950 0.37510 -0.03100
C 	C 	0.45385 0.54615 0.41310 0.22700
N 	N 	0.48050 0.51950 0.37510 -0.03100
C 	C 	0.45385 0.90770 0.41310 0.22800
N 	N 	0.48050 0.96100 0.37510 -0.03100
C 	C 	0.90770 0.45385 0.91310 0.22800
N 	N 	0.96100 0.48050 0.87510 -0.03100
C 	C 	0.54615 0.45385 0.91310 0.22800
N 	N 	0.51950 0.48050 0.87510 -0.03100
C 	C 	0.54615 0.09230 0.91310 0.22800
N 	N 	0.51950 0.03900 0.87510 -0.03100
C 	C 	0.54615 0.09230 0.58690 0.22700
N 	N 	0.51950 0.03900 0.62490 -0.03100
C 	C 	0.54615 0.45385 0.58690 0.22700
N 	N 	0.51950 0.48050 0.62490 -0.03100
C 	C 	0.90770 0.45385 0.58690 0.22800
N 	N 	0.96100 0.48050 0.62490 -0.03100
C 	C 	0.45385 0.90770 0.08690 0.22800
N 	N 	0.48050 0.96100 0.12490 -0.03100
C 	C 	0.45385 0.54615 0.08690 0.22700
N 	N 	0.48050 0.51950 0.12490 -0.03100
C 	C 	0.09230 0.54615 0.08690 0.22700
N 	N 	0.03900 0.51950 0.12490 -0.03100
C 	C 	0.10730 0.43000 0.25000 0.18500
N 	N 	0.16130 0.48490 0.25000 -0.04000
C 	C 	0.57000 0.67730 0.25000 0.18500
N 	N 	0.51510 0.67640 0.25000 -0.04000
C 	C 	0.32270 0.89270 0.25000 0.18500
N 	N 	0.32360 0.83870 0.25000 -0.04000
C 	C 	0.89270 0.57000 0.75000 0.18500
N 	N 	0.83870 0.51510 0.75000 -0.04000
C 	C 	0.43000 0.32270 0.75000 0.18500
N 	N 	0.48490 0.32360 0.75000 -0.04000
C 	C 	0.67730 0.10730 0.75000 0.18500
N 	N 	0.67640 0.16130 0.75000 -0.04000
C 	C 	0.43000 0.10730 0.75000 0.18500
N 	N 	0.48490 0.16130 0.75000 -0.04000
C 	C 	0.67730 0.57000 0.75000 0.18500
N 	N 	0.67640 0.51510 0.75000 -0.04000
C 	C 	0.89270 0.32270 0.75000 0.18500
N 	N 	0.83870 0.32360 0.75000 -0.04000
C 	C 	0.57000 0.89270 0.25000 0.18500
N 	N 	0.51510 0.83870 0.25000 -0.04000
C 	C 	0.32270 0.43000 0.25000 0.18500
N 	N 	0.32360 0.48490 0.25000 -0.04000
C 	C 	0.10730 0.67730 0.25000 0.18500
N 	N 	0.16130 0.67640 0.25000 -0.04000
