data_crystal

_cell_length_a 25.78900
_cell_length_b 25.78900
_cell_length_c 19.79700
_cell_angle_alpha 90.00000
_cell_angle_beta  90.00000
_cell_angle_gamma 120.00000

_symmetry_space_group_name_	'P 1'
_symmetry_space_group_name_H-M	'P 1'

loop_
_symmetry_equiv_pos_as_xyz
  x,y,z

loop_
_atom_site_label
_atom_site_type_symbol
_atom_site_fract_x
_atom_site_fract_y
_atom_site_fract_z
_atom_site_charge
Zn	Zn	0.43191 0.10032 0.59785 1.19200
H 	H 	0.29750 0.07560 0.59100 0.05200
H 	H 	0.43580 0.12000 0.43900 0.07300
H 	H 	0.48310 0.18490 0.29000 0.23500
H 	H 	0.41370 0.14110 0.28960 0.24100
H 	H 	0.45490 0.12730 0.33520 0.25500
H 	H 	0.54930 0.19500 0.52740 0.02000
H 	H 	0.32450 0.99800 0.68850 0.01300
C 	C 	0.31480 0.02210 0.52700 0.06600
C 	C 	0.28260 0.04640 0.55600 -0.14500
C 	C 	0.22170 0.02120 0.52570 0.06000
C 	C 	0.18700 0.05000 0.55800 -0.16800
C 	C 	0.43230 0.19020 0.49850 0.07700
C 	C 	0.43650 0.15710 0.43830 -0.19400
C 	C 	0.44190 0.19400 0.37550 0.21000
C 	C 	0.44900 0.15800 0.31700 -0.72900
C 	C 	0.55500 0.16420 0.54580 0.00200
C 	C 	0.35410 0.02850 0.71620 -0.00500
N 	N 	0.37130 0.03510 0.54280 -0.28100
N 	N 	0.43060 0.17080 0.56410 -0.28400
N 	N 	0.51170 0.11360 0.57580 -0.28600
N 	N 	0.40420 0.08000 0.69310 -0.27700
O 	O 	0.54530 0.00840 0.63240 -0.17300
O 	O 	0.50850 0.18580 0.69470 -0.16200
Zn	Zn	0.89968 0.33159 0.59785 1.19300
H 	H 	0.92440 0.22190 0.59100 0.05400
H 	H 	0.88000 0.31580 0.43900 0.07500
H 	H 	0.81510 0.29820 0.29000 0.23700
H 	H 	0.85890 0.27260 0.28960 0.24200
H 	H 	0.87270 0.32760 0.33520 0.25600
H 	H 	0.80500 0.35430 0.52740 0.02000
H 	H 	0.00200 0.32650 0.68850 0.00900
C 	C 	0.97790 0.29270 0.52700 0.07100
C 	C 	0.95360 0.23620 0.55600 -0.14800
C 	C 	0.97880 0.20050 0.52570 0.06500
C 	C 	0.95000 0.13700 0.55800 -0.16900
C 	C 	0.80980 0.24210 0.49850 0.07800
C 	C 	0.84290 0.27940 0.43830 -0.19500
C 	C 	0.80600 0.24790 0.37550 0.21200
C 	C 	0.84200 0.29100 0.31700 -0.73100
C 	C 	0.83580 0.39080 0.54580 0.00200
C 	C 	0.97150 0.32560 0.71620 -0.00200
N 	N 	0.96490 0.33620 0.54280 -0.28100
N 	N 	0.82920 0.25980 0.56410 -0.28400
N 	N 	0.88640 0.39810 0.57580 -0.28600
N 	N 	0.92000 0.32420 0.69310 -0.27800
O 	O 	0.99160 0.53690 0.63240 -0.17200
O 	O 	0.81420 0.32270 0.69470 -0.16200
Zn	Zn	0.66841 0.56809 0.59785 1.19200
H 	H 	0.77810 0.70250 0.59100 0.05400
H 	H 	0.68420 0.56420 0.43900 0.03200
H 	H 	0.64570 0.45070 0.52740 0.02000
H 	H 	0.67350 0.67550 0.68850 0.01100
C 	C 	0.70730 0.68520 0.52700 0.07000
C 	C 	0.76380 0.71740 0.55600 -0.14700
C 	C 	0.79950 0.77830 0.52570 0.06400
C 	C 	0.86300 0.81300 0.55800 -0.16900
C 	C 	0.75790 0.56770 0.49850 0.01800
C 	C 	0.72060 0.56350 0.43830 -0.05600
C 	C 	0.75210 0.55810 0.37550 -0.12700
C 	C 	0.60920 0.44500 0.54580 0.00300
C 	C 	0.67440 0.64590 0.71620 -0.00300
N 	N 	0.66380 0.62870 0.54280 -0.28100
N 	N 	0.74020 0.56940 0.56410 -0.27500
N 	N 	0.60190 0.48830 0.57580 -0.28600
N 	N 	0.67580 0.59580 0.69310 -0.27800
O 	O 	0.46310 0.45470 0.63240 -0.17200
O 	O 	0.67730 0.49150 0.69470 -0.16200
Zn	Zn	0.56809 0.89968 0.09785 1.19300
H 	H 	0.70250 0.92440 0.09100 0.05300
H 	H 	0.56420 0.88000 0.93900 0.07600
H 	H 	0.51690 0.81510 0.79000 0.23800
H 	H 	0.58630 0.85890 0.78960 0.24300
H 	H 	0.54510 0.87270 0.83520 0.25700
H 	H 	0.45070 0.80500 0.02740 0.02000
H 	H 	0.67550 0.00200 0.18850 0.00800
C 	C 	0.68520 0.97790 0.02700 0.06800
C 	C 	0.71740 0.95360 0.05600 -0.14600
C 	C 	0.77830 0.97880 0.02570 0.06300
C 	C 	0.81300 0.95000 0.05800 -0.16700
C 	C 	0.56770 0.80980 0.99850 0.08000
C 	C 	0.56350 0.84290 0.93830 -0.19500
C 	C 	0.55810 0.80600 0.87550 0.21300
C 	C 	0.55100 0.84200 0.81700 -0.73300
C 	C 	0.44500 0.83580 0.04580 0.00200
C 	C 	0.64590 0.97150 0.21620 -0.00100
N 	N 	0.62870 0.96490 0.04280 -0.28000
N 	N 	0.56940 0.82920 0.06410 -0.28500
N 	N 	0.48830 0.88640 0.07580 -0.28600
N 	N 	0.59580 0.92000 0.19310 -0.27800
O 	O 	0.45470 0.99160 0.13240 -0.17200
O 	O 	0.49150 0.81420 0.19470 -0.16200
Zn	Zn	0.10032 0.66841 0.09785 1.19300
H 	H 	0.07560 0.77810 0.09100 0.05200
H 	H 	0.12000 0.68420 0.93900 0.07500
H 	H 	0.18490 0.70180 0.79000 0.23700
H 	H 	0.14110 0.72740 0.78960 0.24200
H 	H 	0.12730 0.67240 0.83520 0.25600
H 	H 	0.19500 0.64570 0.02740 0.02000
H 	H 	0.99800 0.67350 0.18850 0.01500
C 	C 	0.02210 0.70730 0.02700 0.06400
C 	C 	0.04640 0.76380 0.05600 -0.14300
C 	C 	0.02120 0.79950 0.02570 0.05800
C 	C 	0.05000 0.86300 0.05800 -0.16600
C 	C 	0.19020 0.75790 0.99850 0.07900
C 	C 	0.15710 0.72060 0.93830 -0.19500
C 	C 	0.19400 0.75210 0.87550 0.21200
C 	C 	0.15800 0.70900 0.81700 -0.73100
C 	C 	0.16420 0.60920 0.04580 0.00200
C 	C 	0.02850 0.67440 0.21620 -0.00500
N 	N 	0.03510 0.66380 0.04280 -0.28000
N 	N 	0.17080 0.74020 0.06410 -0.28500
N 	N 	0.11360 0.60190 0.07580 -0.28600
N 	N 	0.08000 0.67580 0.19310 -0.27700
O 	O 	0.00840 0.46310 0.13240 -0.17200
O 	O 	0.18580 0.67730 0.19470 -0.16200
Zn	Zn	0.33159 0.43191 0.09785 1.19300
H 	H 	0.22190 0.29750 0.09100 0.05200
H 	H 	0.31580 0.43580 0.93900 0.07600
H 	H 	0.29820 0.48310 0.79000 0.23700
H 	H 	0.27260 0.41370 0.78960 0.24200
H 	H 	0.32760 0.45490 0.83520 0.25600
H 	H 	0.35430 0.54930 0.02740 0.02000
H 	H 	0.32650 0.32450 0.18850 0.01100
C 	C 	0.29270 0.31480 0.02700 0.06500
C 	C 	0.23620 0.28260 0.05600 -0.14400
C 	C 	0.20050 0.22170 0.02570 0.05900
C 	C 	0.13700 0.18700 0.05800 -0.16600
C 	C 	0.24210 0.43230 0.99850 0.07900
C 	C 	0.27940 0.43650 0.93830 -0.19400
C 	C 	0.24790 0.44190 0.87550 0.21100
C 	C 	0.29100 0.44900 0.81700 -0.73100
C 	C 	0.39080 0.55500 0.04580 0.00200
C 	C 	0.32560 0.35410 0.21620 -0.00300
N 	N 	0.33620 0.37130 0.04280 -0.28100
N 	N 	0.25980 0.43060 0.06410 -0.28500
N 	N 	0.39810 0.51170 0.07580 -0.28600
N 	N 	0.32420 0.40420 0.19310 -0.27800
O 	O 	0.53690 0.54530 0.13240 -0.17800
O 	O 	0.32270 0.50850 0.19470 -0.16200
Zn	Zn	0.10032 0.43191 0.40215 1.19300
H 	H 	0.07560 0.29750 0.40900 0.03300
H 	H 	0.12000 0.43580 0.56100 0.07500
H 	H 	0.18490 0.48310 0.71000 0.23700
H 	H 	0.14110 0.41370 0.71040 0.24200
H 	H 	0.12730 0.45490 0.66480 0.25600
H 	H 	0.19500 0.54930 0.47260 0.02000
H 	H 	0.99800 0.32450 0.31150 0.01200
C 	C 	0.02210 0.31480 0.47300 0.04100
C 	C 	0.04640 0.28260 0.44400 -0.09000
C 	C 	0.02120 0.22170 0.47430 -0.05600
C 	C 	0.19020 0.43230 0.50150 0.07700
C 	C 	0.15710 0.43650 0.56170 -0.19400
C 	C 	0.19400 0.44190 0.62450 0.21000
C 	C 	0.15800 0.44900 0.68300 -0.73000
C 	C 	0.16420 0.55500 0.45420 0.00200
C 	C 	0.02850 0.35410 0.28380 -0.00500
N 	N 	0.03510 0.37130 0.45720 -0.27700
N 	N 	0.17080 0.43060 0.43590 -0.28400
N 	N 	0.11360 0.51170 0.42420 -0.28600
N 	N 	0.08000 0.40420 0.30690 -0.27700
O 	O 	0.00840 0.54530 0.36760 -0.17800
O 	O 	0.18580 0.50850 0.30530 -0.16200
Zn	Zn	0.33159 0.89968 0.40215 1.19300
H 	H 	0.22190 0.92440 0.40900 0.03500
H 	H 	0.31580 0.88000 0.56100 0.07500
H 	H 	0.29820 0.81510 0.71000 0.23800
H 	H 	0.27260 0.85890 0.71040 0.24300
H 	H 	0.32760 0.87270 0.66480 0.25700
H 	H 	0.35430 0.80500 0.47260 0.02000
H 	H 	0.32650 0.00200 0.31150 0.00900
C 	C 	0.29270 0.97790 0.47300 0.04600
C 	C 	0.23620 0.95360 0.44400 -0.09400
C 	C 	0.20050 0.97880 0.47430 -0.05000
C 	C 	0.24210 0.80980 0.50150 0.07800
C 	C 	0.27940 0.84290 0.56170 -0.19500
C 	C 	0.24790 0.80600 0.62450 0.21200
C 	C 	0.29100 0.84200 0.68300 -0.73300
C 	C 	0.39080 0.83580 0.45420 0.00200
C 	C 	0.32560 0.97150 0.28380 -0.00100
N 	N 	0.33620 0.96490 0.45720 -0.27600
N 	N 	0.25980 0.82920 0.43590 -0.28400
N 	N 	0.39810 0.88640 0.42420 -0.28600
N 	N 	0.32420 0.92000 0.30690 -0.27800
O 	O 	0.53690 0.99160 0.36760 -0.17200
O 	O 	0.32270 0.81420 0.30530 -0.16200
Zn	Zn	0.56809 0.66841 0.40215 1.19300
H 	H 	0.70250 0.77810 0.40900 0.03400
H 	H 	0.56420 0.68420 0.56100 0.07500
H 	H 	0.51690 0.70180 0.71000 0.23800
H 	H 	0.58630 0.72740 0.71040 0.24200
H 	H 	0.54510 0.67240 0.66480 0.25700
H 	H 	0.45070 0.64570 0.47260 0.02000
H 	H 	0.67550 0.67350 0.31150 0.01400
C 	C 	0.68520 0.70730 0.47300 0.04300
C 	C 	0.71740 0.76380 0.44400 -0.09100
C 	C 	0.77830 0.79950 0.47430 -0.05400
C 	C 	0.56770 0.75790 0.50150 0.07800
C 	C 	0.56350 0.72060 0.56170 -0.19500
C 	C 	0.55810 0.75210 0.62450 0.21200
C 	C 	0.55100 0.70900 0.68300 -0.73200
C 	C 	0.44500 0.60920 0.45420 0.00200
C 	C 	0.64590 0.67440 0.28380 -0.00300
N 	N 	0.62870 0.66380 0.45720 -0.27700
N 	N 	0.56940 0.74020 0.43590 -0.28400
N 	N 	0.48830 0.60190 0.42420 -0.28600
N 	N 	0.59580 0.67580 0.30690 -0.27700
O 	O 	0.45470 0.46310 0.36760 -0.17100
O 	O 	0.49150 0.67730 0.30530 -0.16200
Zn	Zn	0.89968 0.56809 0.90215 1.19300
H 	H 	0.92440 0.70250 0.90900 0.03500
H 	H 	0.88000 0.56420 0.06100 0.03200
H 	H 	0.80500 0.45070 0.97260 0.02100
H 	H 	0.00200 0.67550 0.81150 0.00900
C 	C 	0.97790 0.68520 0.97300 0.04900
C 	C 	0.95360 0.71740 0.94400 -0.09600
C 	C 	0.97880 0.77830 0.97430 -0.04700
C 	C 	0.80980 0.56770 0.00150 0.01600
C 	C 	0.84290 0.56350 0.06170 -0.05600
C 	C 	0.80600 0.55810 0.12450 -0.12700
C 	C 	0.83580 0.44500 0.95420 0.00400
C 	C 	0.97150 0.64590 0.78380 -0.00100
N 	N 	0.96490 0.62870 0.95720 -0.27600
N 	N 	0.82920 0.56940 0.93590 -0.27400
N 	N 	0.88640 0.48830 0.92420 -0.28600
N 	N 	0.92000 0.59580 0.80690 -0.27800
O 	O 	0.99160 0.45470 0.86760 -0.17100
O 	O 	0.81420 0.49150 0.80530 -0.16200
Zn	Zn	0.66841 0.10032 0.90215 1.19300
H 	H 	0.77810 0.07560 0.90900 0.03300
H 	H 	0.68420 0.12000 0.06100 0.07400
H 	H 	0.70180 0.18490 0.21000 0.23700
H 	H 	0.72740 0.14110 0.21040 0.24200
H 	H 	0.67240 0.12730 0.16480 0.25600
H 	H 	0.64570 0.19500 0.97260 0.02100
H 	H 	0.67350 0.99800 0.81150 0.01300
C 	C 	0.70730 0.02210 0.97300 0.04400
C 	C 	0.76380 0.04640 0.94400 -0.09300
C 	C 	0.79950 0.02120 0.97430 -0.05300
C 	C 	0.75790 0.19020 0.00150 0.07500
C 	C 	0.72060 0.15710 0.06170 -0.19500
C 	C 	0.75210 0.19400 0.12450 0.21100
C 	C 	0.70900 0.15800 0.18300 -0.73000
C 	C 	0.60920 0.16420 0.95420 0.00200
C 	C 	0.67440 0.02850 0.78380 -0.00500
N 	N 	0.66380 0.03510 0.95720 -0.27500
N 	N 	0.74020 0.17080 0.93590 -0.28200
N 	N 	0.60190 0.11360 0.92420 -0.28600
N 	N 	0.67580 0.08000 0.80690 -0.27700
O 	O 	0.46310 0.00840 0.86760 -0.17200
O 	O 	0.67730 0.18580 0.80530 -0.16200
Zn	Zn	0.43191 0.33159 0.90215 1.19300
H 	H 	0.29750 0.22190 0.90900 0.03500
H 	H 	0.43580 0.31580 0.06100 0.07400
H 	H 	0.48310 0.29820 0.21000 0.23600
H 	H 	0.41370 0.27260 0.21040 0.24100
H 	H 	0.45490 0.32760 0.16480 0.25500
H 	H 	0.54930 0.35430 0.97260 0.02100
H 	H 	0.32450 0.32650 0.81150 0.01100
C 	C 	0.31480 0.29270 0.97300 0.04700
C 	C 	0.28260 0.23620 0.94400 -0.09500
C 	C 	0.22170 0.20050 0.97430 -0.04900
C 	C 	0.43230 0.24210 0.00150 0.07500
C 	C 	0.43650 0.27940 0.06170 -0.19400
C 	C 	0.44190 0.24790 0.12450 0.21000
C 	C 	0.44900 0.29100 0.18300 -0.72900
C 	C 	0.55500 0.39080 0.95420 0.00200
C 	C 	0.35410 0.32560 0.78380 -0.00300
N 	N 	0.37130 0.33620 0.95720 -0.27600
N 	N 	0.43060 0.25980 0.93590 -0.28300
N 	N 	0.51170 0.39810 0.92420 -0.28600
N 	N 	0.40420 0.32420 0.80690 -0.27800
O 	O 	0.54530 0.53690 0.86760 -0.17200
O 	O 	0.50850 0.32270 0.80530 -0.16200
Zn	Zn	0.56809 0.89968 0.40215 1.19300
H 	H 	0.70250 0.92440 0.40900 0.05400
H 	H 	0.56420 0.88000 0.56100 0.03200
H 	H 	0.45070 0.80500 0.47260 0.02000
H 	H 	0.67550 0.00200 0.31150 0.01100
C 	C 	0.68520 0.97790 0.47300 0.07300
C 	C 	0.71740 0.95360 0.44400 -0.14800
C 	C 	0.77830 0.97880 0.47430 0.06700
C 	C 	0.81300 0.95000 0.44200 -0.16900
C 	C 	0.56770 0.80980 0.50150 0.01800
C 	C 	0.56350 0.84290 0.56170 -0.05500
C 	C 	0.55810 0.80600 0.62450 -0.12900
C 	C 	0.44500 0.83580 0.45420 0.00300
C 	C 	0.64590 0.97150 0.28380 -0.00100
N 	N 	0.62870 0.96490 0.45720 -0.28000
N 	N 	0.56940 0.82920 0.43590 -0.27500
N 	N 	0.48830 0.88640 0.42420 -0.28600
N 	N 	0.59580 0.92000 0.30690 -0.27800
O 	O 	0.45470 0.99160 0.36760 -0.17600
O 	O 	0.49150 0.81420 0.30530 -0.16200
Zn	Zn	0.10032 0.66841 0.40215 1.19200
H 	H 	0.07560 0.77810 0.40900 0.05300
H 	H 	0.12000 0.68420 0.56100 0.03100
H 	H 	0.19500 0.64570 0.47260 0.02000
H 	H 	0.99800 0.67350 0.31150 0.01200
C 	C 	0.02210 0.70730 0.47300 0.06700
C 	C 	0.04640 0.76380 0.44400 -0.14500
C 	C 	0.02120 0.79950 0.47430 0.06100
C 	C 	0.05000 0.86300 0.44200 -0.16800
C 	C 	0.19020 0.75790 0.50150 0.01800
C 	C 	0.15710 0.72060 0.56170 -0.05500
C 	C 	0.19400 0.75210 0.62450 -0.12900
C 	C 	0.16420 0.60920 0.45420 0.00300
C 	C 	0.02850 0.67440 0.28380 -0.00500
N 	N 	0.03510 0.66380 0.45720 -0.28100
N 	N 	0.17080 0.74020 0.43590 -0.27500
N 	N 	0.11360 0.60190 0.42420 -0.28600
N 	N 	0.08000 0.67580 0.30690 -0.27800
O 	O 	0.00840 0.46310 0.36760 -0.17800
O 	O 	0.18580 0.67730 0.30530 -0.16200
Zn	Zn	0.33159 0.43191 0.40215 1.19300
H 	H 	0.22190 0.29750 0.40900 0.05300
H 	H 	0.31580 0.43580 0.56100 0.03200
H 	H 	0.35430 0.54930 0.47260 0.02000
H 	H 	0.32650 0.32450 0.31150 0.01400
C 	C 	0.29270 0.31480 0.47300 0.07000
C 	C 	0.23620 0.28260 0.44400 -0.14600
C 	C 	0.20050 0.22170 0.47430 0.06300
C 	C 	0.13700 0.18700 0.44200 -0.16800
C 	C 	0.24210 0.43230 0.50150 0.01800
C 	C 	0.27940 0.43650 0.56170 -0.05600
C 	C 	0.24790 0.44190 0.62450 -0.12700
C 	C 	0.39080 0.55500 0.45420 0.00300
C 	C 	0.32560 0.35410 0.28380 -0.00300
N 	N 	0.33620 0.37130 0.45720 -0.28100
N 	N 	0.25980 0.43060 0.43590 -0.27500
N 	N 	0.39810 0.51170 0.42420 -0.28600
N 	N 	0.32420 0.40420 0.30690 -0.27700
O 	O 	0.53690 0.54530 0.36760 -0.17100
O 	O 	0.32270 0.50850 0.30530 -0.16200
Zn	Zn	0.43191 0.10032 0.90215 1.19300
H 	H 	0.29750 0.07560 0.90900 0.05400
H 	H 	0.43580 0.12000 0.06100 0.03100
H 	H 	0.54930 0.19500 0.97260 0.02100
H 	H 	0.32450 0.99800 0.81150 0.01500
C 	C 	0.31480 0.02210 0.97300 0.07100
C 	C 	0.28260 0.04640 0.94400 -0.14800
C 	C 	0.22170 0.02120 0.97430 0.06400
C 	C 	0.18700 0.05000 0.94200 -0.16900
C 	C 	0.43230 0.19020 0.00150 0.01600
C 	C 	0.43650 0.15710 0.06170 -0.05600
C 	C 	0.44190 0.19400 0.12450 -0.12700
C 	C 	0.55500 0.16420 0.95420 0.00300
C 	C 	0.35410 0.02850 0.78380 -0.00500
N 	N 	0.37130 0.03510 0.95720 -0.27900
N 	N 	0.43060 0.17080 0.93590 -0.27400
N 	N 	0.51170 0.11360 0.92420 -0.28600
N 	N 	0.40420 0.08000 0.80690 -0.27700
O 	O 	0.54530 0.00840 0.86760 -0.17700
O 	O 	0.50850 0.18580 0.80530 -0.16200
Zn	Zn	0.89968 0.33159 0.90215 1.19300
H 	H 	0.92440 0.22190 0.90900 0.05500
H 	H 	0.88000 0.31580 0.06100 0.03100
H 	H 	0.80500 0.35430 0.97260 0.02100
H 	H 	0.00200 0.32650 0.81150 0.01200
C 	C 	0.97790 0.29270 0.97300 0.07600
C 	C 	0.95360 0.23620 0.94400 -0.15100
C 	C 	0.97880 0.20050 0.97430 0.07000
C 	C 	0.95000 0.13700 0.94200 -0.17100
C 	C 	0.80980 0.24210 0.00150 0.01600
C 	C 	0.84290 0.27940 0.06170 -0.05600
C 	C 	0.80600 0.24790 0.12450 -0.12900
C 	C 	0.83580 0.39080 0.95420 0.00400
C 	C 	0.97150 0.32560 0.78380 -0.00100
N 	N 	0.96490 0.33620 0.95720 -0.27900
N 	N 	0.82920 0.25980 0.93590 -0.27400
N 	N 	0.88640 0.39810 0.92420 -0.28600
N 	N 	0.92000 0.32420 0.80690 -0.27700
O 	O 	0.99160 0.53690 0.86760 -0.17500
O 	O 	0.81420 0.32270 0.80530 -0.16200
Zn	Zn	0.66841 0.56809 0.90215 1.19300
H 	H 	0.77810 0.70250 0.90900 0.05500
H 	H 	0.68420 0.56420 0.06100 0.07400
H 	H 	0.70180 0.51690 0.21000 0.23600
H 	H 	0.72740 0.58630 0.21040 0.24200
H 	H 	0.67240 0.54510 0.16480 0.25500
H 	H 	0.64570 0.45070 0.97260 0.02100
H 	H 	0.67350 0.67550 0.81150 0.01400
C 	C 	0.70730 0.68520 0.97300 0.07400
C 	C 	0.76380 0.71740 0.94400 -0.14900
C 	C 	0.79950 0.77830 0.97430 0.06800
C 	C 	0.86300 0.81300 0.94200 -0.17000
C 	C 	0.75790 0.56770 0.00150 0.07500
C 	C 	0.72060 0.56350 0.06170 -0.19400
C 	C 	0.75210 0.55810 0.12450 0.21000
C 	C 	0.70900 0.55100 0.18300 -0.72900
C 	C 	0.60920 0.44500 0.95420 0.00200
C 	C 	0.67440 0.64590 0.78380 -0.00300
N 	N 	0.66380 0.62870 0.95720 -0.28000
N 	N 	0.74020 0.56940 0.93590 -0.28300
N 	N 	0.60190 0.48830 0.92420 -0.28600
N 	N 	0.67580 0.59580 0.80690 -0.27700
O 	O 	0.46310 0.45470 0.86760 -0.17600
O 	O 	0.67730 0.49150 0.80530 -0.16200
Zn	Zn	0.89968 0.56809 0.59785 1.19300
H 	H 	0.92440 0.70250 0.59100 0.03400
H 	H 	0.88000 0.56420 0.43900 0.07500
H 	H 	0.81510 0.51690 0.29000 0.23700
H 	H 	0.85890 0.58630 0.28960 0.24200
H 	H 	0.87270 0.54510 0.33520 0.25600
H 	H 	0.80500 0.45070 0.52740 0.02000
H 	H 	0.00200 0.67550 0.68850 0.01200
C 	C 	0.97790 0.68520 0.52700 0.04600
C 	C 	0.95360 0.71740 0.55600 -0.09400
C 	C 	0.97880 0.77830 0.52570 -0.05100
C 	C 	0.80980 0.56770 0.49850 0.07700
C 	C 	0.84290 0.56350 0.43830 -0.19400
C 	C 	0.80600 0.55810 0.37550 0.21000
C 	C 	0.84200 0.55100 0.31700 -0.73000
C 	C 	0.83580 0.44500 0.54580 0.00200
C 	C 	0.97150 0.64590 0.71620 -0.00100
N 	N 	0.96490 0.62870 0.54280 -0.27600
N 	N 	0.82920 0.56940 0.56410 -0.28400
N 	N 	0.88640 0.48830 0.57580 -0.28600
N 	N 	0.92000 0.59580 0.69310 -0.27700
O 	O 	0.99160 0.45470 0.63240 -0.17600
O 	O 	0.81420 0.49150 0.69470 -0.16200
Zn	Zn	0.66841 0.10032 0.59785 1.19200
H 	H 	0.77810 0.07560 0.59100 0.03200
H 	H 	0.68420 0.12000 0.43900 0.03100
H 	H 	0.64570 0.19500 0.52740 0.02000
H 	H 	0.67350 0.99800 0.68850 0.01600
C 	C 	0.70730 0.02210 0.52700 0.04000
C 	C 	0.76380 0.04640 0.55600 -0.09000
C 	C 	0.79950 0.02120 0.52570 -0.05800
C 	C 	0.75790 0.19020 0.49850 0.01800
C 	C 	0.72060 0.15710 0.43830 -0.05600
C 	C 	0.75210 0.19400 0.37550 -0.12900
C 	C 	0.60920 0.16420 0.54580 0.00300
C 	C 	0.67440 0.02850 0.71620 -0.00500
N 	N 	0.66380 0.03510 0.54280 -0.27600
N 	N 	0.74020 0.17080 0.56410 -0.27500
N 	N 	0.60190 0.11360 0.57580 -0.28600
N 	N 	0.67580 0.08000 0.69310 -0.27700
O 	O 	0.46310 0.00840 0.63240 -0.17700
O 	O 	0.67730 0.18580 0.69470 -0.16200
Zn	Zn	0.43191 0.33159 0.59785 1.19300
H 	H 	0.29750 0.22190 0.59100 0.03400
H 	H 	0.43580 0.31580 0.43900 0.03200
H 	H 	0.54930 0.35430 0.52740 0.02000
H 	H 	0.32450 0.32650 0.68850 0.01400
C 	C 	0.31480 0.29270 0.52700 0.04400
C 	C 	0.28260 0.23620 0.55600 -0.09200
C 	C 	0.22170 0.20050 0.52570 -0.05400
C 	C 	0.43230 0.24210 0.49850 0.01800
C 	C 	0.43650 0.27940 0.43830 -0.05600
C 	C 	0.44190 0.24790 0.37550 -0.12700
C 	C 	0.55500 0.39080 0.54580 0.00300
C 	C 	0.35410 0.32560 0.71620 -0.00300
N 	N 	0.37130 0.33620 0.54280 -0.27700
N 	N 	0.43060 0.25980 0.56410 -0.27500
N 	N 	0.51170 0.39810 0.57580 -0.28600
N 	N 	0.40420 0.32420 0.69310 -0.27700
O 	O 	0.54530 0.53690 0.63240 -0.17600
O 	O 	0.50850 0.32270 0.69470 -0.16200
Zn	Zn	0.10032 0.43191 0.09785 1.19200
H 	H 	0.07560 0.29750 0.09100 0.03200
H 	H 	0.12000 0.43580 0.93900 0.03200
H 	H 	0.19500 0.54930 0.02740 0.02000
H 	H 	0.99800 0.32450 0.18850 0.01500
C 	C 	0.02210 0.31480 0.02700 0.03700
C 	C 	0.04640 0.28260 0.05600 -0.08700
C 	C 	0.02120 0.22170 0.02570 -0.06100
C 	C 	0.19020 0.43230 0.99850 0.02000
C 	C 	0.15710 0.43650 0.93830 -0.05600
C 	C 	0.19400 0.44190 0.87550 -0.12700
C 	C 	0.16420 0.55500 0.04580 0.00300
C 	C 	0.02850 0.35410 0.21620 -0.00400
N 	N 	0.03510 0.37130 0.04280 -0.27600
N 	N 	0.17080 0.43060 0.06410 -0.27600
N 	N 	0.11360 0.51170 0.07580 -0.28600
N 	N 	0.08000 0.40420 0.19310 -0.27700
O 	O 	0.00840 0.54530 0.13240 -0.17200
O 	O 	0.18580 0.50850 0.19470 -0.16200
Zn	Zn	0.33159 0.89968 0.09785 1.19300
H 	H 	0.22190 0.92440 0.09100 0.03400
H 	H 	0.31580 0.88000 0.93900 0.03300
H 	H 	0.35430 0.80500 0.02740 0.02000
H 	H 	0.32650 0.00200 0.18850 0.01100
C 	C 	0.29270 0.97790 0.02700 0.04300
C 	C 	0.23620 0.95360 0.05600 -0.09100
C 	C 	0.20050 0.97880 0.02570 -0.05400
C 	C 	0.24210 0.80980 0.99850 0.02000
C 	C 	0.27940 0.84290 0.93830 -0.05600
C 	C 	0.24790 0.80600 0.87550 -0.12900
C 	C 	0.39080 0.83580 0.04580 0.00300
C 	C 	0.32560 0.97150 0.21620 -0.00100
N 	N 	0.33620 0.96490 0.04280 -0.27500
N 	N 	0.25980 0.82920 0.06410 -0.27600
N 	N 	0.39810 0.88640 0.07580 -0.28600
N 	N 	0.32420 0.92000 0.19310 -0.27800
O 	O 	0.53690 0.99160 0.13240 -0.17600
O 	O 	0.32270 0.81420 0.19470 -0.16200
Zn	Zn	0.56809 0.66841 0.09785 1.19200
H 	H 	0.70250 0.77810 0.09100 0.03300
H 	H 	0.56420 0.68420 0.93900 0.03200
H 	H 	0.45070 0.64570 0.02740 0.02000
H 	H 	0.67550 0.67350 0.18850 0.01100
C 	C 	0.68520 0.70730 0.02700 0.03900
C 	C 	0.71740 0.76380 0.05600 -0.08900
C 	C 	0.77830 0.79950 0.02570 -0.05800
C 	C 	0.56770 0.75790 0.99850 0.02000
C 	C 	0.56350 0.72060 0.93830 -0.05500
C 	C 	0.55810 0.75210 0.87550 -0.12900
C 	C 	0.44500 0.60920 0.04580 0.00300
C 	C 	0.64590 0.67440 0.21620 -0.00300
N 	N 	0.62870 0.66380 0.04280 -0.27600
N 	N 	0.56940 0.74020 0.06410 -0.27600
N 	N 	0.48830 0.60190 0.07580 -0.28600
N 	N 	0.59580 0.67580 0.19310 -0.27800
O 	O 	0.45470 0.46310 0.13240 -0.17800
O 	O 	0.49150 0.67730 0.19470 -0.16200
H 	H 	0.42100 0.00000 0.50000 -0.00700
C 	C 	0.38420 0.00000 0.50000 0.04500
H 	H 	0.00000 0.42100 0.50000 -0.00700
C 	C 	0.00000 0.38420 0.50000 0.04500
H 	H 	0.57900 0.57900 0.50000 -0.00600
C 	C 	0.61580 0.61580 0.50000 0.05000
H 	H 	0.57900 0.00000 -0.00000 -0.00600
C 	C 	0.61580 0.00000 -0.00000 0.04100
H 	H 	-0.00000 0.57900 -0.00000 -0.00600
C 	C 	0.00000 0.61580 -0.00000 0.04600
H 	H 	0.42100 0.42100 -0.00000 -0.00700
C 	C 	0.38420 0.38420 -0.00000 0.04400
H 	H 	0.57900 0.00000 0.50000 -0.00600
C 	C 	0.61580 0.00000 0.50000 0.05000
H 	H 	-0.00000 0.57900 0.50000 -0.00600
C 	C 	0.00000 0.61580 0.50000 0.04800
H 	H 	0.42100 0.42100 0.50000 -0.00600
C 	C 	0.38420 0.38420 0.50000 0.05200
H 	H 	0.42100 0.00000 -0.00000 -0.00600
C 	C 	0.38420 0.00000 -0.00000 0.04700
H 	H 	-0.00000 0.42100 -0.00000 -0.00600
C 	C 	-0.00000 0.38420 -0.00000 0.04800
H 	H 	0.57900 0.57900 -0.00000 -0.00600
C 	C 	0.61580 0.61580 -0.00000 0.04700
H 	H 	0.43410 0.21705 0.65060 -0.00700
C 	C 	0.43210 0.21605 0.60260 0.06900
H 	H 	0.78295 0.21705 0.65060 -0.00700
C 	C 	0.78395 0.21605 0.60260 0.06900
H 	H 	0.78295 0.56590 0.65060 -0.00700
C 	C 	0.78395 0.56790 0.60260 0.06900
H 	H 	0.56590 0.78295 0.15060 -0.00700
C 	C 	0.56790 0.78395 0.10260 0.06900
H 	H 	0.21705 0.78295 0.15060 -0.00700
C 	C 	0.21605 0.78395 0.10260 0.06900
H 	H 	0.21705 0.43410 0.15060 -0.00700
C 	C 	0.21605 0.43210 0.10260 0.06900
H 	H 	0.21705 0.43410 0.34940 -0.00700
C 	C 	0.21605 0.43210 0.39740 0.06900
H 	H 	0.21705 0.78295 0.34940 -0.00700
C 	C 	0.21605 0.78395 0.39740 0.06900
H 	H 	0.56590 0.78295 0.34940 -0.00700
C 	C 	0.56790 0.78395 0.39740 0.06900
H 	H 	0.78295 0.56590 0.84940 -0.00700
C 	C 	0.78395 0.56790 0.89740 0.07000
H 	H 	0.78295 0.21705 0.84940 -0.00700
C 	C 	0.78395 0.21605 0.89740 0.06900
H 	H 	0.43410 0.21705 0.84940 -0.00700
C 	C 	0.43210 0.21605 0.89740 0.06900
C 	C 	0.54585 0.09170 0.59130 0.19800
N 	N 	0.51950 0.03900 0.63000 -0.03900
C 	C 	0.90830 0.45415 0.59130 0.19800
N 	N 	0.96100 0.48050 0.63000 -0.03900
C 	C 	0.54585 0.45415 0.59130 0.19800
N 	N 	0.51950 0.48050 0.63000 -0.03900
C 	C 	0.45415 0.90830 0.09130 0.19800
N 	N 	0.48050 0.96100 0.13000 -0.03900
C 	C 	0.09170 0.54585 0.09130 0.19800
N 	N 	0.03900 0.51950 0.13000 -0.03900
C 	C 	0.45415 0.54585 0.09130 0.19700
N 	N 	0.48050 0.51950 0.13000 -0.03800
C 	C 	0.09170 0.54585 0.40870 0.19800
N 	N 	0.03900 0.51950 0.37000 -0.03800
C 	C 	0.45415 0.90830 0.40870 0.19800
N 	N 	0.48050 0.96100 0.37000 -0.03900
C 	C 	0.45415 0.54585 0.40870 0.19800
N 	N 	0.48050 0.51950 0.37000 -0.03900
C 	C 	0.90830 0.45415 0.90870 0.19900
N 	N 	0.96100 0.48050 0.87000 -0.03900
C 	C 	0.54585 0.09170 0.90870 0.19800
N 	N 	0.51950 0.03900 0.87000 -0.03900
C 	C 	0.54585 0.45415 0.90870 0.19800
N 	N 	0.51950 0.48050 0.87000 -0.03900
C 	C 	0.42960 0.10620 0.75000 0.16100
N 	N 	0.48660 0.16200 0.75000 -0.03000
C 	C 	0.89380 0.32340 0.75000 0.16100
N 	N 	0.83800 0.32460 0.75000 -0.03000
C 	C 	0.67660 0.57040 0.75000 0.16100
N 	N 	0.67540 0.51340 0.75000 -0.03000
C 	C 	0.57040 0.89380 0.25000 0.16100
N 	N 	0.51340 0.83800 0.25000 -0.03000
C 	C 	0.10620 0.67660 0.25000 0.16100
N 	N 	0.16200 0.67540 0.25000 -0.03000
C 	C 	0.32340 0.42960 0.25000 0.16100
N 	N 	0.32460 0.48660 0.25000 -0.03000
C 	C 	0.10620 0.42960 0.25000 0.16100
N 	N 	0.16200 0.48660 0.25000 -0.03000
C 	C 	0.32340 0.89380 0.25000 0.16100
N 	N 	0.32460 0.83800 0.25000 -0.03000
C 	C 	0.57040 0.67660 0.25000 0.16100
N 	N 	0.51340 0.67540 0.25000 -0.03000
C 	C 	0.89380 0.57040 0.75000 0.16100
N 	N 	0.83800 0.51340 0.75000 -0.03000
C 	C 	0.67660 0.10620 0.75000 0.16100
N 	N 	0.67540 0.16200 0.75000 -0.03000
C 	C 	0.42960 0.32340 0.75000 0.16100
N 	N 	0.48660 0.32460 0.75000 -0.03000
H 	H 	0.78294 0.91446 0.09611 0.05300
H 	H 	0.85466 0.98606 0.08472 0.05200
H 	H 	0.82680 0.92841 0.01681 0.05300
H 	H 	0.82597 0.27214 0.17414 0.04300
H 	H 	0.44637 0.17771 0.17654 0.04100
H 	H 	0.72786 0.17403 0.32586 0.04300
H 	H 	0.44637 0.26866 0.32346 0.04100
H 	H 	0.18989 0.15323 0.54464 0.02900
H 	H 	0.55383 0.82597 0.67414 0.04300
H 	H 	0.17403 0.72786 0.67414 0.04300
H 	H 	0.27214 0.82597 0.82586 0.04300
H 	H 	0.55383 0.72786 0.82586 0.04300
H 	H 	0.73134 0.55363 0.32346 0.04100
H 	H 	0.82229 0.55363 0.17654 0.04100
H 	H 	0.03666 0.18989 0.45536 0.03000
H 	H 	0.15323 0.96334 0.45536 0.02800
H 	H 	0.80793 0.84643 0.45313 0.03100
H 	H 	0.96150 0.80793 0.95313 0.02800
H 	H 	0.84643 0.03850 0.95313 0.03100
H 	H 	0.18989 0.15323 0.95536 0.02800
H 	H 	0.26866 0.44637 0.67654 0.04100
H 	H 	0.96150 0.80793 0.54687 0.02900
H 	H 	0.84643 0.03850 0.54687 0.03100
H 	H 	0.03666 0.18989 0.04464 0.03100
H 	H 	0.17771 0.44637 0.82346 0.04100
H 	H 	0.15323 0.96334 0.04464 0.02900
H 	H 	0.81011 0.84677 0.04464 0.03100
H 	H 	0.10168 0.16971 0.01643 0.05200
H 	H 	0.13002 0.21828 0.09268 0.05200
H 	H 	0.13283 0.14761 0.08853 0.05100
H 	H 	0.01626 0.87930 0.05749 0.05100
H 	H 	0.09135 0.89531 0.02782 0.05400
H 	H 	0.06348 0.86087 0.11233 0.05200
H 	H 	0.14001 0.02851 0.53565 0.05100
H 	H 	0.21172 0.10011 0.54704 0.05600
H 	H 	0.18387 0.04246 0.61495 0.05200
H 	H 	0.13002 0.21828 0.40732 0.05300
H 	H 	0.10168 0.16971 0.48357 0.05300
H 	H 	0.13283 0.14761 0.41147 0.05200
H 	H 	0.21172 0.10011 0.95296 0.05600
H 	H 	0.14001 0.02851 0.96435 0.05200
H 	H 	0.18387 0.04246 0.88505 0.05300
H 	H 	0.90221 0.12231 0.57427 0.05400
H 	H 	0.97729 0.13832 0.60394 0.05300
H 	H 	0.94942 0.10389 0.51943 0.05200
H 	H 	0.97729 0.13832 0.89606 0.05300
H 	H 	0.90221 0.12231 0.92573 0.05500
H 	H 	0.94942 0.10389 0.98057 0.05300
H 	H 	0.09135 0.89531 0.47218 0.05500
H 	H 	0.01626 0.87930 0.44251 0.05100
H 	H 	0.06348 0.86087 0.38767 0.05200
H 	H 	0.85866 0.81265 0.61533 0.05300
H 	H 	0.88700 0.86121 0.53909 0.05200
H 	H 	0.88981 0.79054 0.54323 0.05600
H 	H 	0.85466 0.98606 0.41528 0.05300
H 	H 	0.78294 0.91446 0.40389 0.05300
H 	H 	0.82680 0.92841 0.48319 0.05400
H 	H 	0.88700 0.86121 0.96091 0.05200
H 	H 	0.85866 0.81265 0.88467 0.05300
H 	H 	0.88981 0.79054 0.95677 0.05600
