data_crystal

_cell_length_a 26.11740
_cell_length_b 26.11740
_cell_length_c 19.49100
_cell_angle_alpha 90.00000
_cell_angle_beta  90.00000
_cell_angle_gamma 120.00000

_symmetry_space_group_name_	'P 1'
_symmetry_space_group_name_H-M	'P 1'

loop_
_symmetry_equiv_pos_as_xyz
  x,y,z

loop_
_atom_site_label
_atom_site_type_symbol
_atom_site_fract_x
_atom_site_fract_y
_atom_site_fract_z
_atom_site_charge
Zn	Zn	0.43548 0.33209 0.59630 1.19700
C 	C 	0.35800 0.32640 0.71150 0.02200
H 	H 	0.33000 0.32870 0.68270 0.03000
N 	N 	0.40490 0.32240 0.69090 -0.27200
O 	O 	0.50820 0.32150 0.69390 -0.19400
C 	C 	0.56220 0.38280 0.54000 0.81900
H 	H 	0.55640 0.34580 0.52460 -0.27900
N 	N 	0.51790 0.39380 0.56710 0.34300
C 	C 	0.54900 0.39790 0.52400 -0.97300
H 	H 	0.53710 0.36420 0.49570 0.23700
N 	N 	0.51080 0.40860 0.58780 -0.65100
O 	O 	0.54780 0.53470 0.62200 -0.06000
O 	O 	0.55780 0.52250 0.67440 -0.08500
N 	N 	0.43160 0.26020 0.56070 -0.28000
C 	C 	0.43000 0.24160 0.49620 0.04300
C 	C 	0.42680 0.26820 0.43410 0.01700
H 	H 	0.42490 0.30360 0.43360 0.03800
C 	C 	0.42660 0.24000 0.37510 -0.18200
H 	H 	0.42640 0.25740 0.33230 0.48400
N 	N 	0.44100 0.28100 0.31900 -0.41500
O 	O 	0.42580 0.31900 0.31600 -0.01400
N 	N 	0.37650 0.33840 0.54040 -0.26700
C 	C 	0.31970 0.29770 0.52480 0.05100
C 	C 	0.28560 0.23920 0.55160 -0.05700
H 	H 	0.30080 0.22360 0.58480 0.04600
C 	C 	0.23130 0.20830 0.52700 -0.05800
H 	H 	0.20610 0.16970 0.54450 0.18900
N 	N 	0.19820 0.13750 0.55800 -0.12100
O 	O 	0.14330 0.11690 0.52040 -0.04800
Zn	Zn	0.66791 0.10339 0.59630 1.19800
C 	C 	0.67360 0.03160 0.71150 0.02300
H 	H 	0.67130 0.00130 0.68270 0.03000
N 	N 	0.67760 0.08250 0.69090 -0.27100
O 	O 	0.67850 0.18670 0.69390 -0.19300
C 	C 	0.61720 0.17940 0.54000 0.81500
H 	H 	0.65420 0.21060 0.52460 -0.27600
N 	N 	0.60620 0.12410 0.56710 0.34100
C 	C 	0.60210 0.15110 0.52400 -0.96800
H 	H 	0.63580 0.17290 0.49570 0.23600
N 	N 	0.59140 0.10220 0.58780 -0.64800
O 	O 	0.46530 0.01310 0.62200 -0.06100
O 	O 	0.47750 0.03530 0.67440 -0.08500
N 	N 	0.73980 0.17140 0.56070 -0.28000
C 	C 	0.75840 0.18840 0.49620 0.04200
C 	C 	0.73180 0.15860 0.43410 0.01700
H 	H 	0.69640 0.12130 0.43360 0.03700
C 	C 	0.76000 0.18660 0.37510 -0.18200
H 	H 	0.74260 0.16900 0.33230 0.48500
N 	N 	0.71900 0.16000 0.31900 -0.41600
O 	O 	0.68100 0.10680 0.31600 -0.01500
N 	N 	0.66160 0.03810 0.54040 -0.26500
C 	C 	0.70230 0.02200 0.52480 0.04300
C 	C 	0.76080 0.04640 0.55160 -0.04700
H 	H 	0.77640 0.07720 0.58480 0.04300
C 	C 	0.79170 0.02300 0.52700 -0.07200
H 	H 	0.83030 0.03640 0.54450 0.19500
N 	N 	0.86250 0.06070 0.55800 -0.12400
O 	O 	0.88310 0.02640 0.52040 -0.04900
Zn	Zn	0.89661 0.56452 0.59630 1.19800
C 	C 	0.96840 0.64200 0.71150 0.02300
H 	H 	0.99870 0.67000 0.68270 0.03200
N 	N 	0.91750 0.59510 0.69090 -0.27100
O 	O 	0.81330 0.49180 0.69390 -0.19300
C 	C 	0.82060 0.43780 0.54000 0.83400
H 	H 	0.78940 0.44360 0.52460 -0.28400
N 	N 	0.87590 0.48210 0.56710 0.35000
C 	C 	0.84890 0.45100 0.52400 -0.98900
H 	H 	0.82710 0.46290 0.49570 0.24100
N 	N 	0.89780 0.48920 0.58780 -0.65700
O 	O 	0.98690 0.45220 0.62200 -0.05800
O 	O 	0.96470 0.44220 0.67440 -0.08400
N 	N 	0.82860 0.56840 0.56070 -0.28000
C 	C 	0.81160 0.57000 0.49620 0.04500
C 	C 	0.84140 0.57320 0.43410 0.01300
H 	H 	0.87870 0.57510 0.43360 0.04000
C 	C 	0.81340 0.57340 0.37510 -0.17500
H 	H 	0.83100 0.57360 0.33230 0.48000
N 	N 	0.84000 0.55900 0.31900 -0.41300
O 	O 	0.89320 0.57420 0.31600 -0.01300
N 	N 	0.96190 0.62350 0.54040 -0.26600
C 	C 	0.97800 0.68030 0.52480 0.06500
C 	C 	0.95360 0.71440 0.55160 -0.07400
H 	H 	0.92280 0.69920 0.58480 0.05200
C 	C 	0.97700 0.76870 0.52700 -0.03300
H 	H 	0.96360 0.79390 0.54450 0.17800
N 	N 	0.93930 0.80180 0.55800 -0.11600
O 	O 	0.97360 0.85670 0.52040 -0.04400
Zn	Zn	0.56452 0.66791 0.09630 1.19800
C 	C 	0.64200 0.67360 0.21150 0.02300
H 	H 	0.67000 0.67130 0.18270 0.03100
N 	N 	0.59510 0.67760 0.19090 -0.27000
O 	O 	0.49180 0.67850 0.19390 -0.20300
C 	C 	0.43780 0.61720 0.04000 1.09300
H 	H 	0.44360 0.65420 0.02460 -0.37400
N 	N 	0.48210 0.60620 0.06710 0.46600
C 	C 	0.45100 0.60210 0.02400 -1.26800
H 	H 	0.46290 0.63580 0.99570 0.29200
N 	N 	0.48920 0.59140 0.08780 -0.76200
O 	O 	0.45220 0.46530 0.12200 -0.05400
O 	O 	0.44220 0.47750 0.17440 -0.08500
N 	N 	0.56840 0.73980 0.06070 -0.27700
C 	C 	0.57000 0.75840 0.99620 0.03600
C 	C 	0.57320 0.73180 0.93410 0.01900
H 	H 	0.57510 0.69640 0.93360 0.03700
C 	C 	0.57340 0.76000 0.87510 -0.18400
H 	H 	0.57360 0.74260 0.83230 0.48500
N 	N 	0.55900 0.71900 0.81900 -0.41600
O 	O 	0.57420 0.68100 0.81600 -0.01200
N 	N 	0.62350 0.66160 0.04040 -0.26900
C 	C 	0.68030 0.70230 0.02480 0.07300
C 	C 	0.71440 0.76080 0.05160 -0.08400
H 	H 	0.69920 0.77640 0.08480 0.05600
C 	C 	0.76870 0.79170 0.02700 -0.01800
H 	H 	0.79390 0.83030 0.04450 0.17200
N 	N 	0.80180 0.86250 0.05800 -0.11300
O 	O 	0.85670 0.88310 0.02040 -0.04100
Zn	Zn	0.33209 0.89661 0.09630 1.19800
C 	C 	0.32640 0.96840 0.21150 0.02300
H 	H 	0.32870 0.99870 0.18270 0.03200
N 	N 	0.32240 0.91750 0.19090 -0.27000
O 	O 	0.32150 0.81330 0.19390 -0.20400
C 	C 	0.38280 0.82060 0.04000 1.12700
H 	H 	0.34580 0.78940 0.02460 -0.38600
N 	N 	0.39380 0.87590 0.06710 0.48100
C 	C 	0.39790 0.84890 0.02400 -1.30500
H 	H 	0.36420 0.82710 0.99570 0.29900
N 	N 	0.40860 0.89780 0.08780 -0.77600
O 	O 	0.53470 0.98690 0.12200 -0.05200
O 	O 	0.52250 0.96470 0.17440 -0.08500
N 	N 	0.26020 0.82860 0.06070 -0.27600
C 	C 	0.24160 0.81160 0.99620 0.03700
C 	C 	0.26820 0.84140 0.93410 0.01600
H 	H 	0.30360 0.87870 0.93360 0.03800
C 	C 	0.24000 0.81340 0.87510 -0.17800
H 	H 	0.25740 0.83100 0.83230 0.48100
N 	N 	0.28100 0.84000 0.81900 -0.41300
O 	O 	0.31900 0.89320 0.81600 -0.01300
N 	N 	0.33840 0.96190 0.04040 -0.26800
C 	C 	0.29770 0.97800 0.02480 0.08200
C 	C 	0.23920 0.95360 0.05160 -0.09400
H 	H 	0.22360 0.92280 0.08480 0.05900
C 	C 	0.20830 0.97700 0.02700 -0.00300
H 	H 	0.16970 0.96360 0.04450 0.16500
N 	N 	0.13750 0.93930 0.05800 -0.11100
O 	O 	0.11690 0.97360 0.02040 -0.04000
Zn	Zn	0.10339 0.43548 0.09630 1.19800
C 	C 	0.03160 0.35800 0.21150 0.02200
H 	H 	0.00130 0.33000 0.18270 0.03000
N 	N 	0.08250 0.40490 0.19090 -0.27000
O 	O 	0.18670 0.50820 0.19390 -0.20300
C 	C 	0.17940 0.56220 0.04000 1.10400
H 	H 	0.21060 0.55640 0.02460 -0.37800
N 	N 	0.12410 0.51790 0.06710 0.47100
C 	C 	0.15110 0.54900 0.02400 -1.28100
H 	H 	0.17290 0.53710 0.99570 0.29300
N 	N 	0.10220 0.51080 0.08780 -0.76700
O 	O 	0.01310 0.54780 0.12200 -0.05500
O 	O 	0.03530 0.55780 0.17440 -0.08500
N 	N 	0.17140 0.43160 0.06070 -0.27700
C 	C 	0.18840 0.43000 0.99620 0.03700
C 	C 	0.15860 0.42680 0.93410 0.01600
H 	H 	0.12130 0.42490 0.93360 0.03700
C 	C 	0.18660 0.42660 0.87510 -0.17800
H 	H 	0.16900 0.42640 0.83230 0.48000
N 	N 	0.16000 0.44100 0.81900 -0.41200
O 	O 	0.10680 0.42580 0.81600 -0.01500
N 	N 	0.03810 0.37650 0.04040 -0.26600
C 	C 	0.02200 0.31970 0.02480 0.05800
C 	C 	0.04640 0.28560 0.05160 -0.06500
H 	H 	0.07720 0.30080 0.08480 0.04900
C 	C 	0.02300 0.23130 0.02700 -0.04600
H 	H 	0.03640 0.20610 0.04450 0.18400
N 	N 	0.06070 0.19820 0.05800 -0.11900
O 	O 	0.02640 0.14330 0.02040 -0.04600
Zn	Zn	0.33209 0.43548 0.40370 1.19800
C 	C 	0.32640 0.35800 0.28850 0.02300
H 	H 	0.32870 0.33000 0.31730 0.03100
N 	N 	0.32240 0.40490 0.30910 -0.27000
O 	O 	0.32150 0.50820 0.30610 -0.19600
C 	C 	0.38280 0.56220 0.46000 0.83700
H 	H 	0.34580 0.55640 0.47540 -0.28500
N 	N 	0.39380 0.51790 0.43290 0.35100
C 	C 	0.39790 0.54900 0.47600 -0.99200
H 	H 	0.36420 0.53710 0.50430 0.24200
N 	N 	0.40860 0.51080 0.41220 -0.65800
O 	O 	0.53470 0.54780 0.37800 -0.06000
O 	O 	0.52250 0.55780 0.32560 -0.08600
N 	N 	0.26020 0.43160 0.43930 -0.28000
C 	C 	0.24160 0.43000 0.50380 0.04300
C 	C 	0.26820 0.42680 0.56590 0.01700
H 	H 	0.30360 0.42490 0.56640 0.03800
C 	C 	0.24000 0.42660 0.62490 -0.18200
H 	H 	0.25740 0.42640 0.66770 0.48400
N 	N 	0.28100 0.44100 0.68100 -0.41500
O 	O 	0.31900 0.42580 0.68400 -0.01300
N 	N 	0.33840 0.37650 0.45960 -0.26700
C 	C 	0.29770 0.31970 0.47520 0.05100
C 	C 	0.23920 0.28560 0.44840 -0.05700
H 	H 	0.22360 0.30080 0.41520 0.04600
C 	C 	0.20830 0.23130 0.47300 -0.05800
H 	H 	0.16970 0.20610 0.45550 0.18900
N 	N 	0.13750 0.19820 0.44200 -0.12100
O 	O 	0.11690 0.14330 0.47960 -0.04800
Zn	Zn	0.10339 0.66791 0.40370 1.19800
C 	C 	0.03160 0.67360 0.28850 0.02300
H 	H 	0.00130 0.67130 0.31730 0.03000
N 	N 	0.08250 0.67760 0.30910 -0.27000
O 	O 	0.18670 0.67850 0.30610 -0.19600
C 	C 	0.17940 0.61720 0.46000 0.82900
H 	H 	0.21060 0.65420 0.47540 -0.28200
N 	N 	0.12410 0.60620 0.43290 0.34700
C 	C 	0.15110 0.60210 0.47600 -0.98300
H 	H 	0.17290 0.63580 0.50430 0.24000
N 	N 	0.10220 0.59140 0.41220 -0.65500
O 	O 	0.01310 0.46530 0.37800 -0.06100
O 	O 	0.03530 0.47750 0.32560 -0.08600
N 	N 	0.17140 0.73980 0.43930 -0.28000
C 	C 	0.18840 0.75840 0.50380 0.04300
C 	C 	0.15860 0.73180 0.56590 0.01600
H 	H 	0.12130 0.69640 0.56640 0.03800
C 	C 	0.18660 0.76000 0.62490 -0.18000
H 	H 	0.16900 0.74260 0.66770 0.48200
N 	N 	0.16000 0.71900 0.68100 -0.41400
O 	O 	0.10680 0.68100 0.68400 -0.01600
N 	N 	0.03810 0.66160 0.45960 -0.26400
C 	C 	0.02200 0.70230 0.47520 0.03700
C 	C 	0.04640 0.76080 0.44840 -0.04000
H 	H 	0.07720 0.77640 0.41520 0.04000
C 	C 	0.02300 0.79170 0.47300 -0.08300
H 	H 	0.03640 0.83030 0.45550 0.20000
N 	N 	0.06070 0.86250 0.44200 -0.12600
O 	O 	0.02640 0.88310 0.47960 -0.05000
Zn	Zn	0.56452 0.89661 0.40370 1.19800
C 	C 	0.64200 0.96840 0.28850 0.02300
H 	H 	0.67000 0.99870 0.31730 0.03200
N 	N 	0.59510 0.91750 0.30910 -0.27000
O 	O 	0.49180 0.81330 0.30610 -0.19700
C 	C 	0.43780 0.82060 0.46000 0.84500
H 	H 	0.44360 0.78940 0.47540 -0.28800
N 	N 	0.48210 0.87590 0.43290 0.35500
C 	C 	0.45100 0.84890 0.47600 -1.00100
H 	H 	0.46290 0.82710 0.50430 0.24400
N 	N 	0.48920 0.89780 0.41220 -0.66100
O 	O 	0.45220 0.98690 0.37800 -0.05800
O 	O 	0.44220 0.96470 0.32560 -0.08500
N 	N 	0.56840 0.82860 0.43930 -0.28000
C 	C 	0.57000 0.81160 0.50380 0.04400
C 	C 	0.57320 0.84140 0.56590 0.01400
H 	H 	0.57510 0.87870 0.56640 0.03900
C 	C 	0.57340 0.81340 0.62490 -0.17600
H 	H 	0.57360 0.83100 0.66770 0.48100
N 	N 	0.55900 0.84000 0.68100 -0.41300
O 	O 	0.57420 0.89320 0.68400 -0.01300
N 	N 	0.62350 0.96190 0.45960 -0.26600
C 	C 	0.68030 0.97800 0.47520 0.05900
C 	C 	0.71440 0.95360 0.44840 -0.06700
H 	H 	0.69920 0.92280 0.41520 0.04900
C 	C 	0.76870 0.97700 0.47300 -0.04400
H 	H 	0.79390 0.96360 0.45550 0.18300
N 	N 	0.80180 0.93930 0.44200 -0.11800
O 	O 	0.85670 0.97360 0.47960 -0.04500
Zn	Zn	0.66791 0.56452 0.90370 1.19700
C 	C 	0.67360 0.64200 0.78850 0.02300
H 	H 	0.67130 0.67000 0.81730 0.03100
N 	N 	0.67760 0.59510 0.80910 -0.27100
O 	O 	0.67850 0.49180 0.80610 -0.18700
C 	C 	0.61720 0.43780 0.96000 0.58600
H 	H 	0.65420 0.44360 0.97540 -0.19700
N 	N 	0.60620 0.48210 0.93290 0.23800
C 	C 	0.60210 0.45100 0.97600 -0.72000
H 	H 	0.63580 0.46290 0.00430 0.19100
N 	N 	0.59140 0.48920 0.91220 -0.55500
O 	O 	0.46530 0.45220 0.87800 -0.06600
O 	O 	0.47750 0.44220 0.82560 -0.08500
N 	N 	0.73980 0.56840 0.93930 -0.28300
C 	C 	0.75840 0.57000 0.00380 0.04800
C 	C 	0.73180 0.57320 0.06590 0.01700
H 	H 	0.69640 0.57510 0.06640 0.03700
C 	C 	0.76000 0.57340 0.12490 -0.18300
H 	H 	0.74260 0.57360 0.16770 0.48600
N 	N 	0.71900 0.55900 0.18100 -0.41700
O 	O 	0.68100 0.57420 0.18400 -0.01400
N 	N 	0.66160 0.62350 0.95960 -0.26900
C 	C 	0.70230 0.68030 0.97520 0.02800
C 	C 	0.76080 0.71440 0.94840 -0.03000
H 	H 	0.77640 0.69920 0.91520 0.03600
C 	C 	0.79170 0.76870 0.97300 -0.09800
H 	H 	0.83030 0.79390 0.95550 0.20600
N 	N 	0.86250 0.80180 0.94200 -0.12900
O 	O 	0.88310 0.85670 0.97960 -0.05200
Zn	Zn	0.89661 0.33209 0.90370 1.19800
C 	C 	0.96840 0.32640 0.78850 0.02300
H 	H 	0.99870 0.32870 0.81730 0.03200
N 	N 	0.91750 0.32240 0.80910 -0.27000
O 	O 	0.81330 0.32150 0.80610 -0.18800
C 	C 	0.82060 0.38280 0.96000 0.62300
H 	H 	0.78940 0.34580 0.97540 -0.21000
N 	N 	0.87590 0.39380 0.93290 0.25500
C 	C 	0.84890 0.39790 0.97600 -0.76000
H 	H 	0.82710 0.36420 0.00430 0.19900
N 	N 	0.89780 0.40860 0.91220 -0.57000
O 	O 	0.98690 0.53470 0.87800 -0.06200
O 	O 	0.96470 0.52250 0.82560 -0.08500
N 	N 	0.82860 0.26020 0.93930 -0.28200
C 	C 	0.81160 0.24160 0.00380 0.04800
C 	C 	0.84140 0.26820 0.06590 0.01500
H 	H 	0.87870 0.30360 0.06640 0.03900
C 	C 	0.81340 0.24000 0.12490 -0.17900
H 	H 	0.83100 0.25740 0.16770 0.48300
N 	N 	0.84000 0.28100 0.18100 -0.41500
O 	O 	0.89320 0.31900 0.18400 -0.01300
N 	N 	0.96190 0.33840 0.95960 -0.26800
C 	C 	0.97800 0.29770 0.97520 0.04400
C 	C 	0.95360 0.23920 0.94840 -0.04900
H 	H 	0.92280 0.22360 0.91520 0.04300
C 	C 	0.97700 0.20830 0.97300 -0.07000
H 	H 	0.96360 0.16970 0.95550 0.19400
N 	N 	0.93930 0.13750 0.94200 -0.12300
O 	O 	0.97360 0.11690 0.97960 -0.04800
Zn	Zn	0.43548 0.10339 0.90370 1.19700
C 	C 	0.35800 0.03160 0.78850 0.02300
H 	H 	0.33000 0.00130 0.81730 0.03000
N 	N 	0.40490 0.08250 0.80910 -0.27100
O 	O 	0.50820 0.18670 0.80610 -0.18700
C 	C 	0.56220 0.17940 0.96000 0.60900
H 	H 	0.55640 0.21060 0.97540 -0.20500
N 	N 	0.51790 0.12410 0.93290 0.24800
C 	C 	0.54900 0.15110 0.97600 -0.74600
H 	H 	0.53710 0.17290 0.00430 0.19500
N 	N 	0.51080 0.10220 0.91220 -0.56500
O 	O 	0.54780 0.01310 0.87800 -0.06500
O 	O 	0.55780 0.03530 0.82560 -0.08600
N 	N 	0.43160 0.17140 0.93930 -0.28300
C 	C 	0.43000 0.18840 0.00380 0.04900
C 	C 	0.42680 0.15860 0.06590 0.01300
H 	H 	0.42490 0.12130 0.06640 0.03800
C 	C 	0.42660 0.18660 0.12490 -0.17800
H 	H 	0.42640 0.16900 0.16770 0.48100
N 	N 	0.44100 0.16000 0.18100 -0.41300
O 	O 	0.42580 0.10680 0.18400 -0.01600
N 	N 	0.37650 0.03810 0.95960 -0.26600
C 	C 	0.31970 0.02200 0.97520 0.02100
C 	C 	0.28560 0.04640 0.94840 -0.01900
H 	H 	0.30080 0.07720 0.91520 0.03300
C 	C 	0.23130 0.02300 0.97300 -0.11300
H 	H 	0.20610 0.03640 0.95550 0.21300
N 	N 	0.19820 0.06070 0.94200 -0.13200
O 	O 	0.14330 0.02640 0.97960 -0.05500
Zn	Zn	0.56452 0.66791 0.40370 1.19800
C 	C 	0.64200 0.67360 0.28850 0.02300
H 	H 	0.67000 0.67130 0.31730 0.03100
N 	N 	0.59510 0.67760 0.30910 -0.27000
O 	O 	0.49180 0.67850 0.30610 -0.19600
C 	C 	0.43780 0.61720 0.46000 0.83700
H 	H 	0.44360 0.65420 0.47540 -0.28500
N 	N 	0.48210 0.60620 0.43290 0.35100
C 	C 	0.45100 0.60210 0.47600 -0.99200
H 	H 	0.46290 0.63580 0.50430 0.24200
N 	N 	0.48920 0.59140 0.41220 -0.65800
O 	O 	0.45220 0.46530 0.37800 -0.06000
O 	O 	0.44220 0.47750 0.32560 -0.08600
N 	N 	0.56840 0.73980 0.43930 -0.28000
C 	C 	0.57000 0.75840 0.50380 0.04200
C 	C 	0.57320 0.73180 0.56590 0.01800
H 	H 	0.57510 0.69640 0.56640 0.03800
C 	C 	0.57340 0.76000 0.62490 -0.18300
H 	H 	0.57360 0.74260 0.66770 0.48500
N 	N 	0.55900 0.71900 0.68100 -0.41600
O 	O 	0.57420 0.68100 0.68400 -0.01300
N 	N 	0.62350 0.66160 0.45960 -0.26700
C 	C 	0.68030 0.70230 0.47520 0.05100
C 	C 	0.71440 0.76080 0.44840 -0.05700
H 	H 	0.69920 0.77640 0.41520 0.04600
C 	C 	0.76870 0.79170 0.47300 -0.05800
H 	H 	0.79390 0.83030 0.45550 0.18900
N 	N 	0.80180 0.86250 0.44200 -0.12100
O 	O 	0.85670 0.88310 0.47960 -0.04600
Zn	Zn	0.33209 0.89661 0.40370 1.19800
C 	C 	0.32640 0.96840 0.28850 0.02300
H 	H 	0.32870 0.99870 0.31730 0.03100
N 	N 	0.32240 0.91750 0.30910 -0.27000
O 	O 	0.32150 0.81330 0.30610 -0.19700
C 	C 	0.38280 0.82060 0.46000 0.84500
H 	H 	0.34580 0.78940 0.47540 -0.28800
N 	N 	0.39380 0.87590 0.43290 0.35500
C 	C 	0.39790 0.84890 0.47600 -1.00100
H 	H 	0.36420 0.82710 0.50430 0.24400
N 	N 	0.40860 0.89780 0.41220 -0.66100
O 	O 	0.53470 0.98690 0.37800 -0.05800
O 	O 	0.52250 0.96470 0.32560 -0.08500
N 	N 	0.26020 0.82860 0.43930 -0.28000
C 	C 	0.24160 0.81160 0.50380 0.04400
C 	C 	0.26820 0.84140 0.56590 0.01500
H 	H 	0.30360 0.87870 0.56640 0.03900
C 	C 	0.24000 0.81340 0.62490 -0.17900
H 	H 	0.25740 0.83100 0.66770 0.48200
N 	N 	0.28100 0.84000 0.68100 -0.41400
O 	O 	0.31900 0.89320 0.68400 -0.01300
N 	N 	0.33840 0.96190 0.45960 -0.26600
C 	C 	0.29770 0.97800 0.47520 0.05800
C 	C 	0.23920 0.95360 0.44840 -0.06500
H 	H 	0.22360 0.92280 0.41520 0.04900
C 	C 	0.20830 0.97700 0.47300 -0.04600
H 	H 	0.16970 0.96360 0.45550 0.18400
N 	N 	0.13750 0.93930 0.44200 -0.11900
O 	O 	0.11690 0.97360 0.47960 -0.04600
Zn	Zn	0.10339 0.43548 0.40370 1.19800
C 	C 	0.03160 0.35800 0.28850 0.02300
H 	H 	0.00130 0.33000 0.31730 0.03000
N 	N 	0.08250 0.40490 0.30910 -0.27000
O 	O 	0.18670 0.50820 0.30610 -0.19600
C 	C 	0.17940 0.56220 0.46000 0.82900
H 	H 	0.21060 0.55640 0.47540 -0.28200
N 	N 	0.12410 0.51790 0.43290 0.34700
C 	C 	0.15110 0.54900 0.47600 -0.98300
H 	H 	0.17290 0.53710 0.50430 0.24000
N 	N 	0.10220 0.51080 0.41220 -0.65500
O 	O 	0.01310 0.54780 0.37800 -0.06100
O 	O 	0.03530 0.55780 0.32560 -0.08600
N 	N 	0.17140 0.43160 0.43930 -0.28000
C 	C 	0.18840 0.43000 0.50380 0.04400
C 	C 	0.15860 0.42680 0.56590 0.01400
H 	H 	0.12130 0.42490 0.56640 0.03800
C 	C 	0.18660 0.42660 0.62490 -0.17700
H 	H 	0.16900 0.42640 0.66770 0.48000
N 	N 	0.16000 0.44100 0.68100 -0.41300
O 	O 	0.10680 0.42580 0.68400 -0.01600
N 	N 	0.03810 0.37650 0.45960 -0.26400
C 	C 	0.02200 0.31970 0.47520 0.03800
C 	C 	0.04640 0.28560 0.44840 -0.04100
H 	H 	0.07720 0.30080 0.41520 0.04000
C 	C 	0.02300 0.23130 0.47300 -0.08100
H 	H 	0.03640 0.20610 0.45550 0.19900
N 	N 	0.06070 0.19820 0.44200 -0.12600
O 	O 	0.02640 0.14330 0.47960 -0.05100
Zn	Zn	0.43548 0.33209 0.90370 1.19700
C 	C 	0.35800 0.32640 0.78850 0.02300
H 	H 	0.33000 0.32870 0.81730 0.03000
N 	N 	0.40490 0.32240 0.80910 -0.27100
O 	O 	0.50820 0.32150 0.80610 -0.18700
C 	C 	0.56220 0.38280 0.96000 0.58600
H 	H 	0.55640 0.34580 0.97540 -0.19700
N 	N 	0.51790 0.39380 0.93290 0.23800
C 	C 	0.54900 0.39790 0.97600 -0.72000
H 	H 	0.53710 0.36420 0.00430 0.19100
N 	N 	0.51080 0.40860 0.91220 -0.55500
O 	O 	0.54780 0.53470 0.87800 -0.06600
O 	O 	0.55780 0.52250 0.82560 -0.08500
N 	N 	0.43160 0.26020 0.93930 -0.28300
C 	C 	0.43000 0.24160 0.00380 0.04800
C 	C 	0.42680 0.26820 0.06590 0.01600
H 	H 	0.42490 0.30360 0.06640 0.03700
C 	C 	0.42660 0.24000 0.12490 -0.18200
H 	H 	0.42640 0.25740 0.16770 0.48500
N 	N 	0.44100 0.28100 0.18100 -0.41600
O 	O 	0.42580 0.31900 0.18400 -0.01500
N 	N 	0.37650 0.33840 0.95960 -0.26900
C 	C 	0.31970 0.29770 0.97520 0.02900
C 	C 	0.28560 0.23920 0.94840 -0.03100
H 	H 	0.30080 0.22360 0.91520 0.03700
C 	C 	0.23130 0.20830 0.97300 -0.09700
H 	H 	0.20610 0.16970 0.95550 0.20600
N 	N 	0.19820 0.13750 0.94200 -0.12900
O 	O 	0.14330 0.11690 0.97960 -0.05300
Zn	Zn	0.66791 0.10339 0.90370 1.19700
C 	C 	0.67360 0.03160 0.78850 0.02300
H 	H 	0.67130 0.00130 0.81730 0.03000
N 	N 	0.67760 0.08250 0.80910 -0.27100
O 	O 	0.67850 0.18670 0.80610 -0.18700
C 	C 	0.61720 0.17940 0.96000 0.61000
H 	H 	0.65420 0.21060 0.97540 -0.20500
N 	N 	0.60620 0.12410 0.93290 0.24800
C 	C 	0.60210 0.15110 0.97600 -0.74600
H 	H 	0.63580 0.17290 0.00430 0.19500
N 	N 	0.59140 0.10220 0.91220 -0.56500
O 	O 	0.46530 0.01310 0.87800 -0.06500
O 	O 	0.47750 0.03530 0.82560 -0.08600
N 	N 	0.73980 0.17140 0.93930 -0.28200
C 	C 	0.75840 0.18840 0.00380 0.04700
C 	C 	0.73180 0.15860 0.06590 0.01600
H 	H 	0.69640 0.12130 0.06640 0.03700
C 	C 	0.76000 0.18660 0.12490 -0.18100
H 	H 	0.74260 0.16900 0.16770 0.48400
N 	N 	0.71900 0.16000 0.18100 -0.41500
O 	O 	0.68100 0.10680 0.18400 -0.01600
N 	N 	0.66160 0.03810 0.95960 -0.26600
C 	C 	0.70230 0.02200 0.97520 0.02300
C 	C 	0.76080 0.04640 0.94840 -0.02300
H 	H 	0.77640 0.07720 0.91520 0.03400
C 	C 	0.79170 0.02300 0.97300 -0.10700
H 	H 	0.83030 0.03640 0.95550 0.21000
N 	N 	0.86250 0.06070 0.94200 -0.13000
O 	O 	0.88310 0.02640 0.97960 -0.05300
Zn	Zn	0.89661 0.56452 0.90370 1.19700
C 	C 	0.96840 0.64200 0.78850 0.02400
H 	H 	0.99870 0.67000 0.81730 0.03200
N 	N 	0.91750 0.59510 0.80910 -0.27000
O 	O 	0.81330 0.49180 0.80610 -0.18800
C 	C 	0.82060 0.43780 0.96000 0.62200
H 	H 	0.78940 0.44360 0.97540 -0.21000
N 	N 	0.87590 0.48210 0.93290 0.25400
C 	C 	0.84890 0.45100 0.97600 -0.76000
H 	H 	0.82710 0.46290 0.00430 0.19900
N 	N 	0.89780 0.48920 0.91220 -0.57000
O 	O 	0.98690 0.45220 0.87800 -0.06200
O 	O 	0.96470 0.44220 0.82560 -0.08500
N 	N 	0.82860 0.56840 0.93930 -0.28300
C 	C 	0.81160 0.57000 0.00380 0.05000
C 	C 	0.84140 0.57320 0.06590 0.01300
H 	H 	0.87870 0.57510 0.06640 0.03900
C 	C 	0.81340 0.57340 0.12490 -0.17600
H 	H 	0.83100 0.57360 0.16770 0.48100
N 	N 	0.84000 0.55900 0.18100 -0.41400
O 	O 	0.89320 0.57420 0.18400 -0.01300
N 	N 	0.96190 0.62350 0.95960 -0.26800
C 	C 	0.97800 0.68030 0.97520 0.04100
C 	C 	0.95360 0.71440 0.94840 -0.04400
H 	H 	0.92280 0.69920 0.91520 0.04100
C 	C 	0.97700 0.76870 0.97300 -0.07700
H 	H 	0.96360 0.79390 0.95550 0.19700
N 	N 	0.93930 0.80180 0.94200 -0.12500
O 	O 	0.97360 0.85670 0.97960 -0.04900
Zn	Zn	0.66791 0.56452 0.59630 1.19800
C 	C 	0.67360 0.64200 0.71150 0.02300
H 	H 	0.67130 0.67000 0.68270 0.03100
N 	N 	0.67760 0.59510 0.69090 -0.27100
O 	O 	0.67850 0.49180 0.69390 -0.19300
C 	C 	0.61720 0.43780 0.54000 0.82000
H 	H 	0.65420 0.44360 0.52460 -0.27800
N 	N 	0.60620 0.48210 0.56710 0.34300
C 	C 	0.60210 0.45100 0.52400 -0.97300
H 	H 	0.63580 0.46290 0.49570 0.23700
N 	N 	0.59140 0.48920 0.58780 -0.65100
O 	O 	0.46530 0.45220 0.62200 -0.06000
O 	O 	0.47750 0.44220 0.67440 -0.08500
N 	N 	0.73980 0.56840 0.56070 -0.28000
C 	C 	0.75840 0.57000 0.49620 0.04200
C 	C 	0.73180 0.57320 0.43410 0.01900
H 	H 	0.69640 0.57510 0.43360 0.03700
C 	C 	0.76000 0.57340 0.37510 -0.18400
H 	H 	0.74260 0.57360 0.33230 0.48700
N 	N 	0.71900 0.55900 0.31900 -0.41700
O 	O 	0.68100 0.57420 0.31600 -0.01300
N 	N 	0.66160 0.62350 0.54040 -0.26700
C 	C 	0.70230 0.68030 0.52480 0.05100
C 	C 	0.76080 0.71440 0.55160 -0.05700
H 	H 	0.77640 0.69920 0.58480 0.04600
C 	C 	0.79170 0.76870 0.52700 -0.05800
H 	H 	0.83030 0.79390 0.54450 0.18900
N 	N 	0.86250 0.80180 0.55800 -0.12100
O 	O 	0.88310 0.85670 0.52040 -0.04600
Zn	Zn	0.89661 0.33209 0.59630 1.19800
C 	C 	0.96840 0.32640 0.71150 0.02300
H 	H 	0.99870 0.32870 0.68270 0.03200
N 	N 	0.91750 0.32240 0.69090 -0.27100
O 	O 	0.81330 0.32150 0.69390 -0.19300
C 	C 	0.82060 0.38280 0.54000 0.83400
H 	H 	0.78940 0.34580 0.52460 -0.28400
N 	N 	0.87590 0.39380 0.56710 0.35000
C 	C 	0.84890 0.39790 0.52400 -0.98900
H 	H 	0.82710 0.36420 0.49570 0.24100
N 	N 	0.89780 0.40860 0.58780 -0.65700
O 	O 	0.98690 0.53470 0.62200 -0.05800
O 	O 	0.96470 0.52250 0.67440 -0.08400
N 	N 	0.82860 0.26020 0.56070 -0.28000
C 	C 	0.81160 0.24160 0.49620 0.04400
C 	C 	0.84140 0.26820 0.43410 0.01400
H 	H 	0.87870 0.30360 0.43360 0.03900
C 	C 	0.81340 0.24000 0.37510 -0.17700
H 	H 	0.83100 0.25740 0.33230 0.48100
N 	N 	0.84000 0.28100 0.31900 -0.41400
O 	O 	0.89320 0.31900 0.31600 -0.01300
N 	N 	0.96190 0.33840 0.54040 -0.26600
C 	C 	0.97800 0.29770 0.52480 0.06400
C 	C 	0.95360 0.23920 0.55160 -0.07300
H 	H 	0.92280 0.22360 0.58480 0.05100
C 	C 	0.97700 0.20830 0.52700 -0.03500
H 	H 	0.96360 0.16970 0.54450 0.17900
N 	N 	0.93930 0.13750 0.55800 -0.11700
O 	O 	0.97360 0.11690 0.52040 -0.04400
Zn	Zn	0.43548 0.10339 0.59630 1.19800
C 	C 	0.35800 0.03160 0.71150 0.02300
H 	H 	0.33000 0.00130 0.68270 0.03000
N 	N 	0.40490 0.08250 0.69090 -0.27100
O 	O 	0.50820 0.18670 0.69390 -0.19300
C 	C 	0.56220 0.17940 0.54000 0.81500
H 	H 	0.55640 0.21060 0.52460 -0.27600
N 	N 	0.51790 0.12410 0.56710 0.34100
C 	C 	0.54900 0.15110 0.52400 -0.96800
H 	H 	0.53710 0.17290 0.49570 0.23600
N 	N 	0.51080 0.10220 0.58780 -0.64800
O 	O 	0.54780 0.01310 0.62200 -0.06100
O 	O 	0.55780 0.03530 0.67440 -0.08500
N 	N 	0.43160 0.17140 0.56070 -0.28000
C 	C 	0.43000 0.18840 0.49620 0.04400
C 	C 	0.42680 0.15860 0.43410 0.01500
H 	H 	0.42490 0.12130 0.43360 0.03800
C 	C 	0.42660 0.18660 0.37510 -0.17800
H 	H 	0.42640 0.16900 0.33230 0.48100
N 	N 	0.44100 0.16000 0.31900 -0.41300
O 	O 	0.42580 0.10680 0.31600 -0.01500
N 	N 	0.37650 0.03810 0.54040 -0.26500
C 	C 	0.31970 0.02200 0.52480 0.04400
C 	C 	0.28560 0.04640 0.55160 -0.04800
H 	H 	0.30080 0.07720 0.58480 0.04300
C 	C 	0.23130 0.02300 0.52700 -0.07100
H 	H 	0.20610 0.03640 0.54450 0.19400
N 	N 	0.19820 0.06070 0.55800 -0.12400
O 	O 	0.14330 0.02640 0.52040 -0.04900
Zn	Zn	0.33209 0.43548 0.09630 1.19800
C 	C 	0.32640 0.35800 0.21150 0.02300
H 	H 	0.32870 0.33000 0.18270 0.03100
N 	N 	0.32240 0.40490 0.19090 -0.27000
O 	O 	0.32150 0.50820 0.19390 -0.20300
C 	C 	0.38280 0.56220 0.04000 1.09300
H 	H 	0.34580 0.55640 0.02460 -0.37400
N 	N 	0.39380 0.51790 0.06710 0.46600
C 	C 	0.39790 0.54900 0.02400 -1.26800
H 	H 	0.36420 0.53710 0.99570 0.29200
N 	N 	0.40860 0.51080 0.08780 -0.76200
O 	O 	0.53470 0.54780 0.12200 -0.05400
O 	O 	0.52250 0.55780 0.17440 -0.08500
N 	N 	0.26020 0.43160 0.06070 -0.27700
C 	C 	0.24160 0.43000 0.99620 0.03700
C 	C 	0.26820 0.42680 0.93410 0.01800
H 	H 	0.30360 0.42490 0.93360 0.03700
C 	C 	0.24000 0.42660 0.87510 -0.18100
H 	H 	0.25740 0.42640 0.83230 0.48300
N 	N 	0.28100 0.44100 0.81900 -0.41500
O 	O 	0.31900 0.42580 0.81600 -0.01300
N 	N 	0.33840 0.37650 0.04040 -0.26900
C 	C 	0.29770 0.31970 0.02480 0.07300
C 	C 	0.23920 0.28560 0.05160 -0.08300
H 	H 	0.22360 0.30080 0.08480 0.05500
C 	C 	0.20830 0.23130 0.02700 -0.01900
H 	H 	0.16970 0.20610 0.04450 0.17200
N 	N 	0.13750 0.19820 0.05800 -0.11400
O 	O 	0.11690 0.14330 0.02040 -0.04300
Zn	Zn	0.10339 0.66791 0.09630 1.19800
C 	C 	0.03160 0.67360 0.21150 0.02300
H 	H 	0.00130 0.67130 0.18270 0.03000
N 	N 	0.08250 0.67760 0.19090 -0.27000
O 	O 	0.18670 0.67850 0.19390 -0.20300
C 	C 	0.17940 0.61720 0.04000 1.10500
H 	H 	0.21060 0.65420 0.02460 -0.37800
N 	N 	0.12410 0.60620 0.06710 0.47100
C 	C 	0.15110 0.60210 0.02400 -1.28100
H 	H 	0.17290 0.63580 0.99570 0.29300
N 	N 	0.10220 0.59140 0.08780 -0.76700
O 	O 	0.01310 0.46530 0.12200 -0.05500
O 	O 	0.03530 0.47750 0.17440 -0.08500
N 	N 	0.17140 0.73980 0.06070 -0.27600
C 	C 	0.18840 0.75840 0.99620 0.03500
C 	C 	0.15860 0.73180 0.93410 0.01800
H 	H 	0.12130 0.69640 0.93360 0.03600
C 	C 	0.18660 0.76000 0.87510 -0.18200
H 	H 	0.16900 0.74260 0.83230 0.48300
N 	N 	0.16000 0.71900 0.81900 -0.41400
O 	O 	0.10680 0.68100 0.81600 -0.01500
N 	N 	0.03810 0.66160 0.04040 -0.26700
C 	C 	0.02200 0.70230 0.02480 0.06200
C 	C 	0.04640 0.76080 0.05160 -0.06900
H 	H 	0.07720 0.77640 0.08480 0.05100
C 	C 	0.02300 0.79170 0.02700 -0.03900
H 	H 	0.03640 0.83030 0.04450 0.18100
N 	N 	0.06070 0.86250 0.05800 -0.11700
O 	O 	0.02640 0.88310 0.02040 -0.04400
Zn	Zn	0.56452 0.89661 0.09630 1.19800
C 	C 	0.64200 0.96840 0.21150 0.02300
H 	H 	0.67000 0.99870 0.18270 0.03200
N 	N 	0.59510 0.91750 0.19090 -0.27000
O 	O 	0.49180 0.81330 0.19390 -0.20400
C 	C 	0.43780 0.82060 0.04000 1.12600
H 	H 	0.44360 0.78940 0.02460 -0.38600
N 	N 	0.48210 0.87590 0.06710 0.48100
C 	C 	0.45100 0.84890 0.02400 -1.30500
H 	H 	0.46290 0.82710 0.99570 0.29900
N 	N 	0.48920 0.89780 0.08780 -0.77600
O 	O 	0.45220 0.98690 0.12200 -0.05200
O 	O 	0.44220 0.96470 0.17440 -0.08500
N 	N 	0.56840 0.82860 0.06070 -0.27700
C 	C 	0.57000 0.81160 0.99620 0.03800
C 	C 	0.57320 0.84140 0.93410 0.01400
H 	H 	0.57510 0.87870 0.93360 0.03900
C 	C 	0.57340 0.81340 0.87510 -0.17500
H 	H 	0.57360 0.83100 0.83230 0.48000
N 	N 	0.55900 0.84000 0.81900 -0.41200
O 	O 	0.57420 0.89320 0.81600 -0.01200
N 	N 	0.62350 0.96190 0.04040 -0.26700
C 	C 	0.68030 0.97800 0.02480 0.07900
C 	C 	0.71440 0.95360 0.05160 -0.09000
H 	H 	0.69920 0.92280 0.08480 0.05800
C 	C 	0.76870 0.97700 0.02700 -0.00800
H 	H 	0.79390 0.96360 0.04450 0.16800
N 	N 	0.80180 0.93930 0.05800 -0.11200
O 	O 	0.85670 0.97360 0.02040 -0.04000
C 	C 	0.42950 0.32020 0.75000 0.15600
N 	N 	0.48680 0.32260 0.75000 -0.01800
C 	C 	0.67980 0.10930 0.75000 0.15500
N 	N 	0.67740 0.16420 0.75000 -0.01800
C 	C 	0.89070 0.57050 0.75000 0.15600
N 	N 	0.83580 0.51320 0.75000 -0.01800
C 	C 	0.57050 0.67980 0.25000 0.15400
N 	N 	0.51320 0.67740 0.25000 -0.01600
C 	C 	0.32020 0.89070 0.25000 0.15400
N 	N 	0.32260 0.83580 0.25000 -0.01600
C 	C 	0.10930 0.42950 0.25000 0.15400
N 	N 	0.16420 0.48680 0.25000 -0.01600
C 	C 	0.32020 0.42950 0.25000 0.15400
N 	N 	0.32260 0.48680 0.25000 -0.01600
C 	C 	0.10930 0.67980 0.25000 0.15400
N 	N 	0.16420 0.67740 0.25000 -0.01600
C 	C 	0.57050 0.89070 0.25000 0.15400
N 	N 	0.51320 0.83580 0.25000 -0.01600
C 	C 	0.67980 0.57050 0.75000 0.15600
N 	N 	0.67740 0.51320 0.75000 -0.01800
C 	C 	0.89070 0.32020 0.75000 0.15500
N 	N 	0.83580 0.32260 0.75000 -0.01800
C 	C 	0.42950 0.10930 0.75000 0.15500
N 	N 	0.48680 0.16420 0.75000 -0.01800
C 	C 	0.55110 0.44890 0.57600 0.14400
C 	C 	0.54500 0.45500 0.60000 0.59300
N 	N 	0.52490 0.47510 0.65800 -0.00500
N 	N 	0.51800 0.48200 0.61040 -0.11100
C 	C 	0.55110 0.10220 0.57600 0.14400
C 	C 	0.54500 0.09000 0.60000 0.59100
N 	N 	0.52490 0.04980 0.65800 -0.00500
N 	N 	0.51800 0.03600 0.61040 -0.11000
C 	C 	0.89780 0.44890 0.57600 0.14400
C 	C 	0.91000 0.45500 0.60000 0.60000
N 	N 	0.95020 0.47510 0.65800 -0.00600
N 	N 	0.96400 0.48200 0.61040 -0.11200
C 	C 	0.44890 0.55110 0.07600 0.14200
C 	C 	0.45500 0.54500 0.10000 0.70700
N 	N 	0.47510 0.52490 0.15800 -0.01400
N 	N 	0.48200 0.51800 0.11040 -0.12800
C 	C 	0.44890 0.89780 0.07600 0.14100
C 	C 	0.45500 0.91000 0.10000 0.72200
N 	N 	0.47510 0.95020 0.15800 -0.01500
N 	N 	0.48200 0.96400 0.11040 -0.13100
C 	C 	0.10220 0.55110 0.07600 0.14200
C 	C 	0.09000 0.54500 0.10000 0.71100
N 	N 	0.04980 0.52490 0.15800 -0.01400
N 	N 	0.03600 0.51800 0.11040 -0.12900
C 	C 	0.44890 0.55110 0.42400 0.14300
C 	C 	0.45500 0.54500 0.40000 0.60100
N 	N 	0.47510 0.52490 0.34200 -0.00600
N 	N 	0.48200 0.51800 0.38960 -0.11200
C 	C 	0.10220 0.55110 0.42400 0.14400
C 	C 	0.09000 0.54500 0.40000 0.59700
N 	N 	0.04980 0.52490 0.34200 -0.00500
N 	N 	0.03600 0.51800 0.38960 -0.11100
C 	C 	0.44890 0.89780 0.42400 0.14300
C 	C 	0.45500 0.91000 0.40000 0.60400
N 	N 	0.47510 0.95020 0.34200 -0.00600
N 	N 	0.48200 0.96400 0.38960 -0.11300
C 	C 	0.55110 0.44890 0.92400 0.14600
C 	C 	0.54500 0.45500 0.90000 0.49500
N 	N 	0.52490 0.47510 0.84200 0.00200
N 	N 	0.51800 0.48200 0.88960 -0.09600
C 	C 	0.89780 0.44890 0.92400 0.14600
C 	C 	0.91000 0.45500 0.90000 0.51100
N 	N 	0.95020 0.47510 0.84200 0.00100
N 	N 	0.96400 0.48200 0.88960 -0.09800
C 	C 	0.55110 0.10220 0.92400 0.14600
C 	C 	0.54500 0.09000 0.90000 0.50500
N 	N 	0.52490 0.04980 0.84200 0.00200
N 	N 	0.51800 0.03600 0.88960 -0.09700
C 	C 	0.43270 0.21635 0.60010 0.06500
H 	H 	0.43410 0.21705 0.64880 -0.00400
O 	O 	0.21900 0.10950 0.59500 -0.05600
C 	C 	0.78365 0.21635 0.60010 0.06500
H 	H 	0.78295 0.21705 0.64880 -0.00400
O 	O 	0.89050 0.10950 0.59500 -0.05600
C 	C 	0.78365 0.56730 0.60010 0.06500
H 	H 	0.78295 0.56590 0.64880 -0.00400
O 	O 	0.89050 0.78100 0.59500 -0.05700
C 	C 	0.56730 0.78365 0.10010 0.06400
H 	H 	0.56590 0.78295 0.14880 -0.00500
O 	O 	0.78100 0.89050 0.09500 -0.05900
C 	C 	0.21635 0.78365 0.10010 0.06400
H 	H 	0.21705 0.78295 0.14880 -0.00500
O 	O 	0.10950 0.89050 0.09500 -0.05900
C 	C 	0.21635 0.43270 0.10010 0.06400
H 	H 	0.21705 0.43410 0.14880 -0.00500
O 	O 	0.10950 0.21900 0.09500 -0.05800
C 	C 	0.21635 0.43270 0.39990 0.06400
H 	H 	0.21705 0.43410 0.35120 -0.00400
O 	O 	0.10950 0.21900 0.40500 -0.05500
C 	C 	0.21635 0.78365 0.39990 0.06400
H 	H 	0.21705 0.78295 0.35120 -0.00400
O 	O 	0.10950 0.89050 0.40500 -0.05500
C 	C 	0.56730 0.78365 0.39990 0.06400
H 	H 	0.56590 0.78295 0.35120 -0.00400
O 	O 	0.78100 0.89050 0.40500 -0.05600
C 	C 	0.78365 0.56730 0.89990 0.06500
H 	H 	0.78295 0.56590 0.85120 -0.00400
O 	O 	0.89050 0.78100 0.90500 -0.05300
C 	C 	0.78365 0.21635 0.89990 0.06500
H 	H 	0.78295 0.21705 0.85120 -0.00400
O 	O 	0.89050 0.10950 0.90500 -0.05300
C 	C 	0.43270 0.21635 0.89990 0.06500
H 	H 	0.43410 0.21705 0.85120 -0.00400
O 	O 	0.21900 0.10950 0.90500 -0.05300
O 	O 	0.48000 0.29000 0.25000 0.00700
O 	O 	0.71000 0.19000 0.25000 0.00600
O 	O 	0.81000 0.52000 0.25000 0.00700
O 	O 	0.52000 0.71000 0.75000 0.00800
O 	O 	0.29000 0.81000 0.75000 0.00800
O 	O 	0.19000 0.48000 0.75000 0.00700
O 	O 	0.29000 0.48000 0.75000 0.00800
O 	O 	0.19000 0.71000 0.75000 0.00800
O 	O 	0.52000 0.81000 0.75000 0.00800
O 	O 	0.71000 0.52000 0.25000 0.00700
O 	O 	0.81000 0.29000 0.25000 0.00700
O 	O 	0.48000 0.19000 0.25000 0.00600
C 	C 	0.38790 0.38790 0.50000 0.06300
H 	H 	0.42430 0.42430 0.50000 0.03200
C 	C 	0.61210 0.00000 0.50000 0.06000
H 	H 	0.57570 0.00000 0.50000 0.03200
C 	C 	0.00000 0.61210 0.50000 0.05800
H 	H 	0.00000 0.57570 0.50000 0.03200
C 	C 	0.61210 0.61210 -0.00000 0.07200
H 	H 	0.57570 0.57570 -0.00000 0.03200
C 	C 	0.38790 0.00000 -0.00000 0.06600
H 	H 	0.42430 0.00000 -0.00000 0.03300
C 	C 	-0.00000 0.38790 -0.00000 0.06700
H 	H 	-0.00000 0.42430 -0.00000 0.03300
C 	C 	0.61210 0.61210 0.50000 0.06300
H 	H 	0.57570 0.57570 0.50000 0.03200
C 	C 	0.38790 0.00000 0.50000 0.06000
H 	H 	0.42430 0.00000 0.50000 0.03200
C 	C 	0.00000 0.38790 0.50000 0.05800
H 	H 	0.00000 0.42430 0.50000 0.03200
C 	C 	0.38790 0.38790 -0.00000 0.07100
H 	H 	0.42430 0.42430 -0.00000 0.03200
C 	C 	0.61210 0.00000 -0.00000 0.06500
H 	H 	0.57570 0.00000 -0.00000 0.03300
C 	C 	0.00000 0.61210 -0.00000 0.06700
H 	H 	-0.00000 0.57570 -0.00000 0.03300
