data_crystal

_cell_length_a 26.44220
_cell_length_b 26.44220
_cell_length_c 18.97030
_cell_angle_alpha 90.00000
_cell_angle_beta  90.00000
_cell_angle_gamma 120.00000

_symmetry_space_group_name_	'P 1'
_symmetry_space_group_name_H-M	'P 1'

loop_
_symmetry_equiv_pos_as_xyz
  x,y,z

loop_
_atom_site_label
_atom_site_type_symbol
_atom_site_fract_x
_atom_site_fract_y
_atom_site_fract_z
_atom_site_charge
Zn	Zn	0.10599 0.43877 0.40927 1.18600
N 	N 	0.03950 0.37670 0.46480 -0.27200
C 	C 	0.01280 0.31290 0.46550 0.03700
H 	H 	0.01260 0.28780 0.43100 -0.00500
C 	C 	0.03910 0.33000 0.49110 -0.05500
H 	H 	0.06820 0.32060 0.49790 0.01900
N 	N 	0.17470 0.43480 0.44380 -0.29600
C 	C 	0.17940 0.41030 0.50830 0.09000
H 	H 	0.15200 0.39660 0.54450 -0.21200
C 	C 	0.19290 0.43690 0.51370 0.01000
H 	H 	0.17310 0.43800 0.55360 -0.16900
C 	C 	0.14810 0.41460 0.56800 0.42900
N 	N 	0.11780 0.42700 0.61890 -0.17800
N 	N 	0.11610 0.51510 0.43980 -0.27600
C 	C 	0.16780 0.55600 0.46780 0.00100
H 	H 	0.19760 0.55000 0.48400 0.02000
C 	C 	0.11210 0.53040 0.51180 -0.01100
H 	H 	0.10990 0.50870 0.55150 0.03700
O 	O 	0.01360 0.54870 0.36820 -0.16500
N 	N 	0.08350 0.41500 0.30890 -0.27800
C 	C 	0.03390 0.37000 0.28700 0.01100
H 	H 	0.00410 0.34300 0.31570 0.01500
O 	O 	0.18606 0.51473 0.30720 -0.17000
Zn	Zn	0.56123 0.66722 0.40927 1.18700
N 	N 	0.62330 0.66280 0.46480 -0.27300
C 	C 	0.68710 0.69990 0.46550 0.02100
H 	H 	0.71220 0.72480 0.43100 0.00200
C 	C 	0.67000 0.70910 0.49110 -0.03700
H 	H 	0.67940 0.74760 0.49790 0.01500
N 	N 	0.56520 0.73990 0.44380 -0.29600
C 	C 	0.58970 0.76910 0.50830 0.08800
H 	H 	0.60340 0.75540 0.54450 -0.21100
C 	C 	0.56310 0.75600 0.51370 0.01100
H 	H 	0.56200 0.73510 0.55360 -0.16900
C 	C 	0.58540 0.73350 0.56800 0.42800
N 	N 	0.57300 0.69080 0.61890 -0.17700
N 	N 	0.48490 0.60100 0.43980 -0.27600
C 	C 	0.44400 0.61180 0.46780 0.00000
H 	H 	0.45000 0.64760 0.48400 0.02000
C 	C 	0.46960 0.58170 0.51180 -0.01100
H 	H 	0.49130 0.60120 0.55150 0.03700
O 	O 	0.45130 0.46490 0.36820 -0.16300
N 	N 	0.58500 0.66850 0.30890 -0.27800
C 	C 	0.63000 0.66390 0.28700 0.01100
H 	H 	0.65700 0.66110 0.31570 0.01700
O 	O 	0.48527 0.67133 0.30720 -0.17000
Zn	Zn	0.33278 0.89401 0.40927 1.18700
N 	N 	0.33720 0.96050 0.46480 -0.27200
C 	C 	0.30010 0.98720 0.46550 0.00300
H 	H 	0.27520 0.98740 0.43100 0.00900
C 	C 	0.29090 0.96090 0.49110 -0.01700
H 	H 	0.25240 0.93180 0.49790 0.00800
N 	N 	0.26010 0.82530 0.44380 -0.29600
C 	C 	0.23090 0.82060 0.50830 0.08900
H 	H 	0.24460 0.84800 0.54450 -0.21100
C 	C 	0.24400 0.80710 0.51370 0.01000
H 	H 	0.26490 0.82690 0.55360 -0.16900
C 	C 	0.26650 0.85190 0.56800 0.42800
N 	N 	0.30920 0.88220 0.61890 -0.17600
N 	N 	0.39900 0.88390 0.43980 -0.27600
C 	C 	0.38820 0.83220 0.46780 0.00000
H 	H 	0.35240 0.80240 0.48400 0.02100
C 	C 	0.41830 0.88790 0.51180 -0.01000
H 	H 	0.39880 0.89010 0.55150 0.03800
O 	O 	0.53510 0.98640 0.36820 -0.16100
N 	N 	0.33150 0.91650 0.30890 -0.27800
C 	C 	0.33610 0.96610 0.28700 0.01100
H 	H 	0.33890 0.99590 0.31570 0.01800
O 	O 	0.32867 0.81394 0.30720 -0.17000
Zn	Zn	0.89401 0.56123 0.90927 1.18700
N 	N 	0.96050 0.62330 0.96480 -0.26900
C 	C 	0.98720 0.68710 0.96550 -0.00600
H 	H 	0.98740 0.71220 0.93100 0.01300
C 	C 	0.96090 0.67000 0.99110 -0.00500
H 	H 	0.93180 0.67940 0.99790 0.00600
N 	N 	0.82530 0.56520 0.94380 -0.29400
C 	C 	0.82060 0.58970 0.00830 0.08600
H 	H 	0.84800 0.60340 0.04450 -0.21400
C 	C 	0.80710 0.56310 0.01370 0.01100
H 	H 	0.82690 0.56200 0.05360 -0.17300
C 	C 	0.85190 0.58540 0.06800 0.43400
N 	N 	0.88220 0.57300 0.11890 -0.17800
N 	N 	0.88390 0.48490 0.93980 -0.27400
C 	C 	0.83220 0.44400 0.96780 0.00300
H 	H 	0.80240 0.45000 0.98400 0.02100
C 	C 	0.88790 0.46960 0.01180 -0.01500
H 	H 	0.89010 0.49130 0.05150 0.03800
O 	O 	0.98640 0.45130 0.86820 -0.16000
N 	N 	0.91650 0.58500 0.80890 -0.27700
C 	C 	0.96610 0.63000 0.78700 0.01200
H 	H 	0.99590 0.65700 0.81570 0.01800
O 	O 	0.81394 0.48527 0.80720 -0.17000
Zn	Zn	0.43877 0.33278 0.90927 1.18700
N 	N 	0.37670 0.33720 0.96480 -0.27100
C 	C 	0.31290 0.30010 0.96550 0.01000
H 	H 	0.28780 0.27520 0.93100 0.00600
C 	C 	0.33000 0.29090 0.99110 -0.02200
H 	H 	0.32060 0.25240 0.99790 0.01100
N 	N 	0.43480 0.26010 0.94380 -0.29400
C 	C 	0.41030 0.23090 0.00830 0.08800
H 	H 	0.39660 0.24460 0.04450 -0.21600
C 	C 	0.43690 0.24400 0.01370 0.00900
H 	H 	0.43800 0.26490 0.05360 -0.17300
C 	C 	0.41460 0.26650 0.06800 0.43500
N 	N 	0.42700 0.30920 0.11890 -0.18000
N 	N 	0.51510 0.39900 0.93980 -0.27400
C 	C 	0.55600 0.38820 0.96780 0.00300
H 	H 	0.55000 0.35240 0.98400 0.02100
C 	C 	0.53040 0.41830 0.01180 -0.01600
H 	H 	0.50870 0.39880 0.05150 0.03800
O 	O 	0.54870 0.53510 0.86820 -0.16200
N 	N 	0.41500 0.33150 0.80890 -0.27800
C 	C 	0.37000 0.33610 0.78700 0.01100
H 	H 	0.34300 0.33890 0.81570 0.01700
O 	O 	0.51473 0.32867 0.80720 -0.17000
Zn	Zn	0.66722 0.10599 0.90927 1.18700
N 	N 	0.66280 0.03950 0.96480 -0.26900
C 	C 	0.69990 0.01280 0.96550 0.02800
H 	H 	0.72480 0.01260 0.93100 -0.00100
C 	C 	0.70910 0.03910 0.99110 -0.04200
H 	H 	0.74760 0.06820 0.99790 0.01700
N 	N 	0.73990 0.17470 0.94380 -0.29300
C 	C 	0.76910 0.17940 0.00830 0.08700
H 	H 	0.75540 0.15200 0.04450 -0.21500
C 	C 	0.75600 0.19290 0.01370 0.01000
H 	H 	0.73510 0.17310 0.05360 -0.17300
C 	C 	0.73350 0.14810 0.06800 0.43500
N 	N 	0.69080 0.11780 0.11890 -0.18000
N 	N 	0.60100 0.11610 0.93980 -0.27400
C 	C 	0.61180 0.16780 0.96780 0.00400
H 	H 	0.64760 0.19760 0.98400 0.02100
C 	C 	0.58170 0.11210 0.01180 -0.01600
H 	H 	0.60120 0.10990 0.05150 0.03700
O 	O 	0.46490 0.01360 0.86820 -0.16400
N 	N 	0.66850 0.08350 0.80890 -0.27800
C 	C 	0.66390 0.03390 0.78700 0.01100
H 	H 	0.66110 0.00410 0.81570 0.01600
O 	O 	0.67133 0.18606 0.80720 -0.17000
Zn	Zn	0.43877 0.10599 0.59073 1.18700
N 	N 	0.37670 0.03950 0.53520 -0.27100
C 	C 	0.31290 0.01280 0.53450 0.04000
H 	H 	0.28780 0.01260 0.56900 -0.00600
C 	C 	0.33000 0.03910 0.50890 -0.05700
H 	H 	0.32060 0.06820 0.50210 0.02000
N 	N 	0.43480 0.17470 0.55620 -0.29600
C 	C 	0.41030 0.17940 0.49170 0.09000
H 	H 	0.39660 0.15200 0.45550 -0.21200
C 	C 	0.43690 0.19290 0.48630 0.01000
H 	H 	0.43800 0.17310 0.44640 -0.17000
C 	C 	0.41460 0.14810 0.43200 0.42900
N 	N 	0.42700 0.11780 0.38110 -0.17900
N 	N 	0.51510 0.11610 0.56020 -0.27600
C 	C 	0.55600 0.16780 0.53220 0.00100
H 	H 	0.55000 0.19760 0.51600 0.02000
C 	C 	0.53040 0.11210 0.48820 -0.01100
H 	H 	0.50870 0.10990 0.44850 0.03700
O 	O 	0.54870 0.01360 0.63180 -0.16500
N 	N 	0.41500 0.08350 0.69110 -0.27800
C 	C 	0.37000 0.03390 0.71300 0.01100
H 	H 	0.34300 0.00410 0.68430 0.01500
O 	O 	0.51473 0.18606 0.69280 -0.17000
Zn	Zn	0.66722 0.56123 0.59073 1.18700
N 	N 	0.66280 0.62330 0.53520 -0.27300
C 	C 	0.69990 0.68710 0.53450 0.02100
H 	H 	0.72480 0.71220 0.56900 0.00200
C 	C 	0.70910 0.67000 0.50890 -0.03800
H 	H 	0.74760 0.67940 0.50210 0.01500
N 	N 	0.73990 0.56520 0.55620 -0.29600
C 	C 	0.76910 0.58970 0.49170 0.08800
H 	H 	0.75540 0.60340 0.45550 -0.21100
C 	C 	0.75600 0.56310 0.48630 0.01100
H 	H 	0.73510 0.56200 0.44640 -0.17000
C 	C 	0.73350 0.58540 0.43200 0.42800
N 	N 	0.69080 0.57300 0.38110 -0.17700
N 	N 	0.60100 0.48490 0.56020 -0.27600
C 	C 	0.61180 0.44400 0.53220 0.00000
H 	H 	0.64760 0.45000 0.51600 0.02000
C 	C 	0.58170 0.46960 0.48820 -0.01100
H 	H 	0.60120 0.49130 0.44850 0.03700
O 	O 	0.46490 0.45130 0.63180 -0.16300
N 	N 	0.66850 0.58500 0.69110 -0.27800
C 	C 	0.66390 0.63000 0.71300 0.01200
H 	H 	0.66110 0.65700 0.68430 0.01700
O 	O 	0.67133 0.48527 0.69280 -0.17000
Zn	Zn	0.89401 0.33278 0.59073 1.18700
N 	N 	0.96050 0.33720 0.53520 -0.27200
C 	C 	0.98720 0.30010 0.53450 0.00500
H 	H 	0.98740 0.27520 0.56900 0.00800
C 	C 	0.96090 0.29090 0.50890 -0.02000
H 	H 	0.93180 0.25240 0.50210 0.00900
N 	N 	0.82530 0.26010 0.55620 -0.29600
C 	C 	0.82060 0.23090 0.49170 0.08900
H 	H 	0.84800 0.24460 0.45550 -0.21100
C 	C 	0.80710 0.24400 0.48630 0.01100
H 	H 	0.82690 0.26490 0.44640 -0.17000
C 	C 	0.85190 0.26650 0.43200 0.42800
N 	N 	0.88220 0.30920 0.38110 -0.17700
N 	N 	0.88390 0.39900 0.56020 -0.27600
C 	C 	0.83220 0.38820 0.53220 0.00000
H 	H 	0.80240 0.35240 0.51600 0.02000
C 	C 	0.88790 0.41830 0.48820 -0.01000
H 	H 	0.89010 0.39880 0.44850 0.03800
O 	O 	0.98640 0.53510 0.63180 -0.16100
N 	N 	0.91650 0.33150 0.69110 -0.27800
C 	C 	0.96610 0.33610 0.71300 0.01200
H 	H 	0.99590 0.33890 0.68430 0.01800
O 	O 	0.81394 0.32867 0.69280 -0.17000
Zn	Zn	0.56123 0.89401 0.09073 1.18700
N 	N 	0.62330 0.96050 0.03520 -0.27000
C 	C 	0.68710 0.98720 0.03450 0.01400
H 	H 	0.71220 0.98740 0.06900 0.00500
C 	C 	0.67000 0.96090 0.00890 -0.03100
H 	H 	0.67940 0.93180 0.00210 0.01200
N 	N 	0.56520 0.82530 0.05620 -0.29800
C 	C 	0.58970 0.82060 0.99170 0.09000
H 	H 	0.60340 0.84800 0.95550 -0.20700
C 	C 	0.56310 0.80710 0.98630 0.01100
H 	H 	0.56200 0.82690 0.94640 -0.16600
C 	C 	0.58540 0.85190 0.93200 0.42100
N 	N 	0.57300 0.88220 0.88110 -0.17400
N 	N 	0.48490 0.88390 0.06020 -0.27700
C 	C 	0.44400 0.83220 0.03220 -0.00300
H 	H 	0.45000 0.80240 0.01600 0.02000
C 	C 	0.46960 0.88790 0.98820 -0.00400
H 	H 	0.49130 0.89010 0.94850 0.03700
O 	O 	0.45130 0.98640 0.13180 -0.16100
N 	N 	0.58500 0.91650 0.19110 -0.27800
C 	C 	0.63000 0.96610 0.21300 0.01200
H 	H 	0.65700 0.99590 0.18430 0.01700
O 	O 	0.48527 0.81394 0.19280 -0.17000
Zn	Zn	0.33278 0.43877 0.09073 1.18600
N 	N 	0.33720 0.37670 0.03520 -0.27200
C 	C 	0.30010 0.31290 0.03450 0.03300
H 	H 	0.27520 0.28780 0.06900 -0.00400
C 	C 	0.29090 0.33000 0.00890 -0.05200
H 	H 	0.25240 0.32060 0.00210 0.01700
N 	N 	0.26010 0.43480 0.05620 -0.29800
C 	C 	0.23090 0.41030 0.99170 0.09200
H 	H 	0.24460 0.39660 0.95550 -0.20800
C 	C 	0.24400 0.43690 0.98630 0.01000
H 	H 	0.26490 0.43800 0.94640 -0.16600
C 	C 	0.26650 0.41460 0.93200 0.42200
N 	N 	0.30920 0.42700 0.88110 -0.17500
N 	N 	0.39900 0.51510 0.06020 -0.27700
C 	C 	0.38820 0.55600 0.03220 -0.00300
H 	H 	0.35240 0.55000 0.01600 0.02000
C 	C 	0.41830 0.53040 0.98820 -0.00500
H 	H 	0.39880 0.50870 0.94850 0.03700
O 	O 	0.53510 0.54870 0.13180 -0.16400
N 	N 	0.33150 0.41500 0.19110 -0.27800
C 	C 	0.33610 0.37000 0.21300 0.01100
H 	H 	0.33890 0.34300 0.18430 0.01600
O 	O 	0.32867 0.51473 0.19280 -0.17000
Zn	Zn	0.10599 0.66722 0.09073 1.18600
N 	N 	0.03950 0.66280 0.03520 -0.27000
C 	C 	0.01280 0.69990 0.03450 0.04800
H 	H 	0.01260 0.72480 0.06900 -0.00900
C 	C 	0.03910 0.70910 0.00890 -0.06900
H 	H 	0.06820 0.74760 0.00210 0.02300
N 	N 	0.17470 0.73990 0.05620 -0.29800
C 	C 	0.17940 0.76910 0.99170 0.09100
H 	H 	0.15200 0.75540 0.95550 -0.20800
C 	C 	0.19290 0.75600 0.98630 0.01100
H 	H 	0.17310 0.73510 0.94640 -0.16600
C 	C 	0.14810 0.73350 0.93200 0.42200
N 	N 	0.11780 0.69080 0.88110 -0.17600
N 	N 	0.11610 0.60100 0.06020 -0.27700
C 	C 	0.16780 0.61180 0.03220 -0.00200
H 	H 	0.19760 0.64760 0.01600 0.02000
C 	C 	0.11210 0.58170 0.98820 -0.00500
H 	H 	0.10990 0.60120 0.94850 0.03600
O 	O 	0.01360 0.46490 0.13180 -0.16500
N 	N 	0.08350 0.66850 0.19110 -0.27800
C 	C 	0.03390 0.66390 0.21300 0.01100
H 	H 	0.00410 0.66110 0.18430 0.01500
O 	O 	0.18606 0.67133 0.19280 -0.17000
Zn	Zn	0.89401 0.56123 0.59073 1.18700
N 	N 	0.96050 0.62330 0.53520 -0.27200
C 	C 	0.98720 0.68710 0.53450 0.00500
H 	H 	0.98740 0.71220 0.56900 0.00900
C 	C 	0.96090 0.67000 0.50890 -0.01900
H 	H 	0.93180 0.67940 0.50210 0.00900
N 	N 	0.82530 0.56520 0.55620 -0.29600
C 	C 	0.82060 0.58970 0.49170 0.08800
H 	H 	0.84800 0.60340 0.45550 -0.21000
C 	C 	0.80710 0.56310 0.48630 0.01100
H 	H 	0.82690 0.56200 0.44640 -0.17000
C 	C 	0.85190 0.58540 0.43200 0.42800
N 	N 	0.88220 0.57300 0.38110 -0.17700
N 	N 	0.88390 0.48490 0.56020 -0.27600
C 	C 	0.83220 0.44400 0.53220 0.00000
H 	H 	0.80240 0.45000 0.51600 0.02000
C 	C 	0.88790 0.46960 0.48820 -0.01000
H 	H 	0.89010 0.49130 0.44850 0.03800
O 	O 	0.98640 0.45130 0.63180 -0.16100
N 	N 	0.91650 0.58500 0.69110 -0.27700
C 	C 	0.96610 0.63000 0.71300 0.01200
H 	H 	0.99590 0.65700 0.68430 0.01800
O 	O 	0.81394 0.48527 0.69280 -0.17000
Zn	Zn	0.43877 0.33278 0.59073 1.18700
N 	N 	0.37670 0.33720 0.53520 -0.27300
C 	C 	0.31290 0.30010 0.53450 0.02200
H 	H 	0.28780 0.27520 0.56900 0.00100
C 	C 	0.33000 0.29090 0.50890 -0.03800
H 	H 	0.32060 0.25240 0.50210 0.01400
N 	N 	0.43480 0.26010 0.55620 -0.29600
C 	C 	0.41030 0.23090 0.49170 0.09000
H 	H 	0.39660 0.24460 0.45550 -0.21200
C 	C 	0.43690 0.24400 0.48630 0.01000
H 	H 	0.43800 0.26490 0.44640 -0.17000
C 	C 	0.41460 0.26650 0.43200 0.42900
N 	N 	0.42700 0.30920 0.38110 -0.17800
N 	N 	0.51510 0.39900 0.56020 -0.27600
C 	C 	0.55600 0.38820 0.53220 0.00000
H 	H 	0.55000 0.35240 0.51600 0.02000
C 	C 	0.53040 0.41830 0.48820 -0.01100
H 	H 	0.50870 0.39880 0.44850 0.03700
O 	O 	0.54870 0.53510 0.63180 -0.16300
N 	N 	0.41500 0.33150 0.69110 -0.27800
C 	C 	0.37000 0.33610 0.71300 0.01100
H 	H 	0.34300 0.33890 0.68430 0.01600
O 	O 	0.51473 0.32867 0.69280 -0.17000
Zn	Zn	0.66722 0.10599 0.59073 1.18700
N 	N 	0.66280 0.03950 0.53520 -0.27100
C 	C 	0.69990 0.01280 0.53450 0.04000
H 	H 	0.72480 0.01260 0.56900 -0.00600
C 	C 	0.70910 0.03910 0.50890 -0.05800
H 	H 	0.74760 0.06820 0.50210 0.02000
N 	N 	0.73990 0.17470 0.55620 -0.29600
C 	C 	0.76910 0.17940 0.49170 0.08900
H 	H 	0.75540 0.15200 0.45550 -0.21200
C 	C 	0.75600 0.19290 0.48630 0.01100
H 	H 	0.73510 0.17310 0.44640 -0.17000
C 	C 	0.73350 0.14810 0.43200 0.42900
N 	N 	0.69080 0.11780 0.38110 -0.17800
N 	N 	0.60100 0.11610 0.56020 -0.27600
C 	C 	0.61180 0.16780 0.53220 0.00100
H 	H 	0.64760 0.19760 0.51600 0.02000
C 	C 	0.58170 0.11210 0.48820 -0.01100
H 	H 	0.60120 0.10990 0.44850 0.03700
O 	O 	0.46490 0.01360 0.63180 -0.16500
N 	N 	0.66850 0.08350 0.69110 -0.27800
C 	C 	0.66390 0.03390 0.71300 0.01100
H 	H 	0.66110 0.00410 0.68430 0.01500
O 	O 	0.67133 0.18606 0.69280 -0.17000
Zn	Zn	0.10599 0.43877 0.09073 1.18600
N 	N 	0.03950 0.37670 0.03520 -0.27000
C 	C 	0.01280 0.31290 0.03450 0.04900
H 	H 	0.01260 0.28780 0.06900 -0.01000
C 	C 	0.03910 0.33000 0.00890 -0.06900
H 	H 	0.06820 0.32060 0.00210 0.02200
N 	N 	0.17470 0.43480 0.05620 -0.29800
C 	C 	0.17940 0.41030 0.99170 0.09200
H 	H 	0.15200 0.39660 0.95550 -0.20800
C 	C 	0.19290 0.43690 0.98630 0.01000
H 	H 	0.17310 0.43800 0.94640 -0.16600
C 	C 	0.14810 0.41460 0.93200 0.42200
N 	N 	0.11780 0.42700 0.88110 -0.17600
N 	N 	0.11610 0.51510 0.06020 -0.27700
C 	C 	0.16780 0.55600 0.03220 -0.00300
H 	H 	0.19760 0.55000 0.01600 0.02000
C 	C 	0.11210 0.53040 0.98820 -0.00500
H 	H 	0.10990 0.50870 0.94850 0.03600
O 	O 	0.01360 0.54870 0.13180 -0.16500
N 	N 	0.08350 0.41500 0.19110 -0.27800
C 	C 	0.03390 0.37000 0.21300 0.01100
H 	H 	0.00410 0.34300 0.18430 0.01500
O 	O 	0.18606 0.51473 0.19280 -0.17000
Zn	Zn	0.56123 0.66722 0.09073 1.18600
N 	N 	0.62330 0.66280 0.03520 -0.27200
C 	C 	0.68710 0.69990 0.03450 0.03300
H 	H 	0.71220 0.72480 0.06900 -0.00300
C 	C 	0.67000 0.70910 0.00890 -0.05200
H 	H 	0.67940 0.74760 0.00210 0.01800
N 	N 	0.56520 0.73990 0.05620 -0.29800
C 	C 	0.58970 0.76910 0.99170 0.09000
H 	H 	0.60340 0.75540 0.95550 -0.20700
C 	C 	0.56310 0.75600 0.98630 0.01200
H 	H 	0.56200 0.73510 0.94640 -0.16600
C 	C 	0.58540 0.73350 0.93200 0.42100
N 	N 	0.57300 0.69080 0.88110 -0.17500
N 	N 	0.48490 0.60100 0.06020 -0.27700
C 	C 	0.44400 0.61180 0.03220 -0.00300
H 	H 	0.45000 0.64760 0.01600 0.02000
C 	C 	0.46960 0.58170 0.98820 -0.00500
H 	H 	0.49130 0.60120 0.94850 0.03700
O 	O 	0.45130 0.46490 0.13180 -0.16400
N 	N 	0.58500 0.66850 0.19110 -0.27800
C 	C 	0.63000 0.66390 0.21300 0.01200
H 	H 	0.65700 0.66110 0.18430 0.01600
O 	O 	0.48527 0.67133 0.19280 -0.17000
Zn	Zn	0.33278 0.89401 0.09073 1.18700
N 	N 	0.33720 0.96050 0.03520 -0.27000
C 	C 	0.30010 0.98720 0.03450 0.01400
H 	H 	0.27520 0.98740 0.06900 0.00400
C 	C 	0.29090 0.96090 0.00890 -0.03200
H 	H 	0.25240 0.93180 0.00210 0.01100
N 	N 	0.26010 0.82530 0.05620 -0.29800
C 	C 	0.23090 0.82060 0.99170 0.09100
H 	H 	0.24460 0.84800 0.95550 -0.20800
C 	C 	0.24400 0.80710 0.98630 0.01100
H 	H 	0.26490 0.82690 0.94640 -0.16600
C 	C 	0.26650 0.85190 0.93200 0.42200
N 	N 	0.30920 0.88220 0.88110 -0.17400
N 	N 	0.39900 0.88390 0.06020 -0.27700
C 	C 	0.38820 0.83220 0.03220 -0.00300
H 	H 	0.35240 0.80240 0.01600 0.02000
C 	C 	0.41830 0.88790 0.98820 -0.00400
H 	H 	0.39880 0.89010 0.94850 0.03700
O 	O 	0.53510 0.98640 0.13180 -0.16100
N 	N 	0.33150 0.91650 0.19110 -0.27800
C 	C 	0.33610 0.96610 0.21300 0.01200
H 	H 	0.33890 0.99590 0.18430 0.01700
O 	O 	0.32867 0.81394 0.19280 -0.17000
Zn	Zn	0.56123 0.89401 0.40927 1.18700
N 	N 	0.62330 0.96050 0.46480 -0.27100
C 	C 	0.68710 0.98720 0.46550 0.00300
H 	H 	0.71220 0.98740 0.43100 0.01000
C 	C 	0.67000 0.96090 0.49110 -0.01700
H 	H 	0.67940 0.93180 0.49790 0.00900
N 	N 	0.56520 0.82530 0.44380 -0.29600
C 	C 	0.58970 0.82060 0.50830 0.08800
H 	H 	0.60340 0.84800 0.54450 -0.21000
C 	C 	0.56310 0.80710 0.51370 0.01100
H 	H 	0.56200 0.82690 0.55360 -0.16900
C 	C 	0.58540 0.85190 0.56800 0.42700
N 	N 	0.57300 0.88220 0.61890 -0.17600
N 	N 	0.48490 0.88390 0.43980 -0.27600
C 	C 	0.44400 0.83220 0.46780 0.00000
H 	H 	0.45000 0.80240 0.48400 0.02000
C 	C 	0.46960 0.88790 0.51180 -0.01000
H 	H 	0.49130 0.89010 0.55150 0.03800
O 	O 	0.45130 0.98640 0.36820 -0.16100
N 	N 	0.58500 0.91650 0.30890 -0.27700
C 	C 	0.63000 0.96610 0.28700 0.01200
H 	H 	0.65700 0.99590 0.31570 0.01800
O 	O 	0.48527 0.81394 0.30720 -0.17000
Zn	Zn	0.33278 0.43877 0.40927 1.18700
N 	N 	0.33720 0.37670 0.46480 -0.27300
C 	C 	0.30010 0.31290 0.46550 0.02100
H 	H 	0.27520 0.28780 0.43100 0.00100
C 	C 	0.29090 0.33000 0.49110 -0.03800
H 	H 	0.25240 0.32060 0.49790 0.01400
N 	N 	0.26010 0.43480 0.44380 -0.29600
C 	C 	0.23090 0.41030 0.50830 0.09000
H 	H 	0.24460 0.39660 0.54450 -0.21200
C 	C 	0.24400 0.43690 0.51370 0.01000
H 	H 	0.26490 0.43800 0.55360 -0.16900
C 	C 	0.26650 0.41460 0.56800 0.42900
N 	N 	0.30920 0.42700 0.61890 -0.17800
N 	N 	0.39900 0.51510 0.43980 -0.27600
C 	C 	0.38820 0.55600 0.46780 0.00000
H 	H 	0.35240 0.55000 0.48400 0.02000
C 	C 	0.41830 0.53040 0.51180 -0.01000
H 	H 	0.39880 0.50870 0.55150 0.03700
O 	O 	0.53510 0.54870 0.36820 -0.16300
N 	N 	0.33150 0.41500 0.30890 -0.27800
C 	C 	0.33610 0.37000 0.28700 0.01100
H 	H 	0.33890 0.34300 0.31570 0.01600
O 	O 	0.32867 0.51473 0.30720 -0.17000
Zn	Zn	0.10599 0.66722 0.40927 1.18700
N 	N 	0.03950 0.66280 0.46480 -0.27200
C 	C 	0.01280 0.69990 0.46550 0.03800
H 	H 	0.01260 0.72480 0.43100 -0.00500
C 	C 	0.03910 0.70910 0.49110 -0.05500
H 	H 	0.06820 0.74760 0.49790 0.02000
N 	N 	0.17470 0.73990 0.44380 -0.29600
C 	C 	0.17940 0.76910 0.50830 0.08900
H 	H 	0.15200 0.75540 0.54450 -0.21100
C 	C 	0.19290 0.75600 0.51370 0.01000
H 	H 	0.17310 0.73510 0.55360 -0.16900
C 	C 	0.14810 0.73350 0.56800 0.42800
N 	N 	0.11780 0.69080 0.61890 -0.17800
N 	N 	0.11610 0.60100 0.43980 -0.27600
C 	C 	0.16780 0.61180 0.46780 0.00100
H 	H 	0.19760 0.64760 0.48400 0.02000
C 	C 	0.11210 0.58170 0.51180 -0.01100
H 	H 	0.10990 0.60120 0.55150 0.03700
O 	O 	0.01360 0.46490 0.36820 -0.16500
N 	N 	0.08350 0.66850 0.30890 -0.27800
C 	C 	0.03390 0.66390 0.28700 0.01100
H 	H 	0.00410 0.66110 0.31570 0.01500
O 	O 	0.18606 0.67133 0.30720 -0.17000
Zn	Zn	0.43877 0.10599 0.90927 1.18700
N 	N 	0.37670 0.03950 0.96480 -0.26900
C 	C 	0.31290 0.01280 0.96550 0.02800
H 	H 	0.28780 0.01260 0.93100 -0.00100
C 	C 	0.33000 0.03910 0.99110 -0.04200
H 	H 	0.32060 0.06820 0.99790 0.01700
N 	N 	0.43480 0.17470 0.94380 -0.29400
C 	C 	0.41030 0.17940 0.00830 0.08800
H 	H 	0.39660 0.15200 0.04450 -0.21600
C 	C 	0.43690 0.19290 0.01370 0.00900
H 	H 	0.43800 0.17310 0.05360 -0.17300
C 	C 	0.41460 0.14810 0.06800 0.43600
N 	N 	0.42700 0.11780 0.11890 -0.18100
N 	N 	0.51510 0.11610 0.93980 -0.27400
C 	C 	0.55600 0.16780 0.96780 0.00400
H 	H 	0.55000 0.19760 0.98400 0.02100
C 	C 	0.53040 0.11210 0.01180 -0.01600
H 	H 	0.50870 0.10990 0.05150 0.03700
O 	O 	0.54870 0.01360 0.86820 -0.16400
N 	N 	0.41500 0.08350 0.80890 -0.27800
C 	C 	0.37000 0.03390 0.78700 0.01100
H 	H 	0.34300 0.00410 0.81570 0.01600
O 	O 	0.51473 0.18606 0.80720 -0.17000
Zn	Zn	0.66722 0.56123 0.90927 1.18700
N 	N 	0.66280 0.62330 0.96480 -0.27100
C 	C 	0.69990 0.68710 0.96550 0.01000
H 	H 	0.72480 0.71220 0.93100 0.00700
C 	C 	0.70910 0.67000 0.99110 -0.02300
H 	H 	0.74760 0.67940 0.99790 0.01200
N 	N 	0.73990 0.56520 0.94380 -0.29400
C 	C 	0.76910 0.58970 0.00830 0.08600
H 	H 	0.75540 0.60340 0.04450 -0.21400
C 	C 	0.75600 0.56310 0.01370 0.01100
H 	H 	0.73510 0.56200 0.05360 -0.17300
C 	C 	0.73350 0.58540 0.06800 0.43400
N 	N 	0.69080 0.57300 0.11890 -0.17900
N 	N 	0.60100 0.48490 0.93980 -0.27400
C 	C 	0.61180 0.44400 0.96780 0.00300
H 	H 	0.64760 0.45000 0.98400 0.02100
C 	C 	0.58170 0.46960 0.01180 -0.01600
H 	H 	0.60120 0.49130 0.05150 0.03800
O 	O 	0.46490 0.45130 0.86820 -0.16200
N 	N 	0.66850 0.58500 0.80890 -0.27700
C 	C 	0.66390 0.63000 0.78700 0.01100
H 	H 	0.66110 0.65700 0.81570 0.01700
O 	O 	0.67133 0.48527 0.80720 -0.17000
Zn	Zn	0.89401 0.33278 0.90927 1.18700
N 	N 	0.96050 0.33720 0.96480 -0.26900
C 	C 	0.98720 0.30010 0.96550 -0.00600
H 	H 	0.98740 0.27520 0.93100 0.01300
C 	C 	0.96090 0.29090 0.99110 -0.00500
H 	H 	0.93180 0.25240 0.99790 0.00600
N 	N 	0.82530 0.26010 0.94380 -0.29400
C 	C 	0.82060 0.23090 0.00830 0.08700
H 	H 	0.84800 0.24460 0.04450 -0.21500
C 	C 	0.80710 0.24400 0.01370 0.01000
H 	H 	0.82690 0.26490 0.05360 -0.17300
C 	C 	0.85190 0.26650 0.06800 0.43500
N 	N 	0.88220 0.30920 0.11890 -0.17900
N 	N 	0.88390 0.39900 0.93980 -0.27400
C 	C 	0.83220 0.38820 0.96780 0.00300
H 	H 	0.80240 0.35240 0.98400 0.02100
C 	C 	0.88790 0.41830 0.01180 -0.01500
H 	H 	0.89010 0.39880 0.05150 0.03800
O 	O 	0.98640 0.53510 0.86820 -0.16000
N 	N 	0.91650 0.33150 0.80890 -0.27700
C 	C 	0.96610 0.33610 0.78700 0.01100
H 	H 	0.99590 0.33890 0.81570 0.01800
O 	O 	0.81394 0.32867 0.80720 -0.17000
C 	C 	-0.00000 0.38300 0.50000 0.11000
H 	H 	0.00000 0.41820 0.50000 -0.02400
C 	C 	0.61700 0.61700 0.50000 0.11600
H 	H 	0.58180 0.58180 0.50000 -0.02500
C 	C 	0.38300 0.00000 0.50000 0.11000
H 	H 	0.41820 0.00000 0.50000 -0.02400
C 	C 	-0.00000 0.61700 -0.00000 0.10400
H 	H 	-0.00000 0.58180 -0.00000 -0.02400
C 	C 	0.38300 0.38300 -0.00000 0.10900
H 	H 	0.41820 0.41820 -0.00000 -0.02400
C 	C 	0.61700 0.00000 -0.00000 0.10300
H 	H 	0.58180 0.00000 -0.00000 -0.02400
C 	C 	-0.00000 0.61700 0.50000 0.11000
H 	H 	-0.00000 0.58180 0.50000 -0.02400
C 	C 	0.38300 0.38300 0.50000 0.11600
H 	H 	0.41820 0.41820 0.50000 -0.02500
C 	C 	0.61700 0.00000 0.50000 0.11000
H 	H 	0.58180 0.00000 0.50000 -0.02400
C 	C 	-0.00000 0.38300 -0.00000 0.10400
H 	H 	-0.00000 0.41820 -0.00000 -0.02400
C 	C 	0.61700 0.61700 -0.00000 0.11000
H 	H 	0.58180 0.58180 -0.00000 -0.02400
C 	C 	0.38300 0.00000 -0.00000 0.10300
H 	H 	0.41820 0.00000 -0.00000 -0.02400
C 	C 	0.21935 0.43870 0.40750 0.10500
H 	H 	0.22190 0.44380 0.35880 -0.02800
C 	C 	0.56130 0.78065 0.40750 0.10500
H 	H 	0.55620 0.77810 0.35880 -0.02700
C 	C 	0.21935 0.78065 0.40750 0.10500
H 	H 	0.22190 0.77810 0.35880 -0.02700
C 	C 	0.78065 0.56130 0.90750 0.10600
H 	H 	0.77810 0.55620 0.85880 -0.02800
C 	C 	0.43870 0.21935 0.90750 0.10600
H 	H 	0.44380 0.22190 0.85880 -0.02800
C 	C 	0.78065 0.21935 0.90750 0.10600
H 	H 	0.77810 0.22190 0.85880 -0.02800
C 	C 	0.43870 0.21935 0.59250 0.10500
H 	H 	0.44380 0.22190 0.64120 -0.02700
C 	C 	0.78065 0.56130 0.59250 0.10500
H 	H 	0.77810 0.55620 0.64120 -0.02700
C 	C 	0.78065 0.21935 0.59250 0.10500
H 	H 	0.77810 0.22190 0.64120 -0.02700
C 	C 	0.56130 0.78065 0.09250 0.10400
H 	H 	0.55620 0.77810 0.14120 -0.02700
C 	C 	0.21935 0.43870 0.09250 0.10400
H 	H 	0.22190 0.44380 0.14120 -0.02700
C 	C 	0.21935 0.78065 0.09250 0.10400
H 	H 	0.22190 0.77810 0.14120 -0.02700
C 	C 	0.10170 0.55085 0.41130 0.16900
N 	N 	0.03870 0.51935 0.37470 -0.02100
C 	C 	0.44915 0.55085 0.41130 0.16900
N 	N 	0.48065 0.51935 0.37470 -0.02100
C 	C 	0.44915 0.89830 0.41130 0.16900
N 	N 	0.48065 0.96130 0.37470 -0.02100
C 	C 	0.89830 0.44915 0.91130 0.17000
N 	N 	0.96130 0.48065 0.87470 -0.02100
C 	C 	0.55085 0.44915 0.91130 0.17000
N 	N 	0.51935 0.48065 0.87470 -0.02100
C 	C 	0.55085 0.10170 0.91130 0.17000
N 	N 	0.51935 0.03870 0.87470 -0.02100
C 	C 	0.55085 0.10170 0.58870 0.16900
N 	N 	0.51935 0.03870 0.62530 -0.02100
C 	C 	0.55085 0.44915 0.58870 0.16900
N 	N 	0.51935 0.48065 0.62530 -0.02100
C 	C 	0.89830 0.44915 0.58870 0.16900
N 	N 	0.96130 0.48065 0.62530 -0.02100
C 	C 	0.44915 0.89830 0.08870 0.16900
N 	N 	0.48065 0.96130 0.12530 -0.02100
C 	C 	0.44915 0.55085 0.08870 0.16800
N 	N 	0.48065 0.51935 0.12530 -0.02100
C 	C 	0.10170 0.55085 0.08870 0.16800
N 	N 	0.03870 0.51935 0.12530 -0.02100
C 	C 	0.11030 0.44060 0.25000 0.15900
N 	N 	0.16460 0.49350 0.25000 -0.02600
C 	C 	0.55940 0.66970 0.25000 0.15900
N 	N 	0.50650 0.67110 0.25000 -0.02600
C 	C 	0.33030 0.88970 0.25000 0.15900
N 	N 	0.32890 0.83540 0.25000 -0.02600
C 	C 	0.88970 0.55940 0.75000 0.15900
N 	N 	0.83540 0.50650 0.75000 -0.02600
C 	C 	0.44060 0.33030 0.75000 0.15900
N 	N 	0.49350 0.32890 0.75000 -0.02600
C 	C 	0.66970 0.11030 0.75000 0.15900
N 	N 	0.67110 0.16460 0.75000 -0.02600
C 	C 	0.44060 0.11030 0.75000 0.15900
N 	N 	0.49350 0.16460 0.75000 -0.02600
C 	C 	0.66970 0.55940 0.75000 0.15900
N 	N 	0.67110 0.50650 0.75000 -0.02600
C 	C 	0.88970 0.33030 0.75000 0.15900
N 	N 	0.83540 0.32890 0.75000 -0.02600
C 	C 	0.55940 0.88970 0.25000 0.15900
N 	N 	0.50650 0.83540 0.25000 -0.02600
C 	C 	0.33030 0.44060 0.25000 0.15900
N 	N 	0.32890 0.49350 0.25000 -0.02600
C 	C 	0.11030 0.66970 0.25000 0.15900
N 	N 	0.16460 0.67110 0.25000 -0.02600
