data_crystal

_cell_length_a 19.69970
_cell_length_b 25.99290
_cell_length_c 25.99290
_cell_angle_alpha 120.00000
_cell_angle_beta  90.00000
_cell_angle_gamma 90.00000

_symmetry_space_group_name_	'P 1'
_symmetry_space_group_name_H-M	'P 1'

loop_
_symmetry_equiv_pos_as_xyz
  x,y,z

loop_
_atom_site_label
_atom_site_type_symbol
_atom_site_fract_x
_atom_site_fract_y
_atom_site_fract_z
_atom_site_charge
Zn	Zn	0.59713 0.89822 0.33209 1.19400
Zn	Zn	0.59713 0.43387 0.10178 1.19400
Zn	Zn	0.59713 0.66791 0.56613 1.19400
Zn	Zn	0.09713 0.10178 0.66791 1.19400
Zn	Zn	0.09713 0.56613 0.89822 1.19400
Zn	Zn	0.09713 0.33209 0.43387 1.19400
Zn	Zn	0.40287 0.56613 0.66791 1.19400
Zn	Zn	0.40287 0.33209 0.89822 1.19400
Zn	Zn	0.40287 0.10178 0.43387 1.19400
Zn	Zn	0.90287 0.43387 0.33209 1.19400
Zn	Zn	0.90287 0.66791 0.10178 1.19400
Zn	Zn	0.90287 0.89822 0.56613 1.19300
Zn	Zn	0.40287 0.10178 0.66791 1.19300
Zn	Zn	0.40287 0.56613 0.89822 1.19300
Zn	Zn	0.40287 0.33209 0.43387 1.19300
Zn	Zn	0.90287 0.89822 0.33209 1.19300
Zn	Zn	0.90287 0.43387 0.10178 1.19300
Zn	Zn	0.90287 0.66791 0.56613 1.19300
Zn	Zn	0.59713 0.43387 0.33209 1.19300
Zn	Zn	0.59713 0.66791 0.10178 1.19300
Zn	Zn	0.59713 0.89822 0.56613 1.19300
Zn	Zn	0.09713 0.56613 0.66791 1.19200
Zn	Zn	0.09713 0.33209 0.89822 1.19300
Zn	Zn	0.09713 0.10178 0.43387 1.19300
H 	H 	0.43650 0.88502 0.31414 0.02600
H 	H 	0.68597 1.00365 0.32147 0.02800
H 	H 	0.59169 0.91464 0.22081 0.02600
H 	H 	0.51142 0.79650 0.34737 0.02500
H 	H 	0.43650 0.42912 0.11498 0.02500
H 	H 	0.68597 0.31782 -0.00365 0.03400
H 	H 	0.59169 0.30617 0.08536 0.02500
H 	H 	0.51142 0.55087 0.20350 0.02500
H 	H 	0.43650 0.68586 0.57088 0.05700
H 	H 	0.68597 0.67853 0.68218 0.03800
H 	H 	0.59169 0.77919 0.69383 0.04400
H 	H 	0.51142 0.65263 0.44913 0.02600
H 	H 	0.93650 0.11498 0.68586 0.05800
H 	H 	0.18597 -0.00365 0.67853 0.03700
H 	H 	0.09169 0.08536 0.77919 0.04200
H 	H 	0.01142 0.20350 0.65263 0.02500
H 	H 	0.93650 0.57088 0.88502 0.05900
H 	H 	0.18597 0.68218 1.00365 0.03000
H 	H 	0.09169 0.69383 0.91464 0.03900
H 	H 	0.01142 0.44913 0.79650 0.02500
H 	H 	0.93650 0.31414 0.42912 0.02600
H 	H 	0.18597 0.32147 0.31782 0.02900
H 	H 	0.09169 0.22081 0.30617 0.03800
H 	H 	0.01142 0.34737 0.55087 0.02400
H 	H 	0.56350 0.57088 0.68586 0.05700
H 	H 	0.31403 0.68218 0.67853 0.03600
H 	H 	0.40831 0.69383 0.77919 0.02100
H 	H 	0.48858 0.44913 0.65263 0.02600
H 	H 	0.56350 0.31414 0.88502 0.05800
H 	H 	0.31403 0.32147 1.00365 0.02800
H 	H 	0.40831 0.22081 0.91464 0.02700
H 	H 	0.48858 0.34737 0.79650 0.02500
H 	H 	0.56350 0.11498 0.42912 0.02500
H 	H 	0.31403 -0.00365 0.31782 0.02700
H 	H 	0.40831 0.08536 0.30617 0.02600
H 	H 	0.48858 0.20350 0.55087 0.02500
H 	H 	0.06350 0.42912 0.31414 0.02400
H 	H 	0.81403 0.31782 0.32147 0.02900
H 	H 	0.90831 0.30617 0.22081 0.03900
H 	H 	0.98858 0.55087 0.34737 0.02500
H 	H 	0.06350 0.68586 0.11498 0.02400
H 	H 	0.81403 0.67853 -0.00365 0.03700
H 	H 	0.90831 0.77919 0.08536 0.03900
H 	H 	0.98858 0.65263 0.20350 0.02600
H 	H 	0.06350 0.88502 0.57088 0.05700
H 	H 	0.81403 1.00365 0.68218 0.03600
H 	H 	0.90831 0.91464 0.69383 0.02200
H 	H 	0.98858 0.79650 0.44913 0.02700
H 	H 	0.56350 0.11498 0.68586 0.02500
H 	H 	0.31403 -0.00365 0.67853 0.02900
H 	H 	0.40831 0.08536 0.77919 0.04300
H 	H 	0.48858 0.20350 0.65263 0.02500
H 	H 	0.56350 0.57088 0.88502 0.02600
H 	H 	0.31403 0.68218 1.00365 0.03800
H 	H 	0.40831 0.69383 0.91464 0.03900
H 	H 	0.48858 0.44913 0.79650 0.02500
H 	H 	0.56350 0.31414 0.42912 0.05700
H 	H 	0.31403 0.32147 0.31782 0.03700
H 	H 	0.40831 0.22081 0.30617 0.03900
H 	H 	0.48858 0.34737 0.55087 0.02600
H 	H 	0.06350 0.88502 0.31414 0.05700
H 	H 	0.81403 1.00365 0.32147 0.03600
H 	H 	0.90831 0.91464 0.22081 0.02800
H 	H 	0.98858 0.79650 0.34737 0.02700
H 	H 	0.06350 0.42912 0.11498 0.05600
H 	H 	0.81403 0.31782 -0.00365 0.02600
H 	H 	0.90831 0.30617 0.08536 0.02600
H 	H 	0.98858 0.55087 0.20350 0.02600
H 	H 	0.06350 0.68586 0.57088 0.02400
H 	H 	0.81403 0.67853 0.68218 0.03000
H 	H 	0.90831 0.77919 0.69383 0.04500
H 	H 	0.98858 0.65263 0.44913 0.02500
H 	H 	0.43650 0.42912 0.31414 0.05700
H 	H 	0.68597 0.31782 0.32147 0.03800
H 	H 	0.59169 0.30617 0.22081 0.03800
H 	H 	0.51142 0.55087 0.34737 0.02600
H 	H 	0.43650 0.68586 0.11498 0.05700
H 	H 	0.68597 0.67853 -0.00365 0.02900
H 	H 	0.59169 0.77919 0.08536 0.03800
H 	H 	0.51142 0.65263 0.20350 0.02500
H 	H 	0.43650 0.88502 0.57088 0.02600
H 	H 	0.68597 1.00365 0.68218 0.02700
H 	H 	0.59169 0.91464 0.69383 0.02100
H 	H 	0.51142 0.79650 0.44913 0.02500
H 	H 	0.93650 0.57088 0.68586 0.02600
H 	H 	0.18597 0.68218 0.67853 0.02800
H 	H 	0.09169 0.69383 0.77919 0.02000
H 	H 	0.01142 0.44913 0.65263 0.02400
H 	H 	0.93650 0.31414 0.88502 0.02700
H 	H 	0.18597 0.32147 1.00365 0.03700
H 	H 	0.09169 0.22081 0.91464 0.02600
H 	H 	0.01142 0.34737 0.79650 0.02400
H 	H 	0.93650 0.11498 0.42912 0.05800
H 	H 	0.18597 -0.00365 0.31782 0.03500
H 	H 	0.09169 0.08536 0.30617 0.02500
H 	H 	0.01142 0.20350 0.55087 0.02500
H 	H 	0.65633 0.78282 0.21867 -0.00500
H 	H 	0.65633 0.43585 0.21718 -0.00500
H 	H 	0.65633 0.78133 0.56415 -0.00500
H 	H 	0.15633 0.21718 0.78133 -0.00500
H 	H 	0.15633 0.56415 0.78282 -0.00500
H 	H 	0.15633 0.21867 0.43585 -0.00500
H 	H 	0.34367 0.56415 0.78133 -0.00500
H 	H 	0.34367 0.21867 0.78282 -0.00500
H 	H 	0.34367 0.21718 0.43585 -0.00500
H 	H 	0.84367 0.43585 0.21867 -0.00500
H 	H 	0.84367 0.78133 0.21718 -0.00500
H 	H 	0.84367 0.78282 0.56415 -0.00500
H 	H 	0.50169 -0.00146 0.42769 -0.00100
H 	H 	0.50169 0.42915 0.00146 -0.00000
H 	H 	0.50169 0.57231 0.57085 0.00100
H 	H 	0.00169 0.00146 0.57231 0.00000
H 	H 	0.00169 0.57085 -0.00146 -0.00100
H 	H 	0.00169 0.42769 0.42915 -0.00100
H 	H 	0.49831 0.00146 0.57231 -0.00100
H 	H 	0.49831 0.57085 -0.00146 -0.00000
H 	H 	0.49831 0.42769 0.42915 0.00100
H 	H 	-0.00169 -0.00146 0.42769 -0.00000
H 	H 	-0.00169 0.42915 0.00146 -0.00100
H 	H 	-0.00169 0.57231 0.57085 -0.00100
C 	C 	0.49800 0.81200 0.23990 0.02200
C 	C 	0.43480 0.84310 0.26860 -0.03000
C 	C 	0.37870 0.81570 0.23450 -0.08100
C 	C 	0.71490 0.96630 0.32270 0.01600
C 	C 	0.52610 0.97840 0.29480 0.04600
C 	C 	0.55480 0.95350 0.23720 -0.06600
C 	C 	0.53060 0.98370 0.20840 -0.00500
C 	C 	0.53760 0.83390 0.38800 0.00200
C 	C 	0.49800 0.42790 0.18800 0.02200
C 	C 	0.43480 0.42550 0.15690 -0.03000
C 	C 	0.37870 0.41880 0.18430 -0.08100
C 	C 	0.71490 0.35640 0.03370 0.01500
C 	C 	0.52610 0.31640 0.02160 0.04000
C 	C 	0.55480 0.28370 0.04650 -0.06200
C 	C 	0.53060 0.22470 0.01630 -0.01300
C 	C 	0.53760 0.55410 0.16610 0.00200
C 	C 	0.49800 0.76010 0.57210 0.06000
C 	C 	0.43480 0.73140 0.57450 -0.11100
C 	C 	0.37870 0.76550 0.58120 0.13500
C 	C 	0.71490 0.67730 0.64360 0.01600
C 	C 	0.52610 0.70520 0.68360 0.06500
C 	C 	0.55480 0.76280 0.71630 -0.11300
C 	C 	0.53060 0.79160 0.77530 0.13600
C 	C 	0.53760 0.61200 0.44590 0.00300
C 	C 	0.99800 0.18800 0.76010 0.06300
C 	C 	0.93480 0.15690 0.73140 -0.11100
C 	C 	0.87870 0.18430 0.76550 0.13400
C 	C 	0.21490 0.03370 0.67730 0.01600
C 	C 	0.02610 0.02160 0.70520 0.05700
C 	C 	0.05480 0.04650 0.76280 -0.11000
C 	C 	0.03060 0.01630 0.79160 0.12800
C 	C 	0.03760 0.16610 0.61200 0.00300
C 	C 	0.99800 0.57210 0.81200 0.06400
C 	C 	0.93480 0.57450 0.84310 -0.11100
C 	C 	0.87870 0.58120 0.81570 0.13600
C 	C 	0.21490 0.64360 0.96630 0.01700
C 	C 	0.02610 0.68360 0.97840 0.04900
C 	C 	0.05480 0.71630 0.95350 -0.09200
C 	C 	0.03060 0.77530 0.98370 0.09000
C 	C 	0.03760 0.44590 0.83390 0.00300
C 	C 	0.99800 0.23990 0.42790 0.02500
C 	C 	0.93480 0.26860 0.42550 -0.03000
C 	C 	0.87870 0.23450 0.41880 -0.08000
C 	C 	0.21490 0.32270 0.35640 0.01700
C 	C 	0.02610 0.29480 0.31640 0.04300
C 	C 	0.05480 0.23720 0.28370 -0.09100
C 	C 	0.03060 0.20840 0.22470 0.08600
C 	C 	0.03760 0.38800 0.55410 0.00200
C 	C 	0.50200 0.57210 0.76010 0.06100
C 	C 	0.56520 0.57450 0.73140 -0.11100
C 	C 	0.62130 0.58120 0.76550 0.13500
C 	C 	0.28510 0.64360 0.67730 0.01500
C 	C 	0.47390 0.68360 0.70520 0.03200
C 	C 	0.44520 0.71630 0.76280 -0.04100
C 	C 	0.46940 0.77530 0.79160 -0.05400
C 	C 	0.46240 0.44590 0.61200 0.00300
C 	C 	0.50200 0.23990 0.81200 0.06000
C 	C 	0.56520 0.26860 0.84310 -0.11100
C 	C 	0.62130 0.23450 0.81570 0.13400
C 	C 	0.28510 0.32270 0.96630 0.01700
C 	C 	0.47390 0.29480 0.97840 0.04900
C 	C 	0.44520 0.23720 0.95350 -0.06800
C 	C 	0.46940 0.20840 0.98370 -0.00400
C 	C 	0.46240 0.38800 0.83390 0.00300
C 	C 	0.50200 0.18800 0.42790 0.02200
C 	C 	0.56520 0.15690 0.42550 -0.03000
C 	C 	0.62130 0.18430 0.41880 -0.08100
C 	C 	0.28510 0.03370 0.35640 0.01600
C 	C 	0.47390 0.02160 0.31640 0.04100
C 	C 	0.44520 0.04650 0.28370 -0.06300
C 	C 	0.46940 0.01630 0.22470 -0.01100
C 	C 	0.46240 0.16610 0.55410 0.00200
C 	C 	0.00200 0.42790 0.23990 0.02000
C 	C 	0.06520 0.42550 0.26860 -0.03000
C 	C 	0.12130 0.41880 0.23450 -0.08100
C 	C 	0.78510 0.35640 0.32270 0.01700
C 	C 	0.97390 0.31640 0.29480 0.05400
C 	C 	0.94520 0.28370 0.23720 -0.09600
C 	C 	0.96940 0.22470 0.20840 0.09600
C 	C 	0.96240 0.55410 0.38800 0.00300
C 	C 	0.00200 0.76010 0.18800 0.02000
C 	C 	0.06520 0.73140 0.15690 -0.03000
C 	C 	0.12130 0.76550 0.18430 -0.08100
C 	C 	0.78510 0.67730 0.03370 0.01600
C 	C 	0.97390 0.70520 0.02160 0.05000
C 	C 	0.94520 0.76280 0.04650 -0.09200
C 	C 	0.96940 0.79160 0.01630 0.09200
C 	C 	0.96240 0.61200 0.16610 0.00300
C 	C 	0.00200 0.81200 0.57210 0.05800
C 	C 	0.06520 0.84310 0.57450 -0.11100
C 	C 	0.12130 0.81570 0.58120 0.13400
C 	C 	0.78510 0.96630 0.64360 0.01500
C 	C 	0.97390 0.97840 0.68360 0.03900
C 	C 	0.94520 0.95350 0.71630 -0.04400
C 	C 	0.96940 0.98370 0.77530 -0.04800
C 	C 	0.96240 0.83390 0.44590 0.00400
C 	C 	0.50200 0.18800 0.76010 0.02300
C 	C 	0.56520 0.15690 0.73140 -0.03200
C 	C 	0.62130 0.18430 0.76550 -0.08000
C 	C 	0.28510 0.03370 0.67730 0.01700
C 	C 	0.47390 0.02160 0.70520 0.06000
C 	C 	0.44520 0.04650 0.76280 -0.11400
C 	C 	0.46940 0.01630 0.79160 0.13200
C 	C 	0.46240 0.16610 0.61200 0.00200
C 	C 	0.50200 0.57210 0.81200 0.02300
C 	C 	0.56520 0.57450 0.84310 -0.03100
C 	C 	0.62130 0.58120 0.81570 -0.07900
C 	C 	0.28510 0.64360 0.96630 0.01600
C 	C 	0.47390 0.68360 0.97840 0.05500
C 	C 	0.44520 0.71630 0.95350 -0.09400
C 	C 	0.46940 0.77530 0.98370 0.09600
C 	C 	0.46240 0.44590 0.83390 0.00300
C 	C 	0.50200 0.23990 0.42790 0.06000
C 	C 	0.56520 0.26860 0.42550 -0.11000
C 	C 	0.62130 0.23450 0.41880 0.13300
C 	C 	0.28510 0.32270 0.35640 0.01600
C 	C 	0.47390 0.29480 0.31640 0.05000
C 	C 	0.44520 0.23720 0.28370 -0.09200
C 	C 	0.46940 0.20840 0.22470 0.09100
C 	C 	0.46240 0.38800 0.55410 0.00300
C 	C 	0.00200 0.81200 0.23990 0.05800
C 	C 	0.06520 0.84310 0.26860 -0.11100
C 	C 	0.12130 0.81570 0.23450 0.13300
C 	C 	0.78510 0.96630 0.32270 0.01600
C 	C 	0.97390 0.97840 0.29480 0.05400
C 	C 	0.94520 0.95350 0.23720 -0.06800
C 	C 	0.96940 0.98370 0.20840 0.00100
C 	C 	0.96240 0.83390 0.38800 0.00400
C 	C 	0.00200 0.42790 0.18800 0.05800
C 	C 	0.06520 0.42550 0.15690 -0.11100
C 	C 	0.12130 0.41880 0.18430 0.13300
C 	C 	0.78510 0.35640 0.03370 0.01600
C 	C 	0.97390 0.31640 0.02160 0.04500
C 	C 	0.94520 0.28370 0.04650 -0.06500
C 	C 	0.96940 0.22470 0.01630 -0.00700
C 	C 	0.96240 0.55410 0.16610 0.00400
C 	C 	0.00200 0.76010 0.57210 0.02000
C 	C 	0.06520 0.73140 0.57450 -0.03200
C 	C 	0.12130 0.76550 0.58120 -0.08000
C 	C 	0.78510 0.67730 0.64360 0.01700
C 	C 	0.97390 0.70520 0.68360 0.06800
C 	C 	0.94520 0.76280 0.71630 -0.11600
C 	C 	0.96940 0.79160 0.77530 0.14000
C 	C 	0.96240 0.61200 0.44590 0.00300
C 	C 	0.49800 0.42790 0.23990 0.06000
C 	C 	0.43480 0.42550 0.26860 -0.11000
C 	C 	0.37870 0.41880 0.23450 0.13300
C 	C 	0.71490 0.35640 0.32270 0.01600
C 	C 	0.52610 0.31640 0.29480 0.05100
C 	C 	0.55480 0.28370 0.23720 -0.09200
C 	C 	0.53060 0.22470 0.20840 0.09200
C 	C 	0.53760 0.55410 0.38800 0.00300
C 	C 	0.49800 0.76010 0.18800 0.06000
C 	C 	0.43480 0.73140 0.15690 -0.11100
C 	C 	0.37870 0.76550 0.18430 0.13300
C 	C 	0.71490 0.67730 0.03370 0.01700
C 	C 	0.52610 0.70520 0.02160 0.04400
C 	C 	0.55480 0.76280 0.04650 -0.09000
C 	C 	0.53060 0.79160 0.01630 0.08700
C 	C 	0.53760 0.61200 0.16610 0.00300
C 	C 	0.49800 0.81200 0.57210 0.02300
C 	C 	0.43480 0.84310 0.57450 -0.03100
C 	C 	0.37870 0.81570 0.58120 -0.08000
C 	C 	0.71490 0.96630 0.64360 0.01600
C 	C 	0.52610 0.97840 0.68360 0.03100
C 	C 	0.55480 0.95350 0.71630 -0.04300
C 	C 	0.53060 0.98370 0.77530 -0.05400
C 	C 	0.53760 0.83390 0.44590 0.00200
C 	C 	0.99800 0.57210 0.76010 0.02600
C 	C 	0.93480 0.57450 0.73140 -0.03100
C 	C 	0.87870 0.58120 0.76550 -0.07900
C 	C 	0.21490 0.64360 0.67730 0.01600
C 	C 	0.02610 0.68360 0.70520 0.02400
C 	C 	0.05480 0.71630 0.76280 -0.03900
C 	C 	0.03060 0.77530 0.79160 -0.06000
C 	C 	0.03760 0.44590 0.61200 0.00200
C 	C 	0.99800 0.23990 0.81200 0.02600
C 	C 	0.93480 0.26860 0.84310 -0.03200
C 	C 	0.87870 0.23450 0.81570 -0.08000
C 	C 	0.21490 0.32270 0.96630 0.01600
C 	C 	0.02610 0.29480 0.97840 0.04500
C 	C 	0.05480 0.23720 0.95350 -0.06500
C 	C 	0.03060 0.20840 0.98370 -0.00900
C 	C 	0.03760 0.38800 0.83390 0.00200
C 	C 	0.99800 0.18800 0.42790 0.06300
C 	C 	0.93480 0.15690 0.42550 -0.11100
C 	C 	0.87870 0.18430 0.41880 0.13300
C 	C 	0.21490 0.03370 0.35640 0.01500
C 	C 	0.02610 0.02160 0.31640 0.03800
C 	C 	0.05480 0.04650 0.28370 -0.05900
C 	C 	0.03060 0.01630 0.22470 -0.01600
C 	C 	0.03760 0.16610 0.55410 0.00300
C 	C 	0.59860 0.78375 0.21625 0.09500
C 	C 	0.59860 0.43250 0.21625 0.09500
C 	C 	0.59860 0.78375 0.56750 0.09500
C 	C 	0.09860 0.21625 0.78375 0.09400
C 	C 	0.09860 0.56750 0.78375 0.09500
C 	C 	0.09860 0.21625 0.43250 0.09400
C 	C 	0.40140 0.56750 0.78375 0.09500
C 	C 	0.40140 0.21625 0.78375 0.09500
C 	C 	0.40140 0.21625 0.43250 0.09500
C 	C 	0.90140 0.43250 0.21625 0.09500
C 	C 	0.90140 0.78375 0.21625 0.09500
C 	C 	0.90140 0.78375 0.56750 0.09500
C 	C 	0.75000 0.89080 0.32260 0.15600
C 	C 	0.75000 0.43180 0.10920 0.15600
C 	C 	0.75000 0.67740 0.56820 0.15600
C 	C 	0.25000 0.10920 0.67740 0.15600
C 	C 	0.25000 0.56820 0.89080 0.15600
C 	C 	0.25000 0.32260 0.43180 0.15600
C 	C 	0.25000 0.56820 0.67740 0.15600
C 	C 	0.25000 0.32260 0.89080 0.15600
C 	C 	0.25000 0.10920 0.43180 0.15600
C 	C 	0.75000 0.43180 0.32260 0.15600
C 	C 	0.75000 0.67740 0.10920 0.15600
C 	C 	0.75000 0.89080 0.56820 0.15600
C 	C 	0.50000 0.00000 0.38460 0.06000
C 	C 	0.50000 0.38460 -0.00000 0.05900
C 	C 	0.50000 0.61540 0.61540 0.06400
C 	C 	0.00000 0.00000 0.61540 0.05800
C 	C 	0.00000 0.61540 -0.00000 0.05600
C 	C 	0.00000 0.38460 0.38460 0.05800
C 	C 	0.50000 0.00000 0.61540 0.05900
C 	C 	0.50000 0.61540 -0.00000 0.05900
C 	C 	0.50000 0.38460 0.38460 0.06400
C 	C 	0.00000 0.00000 0.38460 0.05900
C 	C 	0.00000 0.38460 -0.00000 0.05600
C 	C 	0.00000 0.61540 0.61540 0.05800
C 	C 	0.59270 0.90900 0.45450 0.19900
C 	C 	0.59270 0.54550 0.09100 0.19900
C 	C 	0.59270 0.54550 0.45450 0.20000
C 	C 	0.09270 0.09100 0.54550 0.20000
C 	C 	0.09270 0.45450 0.90900 0.20000
C 	C 	0.09270 0.45450 0.54550 0.19900
C 	C 	0.40730 0.45450 0.54550 0.20000
C 	C 	0.40730 0.45450 0.90900 0.20000
C 	C 	0.40730 0.09100 0.54550 0.19900
C 	C 	0.90730 0.54550 0.45450 0.20000
C 	C 	0.90730 0.54550 0.09100 0.20000
C 	C 	0.90730 0.90900 0.45450 0.20100
Br	Br	0.29890 0.71640 0.58400 -0.24300
Br	Br	0.55410 0.86870 0.83160 -0.20800
Br	Br	0.79890 0.13240 0.71640 -0.24500
Br	Br	0.05410 0.03710 0.86870 -0.22500
Br	Br	0.79890 0.58400 0.86760 -0.23900
Br	Br	0.05410 0.83160 0.96290 -0.17900
Br	Br	0.05410 0.13130 0.16840 -0.19100
Br	Br	0.70110 0.58400 0.71640 -0.24100
Br	Br	0.70110 0.28360 0.86760 -0.24300
Br	Br	0.94590 0.16840 0.13130 -0.18900
Br	Br	0.94590 0.86870 0.03710 -0.18200
Br	Br	0.20110 0.86760 0.58400 -0.24200
Br	Br	0.44590 0.03710 0.86870 -0.22400
Br	Br	0.44590 0.83160 0.96290 -0.17700
Br	Br	0.70110 0.28360 0.41600 -0.24400
Br	Br	0.44590 0.13130 0.16840 -0.18900
Br	Br	0.20110 0.86760 0.28360 -0.24400
Br	Br	0.20110 0.41600 0.13240 -0.24700
Br	Br	0.94590 0.86870 0.83160 -0.20700
Br	Br	0.29890 0.41600 0.28360 -0.24400
Br	Br	0.55410 0.16840 0.13130 -0.19100
Br	Br	0.29890 0.71640 0.13240 -0.24600
Br	Br	0.55410 0.86870 0.03710 -0.18400
Br	Br	0.79890 0.13240 0.41600 -0.24500
N 	N 	0.56410 0.82840 0.25890 -0.28000
N 	N 	0.69170 0.91780 0.32430 -0.27700
N 	N 	0.54210 0.96350 0.33790 -0.27500
N 	N 	0.57380 0.88560 0.39940 -0.27800
N 	N 	0.56410 0.43050 0.17160 -0.28000
N 	N 	0.69170 0.40650 0.08220 -0.27600
N 	N 	0.54210 0.37440 0.03650 -0.27400
N 	N 	0.57380 0.51380 0.11440 -0.27800
N 	N 	0.56410 0.74110 0.56950 -0.28500
N 	N 	0.69170 0.67570 0.59350 -0.27600
N 	N 	0.54210 0.66210 0.62560 -0.27800
N 	N 	0.57380 0.60060 0.48620 -0.27800
N 	N 	0.06410 0.17160 0.74110 -0.28700
N 	N 	0.19170 0.08220 0.67570 -0.27600
N 	N 	0.04210 0.03650 0.66210 -0.27700
N 	N 	0.07380 0.11440 0.60060 -0.27800
N 	N 	0.06410 0.56950 0.82840 -0.28700
N 	N 	0.19170 0.59350 0.91780 -0.27700
N 	N 	0.04210 0.62560 0.96350 -0.27500
N 	N 	0.07380 0.48620 0.88560 -0.27800
N 	N 	0.06410 0.25890 0.43050 -0.28100
N 	N 	0.19170 0.32430 0.40650 -0.27700
N 	N 	0.04210 0.33790 0.37440 -0.27600
N 	N 	0.07380 0.39940 0.51380 -0.27800
N 	N 	0.43590 0.56950 0.74110 -0.28500
N 	N 	0.30830 0.59350 0.67570 -0.27600
N 	N 	0.45790 0.62560 0.66210 -0.27300
N 	N 	0.42620 0.48620 0.60060 -0.27800
N 	N 	0.43590 0.25890 0.82840 -0.28500
N 	N 	0.30830 0.32430 0.91780 -0.27700
N 	N 	0.45790 0.33790 0.96350 -0.27500
N 	N 	0.42620 0.39940 0.88560 -0.27700
N 	N 	0.43590 0.17160 0.43050 -0.28000
N 	N 	0.30830 0.08220 0.40650 -0.27700
N 	N 	0.45790 0.03650 0.37440 -0.27600
N 	N 	0.42620 0.11440 0.51380 -0.27800
N 	N 	0.93590 0.43050 0.25890 -0.27800
N 	N 	0.80830 0.40650 0.32430 -0.27700
N 	N 	0.95790 0.37440 0.33790 -0.27500
N 	N 	0.92620 0.51380 0.39940 -0.27700
N 	N 	0.93590 0.74110 0.17160 -0.27800
N 	N 	0.80830 0.67570 0.08220 -0.27600
N 	N 	0.95790 0.66210 0.03650 -0.27400
N 	N 	0.92620 0.60060 0.11440 -0.27700
N 	N 	0.93590 0.82840 0.56950 -0.28400
N 	N 	0.80830 0.91780 0.59350 -0.27600
N 	N 	0.95790 0.96350 0.62560 -0.27100
N 	N 	0.92620 0.88560 0.48620 -0.27700
N 	N 	0.43590 0.17160 0.74110 -0.28000
N 	N 	0.30830 0.08220 0.67570 -0.27700
N 	N 	0.45790 0.03650 0.66210 -0.27800
N 	N 	0.42620 0.11440 0.60060 -0.27800
N 	N 	0.43590 0.56950 0.82840 -0.28000
N 	N 	0.30830 0.59350 0.91780 -0.27600
N 	N 	0.45790 0.62560 0.96350 -0.27500
N 	N 	0.42620 0.48620 0.88560 -0.27800
N 	N 	0.43590 0.25890 0.43050 -0.28500
N 	N 	0.30830 0.32430 0.40650 -0.27600
N 	N 	0.45790 0.33790 0.37440 -0.27600
N 	N 	0.42620 0.39940 0.51380 -0.27800
N 	N 	0.93590 0.82840 0.25890 -0.28400
N 	N 	0.80830 0.91780 0.32430 -0.27600
N 	N 	0.95790 0.96350 0.33790 -0.27300
N 	N 	0.92620 0.88560 0.39940 -0.27700
N 	N 	0.93590 0.43050 0.17160 -0.28400
N 	N 	0.80830 0.40650 0.08220 -0.27700
N 	N 	0.95790 0.37440 0.03650 -0.27400
N 	N 	0.92620 0.51380 0.11440 -0.27700
N 	N 	0.93590 0.74110 0.56950 -0.27800
N 	N 	0.80830 0.67570 0.59350 -0.27700
N 	N 	0.95790 0.66210 0.62560 -0.27700
N 	N 	0.92620 0.60060 0.48620 -0.27700
N 	N 	0.56410 0.43050 0.25890 -0.28500
N 	N 	0.69170 0.40650 0.32430 -0.27600
N 	N 	0.54210 0.37440 0.33790 -0.27600
N 	N 	0.57380 0.51380 0.39940 -0.27800
N 	N 	0.56410 0.74110 0.17160 -0.28500
N 	N 	0.69170 0.67570 0.08220 -0.27700
N 	N 	0.54210 0.66210 0.03650 -0.27600
N 	N 	0.57380 0.60060 0.11440 -0.27800
N 	N 	0.56410 0.82840 0.56950 -0.28000
N 	N 	0.69170 0.91780 0.59350 -0.27700
N 	N 	0.54210 0.96350 0.62560 -0.27300
N 	N 	0.57380 0.88560 0.48620 -0.27800
N 	N 	0.06410 0.56950 0.74110 -0.28100
N 	N 	0.19170 0.59350 0.67570 -0.27700
N 	N 	0.04210 0.62560 0.66210 -0.27300
N 	N 	0.07380 0.48620 0.60060 -0.27800
N 	N 	0.06410 0.25890 0.82840 -0.28200
N 	N 	0.19170 0.32430 0.91780 -0.27600
N 	N 	0.04210 0.33790 0.96350 -0.27300
N 	N 	0.07380 0.39940 0.88560 -0.27800
N 	N 	0.06410 0.17160 0.43050 -0.28700
N 	N 	0.19170 0.08220 0.40650 -0.27600
N 	N 	0.04210 0.03650 0.37440 -0.27400
N 	N 	0.07380 0.11440 0.51380 -0.27800
N 	N 	0.75000 0.83650 0.32380 -0.02700
N 	N 	0.75000 0.48730 0.16350 -0.02700
N 	N 	0.75000 0.67620 0.51270 -0.02700
N 	N 	0.25000 0.16350 0.67620 -0.02700
N 	N 	0.25000 0.51270 0.83650 -0.02700
N 	N 	0.25000 0.32380 0.48730 -0.02700
N 	N 	0.25000 0.51270 0.67620 -0.02700
N 	N 	0.25000 0.32380 0.83650 -0.02700
N 	N 	0.25000 0.16350 0.48730 -0.02700
N 	N 	0.75000 0.48730 0.32380 -0.02700
N 	N 	0.75000 0.67620 0.16350 -0.02700
N 	N 	0.75000 0.83650 0.51270 -0.02700
N 	N 	0.62730 0.96080 0.48040 -0.03900
N 	N 	0.62730 0.51960 0.03920 -0.04000
N 	N 	0.62730 0.51960 0.48040 -0.04000
N 	N 	0.12730 0.03920 0.51960 -0.04000
N 	N 	0.12730 0.48040 0.96080 -0.04000
N 	N 	0.12730 0.48040 0.51960 -0.03900
N 	N 	0.37270 0.48040 0.51960 -0.04000
N 	N 	0.37270 0.48040 0.96080 -0.04000
N 	N 	0.37270 0.03920 0.51960 -0.03900
N 	N 	0.87270 0.51960 0.48040 -0.03900
N 	N 	0.87270 0.51960 0.03920 -0.04000
N 	N 	0.87270 0.96080 0.48040 -0.04000
O 	O 	0.69560 0.81430 0.32500 -0.16100
O 	O 	0.63980 0.98500 0.45070 -0.16000
O 	O 	0.69560 0.51070 0.18570 -0.16100
O 	O 	0.63980 0.46570 0.01500 -0.15800
O 	O 	0.69560 0.67500 0.48930 -0.16100
O 	O 	0.63980 0.54930 0.53430 -0.15700
O 	O 	0.19560 0.18570 0.67500 -0.16100
O 	O 	0.13980 0.01500 0.54930 -0.15800
O 	O 	0.19560 0.48930 0.81430 -0.16100
O 	O 	0.13980 0.53430 0.98500 -0.15900
O 	O 	0.19560 0.32500 0.51070 -0.16100
O 	O 	0.13980 0.45070 0.46570 -0.16100
O 	O 	0.30440 0.48930 0.67500 -0.16100
O 	O 	0.36020 0.53430 0.54930 -0.15700
O 	O 	0.30440 0.32500 0.81430 -0.16100
O 	O 	0.36020 0.45070 0.98500 -0.15900
O 	O 	0.30440 0.18570 0.51070 -0.16100
O 	O 	0.36020 0.01500 0.46570 -0.16200
O 	O 	0.80440 0.51070 0.32500 -0.16100
O 	O 	0.86020 0.46570 0.45070 -0.16000
O 	O 	0.80440 0.67500 0.18570 -0.16100
O 	O 	0.86020 0.54930 0.01500 -0.15800
O 	O 	0.80440 0.81430 0.48930 -0.16100
O 	O 	0.86020 0.98500 0.53430 -0.15600
O 	O 	0.30440 0.18570 0.67500 -0.16100
O 	O 	0.36020 0.01500 0.54930 -0.16200
O 	O 	0.30440 0.48930 0.81430 -0.16100
O 	O 	0.36020 0.53430 0.98500 -0.15600
O 	O 	0.30440 0.32500 0.51070 -0.16100
O 	O 	0.36020 0.45070 0.46570 -0.15700
O 	O 	0.80440 0.81430 0.32500 -0.16100
O 	O 	0.86020 0.98500 0.45070 -0.15600
O 	O 	0.80440 0.51070 0.18570 -0.16100
O 	O 	0.86020 0.46570 0.01500 -0.16100
O 	O 	0.80440 0.67500 0.48930 -0.16100
O 	O 	0.86020 0.54930 0.53430 -0.16000
O 	O 	0.69560 0.51070 0.32500 -0.16100
O 	O 	0.63980 0.46570 0.45070 -0.15700
O 	O 	0.69560 0.67500 0.18570 -0.16100
O 	O 	0.63980 0.54930 0.01500 -0.16100
O 	O 	0.69560 0.81430 0.48930 -0.16100
O 	O 	0.63980 0.98500 0.53430 -0.16000
O 	O 	0.19560 0.48930 0.67500 -0.16100
O 	O 	0.13980 0.53430 0.54930 -0.16100
O 	O 	0.19560 0.32500 0.81430 -0.16100
O 	O 	0.13980 0.45070 0.98500 -0.15700
O 	O 	0.19560 0.18570 0.51070 -0.16100
O 	O 	0.13980 0.01500 0.46570 -0.15800
H 	H 	0.32647 0.83692 0.24948 0.08900
H 	H 	0.56082 0.98235 0.17034 0.06500
H 	H 	0.32647 0.41256 0.16308 0.08900
H 	H 	0.56082 0.18799 0.01765 0.06400
H 	H 	0.82647 0.24948 0.41256 0.09000
H 	H 	0.43739 0.81043 0.82940 0.08900
H 	H 	0.43739 0.17060 0.98102 0.06500
H 	H 	0.67353 0.16308 0.41256 0.08900
H 	H 	0.43918 0.01765 0.18799 0.06500
H 	H 	0.17353 0.41256 0.24948 0.08900
H 	H 	0.17353 0.75052 0.16308 0.08900
H 	H 	0.93918 0.98235 0.81201 0.08700
H 	H 	0.67096 0.15941 0.74654 0.08800
H 	H 	0.67096 0.58713 0.84059 0.09000
H 	H 	0.93918 0.98235 0.17034 0.06500
H 	H 	0.93918 0.18799 0.01765 0.06300
H 	H 	0.17096 0.74654 0.58713 0.08800
H 	H 	0.32904 0.84059 0.58713 0.08900
H 	H 	0.56082 0.98235 0.81201 0.08700
H 	H 	0.82904 0.58713 0.74654 0.08900
H 	H 	0.06261 0.81043 0.82940 0.08900
H 	H 	0.82904 0.25346 0.84059 0.08800
H 	H 	0.06261 0.17060 0.98102 0.06600
H 	H 	0.06082 0.01765 0.18799 0.06600
