data_crystal

_cell_length_a 11.31280
_cell_length_b 11.31280
_cell_length_c 34.11100
_cell_angle_alpha 90.00000
_cell_angle_beta  90.00000
_cell_angle_gamma 120.00000

_symmetry_space_group_name_	'P 1'
_symmetry_space_group_name_H-M	'P 1'

loop_
_symmetry_equiv_pos_as_xyz
  x,y,z

loop_
_atom_site_label
_atom_site_type_symbol
_atom_site_fract_x
_atom_site_fract_y
_atom_site_fract_z
_atom_site_charge
N 	N 	0.60654 0.35560 0.87376 -0.19400
N 	N 	0.79290 0.21620 0.82982 -0.34100
H 	H 	0.87380 0.26040 0.83950 0.15500
H 	H 	0.77340 0.15320 0.81270 0.17800
N 	N 	0.72189 0.34459 0.86838 -0.14700
C 	C 	0.84750 0.43770 0.88702 0.16300
C 	C 	0.51210 0.26180 0.85061 0.10900
H 	H 	0.42330 0.24600 0.84860 0.00000
C 	C 	0.69710 0.24570 0.84135 0.22400
C 	C 	0.04310 0.48110 0.92472 0.09700
H 	H 	0.09670 0.45000 0.93650 0.00400
C 	C 	0.92500 0.39020 0.90511 -0.19000
H 	H 	0.89800 0.29800 0.90410 0.09400
C 	C 	0.08120 0.61550 0.92681 -0.17400
H 	H 	0.15850 0.67550 0.94090 0.09700
C 	C 	0.00530 0.66290 0.90807 0.10200
H 	H 	0.03330 0.75540 0.90910 -0.00400
C 	C 	0.88770 0.57460 0.88762 -0.20900
H 	H 	0.83720 0.60700 0.87470 0.10700
C 	C 	0.56160 0.19010 0.82974 -0.19200
C 	C 	0.48480 0.07540 0.80284 0.36400
O 	O 	0.55223 0.02481 0.78742 -0.39100
O 	O 	0.36113 0.03209 0.79631 -0.30100
N 	N 	0.64440 0.25094 0.20709 -0.19400
N 	N 	0.78380 0.57670 0.16315 -0.34000
H 	H 	0.73960 0.61340 0.17283 0.15500
H 	H 	0.84680 0.62020 0.14603 0.17800
N 	N 	0.65541 0.37730 0.20171 -0.14900
C 	C 	0.56230 0.40980 0.22035 0.17500
C 	C 	0.73820 0.25030 0.18394 0.10900
H 	H 	0.75400 0.17730 0.18193 -0.00100
C 	C 	0.75430 0.45140 0.17468 0.22400
C 	C 	0.51890 0.56200 0.25805 0.12000
H 	H 	0.55000 0.64670 0.26983 -0.00300
C 	C 	0.60980 0.53480 0.23844 -0.21000
H 	H 	0.70200 0.60000 0.23743 0.10100
C 	C 	0.38450 0.46570 0.26014 -0.19400
H 	H 	0.32450 0.48300 0.27423 0.10400
C 	C 	0.33710 0.34240 0.24140 0.12400
H 	H 	0.24460 0.27790 0.24243 -0.01200
C 	C 	0.42540 0.31310 0.22095 -0.22800
H 	H 	0.39300 0.23020 0.20803 0.11200
C 	C 	0.80990 0.37150 0.16307 -0.19300
C 	C 	0.92460 0.40940 0.13617 0.36400
O 	O 	0.97519 0.52742 0.12075 -0.39100
O 	O 	0.96791 0.32904 0.12964 -0.30300
N 	N 	0.74906 0.39346 0.54043 -0.19400
N 	N 	0.42330 0.20710 0.49649 -0.33900
H 	H 	0.38660 0.12620 0.50617 0.15400
H 	H 	0.37980 0.22660 0.47937 0.17700
N 	N 	0.62270 0.27811 0.53505 -0.14700
C 	C 	0.59020 0.15250 0.55369 0.16400
C 	C 	0.74970 0.48790 0.51728 0.10900
H 	H 	0.82270 0.57670 0.51527 -0.00200
C 	C 	0.54860 0.30290 0.50802 0.22400
C 	C 	0.43800 0.95690 0.59139 0.10100
H 	H 	0.35330 0.90330 0.60317 0.00300
C 	C 	0.46520 0.07500 0.57178 -0.19300
H 	H 	0.40000 0.10200 0.57077 0.09500
C 	C 	0.53430 0.91880 0.59348 -0.17700
H 	H 	0.51700 0.84150 0.60757 0.09700
C 	C 	0.65760 0.99470 0.57474 0.10500
H 	H 	0.72210 0.96670 0.57577 -0.00600
C 	C 	0.68690 0.11230 0.55429 -0.21200
H 	H 	0.76980 0.16280 0.54137 0.10700
C 	C 	0.62850 0.43840 0.49641 -0.19400
C 	C 	0.59060 0.51520 0.46951 0.36400
O 	O 	0.47258 0.44777 0.45409 -0.39400
O 	O 	0.67096 0.63887 0.46298 -0.30500
N 	N 	0.39346 0.64440 0.37376 -0.19300
N 	N 	0.20710 0.78380 0.32982 -0.34000
H 	H 	0.12620 0.73960 0.33950 0.15500
H 	H 	0.22660 0.84680 0.31270 0.17800
N 	N 	0.27811 0.65541 0.36838 -0.14700
C 	C 	0.15250 0.56230 0.38702 0.16200
C 	C 	0.48790 0.73820 0.35061 0.10900
H 	H 	0.57670 0.75400 0.34860 0.00000
C 	C 	0.30290 0.75430 0.34135 0.22400
C 	C 	0.95690 0.51890 0.42472 0.09600
H 	H 	0.90330 0.55000 0.43650 0.00400
C 	C 	0.07500 0.60980 0.40511 -0.18900
H 	H 	0.10200 0.70200 0.40410 0.09400
C 	C 	0.91880 0.38450 0.42681 -0.17300
H 	H 	0.84150 0.32450 0.44090 0.09600
C 	C 	0.99470 0.33710 0.40807 0.10100
H 	H 	0.96670 0.24460 0.40910 -0.00400
C 	C 	0.11230 0.42540 0.38762 -0.20800
H 	H 	0.16280 0.39300 0.37470 0.10700
C 	C 	0.43840 0.80990 0.32974 -0.19200
C 	C 	0.51520 0.92460 0.30284 0.36400
O 	O 	0.44777 0.97519 0.28742 -0.39100
O 	O 	0.63887 0.96791 0.29631 -0.30100
N 	N 	0.35560 0.74906 0.70709 -0.19400
N 	N 	0.21620 0.42330 0.66315 -0.34000
H 	H 	0.26040 0.38660 0.67283 0.15500
H 	H 	0.15320 0.37980 0.64603 0.17800
N 	N 	0.34459 0.62270 0.70171 -0.14900
C 	C 	0.43770 0.59020 0.72035 0.17500
C 	C 	0.26180 0.74970 0.68394 0.10900
H 	H 	0.24600 0.82270 0.68193 -0.00100
C 	C 	0.24570 0.54860 0.67468 0.22400
C 	C 	0.48110 0.43800 0.75805 0.12000
H 	H 	0.45000 0.35330 0.76983 -0.00300
C 	C 	0.39020 0.46520 0.73844 -0.21000
H 	H 	0.29800 0.40000 0.73743 0.10100
C 	C 	0.61550 0.53430 0.76014 -0.19400
H 	H 	0.67550 0.51700 0.77423 0.10400
C 	C 	0.66290 0.65760 0.74140 0.12400
H 	H 	0.75540 0.72210 0.74243 -0.01200
C 	C 	0.57460 0.68690 0.72095 -0.22800
H 	H 	0.60700 0.76980 0.70803 0.11200
C 	C 	0.19010 0.62850 0.66307 -0.19300
C 	C 	0.07540 0.59060 0.63617 0.36400
O 	O 	0.02481 0.47258 0.62075 -0.39100
O 	O 	0.03209 0.67096 0.62964 -0.30300
N 	N 	0.25094 0.60654 0.04043 -0.19400
N 	N 	0.57670 0.79290 0.99649 -0.33900
H 	H 	0.61340 0.87380 0.00617 0.15400
H 	H 	0.62020 0.77340 0.97937 0.17700
N 	N 	0.37730 0.72189 0.03505 -0.14700
C 	C 	0.40980 0.84750 0.05369 0.16400
C 	C 	0.25030 0.51210 0.01728 0.10900
H 	H 	0.17730 0.42330 0.01527 -0.00200
C 	C 	0.45140 0.69710 0.00802 0.22300
C 	C 	0.56200 0.04310 0.09139 0.10100
H 	H 	0.64670 0.09670 0.10317 0.00300
C 	C 	0.53480 0.92500 0.07178 -0.19300
H 	H 	0.60000 0.89800 0.07077 0.09500
C 	C 	0.46570 0.08120 0.09348 -0.17700
H 	H 	0.48300 0.15850 0.10757 0.09700
C 	C 	0.34240 0.00530 0.07474 0.10500
H 	H 	0.27790 0.03330 0.07577 -0.00600
C 	C 	0.31310 0.88770 0.05429 -0.21200
H 	H 	0.23020 0.83720 0.04137 0.10700
C 	C 	0.37150 0.56160 0.99641 -0.19300
C 	C 	0.40940 0.48480 0.96951 0.36400
O 	O 	0.52742 0.55223 0.95409 -0.39400
O 	O 	0.32904 0.36113 0.96298 -0.30500
N 	N 	0.35560 0.60654 0.45957 -0.19300
N 	N 	0.21620 0.79290 0.50351 -0.34000
H 	H 	0.26040 0.87380 0.49383 0.15500
H 	H 	0.15320 0.77340 0.52063 0.17800
N 	N 	0.34459 0.72189 0.46495 -0.14700
C 	C 	0.43770 0.84750 0.44631 0.16200
C 	C 	0.26180 0.51210 0.48272 0.10900
H 	H 	0.24600 0.42330 0.48473 0.00000
C 	C 	0.24570 0.69710 0.49198 0.22400
C 	C 	0.48110 0.04310 0.40861 0.09600
H 	H 	0.45000 0.09670 0.39683 0.00400
C 	C 	0.39020 0.92500 0.42822 -0.18900
H 	H 	0.29800 0.89800 0.42923 0.09400
C 	C 	0.61550 0.08120 0.40652 -0.17200
H 	H 	0.67550 0.15850 0.39243 0.09600
C 	C 	0.66290 0.00530 0.42526 0.10100
H 	H 	0.75540 0.03330 0.42423 -0.00400
C 	C 	0.57460 0.88770 0.44571 -0.20800
H 	H 	0.60700 0.83720 0.45863 0.10700
C 	C 	0.19010 0.56160 0.50359 -0.19200
C 	C 	0.07540 0.48480 0.53049 0.36400
O 	O 	0.02481 0.55223 0.54591 -0.39100
O 	O 	0.03209 0.36113 0.53702 -0.30100
N 	N 	0.25094 0.64440 0.12624 -0.19400
N 	N 	0.57670 0.78380 0.17018 -0.34000
H 	H 	0.61340 0.73960 0.16050 0.15500
H 	H 	0.62020 0.84680 0.18730 0.17800
N 	N 	0.37730 0.65541 0.13162 -0.14900
C 	C 	0.40980 0.56230 0.11298 0.17500
C 	C 	0.25030 0.73820 0.14939 0.10900
H 	H 	0.17730 0.75400 0.15140 -0.00200
C 	C 	0.45140 0.75430 0.15865 0.22400
C 	C 	0.56200 0.51890 0.07528 0.12000
H 	H 	0.64670 0.55000 0.06350 -0.00300
C 	C 	0.53480 0.60980 0.09489 -0.21000
H 	H 	0.60000 0.70200 0.09590 0.10100
C 	C 	0.46570 0.38450 0.07319 -0.19400
H 	H 	0.48300 0.32450 0.05910 0.10400
C 	C 	0.34240 0.33710 0.09193 0.12400
H 	H 	0.27790 0.24460 0.09090 -0.01200
C 	C 	0.31310 0.42540 0.11238 -0.22800
H 	H 	0.23020 0.39300 0.12530 0.11200
C 	C 	0.37150 0.80990 0.17026 -0.19300
C 	C 	0.40940 0.92460 0.19716 0.36400
O 	O 	0.52742 0.97519 0.21258 -0.39100
O 	O 	0.32904 0.96791 0.20369 -0.30300
N 	N 	0.39346 0.74906 0.79291 -0.19400
N 	N 	0.20710 0.42330 0.83685 -0.33900
H 	H 	0.12620 0.38660 0.82717 0.15400
H 	H 	0.22660 0.37980 0.85397 0.17700
N 	N 	0.27811 0.62270 0.79829 -0.14700
C 	C 	0.15250 0.59020 0.77965 0.16400
C 	C 	0.48790 0.74970 0.81606 0.10900
H 	H 	0.57670 0.82270 0.81807 -0.00200
C 	C 	0.30290 0.54860 0.82532 0.22400
C 	C 	0.95690 0.43800 0.74195 0.10000
H 	H 	0.90330 0.35330 0.73017 0.00300
C 	C 	0.07500 0.46520 0.76156 -0.19200
H 	H 	0.10200 0.40000 0.76257 0.09500
C 	C 	0.91880 0.53430 0.73986 -0.17600
H 	H 	0.84150 0.51700 0.72577 0.09700
C 	C 	0.99470 0.65760 0.75860 0.10500
H 	H 	0.96670 0.72210 0.75757 -0.00500
C 	C 	0.11230 0.68690 0.77905 -0.21100
H 	H 	0.16280 0.76980 0.79197 0.10700
C 	C 	0.43840 0.62850 0.83693 -0.19400
C 	C 	0.51520 0.59060 0.86383 0.36400
O 	O 	0.44777 0.47258 0.87925 -0.39400
O 	O 	0.63887 0.67096 0.87036 -0.30500
N 	N 	0.64440 0.39346 0.95957 -0.19300
N 	N 	0.78380 0.20710 0.00351 -0.34000
H 	H 	0.73960 0.12620 0.99383 0.15500
H 	H 	0.84680 0.22660 0.02063 0.17800
N 	N 	0.65541 0.27811 0.96495 -0.14700
C 	C 	0.56230 0.15250 0.94631 0.16200
C 	C 	0.73820 0.48790 0.98272 0.10900
H 	H 	0.75400 0.57670 0.98473 0.00000
C 	C 	0.75430 0.30290 0.99198 0.22400
C 	C 	0.51890 0.95690 0.90861 0.09600
H 	H 	0.55000 0.90330 0.89683 0.00400
C 	C 	0.60980 0.07500 0.92822 -0.18900
H 	H 	0.70200 0.10200 0.92923 0.09400
C 	C 	0.38450 0.91880 0.90652 -0.17200
H 	H 	0.32450 0.84150 0.89243 0.09600
C 	C 	0.33710 0.99470 0.92526 0.10100
H 	H 	0.24460 0.96670 0.92423 -0.00400
C 	C 	0.42540 0.11230 0.94571 -0.20800
H 	H 	0.39300 0.16280 0.95863 0.10700
C 	C 	0.80990 0.43840 0.00359 -0.19200
C 	C 	0.92460 0.51520 0.03049 0.36400
O 	O 	0.97519 0.44777 0.04591 -0.39100
O 	O 	0.96791 0.63887 0.03702 -0.30100
N 	N 	0.74906 0.35560 0.62624 -0.19400
N 	N 	0.42330 0.21620 0.67018 -0.34000
H 	H 	0.38660 0.26040 0.66050 0.15500
H 	H 	0.37980 0.15320 0.68730 0.17800
N 	N 	0.62270 0.34459 0.63162 -0.14900
C 	C 	0.59020 0.43770 0.61298 0.17500
C 	C 	0.74970 0.26180 0.64939 0.10900
H 	H 	0.82270 0.24600 0.65140 -0.00200
C 	C 	0.54860 0.24570 0.65865 0.22400
C 	C 	0.43800 0.48110 0.57528 0.12000
H 	H 	0.35330 0.45000 0.56350 -0.00300
C 	C 	0.46520 0.39020 0.59489 -0.21000
H 	H 	0.40000 0.29800 0.59590 0.10100
C 	C 	0.53430 0.61550 0.57319 -0.19400
H 	H 	0.51700 0.67550 0.55910 0.10400
C 	C 	0.65760 0.66290 0.59193 0.12400
H 	H 	0.72210 0.75540 0.59090 -0.01200
C 	C 	0.68690 0.57460 0.61238 -0.22800
H 	H 	0.76980 0.60700 0.62530 0.11200
C 	C 	0.62850 0.19010 0.67026 -0.19300
C 	C 	0.59060 0.07540 0.69716 0.36400
O 	O 	0.47258 0.02481 0.71258 -0.39100
O 	O 	0.67096 0.03209 0.70369 -0.30300
N 	N 	0.60654 0.25094 0.29291 -0.19400
N 	N 	0.79290 0.57670 0.33685 -0.33900
H 	H 	0.87380 0.61340 0.32717 0.15400
H 	H 	0.77340 0.62020 0.35397 0.17700
N 	N 	0.72189 0.37730 0.29829 -0.14700
C 	C 	0.84750 0.40980 0.27965 0.16400
C 	C 	0.51210 0.25030 0.31606 0.10900
H 	H 	0.42330 0.17730 0.31807 -0.00200
C 	C 	0.69710 0.45140 0.32532 0.22400
C 	C 	0.04310 0.56200 0.24195 0.10000
H 	H 	0.09670 0.64670 0.23017 0.00300
C 	C 	0.92500 0.53480 0.26156 -0.19200
H 	H 	0.89800 0.60000 0.26257 0.09500
C 	C 	0.08120 0.46570 0.23986 -0.17600
H 	H 	0.15850 0.48300 0.22577 0.09700
C 	C 	0.00530 0.34240 0.25860 0.10500
H 	H 	0.03330 0.27790 0.25757 -0.00500
C 	C 	0.88770 0.31310 0.27905 -0.21100
H 	H 	0.83720 0.23020 0.29197 0.10700
C 	C 	0.56160 0.37150 0.33693 -0.19400
C 	C 	0.48480 0.40940 0.36383 0.36400
O 	O 	0.55223 0.52742 0.37925 -0.39400
O 	O 	0.36113 0.32904 0.37036 -0.30500
Cu	Cu	0.55853 0.44147 0.91667 0.91000
Cu	Cu	0.55853 0.11706 0.25000 0.90700
Cu	Cu	0.88294 0.44147 0.58333 0.90700
Cu	Cu	0.44147 0.55853 0.41667 0.91000
Cu	Cu	0.44147 0.88294 0.75000 0.90700
Cu	Cu	0.11706 0.55853 0.08333 0.90600
