data_crystal

_cell_length_a 26.30480
_cell_length_b 26.30480
_cell_length_c 26.30480
_cell_angle_alpha 90.00000
_cell_angle_beta  90.00000
_cell_angle_gamma 90.00000

_symmetry_space_group_name_	'P 1'
_symmetry_space_group_name_H-M	'P 1'

loop_
_symmetry_equiv_pos_as_xyz
  x,y,z

loop_
_atom_site_label
_atom_site_type_symbol
_atom_site_fract_x
_atom_site_fract_y
_atom_site_fract_z
_atom_site_charge
O 	O 	0.24351 0.31660 0.05236 -0.42400
O 	O 	0.24351 0.81660 0.55236 -0.40200
O 	O 	0.74351 0.31660 0.55236 -0.40400
O 	O 	0.74351 0.81660 0.05236 -0.41500
O 	O 	0.75649 0.68340 0.05236 -0.42100
O 	O 	0.75649 0.18340 0.55236 -0.40900
O 	O 	0.25649 0.68340 0.55236 -0.40800
O 	O 	0.25649 0.18340 0.05236 -0.43000
O 	O 	0.75649 0.31660 0.94764 -0.37200
O 	O 	0.75649 0.81660 0.44764 -0.39900
O 	O 	0.25649 0.31660 0.44764 -0.40800
O 	O 	0.25649 0.81660 0.94764 -0.37000
O 	O 	0.24351 0.68340 0.94764 -0.37500
O 	O 	0.24351 0.18340 0.44764 -0.41200
O 	O 	0.74351 0.68340 0.44764 -0.40300
O 	O 	0.74351 0.18340 0.94764 -0.37600
O 	O 	0.05236 0.24351 0.31660 -0.42400
O 	O 	0.05236 0.74351 0.81660 -0.41500
O 	O 	0.55236 0.24351 0.81660 -0.40200
O 	O 	0.55236 0.74351 0.31660 -0.40400
O 	O 	0.05236 0.75649 0.68340 -0.42100
O 	O 	0.05236 0.25649 0.18340 -0.43100
O 	O 	0.55236 0.75649 0.18340 -0.41000
O 	O 	0.55236 0.25649 0.68340 -0.40900
O 	O 	0.94764 0.75649 0.31660 -0.37300
O 	O 	0.94764 0.25649 0.81660 -0.37100
O 	O 	0.44764 0.75649 0.81660 -0.40000
O 	O 	0.44764 0.25649 0.31660 -0.40900
O 	O 	0.94764 0.24351 0.68340 -0.37600
O 	O 	0.94764 0.74351 0.18340 -0.37700
O 	O 	0.44764 0.24351 0.18340 -0.41300
O 	O 	0.44764 0.74351 0.68340 -0.40400
O 	O 	0.31660 0.05236 0.24351 -0.42500
O 	O 	0.31660 0.55236 0.74351 -0.40500
O 	O 	0.81660 0.05236 0.74351 -0.41600
O 	O 	0.81660 0.55236 0.24351 -0.40300
O 	O 	0.68340 0.05236 0.75649 -0.42200
O 	O 	0.68340 0.55236 0.25649 -0.40900
O 	O 	0.18340 0.05236 0.25649 -0.43100
O 	O 	0.18340 0.55236 0.75649 -0.41000
O 	O 	0.31660 0.94764 0.75649 -0.37300
O 	O 	0.31660 0.44764 0.25649 -0.40900
O 	O 	0.81660 0.94764 0.25649 -0.37100
O 	O 	0.81660 0.44764 0.75649 -0.40000
O 	O 	0.68340 0.94764 0.24351 -0.37600
O 	O 	0.68340 0.44764 0.74351 -0.40400
O 	O 	0.18340 0.94764 0.74351 -0.37700
O 	O 	0.18340 0.44764 0.24351 -0.41300
O 	O 	0.31660 0.24351 0.94764 -0.37600
O 	O 	0.31660 0.74351 0.44764 -0.40500
O 	O 	0.81660 0.24351 0.44764 -0.40300
O 	O 	0.81660 0.74351 0.94764 -0.36700
O 	O 	0.68340 0.75649 0.94764 -0.37300
O 	O 	0.68340 0.25649 0.44764 -0.40900
O 	O 	0.18340 0.75649 0.44764 -0.41000
O 	O 	0.18340 0.25649 0.94764 -0.38200
O 	O 	0.31660 0.75649 0.05236 -0.42200
O 	O 	0.31660 0.25649 0.55236 -0.40900
O 	O 	0.81660 0.75649 0.55236 -0.39900
O 	O 	0.81660 0.25649 0.05236 -0.42000
O 	O 	0.68340 0.24351 0.05236 -0.42500
O 	O 	0.68340 0.74351 0.55236 -0.40400
O 	O 	0.18340 0.24351 0.55236 -0.41300
O 	O 	0.18340 0.74351 0.05236 -0.42600
O 	O 	0.24351 0.05236 0.68340 -0.42500
O 	O 	0.24351 0.55236 0.18340 -0.41300
O 	O 	0.74351 0.05236 0.18340 -0.42600
O 	O 	0.74351 0.55236 0.68340 -0.40400
O 	O 	0.75649 0.05236 0.31660 -0.42200
O 	O 	0.75649 0.55236 0.81660 -0.39900
O 	O 	0.25649 0.05236 0.81660 -0.42000
O 	O 	0.25649 0.55236 0.31660 -0.40900
O 	O 	0.75649 0.94764 0.68340 -0.37300
O 	O 	0.75649 0.44764 0.18340 -0.41000
O 	O 	0.25649 0.94764 0.18340 -0.38200
O 	O 	0.25649 0.44764 0.68340 -0.40900
O 	O 	0.24351 0.94764 0.31660 -0.37600
O 	O 	0.24351 0.44764 0.81660 -0.40300
O 	O 	0.74351 0.94764 0.81660 -0.36700
O 	O 	0.74351 0.44764 0.31660 -0.40500
O 	O 	0.05236 0.31660 0.75649 -0.42200
O 	O 	0.05236 0.81660 0.25649 -0.42000
O 	O 	0.55236 0.31660 0.25649 -0.40900
O 	O 	0.55236 0.81660 0.75649 -0.39900
O 	O 	0.05236 0.68340 0.24351 -0.42500
O 	O 	0.05236 0.18340 0.74351 -0.42600
O 	O 	0.55236 0.68340 0.74351 -0.40400
O 	O 	0.55236 0.18340 0.24351 -0.41300
O 	O 	0.94764 0.31660 0.24351 -0.37600
O 	O 	0.94764 0.81660 0.74351 -0.36700
O 	O 	0.44764 0.31660 0.74351 -0.40500
O 	O 	0.44764 0.81660 0.24351 -0.40300
O 	O 	0.94764 0.68340 0.75649 -0.37300
O 	O 	0.94764 0.18340 0.25649 -0.38200
O 	O 	0.44764 0.68340 0.25649 -0.40900
O 	O 	0.44764 0.18340 0.75649 -0.41000
O 	O 	0.75649 0.68340 0.94764 -0.37300
O 	O 	0.75649 0.18340 0.44764 -0.41000
O 	O 	0.25649 0.68340 0.44764 -0.40900
O 	O 	0.25649 0.18340 0.94764 -0.38200
O 	O 	0.24351 0.31660 0.94764 -0.37600
O 	O 	0.24351 0.81660 0.44764 -0.40300
O 	O 	0.74351 0.31660 0.44764 -0.40500
O 	O 	0.74351 0.81660 0.94764 -0.36700
O 	O 	0.24351 0.68340 0.05236 -0.42500
O 	O 	0.24351 0.18340 0.55236 -0.41300
O 	O 	0.74351 0.68340 0.55236 -0.40400
O 	O 	0.74351 0.18340 0.05236 -0.42600
O 	O 	0.75649 0.31660 0.05236 -0.42200
O 	O 	0.75649 0.81660 0.55236 -0.39900
O 	O 	0.25649 0.31660 0.55236 -0.40900
O 	O 	0.25649 0.81660 0.05236 -0.42000
O 	O 	0.94764 0.75649 0.68340 -0.37300
O 	O 	0.94764 0.25649 0.18340 -0.38200
O 	O 	0.44764 0.75649 0.18340 -0.41000
O 	O 	0.44764 0.25649 0.68340 -0.40900
O 	O 	0.94764 0.24351 0.31660 -0.37600
O 	O 	0.94764 0.74351 0.81660 -0.36700
O 	O 	0.44764 0.24351 0.81660 -0.40300
O 	O 	0.44764 0.74351 0.31660 -0.40500
O 	O 	0.05236 0.24351 0.68340 -0.42500
O 	O 	0.05236 0.74351 0.18340 -0.42600
O 	O 	0.55236 0.24351 0.18340 -0.41300
O 	O 	0.55236 0.74351 0.68340 -0.40400
O 	O 	0.05236 0.75649 0.31660 -0.42200
O 	O 	0.05236 0.25649 0.81660 -0.42000
O 	O 	0.55236 0.75649 0.81660 -0.39900
O 	O 	0.55236 0.25649 0.31660 -0.40900
O 	O 	0.68340 0.94764 0.75649 -0.37300
O 	O 	0.68340 0.44764 0.25649 -0.40900
O 	O 	0.18340 0.94764 0.25649 -0.38200
O 	O 	0.18340 0.44764 0.75649 -0.41000
O 	O 	0.31660 0.94764 0.24351 -0.37600
O 	O 	0.31660 0.44764 0.74351 -0.40500
O 	O 	0.81660 0.94764 0.74351 -0.36700
O 	O 	0.81660 0.44764 0.24351 -0.40300
O 	O 	0.68340 0.05236 0.24351 -0.42500
O 	O 	0.68340 0.55236 0.74351 -0.40400
O 	O 	0.18340 0.05236 0.74351 -0.42600
O 	O 	0.18340 0.55236 0.24351 -0.41300
O 	O 	0.31660 0.05236 0.75649 -0.42200
O 	O 	0.31660 0.55236 0.25649 -0.40900
O 	O 	0.81660 0.05236 0.25649 -0.42000
O 	O 	0.81660 0.55236 0.75649 -0.39900
O 	O 	0.68340 0.75649 0.05236 -0.42200
O 	O 	0.68340 0.25649 0.55236 -0.40900
O 	O 	0.18340 0.75649 0.55236 -0.41000
O 	O 	0.18340 0.25649 0.05236 -0.43100
O 	O 	0.31660 0.24351 0.05236 -0.42500
O 	O 	0.31660 0.74351 0.55236 -0.40500
O 	O 	0.81660 0.24351 0.55236 -0.40300
O 	O 	0.81660 0.74351 0.05236 -0.41600
O 	O 	0.68340 0.24351 0.94764 -0.37600
O 	O 	0.68340 0.74351 0.44764 -0.40400
O 	O 	0.18340 0.24351 0.44764 -0.41300
O 	O 	0.18340 0.74351 0.94764 -0.37700
O 	O 	0.31660 0.75649 0.94764 -0.37300
O 	O 	0.31660 0.25649 0.44764 -0.40900
O 	O 	0.81660 0.75649 0.44764 -0.40000
O 	O 	0.81660 0.25649 0.94764 -0.37100
O 	O 	0.75649 0.94764 0.31660 -0.37300
O 	O 	0.75649 0.44764 0.81660 -0.40000
O 	O 	0.25649 0.94764 0.81660 -0.37100
O 	O 	0.25649 0.44764 0.31660 -0.40900
O 	O 	0.24351 0.94764 0.68340 -0.37600
O 	O 	0.24351 0.44764 0.18340 -0.41300
O 	O 	0.74351 0.94764 0.18340 -0.37700
O 	O 	0.74351 0.44764 0.68340 -0.40400
O 	O 	0.24351 0.05236 0.31660 -0.42500
O 	O 	0.24351 0.55236 0.81660 -0.40300
O 	O 	0.74351 0.05236 0.81660 -0.41600
O 	O 	0.74351 0.55236 0.31660 -0.40500
O 	O 	0.75649 0.05236 0.68340 -0.42200
O 	O 	0.75649 0.55236 0.18340 -0.41000
O 	O 	0.25649 0.05236 0.18340 -0.43100
O 	O 	0.25649 0.55236 0.68340 -0.40900
O 	O 	0.94764 0.68340 0.24351 -0.37600
O 	O 	0.94764 0.18340 0.74351 -0.37700
O 	O 	0.44764 0.68340 0.74351 -0.40400
O 	O 	0.44764 0.18340 0.24351 -0.41300
O 	O 	0.94764 0.31660 0.75649 -0.37300
O 	O 	0.94764 0.81660 0.25649 -0.37100
O 	O 	0.44764 0.31660 0.25649 -0.40900
O 	O 	0.44764 0.81660 0.75649 -0.40000
O 	O 	0.05236 0.68340 0.75649 -0.42200
O 	O 	0.05236 0.18340 0.25649 -0.43100
O 	O 	0.55236 0.68340 0.25649 -0.40900
O 	O 	0.55236 0.18340 0.75649 -0.41000
O 	O 	0.05236 0.31660 0.24351 -0.42500
O 	O 	0.05236 0.81660 0.74351 -0.41600
O 	O 	0.55236 0.31660 0.74351 -0.40500
O 	O 	0.55236 0.81660 0.24351 -0.40300
Cu	Cu	0.28389 0.28389 -0.00000 0.87700
Cu	Cu	0.28389 0.78389 0.50000 0.90800
Cu	Cu	0.78389 0.28389 0.50000 0.90800
Cu	Cu	0.78389 0.78389 -0.00000 0.88000
Cu	Cu	0.71611 0.71611 -0.00000 0.87600
Cu	Cu	0.71611 0.21611 0.50000 0.90400
Cu	Cu	0.21611 0.71611 0.50000 0.90400
Cu	Cu	0.21611 0.21611 -0.00000 0.87400
Cu	Cu	0.71611 0.28389 -0.00000 0.87700
Cu	Cu	0.71611 0.78389 0.50000 0.90800
Cu	Cu	0.21611 0.28389 0.50000 0.90400
Cu	Cu	0.21611 0.78389 -0.00000 0.87700
Cu	Cu	0.28389 0.71611 -0.00000 0.87700
Cu	Cu	0.28389 0.21611 0.50000 0.90400
Cu	Cu	0.78389 0.71611 0.50000 0.90800
Cu	Cu	0.78389 0.21611 -0.00000 0.87700
Cu	Cu	0.00000 0.28389 0.28389 0.87700
Cu	Cu	0.00000 0.78389 0.78389 0.88000
Cu	Cu	0.50000 0.28389 0.78389 0.90800
Cu	Cu	0.50000 0.78389 0.28389 0.90800
Cu	Cu	0.00000 0.71611 0.71611 0.87600
Cu	Cu	0.00000 0.21611 0.21611 0.87400
Cu	Cu	0.50000 0.71611 0.21611 0.90400
Cu	Cu	0.50000 0.21611 0.71611 0.90400
Cu	Cu	0.00000 0.71611 0.28389 0.87700
Cu	Cu	-0.00000 0.21611 0.78389 0.87700
Cu	Cu	0.50000 0.71611 0.78389 0.90800
Cu	Cu	0.50000 0.21611 0.28389 0.90400
Cu	Cu	0.00000 0.28389 0.71611 0.87700
Cu	Cu	-0.00000 0.78389 0.21611 0.87700
Cu	Cu	0.50000 0.28389 0.21611 0.90400
Cu	Cu	0.50000 0.78389 0.71611 0.90800
Cu	Cu	0.28389 0.00000 0.28389 0.87700
Cu	Cu	0.28389 0.50000 0.78389 0.90800
Cu	Cu	0.78389 0.00000 0.78389 0.88000
Cu	Cu	0.78389 0.50000 0.28389 0.90800
Cu	Cu	0.71611 0.00000 0.71611 0.87600
Cu	Cu	0.71611 0.50000 0.21611 0.90400
Cu	Cu	0.21611 0.00000 0.21611 0.87400
Cu	Cu	0.21611 0.50000 0.71611 0.90400
Cu	Cu	0.28389 0.00000 0.71611 0.87700
Cu	Cu	0.28389 0.50000 0.21611 0.90400
Cu	Cu	0.78389 0.00000 0.21611 0.87700
Cu	Cu	0.78389 0.50000 0.71611 0.90800
Cu	Cu	0.71611 0.00000 0.28389 0.87700
Cu	Cu	0.71611 0.50000 0.78389 0.90800
Cu	Cu	0.21611 0.00000 0.78389 0.87700
Cu	Cu	0.21611 0.50000 0.28389 0.90400
C 	C 	0.17851 0.32149 0.11368 -0.13200
C 	C 	0.20356 0.29644 0.06912 0.37200
C 	C 	0.17851 0.82149 0.61368 -0.11100
C 	C 	0.20356 0.79644 0.56912 0.36700
C 	C 	0.82149 0.67851 0.11368 -0.11400
C 	C 	0.79644 0.70356 0.06912 0.36700
C 	C 	0.82149 0.17851 0.61368 -0.11100
C 	C 	0.79644 0.20356 0.56912 0.36700
C 	C 	0.32149 0.17851 0.11368 -0.13200
C 	C 	0.29644 0.20356 0.06912 0.37200
C 	C 	0.82149 0.32149 0.88632 -0.09200
C 	C 	0.79644 0.29644 0.93088 0.36000
C 	C 	0.82149 0.82149 0.38632 -0.09700
C 	C 	0.79644 0.79644 0.43088 0.36500
C 	C 	0.32149 0.32149 0.38632 -0.11600
C 	C 	0.29644 0.29644 0.43088 0.37000
C 	C 	0.17851 0.67851 0.88632 -0.10400
C 	C 	0.20356 0.70356 0.93088 0.36100
C 	C 	0.17851 0.17851 0.38632 -0.12700
C 	C 	0.20356 0.20356 0.43088 0.37100
C 	C 	0.11368 0.17851 0.32149 -0.13200
C 	C 	0.06912 0.20356 0.29644 0.37200
C 	C 	0.61368 0.17851 0.82149 -0.11100
C 	C 	0.56912 0.20356 0.79644 0.36700
C 	C 	0.11368 0.82149 0.67851 -0.11400
C 	C 	0.06912 0.79644 0.70356 0.36700
C 	C 	0.11368 0.32149 0.17851 -0.13200
C 	C 	0.06912 0.29644 0.20356 0.37200
C 	C 	0.61368 0.82149 0.17851 -0.11100
C 	C 	0.56912 0.79644 0.20356 0.36700
C 	C 	0.88632 0.82149 0.32149 -0.09200
C 	C 	0.93088 0.79644 0.29644 0.36000
C 	C 	0.38632 0.82149 0.82149 -0.09700
C 	C 	0.43088 0.79644 0.79644 0.36500
C 	C 	0.38632 0.32149 0.32149 -0.11600
C 	C 	0.43088 0.29644 0.29644 0.37000
C 	C 	0.88632 0.17851 0.67851 -0.10400
C 	C 	0.93088 0.20356 0.70356 0.36100
C 	C 	0.38632 0.17851 0.17851 -0.12700
C 	C 	0.43088 0.20356 0.20356 0.37100
C 	C 	0.32149 0.11368 0.17851 -0.13200
C 	C 	0.29644 0.06912 0.20356 0.37200
C 	C 	0.32149 0.61368 0.67851 -0.11200
C 	C 	0.29644 0.56912 0.70356 0.36800
C 	C 	0.67851 0.11368 0.82149 -0.11400
C 	C 	0.70356 0.06912 0.79644 0.36700
C 	C 	0.67851 0.61368 0.32149 -0.11200
C 	C 	0.70356 0.56912 0.29644 0.36800
C 	C 	0.17851 0.11368 0.32149 -0.13200
C 	C 	0.20356 0.06912 0.29644 0.37200
C 	C 	0.32149 0.88632 0.82149 -0.09200
C 	C 	0.29644 0.93088 0.79644 0.36000
C 	C 	0.32149 0.38632 0.32149 -0.11600
C 	C 	0.29644 0.43088 0.29644 0.37000
C 	C 	0.67851 0.88632 0.17851 -0.10400
C 	C 	0.70356 0.93088 0.20356 0.36100
C 	C 	0.67851 0.38632 0.67851 -0.11100
C 	C 	0.70356 0.43088 0.70356 0.36600
C 	C 	0.17851 0.38632 0.17851 -0.12700
C 	C 	0.20356 0.43088 0.20356 0.37100
C 	C 	0.32149 0.17851 0.88632 -0.10700
C 	C 	0.29644 0.20356 0.93088 0.36300
C 	C 	0.32149 0.67851 0.38632 -0.11300
C 	C 	0.29644 0.70356 0.43088 0.36800
C 	C 	0.67851 0.82149 0.88632 -0.08900
C 	C 	0.70356 0.79644 0.93088 0.35800
C 	C 	0.67851 0.32149 0.38632 -0.11300
C 	C 	0.70356 0.29644 0.43088 0.36800
C 	C 	0.17851 0.32149 0.88632 -0.10700
C 	C 	0.20356 0.29644 0.93088 0.36300
C 	C 	0.32149 0.82149 0.11368 -0.11700
C 	C 	0.29644 0.79644 0.06912 0.36900
C 	C 	0.32149 0.32149 0.61368 -0.11500
C 	C 	0.29644 0.29644 0.56912 0.36900
C 	C 	0.67851 0.17851 0.11368 -0.12900
C 	C 	0.70356 0.20356 0.06912 0.37000
C 	C 	0.67851 0.67851 0.61368 -0.10900
C 	C 	0.70356 0.70356 0.56912 0.36600
C 	C 	0.17851 0.17851 0.61368 -0.12600
C 	C 	0.20356 0.20356 0.56912 0.37000
C 	C 	0.17851 0.11368 0.67851 -0.12900
C 	C 	0.20356 0.06912 0.70356 0.37000
C 	C 	0.17851 0.61368 0.17851 -0.12600
C 	C 	0.20356 0.56912 0.20356 0.37000
C 	C 	0.82149 0.11368 0.32149 -0.11700
C 	C 	0.79644 0.06912 0.29644 0.36900
C 	C 	0.82149 0.61368 0.82149 -0.09600
C 	C 	0.79644 0.56912 0.79644 0.36400
C 	C 	0.32149 0.61368 0.32149 -0.11500
C 	C 	0.29644 0.56912 0.29644 0.36900
C 	C 	0.82149 0.88632 0.67851 -0.08900
C 	C 	0.79644 0.93088 0.70356 0.35800
C 	C 	0.82149 0.38632 0.17851 -0.11200
C 	C 	0.79644 0.43088 0.20356 0.36800
C 	C 	0.32149 0.88632 0.17851 -0.10700
C 	C 	0.29644 0.93088 0.20356 0.36300
C 	C 	0.17851 0.88632 0.32149 -0.10700
C 	C 	0.20356 0.93088 0.29644 0.36300
C 	C 	0.17851 0.38632 0.82149 -0.11200
C 	C 	0.20356 0.43088 0.79644 0.36800
C 	C 	0.11368 0.32149 0.82149 -0.11700
C 	C 	0.06912 0.29644 0.79644 0.36900
C 	C 	0.61368 0.32149 0.32149 -0.11500
C 	C 	0.56912 0.29644 0.29644 0.36900
C 	C 	0.11368 0.67851 0.17851 -0.12900
C 	C 	0.06912 0.70356 0.20356 0.37000
C 	C 	0.61368 0.67851 0.67851 -0.10900
C 	C 	0.56912 0.70356 0.70356 0.36600
C 	C 	0.61368 0.17851 0.17851 -0.12600
C 	C 	0.56912 0.20356 0.20356 0.37000
C 	C 	0.88632 0.32149 0.17851 -0.10700
C 	C 	0.93088 0.29644 0.20356 0.36300
C 	C 	0.38632 0.32149 0.67851 -0.11300
C 	C 	0.43088 0.29644 0.70356 0.36800
C 	C 	0.88632 0.67851 0.82149 -0.08900
C 	C 	0.93088 0.70356 0.79644 0.35800
C 	C 	0.88632 0.17851 0.32149 -0.10700
C 	C 	0.93088 0.20356 0.29644 0.36300
C 	C 	0.38632 0.67851 0.32149 -0.11300
C 	C 	0.43088 0.70356 0.29644 0.36800
C 	C 	0.82149 0.67851 0.88632 -0.08900
C 	C 	0.79644 0.70356 0.93088 0.35800
C 	C 	0.82149 0.17851 0.38632 -0.11200
C 	C 	0.79644 0.20356 0.43088 0.36800
C 	C 	0.17851 0.82149 0.38632 -0.11200
C 	C 	0.20356 0.79644 0.43088 0.36800
C 	C 	0.17851 0.67851 0.11368 -0.12900
C 	C 	0.20356 0.70356 0.06912 0.37000
C 	C 	0.82149 0.32149 0.11368 -0.11700
C 	C 	0.79644 0.29644 0.06912 0.36900
C 	C 	0.82149 0.82149 0.61368 -0.09600
C 	C 	0.79644 0.79644 0.56912 0.36400
C 	C 	0.88632 0.82149 0.67851 -0.08900
C 	C 	0.93088 0.79644 0.70356 0.35800
C 	C 	0.38632 0.82149 0.17851 -0.11200
C 	C 	0.43088 0.79644 0.20356 0.36800
C 	C 	0.38632 0.17851 0.82149 -0.11200
C 	C 	0.43088 0.20356 0.79644 0.36800
C 	C 	0.11368 0.17851 0.67851 -0.12900
C 	C 	0.06912 0.20356 0.70356 0.37000
C 	C 	0.11368 0.82149 0.32149 -0.11700
C 	C 	0.06912 0.79644 0.29644 0.36900
C 	C 	0.61368 0.82149 0.82149 -0.09600
C 	C 	0.56912 0.79644 0.79644 0.36400
C 	C 	0.67851 0.88632 0.82149 -0.08900
C 	C 	0.70356 0.93088 0.79644 0.35800
C 	C 	0.67851 0.38632 0.32149 -0.11300
C 	C 	0.70356 0.43088 0.29644 0.36800
C 	C 	0.32149 0.38632 0.67851 -0.11300
C 	C 	0.29644 0.43088 0.70356 0.36800
C 	C 	0.67851 0.11368 0.17851 -0.12900
C 	C 	0.70356 0.06912 0.20356 0.37000
C 	C 	0.67851 0.61368 0.67851 -0.10900
C 	C 	0.70356 0.56912 0.70356 0.36600
C 	C 	0.32149 0.11368 0.82149 -0.11700
C 	C 	0.29644 0.06912 0.79644 0.36900
C 	C 	0.67851 0.82149 0.11368 -0.11400
C 	C 	0.70356 0.79644 0.06912 0.36700
C 	C 	0.67851 0.32149 0.61368 -0.11200
C 	C 	0.70356 0.29644 0.56912 0.36800
C 	C 	0.32149 0.67851 0.61368 -0.11200
C 	C 	0.29644 0.70356 0.56912 0.36800
C 	C 	0.67851 0.17851 0.88632 -0.10400
C 	C 	0.70356 0.20356 0.93088 0.36100
C 	C 	0.67851 0.67851 0.38632 -0.11100
C 	C 	0.70356 0.70356 0.43088 0.36600
C 	C 	0.32149 0.82149 0.88632 -0.09200
C 	C 	0.29644 0.79644 0.93088 0.36000
C 	C 	0.82149 0.88632 0.32149 -0.09200
C 	C 	0.79644 0.93088 0.29644 0.36000
C 	C 	0.82149 0.38632 0.82149 -0.09700
C 	C 	0.79644 0.43088 0.79644 0.36500
C 	C 	0.17851 0.88632 0.67851 -0.10400
C 	C 	0.20356 0.93088 0.70356 0.36100
C 	C 	0.17851 0.61368 0.82149 -0.11100
C 	C 	0.20356 0.56912 0.79644 0.36700
C 	C 	0.82149 0.11368 0.67851 -0.11400
C 	C 	0.79644 0.06912 0.70356 0.36700
C 	C 	0.82149 0.61368 0.17851 -0.11100
C 	C 	0.79644 0.56912 0.20356 0.36700
C 	C 	0.88632 0.67851 0.17851 -0.10400
C 	C 	0.93088 0.70356 0.20356 0.36100
C 	C 	0.38632 0.67851 0.67851 -0.11100
C 	C 	0.43088 0.70356 0.70356 0.36600
C 	C 	0.88632 0.32149 0.82149 -0.09200
C 	C 	0.93088 0.29644 0.79644 0.36000
C 	C 	0.11368 0.67851 0.82149 -0.11400
C 	C 	0.06912 0.70356 0.79644 0.36700
C 	C 	0.61368 0.67851 0.32149 -0.11200
C 	C 	0.56912 0.70356 0.29644 0.36800
C 	C 	0.61368 0.32149 0.67851 -0.11200
C 	C 	0.56912 0.29644 0.70356 0.36800
C 	C 	0.13528 0.30006 0.13528 0.06900
H 	H 	0.12080 0.27130 0.12080 0.03000
C 	C 	0.13528 0.80006 0.63528 0.05800
H 	H 	0.12080 0.77130 0.62080 0.04200
C 	C 	0.63528 0.30006 0.63528 0.05800
H 	H 	0.62080 0.27130 0.62080 0.04500
C 	C 	0.63528 0.80006 0.13528 0.05800
H 	H 	0.62080 0.77130 0.12080 0.04200
C 	C 	0.86472 0.69994 0.13528 0.05500
H 	H 	0.87920 0.72870 0.12080 0.05000
C 	C 	0.86472 0.19994 0.63528 0.05500
H 	H 	0.87920 0.22870 0.62080 0.05300
C 	C 	0.36472 0.69994 0.63528 0.05700
H 	H 	0.37920 0.72870 0.62080 0.04900
C 	C 	0.36472 0.19994 0.13528 0.06700
H 	H 	0.37920 0.22870 0.12080 0.03600
C 	C 	0.86472 0.30006 0.86472 0.04700
H 	H 	0.87920 0.27130 0.87920 0.06100
C 	C 	0.86472 0.80006 0.36472 0.04900
H 	H 	0.87920 0.77130 0.37920 0.05700
C 	C 	0.36472 0.30006 0.36472 0.06200
H 	H 	0.37920 0.27130 0.37920 0.04400
C 	C 	0.36472 0.80006 0.86472 0.04900
H 	H 	0.37920 0.77130 0.87920 0.05700
C 	C 	0.13528 0.69994 0.86472 0.05500
H 	H 	0.12080 0.72870 0.87920 0.05000
C 	C 	0.13528 0.19994 0.36472 0.06700
H 	H 	0.12080 0.22870 0.37920 0.03600
C 	C 	0.63528 0.69994 0.36472 0.05700
H 	H 	0.62080 0.72870 0.37920 0.04900
C 	C 	0.63528 0.19994 0.86472 0.05500
H 	H 	0.62080 0.22870 0.87920 0.05300
C 	C 	0.13528 0.13528 0.30006 0.06900
H 	H 	0.12080 0.12080 0.27130 0.03000
C 	C 	0.13528 0.63528 0.80006 0.05800
H 	H 	0.12080 0.62080 0.77130 0.04200
C 	C 	0.63528 0.13528 0.80006 0.05800
H 	H 	0.62080 0.12080 0.77130 0.04200
C 	C 	0.63528 0.63528 0.30006 0.05800
H 	H 	0.62080 0.62080 0.27130 0.04500
C 	C 	0.13528 0.86472 0.69994 0.05500
H 	H 	0.12080 0.87920 0.72870 0.05000
C 	C 	0.13528 0.36472 0.19994 0.06700
H 	H 	0.12080 0.37920 0.22870 0.03600
C 	C 	0.63528 0.86472 0.19994 0.05500
H 	H 	0.62080 0.87920 0.22870 0.05300
C 	C 	0.63528 0.36472 0.69994 0.05700
H 	H 	0.62080 0.37920 0.72870 0.04900
C 	C 	0.86472 0.86472 0.30006 0.04700
H 	H 	0.87920 0.87920 0.27130 0.06100
C 	C 	0.86472 0.36472 0.80006 0.04900
H 	H 	0.87920 0.37920 0.77130 0.05700
C 	C 	0.36472 0.86472 0.80006 0.04900
H 	H 	0.37920 0.87920 0.77130 0.05700
C 	C 	0.36472 0.36472 0.30006 0.06200
H 	H 	0.37920 0.37920 0.27130 0.04400
C 	C 	0.86472 0.13528 0.69994 0.05500
H 	H 	0.87920 0.12080 0.72870 0.05000
C 	C 	0.86472 0.63528 0.19994 0.05500
H 	H 	0.87920 0.62080 0.22870 0.05300
C 	C 	0.36472 0.13528 0.19994 0.06700
H 	H 	0.37920 0.12080 0.22870 0.03600
C 	C 	0.36472 0.63528 0.69994 0.05700
H 	H 	0.37920 0.62080 0.72870 0.04900
C 	C 	0.30006 0.13528 0.13528 0.06900
H 	H 	0.27130 0.12080 0.12080 0.03000
C 	C 	0.30006 0.63528 0.63528 0.05800
H 	H 	0.27130 0.62080 0.62080 0.04500
C 	C 	0.80006 0.13528 0.63528 0.05800
H 	H 	0.77130 0.12080 0.62080 0.04200
C 	C 	0.80006 0.63528 0.13528 0.05800
H 	H 	0.77130 0.62080 0.12080 0.04200
C 	C 	0.69994 0.13528 0.86472 0.05500
H 	H 	0.72870 0.12080 0.87920 0.05000
C 	C 	0.69994 0.63528 0.36472 0.05700
H 	H 	0.72870 0.62080 0.37920 0.04900
C 	C 	0.19994 0.13528 0.36472 0.06700
H 	H 	0.22870 0.12080 0.37920 0.03600
C 	C 	0.19994 0.63528 0.86472 0.05500
H 	H 	0.22870 0.62080 0.87920 0.05300
C 	C 	0.30006 0.86472 0.86472 0.04700
H 	H 	0.27130 0.87920 0.87920 0.06100
C 	C 	0.30006 0.36472 0.36472 0.06200
H 	H 	0.27130 0.37920 0.37920 0.04400
C 	C 	0.80006 0.86472 0.36472 0.04900
H 	H 	0.77130 0.87920 0.37920 0.05700
C 	C 	0.80006 0.36472 0.86472 0.04900
H 	H 	0.77130 0.37920 0.87920 0.05700
C 	C 	0.69994 0.86472 0.13528 0.05500
H 	H 	0.72870 0.87920 0.12080 0.05000
C 	C 	0.69994 0.36472 0.63528 0.05700
H 	H 	0.72870 0.37920 0.62080 0.04900
C 	C 	0.19994 0.86472 0.63528 0.05500
H 	H 	0.22870 0.87920 0.62080 0.05300
C 	C 	0.19994 0.36472 0.13528 0.06700
H 	H 	0.22870 0.37920 0.12080 0.03600
C 	C 	0.30006 0.13528 0.86472 0.05800
H 	H 	0.27130 0.12080 0.87920 0.04600
C 	C 	0.30006 0.63528 0.36472 0.06000
H 	H 	0.27130 0.62080 0.37920 0.04400
C 	C 	0.80006 0.13528 0.36472 0.05900
H 	H 	0.77130 0.12080 0.37920 0.04100
C 	C 	0.80006 0.63528 0.86472 0.04700
H 	H 	0.77130 0.62080 0.87920 0.05800
C 	C 	0.69994 0.86472 0.86472 0.04500
H 	H 	0.72870 0.87920 0.87920 0.06500
C 	C 	0.69994 0.36472 0.36472 0.05900
H 	H 	0.72870 0.37920 0.37920 0.04800
C 	C 	0.19994 0.86472 0.36472 0.05700
H 	H 	0.22870 0.87920 0.37920 0.05200
C 	C 	0.19994 0.36472 0.86472 0.05700
H 	H 	0.22870 0.37920 0.87920 0.05200
C 	C 	0.30006 0.86472 0.13528 0.05800
H 	H 	0.27130 0.87920 0.12080 0.04600
C 	C 	0.30006 0.36472 0.63528 0.06000
H 	H 	0.27130 0.37920 0.62080 0.04400
C 	C 	0.80006 0.86472 0.63528 0.04700
H 	H 	0.77130 0.87920 0.62080 0.05800
C 	C 	0.80006 0.36472 0.13528 0.05900
H 	H 	0.77130 0.37920 0.12080 0.04100
C 	C 	0.69994 0.13528 0.13528 0.06600
H 	H 	0.72870 0.12080 0.12080 0.03400
C 	C 	0.69994 0.63528 0.63528 0.05600
H 	H 	0.72870 0.62080 0.62080 0.04900
C 	C 	0.19994 0.13528 0.63528 0.06500
H 	H 	0.22870 0.12080 0.62080 0.03700
C 	C 	0.19994 0.63528 0.13528 0.06500
H 	H 	0.22870 0.62080 0.12080 0.03700
C 	C 	0.13528 0.13528 0.69994 0.06600
H 	H 	0.12080 0.12080 0.72870 0.03400
C 	C 	0.13528 0.63528 0.19994 0.06500
H 	H 	0.12080 0.62080 0.22870 0.03700
C 	C 	0.63528 0.13528 0.19994 0.06500
H 	H 	0.62080 0.12080 0.22870 0.03700
C 	C 	0.63528 0.63528 0.69994 0.05600
H 	H 	0.62080 0.62080 0.72870 0.04900
C 	C 	0.86472 0.13528 0.30006 0.05800
H 	H 	0.87920 0.12080 0.27130 0.04600
C 	C 	0.86472 0.63528 0.80006 0.04700
H 	H 	0.87920 0.62080 0.77130 0.05800
C 	C 	0.36472 0.13528 0.80006 0.05900
H 	H 	0.37920 0.12080 0.77130 0.04100
C 	C 	0.36472 0.63528 0.30006 0.06000
H 	H 	0.37920 0.62080 0.27130 0.04400
C 	C 	0.86472 0.86472 0.69994 0.04500
H 	H 	0.87920 0.87920 0.72870 0.06500
C 	C 	0.86472 0.36472 0.19994 0.05700
H 	H 	0.87920 0.37920 0.22870 0.05200
C 	C 	0.36472 0.86472 0.19994 0.05700
H 	H 	0.37920 0.87920 0.22870 0.05200
C 	C 	0.36472 0.36472 0.69994 0.05900
H 	H 	0.37920 0.37920 0.72870 0.04800
C 	C 	0.13528 0.86472 0.30006 0.05800
H 	H 	0.12080 0.87920 0.27130 0.04600
C 	C 	0.13528 0.36472 0.80006 0.05900
H 	H 	0.12080 0.37920 0.77130 0.04100
C 	C 	0.63528 0.86472 0.80006 0.04700
H 	H 	0.62080 0.87920 0.77130 0.05800
C 	C 	0.63528 0.36472 0.30006 0.06000
H 	H 	0.62080 0.37920 0.27130 0.04400
C 	C 	0.13528 0.30006 0.86472 0.05800
H 	H 	0.12080 0.27130 0.87920 0.04600
C 	C 	0.13528 0.80006 0.36472 0.05900
H 	H 	0.12080 0.77130 0.37920 0.04100
C 	C 	0.63528 0.30006 0.36472 0.06000
H 	H 	0.62080 0.27130 0.37920 0.04400
C 	C 	0.63528 0.80006 0.86472 0.04700
H 	H 	0.62080 0.77130 0.87920 0.05800
C 	C 	0.13528 0.69994 0.13528 0.06600
H 	H 	0.12080 0.72870 0.12080 0.03400
C 	C 	0.13528 0.19994 0.63528 0.06500
H 	H 	0.12080 0.22870 0.62080 0.03700
C 	C 	0.63528 0.69994 0.63528 0.05600
H 	H 	0.62080 0.72870 0.62080 0.04900
C 	C 	0.63528 0.19994 0.13528 0.06500
H 	H 	0.62080 0.22870 0.12080 0.03700
C 	C 	0.86472 0.30006 0.13528 0.05800
H 	H 	0.87920 0.27130 0.12080 0.04600
C 	C 	0.86472 0.80006 0.63528 0.04700
H 	H 	0.87920 0.77130 0.62080 0.05800
C 	C 	0.36472 0.30006 0.63528 0.06000
H 	H 	0.37920 0.27130 0.62080 0.04400
C 	C 	0.36472 0.80006 0.13528 0.05900
H 	H 	0.37920 0.77130 0.12080 0.04100
C 	C 	0.86472 0.69994 0.86472 0.04500
H 	H 	0.87920 0.72870 0.87920 0.06500
C 	C 	0.86472 0.19994 0.36472 0.05700
H 	H 	0.87920 0.22870 0.37920 0.05200
C 	C 	0.36472 0.69994 0.36472 0.05900
H 	H 	0.37920 0.72870 0.37920 0.04800
C 	C 	0.36472 0.19994 0.86472 0.05700
H 	H 	0.37920 0.22870 0.87920 0.05200
