data_crystal

_cell_length_a 8.99780
_cell_length_b 9.46380
_cell_length_c 10.43300
_cell_angle_alpha 90.00000
_cell_angle_beta  90.00000
_cell_angle_gamma 90.00000

_symmetry_space_group_name_	'P 1'
_symmetry_space_group_name_H-M	'P 1'

loop_
_symmetry_equiv_pos_as_xyz
  x,y,z

loop_
_atom_site_label
_atom_site_type_symbol
_atom_site_fract_x
_atom_site_fract_y
_atom_site_fract_z
_atom_site_charge
Co	Co	0.70432 0.05272 0.73099 1.18500
O 	O 	0.53970 0.91550 0.67950 -0.46000
O 	O 	0.41510 0.71650 0.68480 -0.44800
O 	O 	0.15250 0.34720 0.44310 -0.38700
O 	O 	0.28050 0.47950 0.58110 -0.41300
N 	N 	0.12810 0.38560 0.77700 -0.17900
N 	N 	0.89870 0.18830 0.74770 -0.20000
C 	C 	0.50570 0.80140 0.72590 0.54900
H 	H 	0.55430 0.77630 0.80120 -0.14600
C 	C 	0.18340 0.39050 0.55270 0.34600
C 	C 	0.09620 0.33320 0.66380 -0.05200
C 	C 	0.97770 0.23540 0.64690 0.05100
H 	H 	0.95450 0.20350 0.56500 0.03200
C 	C 	0.93710 0.24150 0.86290 0.02700
H 	H 	0.88340 0.21310 0.93460 0.03500
C 	C 	0.05210 0.33590 0.87940 -0.00100
H 	H 	0.07760 0.36570 0.96150 0.05600
Co	Co	0.79568 0.94728 0.23099 1.18700
O 	O 	0.96030 0.08450 0.17950 -0.45800
O 	O 	0.08490 0.28350 0.18480 -0.44700
O 	O 	0.34750 0.65280 0.94310 -0.38600
O 	O 	0.21950 0.52050 0.08110 -0.41200
N 	N 	0.37190 0.61440 0.27700 -0.17900
N 	N 	0.60130 0.81170 0.24770 -0.20000
C 	C 	0.99430 0.19860 0.22590 0.54900
H 	H 	0.94570 0.22370 0.30120 -0.14700
C 	C 	0.31660 0.60950 0.05270 0.34400
C 	C 	0.40380 0.66680 0.16380 -0.05300
C 	C 	0.52230 0.76460 0.14690 0.05100
H 	H 	0.54550 0.79650 0.06500 0.03100
C 	C 	0.56290 0.75850 0.36290 0.02800
H 	H 	0.61660 0.78690 0.43460 0.03600
C 	C 	0.44790 0.66410 0.37940 -0.00200
H 	H 	0.42240 0.63430 0.46150 0.05700
Co	Co	0.29568 0.55272 0.76901 1.18800
O 	O 	0.46030 0.41550 0.82050 -0.46100
O 	O 	0.58490 0.21650 0.81520 -0.44900
O 	O 	0.84750 0.84720 0.05690 -0.39000
O 	O 	0.71950 0.97950 0.91890 -0.41100
N 	N 	0.87190 0.88560 0.72300 -0.17800
N 	N 	0.10130 0.68830 0.75230 -0.19900
C 	C 	0.49430 0.30140 0.77410 0.55000
H 	H 	0.44570 0.27630 0.69880 -0.14700
C 	C 	0.81660 0.89050 0.94730 0.35000
C 	C 	0.90380 0.83320 0.83620 -0.05300
C 	C 	0.02230 0.73540 0.85310 0.05100
H 	H 	0.04550 0.70350 0.93500 0.03200
C 	C 	0.06290 0.74150 0.63710 0.02700
H 	H 	0.11660 0.71310 0.56540 0.03600
C 	C 	0.94790 0.83590 0.62060 -0.00000
H 	H 	0.92240 0.86570 0.53850 0.05700
Co	Co	0.20432 0.44728 0.26901 1.18800
O 	O 	0.03970 0.58450 0.32050 -0.46000
O 	O 	0.91510 0.78350 0.31520 -0.44700
O 	O 	0.65250 0.15280 0.55690 -0.38700
O 	O 	0.78050 0.02050 0.41890 -0.41200
N 	N 	0.62810 0.11440 0.22300 -0.17800
N 	N 	0.39870 0.31170 0.25230 -0.20000
C 	C 	0.00570 0.69860 0.27410 0.54800
H 	H 	0.05430 0.72370 0.19880 -0.14700
C 	C 	0.68340 0.10950 0.44730 0.34600
C 	C 	0.59620 0.16680 0.33620 -0.05300
C 	C 	0.47770 0.26460 0.35310 0.05200
H 	H 	0.45450 0.29650 0.43500 0.03200
C 	C 	0.43710 0.25850 0.13710 0.02800
H 	H 	0.38340 0.28690 0.06540 0.03600
C 	C 	0.55210 0.16410 0.12060 -0.00100
H 	H 	0.57760 0.13430 0.03850 0.05800
