data_crystal

_cell_length_a 11.00200
_cell_length_b 22.15470
_cell_length_c 16.99570
_cell_angle_alpha 90.00000
_cell_angle_beta  100.69700
_cell_angle_gamma 90.00000

_symmetry_space_group_name_	'P 1'
_symmetry_space_group_name_H-M	'P 1'

loop_
_symmetry_equiv_pos_as_xyz
  x,y,z

loop_
_atom_site_label
_atom_site_type_symbol
_atom_site_fract_x
_atom_site_fract_y
_atom_site_fract_z
_atom_site_charge
Co	Co	0.14436 0.55740 0.53059 1.17200
O 	O 	0.00072 0.59090 0.45246 -0.45400
O 	O 	0.21400 0.85308 0.06017 -0.36400
O 	O 	0.32640 0.92857 0.11576 -0.34600
O 	O 	0.83740 0.53315 0.46079 -0.46500
N 	N 	0.24420 0.55154 0.43341 -0.21900
N 	N 	0.05290 0.55536 0.63222 -0.22600
N 	N 	0.44110 0.56201 0.18218 -0.22700
H 	H 	0.38280 0.58690 0.16360 0.13100
N 	N 	0.56030 0.49748 0.25744 -0.08200
N 	N 	0.61180 0.50443 0.19130 -0.09500
C 	C 	0.39990 0.82887 0.14920 -0.07600
N 	N 	0.83450 0.49663 0.93990 -0.09400
N 	N 	0.78110 0.56514 0.84844 -0.22800
H 	H 	0.74420 0.59450 0.82060 0.12900
C 	C 	0.30920 0.87251 0.10670 0.29500
C 	C 	0.41100 0.50414 0.38300 -0.13200
H 	H 	0.47640 0.47690 0.39110 0.09600
C 	C 	0.09970 0.51942 0.69390 0.07000
H 	H 	0.17340 0.49930 0.69210 0.01600
N 	N 	0.91320 0.48914 0.88730 -0.09000
C 	C 	0.45830 0.53298 0.25050 0.10600
C 	C 	0.38350 0.53810 0.31310 0.04700
C 	C 	0.94810 0.58442 0.63740 0.07200
H 	H 	0.91350 0.60970 0.59550 0.00600
C 	C 	0.88870 0.57878 0.70150 -0.11700
H 	H 	0.81660 0.60030 0.70290 0.07100
C 	C 	0.28510 0.57812 0.30490 -0.12500
H 	H 	0.26390 0.60100 0.25850 0.07500
C 	C 	0.53600 0.54376 0.14770 0.14200
N 	N 	0.47990 0.62470 0.95250 -0.11200
C 	C 	0.33760 0.51239 0.44030 0.07600
H 	H 	0.35470 0.48910 0.48650 0.00700
C 	C 	0.64840 0.54230 0.03280 -0.00500
H 	H 	0.70350 0.51380 0.05910 0.05200
C 	C 	0.21870 0.58384 0.36600 0.07700
H 	H 	0.15370 0.61130 0.35990 0.01200
C 	C 	0.77810 0.70689 0.29560 -0.14100
H 	H 	0.81240 0.73680 0.26820 0.08300
C 	C 	0.88770 0.57861 0.43670 0.41300
C 	C 	0.80670 0.62226 0.38380 -0.15300
C 	C 	0.65030 0.70263 0.28640 0.07800
C 	C 	0.56600 0.74642 0.23670 0.01700
C 	C 	0.93760 0.54066 0.76420 0.04200
C 	C 	0.85530 0.66780 0.34430 0.08000
H 	H 	0.94060 0.67220 0.35050 0.01900
C 	C 	0.59600 0.80676 0.23570 -0.07800
H 	H 	0.67140 0.82020 0.26440 0.05200
C 	C 	0.04570 0.51049 0.75940 -0.11400
H 	H 	0.08140 0.48440 0.80010 0.08700
C 	C 	0.65980 0.56230 0.95770 -0.05800
C 	C 	0.60380 0.65760 0.32620 -0.13900
H 	H 	0.51840 0.65400 0.32100 0.08500
C 	C 	0.75650 0.54220 0.91570 0.14700
C 	C 	0.87590 0.53256 0.83380 0.11400
C 	C 	0.51410 0.84783 0.19190 0.00900
H 	H 	0.53600 0.88840 0.19110 0.04100
C 	C 	0.55550 0.56430 0.06880 -0.05300
C 	C 	0.37230 0.76741 0.14910 0.01000
H 	H 	0.29790 0.75360 0.11940 0.04500
C 	C 	0.67870 0.61710 0.37410 0.07900
H 	H 	0.64380 0.58640 0.39980 0.02000
C 	C 	0.57210 0.60280 0.92130 0.04900
H 	H 	0.57830 0.61580 0.87020 0.02700
C 	C 	0.45280 0.72704 0.19210 -0.07700
H 	H 	0.43200 0.68630 0.19160 0.05600
C 	C 	0.47410 0.60440 0.02610 0.04000
H 	H 	0.41000 0.61850 0.04990 0.02600
Co	Co	0.85564 0.05740 0.96941 1.16900
O 	O 	0.99928 0.09090 0.04754 -0.44900
O 	O 	0.78600 0.35308 0.43983 -0.36300
O 	O 	0.67360 0.42857 0.38424 -0.34600
O 	O 	0.16260 0.03315 0.03921 -0.46300
N 	N 	0.75580 0.05154 0.06659 -0.21900
N 	N 	0.94710 0.05536 0.86778 -0.22800
N 	N 	0.55890 0.06201 0.31782 -0.22700
H 	H 	0.61720 0.08690 0.33640 0.13100
N 	N 	0.43970 0.99748 0.24256 -0.08400
N 	N 	0.38820 0.00443 0.30870 -0.09400
C 	C 	0.60010 0.32887 0.35080 -0.07500
N 	N 	0.16550 0.99663 0.56010 -0.09300
N 	N 	0.21890 0.06514 0.65156 -0.22800
H 	H 	0.25580 0.09450 0.67940 0.12900
C 	C 	0.69080 0.37251 0.39330 0.29400
C 	C 	0.58900 0.00414 0.11700 -0.12800
H 	H 	0.52360 0.97690 0.10890 0.09300
C 	C 	0.90030 0.01942 0.80610 0.06800
H 	H 	0.82660 0.99930 0.80790 0.01700
N 	N 	0.08680 0.98914 0.61270 -0.08800
C 	C 	0.54170 0.03298 0.24950 0.10900
C 	C 	0.61650 0.03810 0.18690 0.04500
C 	C 	0.05190 0.08442 0.86260 0.07400
H 	H 	0.08650 0.10970 0.90450 0.00500
C 	C 	0.11130 0.07878 0.79850 -0.12000
H 	H 	0.18340 0.10030 0.79710 0.07200
C 	C 	0.71490 0.07812 0.19510 -0.12300
H 	H 	0.73610 0.10100 0.24150 0.07500
C 	C 	0.46400 0.04376 0.35230 0.14200
N 	N 	0.52010 0.12470 0.54750 -0.11300
C 	C 	0.66240 0.01239 0.05970 0.08200
H 	H 	0.64530 0.98910 0.01350 0.00300
C 	C 	0.35160 0.04230 0.46720 -0.00500
H 	H 	0.29650 0.01380 0.44090 0.05200
C 	C 	0.78130 0.08384 0.13400 0.07700
H 	H 	0.84630 0.11130 0.14010 0.01300
C 	C 	0.22190 0.20689 0.20440 -0.14000
H 	H 	0.18760 0.23680 0.23180 0.08200
C 	C 	0.11230 0.07861 0.06330 0.40800
C 	C 	0.19330 0.12226 0.11620 -0.15100
C 	C 	0.34970 0.20263 0.21360 0.07700
C 	C 	0.43400 0.24642 0.26330 0.01700
C 	C 	0.06240 0.04066 0.73580 0.04500
C 	C 	0.14470 0.16780 0.15570 0.07800
H 	H 	0.05940 0.17220 0.14950 0.01900
C 	C 	0.40400 0.30676 0.26430 -0.07800
H 	H 	0.32860 0.32020 0.23560 0.05200
C 	C 	0.95430 0.01049 0.74060 -0.11700
H 	H 	0.91860 0.98440 0.69990 0.08700
C 	C 	0.34020 0.06230 0.54230 -0.05700
C 	C 	0.39620 0.15760 0.17380 -0.13700
H 	H 	0.48160 0.15400 0.17900 0.08400
C 	C 	0.24350 0.04220 0.58430 0.14500
C 	C 	0.12410 0.03256 0.66620 0.11100
C 	C 	0.48590 0.34783 0.30810 0.00800
H 	H 	0.46400 0.38840 0.30890 0.04100
C 	C 	0.44450 0.06430 0.43120 -0.05300
C 	C 	0.62770 0.26741 0.35090 0.01000
H 	H 	0.70210 0.25360 0.38060 0.04600
C 	C 	0.32130 0.11710 0.12590 0.07700
H 	H 	0.35620 0.08640 0.10020 0.02200
C 	C 	0.42790 0.10280 0.57870 0.04800
H 	H 	0.42170 0.11580 0.62980 0.02700
C 	C 	0.54720 0.22704 0.30790 -0.07700
H 	H 	0.56800 0.18630 0.30840 0.05600
C 	C 	0.52590 0.10440 0.47390 0.04100
H 	H 	0.59000 0.11850 0.45010 0.02600
Co	Co	0.85564 0.44260 0.46941 1.17100
O 	O 	0.99928 0.40910 0.54754 -0.45500
O 	O 	0.78600 0.14692 0.93983 -0.36500
O 	O 	0.67360 0.07143 0.88424 -0.34700
O 	O 	0.16260 0.46685 0.53921 -0.46500
N 	N 	0.75580 0.44846 0.56659 -0.21900
N 	N 	0.94710 0.44464 0.36778 -0.22600
N 	N 	0.55890 0.43799 0.81782 -0.22700
H 	H 	0.61720 0.41310 0.83640 0.13100
N 	N 	0.43970 0.50252 0.74256 -0.08200
N 	N 	0.38820 0.49557 0.80870 -0.09500
C 	C 	0.60010 0.17113 0.85080 -0.07600
N 	N 	0.16550 0.50337 0.06010 -0.09400
N 	N 	0.21890 0.43486 0.15156 -0.22800
H 	H 	0.25580 0.40550 0.17940 0.12900
C 	C 	0.69080 0.12749 0.89330 0.29500
C 	C 	0.58900 0.49586 0.61700 -0.13200
H 	H 	0.52360 0.52310 0.60890 0.09600
C 	C 	0.90030 0.48058 0.30610 0.07000
H 	H 	0.82660 0.50070 0.30790 0.01600
N 	N 	0.08680 0.51086 0.11270 -0.09000
C 	C 	0.54170 0.46702 0.74950 0.10600
C 	C 	0.61650 0.46190 0.68690 0.04700
C 	C 	0.05190 0.41558 0.36260 0.07200
H 	H 	0.08650 0.39030 0.40450 0.00600
C 	C 	0.11130 0.42122 0.29850 -0.11700
H 	H 	0.18340 0.39970 0.29710 0.07100
C 	C 	0.71490 0.42188 0.69510 -0.12500
H 	H 	0.73610 0.39900 0.74150 0.07500
C 	C 	0.46400 0.45624 0.85230 0.14200
N 	N 	0.52010 0.37530 0.04750 -0.11200
C 	C 	0.66240 0.48761 0.55970 0.07600
H 	H 	0.64530 0.51090 0.51350 0.00700
C 	C 	0.35160 0.45770 0.96720 -0.00500
H 	H 	0.29650 0.48620 0.94090 0.05200
C 	C 	0.78130 0.41616 0.63400 0.07700
H 	H 	0.84630 0.38870 0.64010 0.01200
C 	C 	0.22190 0.29311 0.70440 -0.14100
H 	H 	0.18760 0.26320 0.73180 0.08300
C 	C 	0.11230 0.42139 0.56330 0.41300
C 	C 	0.19330 0.37774 0.61620 -0.15300
C 	C 	0.34970 0.29737 0.71360 0.07800
C 	C 	0.43400 0.25358 0.76330 0.01700
C 	C 	0.06240 0.45934 0.23580 0.04200
C 	C 	0.14470 0.33220 0.65570 0.08000
H 	H 	0.05940 0.32780 0.64950 0.01900
C 	C 	0.40400 0.19324 0.76430 -0.07800
H 	H 	0.32860 0.17980 0.73560 0.05200
C 	C 	0.95430 0.48951 0.24060 -0.11400
H 	H 	0.91860 0.51560 0.19990 0.08700
C 	C 	0.34020 0.43770 0.04230 -0.05800
C 	C 	0.39620 0.34240 0.67380 -0.13900
H 	H 	0.48160 0.34600 0.67900 0.08500
C 	C 	0.24350 0.45780 0.08430 0.14700
C 	C 	0.12410 0.46744 0.16620 0.11400
C 	C 	0.48590 0.15217 0.80810 0.00900
H 	H 	0.46400 0.11160 0.80890 0.04100
C 	C 	0.44450 0.43570 0.93120 -0.05300
C 	C 	0.62770 0.23259 0.85090 0.01000
H 	H 	0.70210 0.24640 0.88060 0.04500
C 	C 	0.32130 0.38290 0.62590 0.07900
H 	H 	0.35620 0.41360 0.60020 0.02000
C 	C 	0.42790 0.39720 0.07870 0.04900
H 	H 	0.42170 0.38420 0.12980 0.02700
C 	C 	0.54720 0.27296 0.80790 -0.07700
H 	H 	0.56800 0.31370 0.80840 0.05600
C 	C 	0.52590 0.39560 0.97390 0.04000
H 	H 	0.59000 0.38150 0.95010 0.02600
Co	Co	0.14436 0.94260 0.03059 1.16900
O 	O 	0.00072 0.90910 0.95246 -0.44900
O 	O 	0.21400 0.64692 0.56017 -0.36300
O 	O 	0.32640 0.57143 0.61576 -0.34600
O 	O 	0.83740 0.96685 0.96079 -0.46300
N 	N 	0.24420 0.94846 0.93341 -0.21900
N 	N 	0.05290 0.94464 0.13222 -0.22800
N 	N 	0.44110 0.93799 0.68218 -0.22700
H 	H 	0.38280 0.91310 0.66360 0.13100
N 	N 	0.56030 0.00252 0.75744 -0.08400
N 	N 	0.61180 0.99557 0.69130 -0.09400
C 	C 	0.39990 0.67113 0.64920 -0.07500
N 	N 	0.83450 0.00337 0.43990 -0.09300
N 	N 	0.78110 0.93486 0.34844 -0.22800
H 	H 	0.74420 0.90550 0.32060 0.12900
C 	C 	0.30920 0.62749 0.60670 0.29400
C 	C 	0.41100 0.99586 0.88300 -0.12800
H 	H 	0.47640 0.02310 0.89110 0.09300
C 	C 	0.09970 0.98058 0.19390 0.06800
H 	H 	0.17340 0.00070 0.19210 0.01700
N 	N 	0.91320 0.01086 0.38730 -0.08800
C 	C 	0.45830 0.96702 0.75050 0.10900
C 	C 	0.38350 0.96190 0.81310 0.04500
C 	C 	0.94810 0.91558 0.13740 0.07400
H 	H 	0.91350 0.89030 0.09550 0.00500
C 	C 	0.88870 0.92122 0.20150 -0.12000
H 	H 	0.81660 0.89970 0.20290 0.07200
C 	C 	0.28510 0.92188 0.80490 -0.12300
H 	H 	0.26390 0.89900 0.75850 0.07500
C 	C 	0.53600 0.95624 0.64770 0.14200
N 	N 	0.47990 0.87530 0.45250 -0.11300
C 	C 	0.33760 0.98761 0.94030 0.08200
H 	H 	0.35470 0.01090 0.98650 0.00300
C 	C 	0.64840 0.95770 0.53280 -0.00500
H 	H 	0.70350 0.98620 0.55910 0.05200
C 	C 	0.21870 0.91616 0.86600 0.07700
H 	H 	0.15370 0.88870 0.85990 0.01300
C 	C 	0.77810 0.79311 0.79560 -0.14000
H 	H 	0.81240 0.76320 0.76820 0.08200
C 	C 	0.88770 0.92139 0.93670 0.40800
C 	C 	0.80670 0.87774 0.88380 -0.15100
C 	C 	0.65030 0.79737 0.78640 0.07700
C 	C 	0.56600 0.75358 0.73670 0.01700
C 	C 	0.93760 0.95934 0.26420 0.04500
C 	C 	0.85530 0.83220 0.84430 0.07800
H 	H 	0.94060 0.82780 0.85050 0.01900
C 	C 	0.59600 0.69324 0.73570 -0.07800
H 	H 	0.67140 0.67980 0.76440 0.05200
C 	C 	0.04570 0.98951 0.25940 -0.11700
H 	H 	0.08140 0.01560 0.30010 0.08700
C 	C 	0.65980 0.93770 0.45770 -0.05700
C 	C 	0.60380 0.84240 0.82620 -0.13700
H 	H 	0.51840 0.84600 0.82100 0.08400
C 	C 	0.75650 0.95780 0.41570 0.14500
C 	C 	0.87590 0.96744 0.33380 0.11100
C 	C 	0.51410 0.65217 0.69190 0.00800
H 	H 	0.53600 0.61160 0.69110 0.04100
C 	C 	0.55550 0.93570 0.56880 -0.05300
C 	C 	0.37230 0.73259 0.64910 0.01000
H 	H 	0.29790 0.74640 0.61940 0.04600
C 	C 	0.67870 0.88290 0.87410 0.07700
H 	H 	0.64380 0.91360 0.89980 0.02200
C 	C 	0.57210 0.89720 0.42130 0.04800
H 	H 	0.57830 0.88420 0.37020 0.02700
C 	C 	0.45280 0.77296 0.69210 -0.07700
H 	H 	0.43200 0.81370 0.69160 0.05600
C 	C 	0.47410 0.89560 0.52610 0.04100
H 	H 	0.41000 0.88150 0.54990 0.02600
