data_crystal

_cell_length_a 25.46600
_cell_length_b 14.96100
_cell_length_c 26.14000
_cell_angle_alpha 90.00000
_cell_angle_beta  94.84200
_cell_angle_gamma 90.00000

_symmetry_space_group_name_	'P 1'
_symmetry_space_group_name_H-M	'P 1'

loop_
_symmetry_equiv_pos_as_xyz
  x,y,z

loop_
_atom_site_label
_atom_site_type_symbol
_atom_site_fract_x
_atom_site_fract_y
_atom_site_fract_z
_atom_site_charge
Gd	Gd	0.34824 0.26371 0.00658 1.34500
C 	C 	0.24320 0.31970 0.92010 0.41500
C 	C 	0.25550 0.35150 0.86830 -0.06800
C 	C 	0.22010 0.33870 0.82520 -0.04200
H 	H 	0.18780 0.31140 0.82890 0.08700
C 	C 	0.23220 0.36590 0.77730 0.09400
C 	C 	0.27800 0.41240 0.76850 0.01300
C 	C 	0.31210 0.42490 0.81250 0.08200
C 	C 	0.30390 0.39430 0.86160 -0.03600
H 	H 	0.32940 0.40180 0.88890 0.06700
C 	C 	0.29180 0.44130 0.71560 -0.01200
C 	C 	0.27380 0.52450 0.69460 0.11900
C 	C 	0.28730 0.55580 0.64880 -0.09500
H 	H 	0.27540 0.61160 0.63710 0.10600
C 	C 	0.31820 0.50610 0.61980 0.01100
C 	C 	0.33710 0.42330 0.63860 -0.09400
H 	H 	0.35890 0.38900 0.61960 0.12000
C 	C 	0.32320 0.39320 0.68550 0.11900
C 	C 	0.33470 0.53840 0.56790 0.31600
C 	C 	0.36910 0.18250 0.88740 0.35300
C 	C 	0.40780 0.19130 0.84590 -0.00500
C 	C 	0.40420 0.13610 0.80430 -0.08000
H 	H 	0.37800 0.09270 0.80100 0.12000
C 	C 	0.43930 0.14420 0.76680 0.11400
C 	C 	0.48010 0.20650 0.76960 -0.00100
C 	C 	0.48250 0.26270 0.81310 0.11200
C 	C 	0.44700 0.25550 0.85070 -0.07300
H 	H 	0.44970 0.29370 0.87890 0.09500
N 	N 	0.36270 0.47200 0.80820 -0.00400
N 	N 	0.19270 0.34490 0.73470 -0.00500
N 	N 	0.23980 0.58180 0.72410 -0.00900
N 	N 	0.34320 0.30110 0.70080 -0.00300
N 	N 	0.52480 0.32860 0.82280 -0.00500
N 	N 	0.43170 0.08490 0.72200 -0.00800
O 	O 	0.27780 0.32010 0.95550 -0.44600
O 	O 	0.19580 0.29190 0.92370 -0.42100
O 	O 	0.40100 0.44710 0.83700 -0.09500
O 	O 	0.36330 0.53360 0.77810 -0.07900
O 	O 	0.14860 0.32070 0.74390 -0.08000
O 	O 	0.20650 0.34540 0.69010 -0.07900
O 	O 	0.34630 0.28750 0.74670 -0.08200
O 	O 	0.35630 0.25080 0.66820 -0.07400
O 	O 	0.20460 0.54620 0.74450 -0.08100
O 	O 	0.25130 0.66240 0.72550 -0.08100
O 	O 	0.36870 0.49230 0.54860 -0.25000
O 	O 	0.31430 0.60880 0.55060 -0.37200
O 	O 	0.37820 0.23040 0.92600 -0.42700
O 	O 	0.33210 0.12980 0.87900 -0.25800
O 	O 	0.53420 0.35690 0.86520 -0.09500
O 	O 	0.54840 0.35260 0.78590 -0.06900
O 	O 	0.41210 0.01210 0.72980 -0.08100
O 	O 	0.44310 0.11160 0.68020 -0.08600
Gd	Gd	0.84824 0.76371 0.00658 1.34500
C 	C 	0.74320 0.81970 0.92010 0.41600
C 	C 	0.75550 0.85150 0.86830 -0.06700
C 	C 	0.72010 0.83870 0.82520 -0.04100
H 	H 	0.68780 0.81140 0.82890 0.08800
C 	C 	0.73220 0.86590 0.77730 0.09500
C 	C 	0.77800 0.91240 0.76850 0.01400
C 	C 	0.81210 0.92490 0.81250 0.08300
C 	C 	0.80390 0.89430 0.86160 -0.03500
H 	H 	0.82940 0.90180 0.88890 0.06800
C 	C 	0.79180 0.94130 0.71560 -0.01100
C 	C 	0.77380 0.02450 0.69460 0.11800
C 	C 	0.78730 0.05580 0.64880 -0.09500
H 	H 	0.77540 0.11160 0.63710 0.10500
C 	C 	0.81820 0.00610 0.61980 0.01000
C 	C 	0.83710 0.92330 0.63860 -0.09300
H 	H 	0.85890 0.88900 0.61960 0.12000
C 	C 	0.82320 0.89320 0.68550 0.11900
C 	C 	0.83470 0.03840 0.56790 0.31600
C 	C 	0.86910 0.68250 0.88740 0.35200
C 	C 	0.90780 0.69130 0.84590 -0.00400
C 	C 	0.90420 0.63610 0.80430 -0.08000
H 	H 	0.87800 0.59270 0.80100 0.12100
C 	C 	0.93930 0.64420 0.76680 0.11400
C 	C 	0.98010 0.70650 0.76960 -0.00000
C 	C 	0.98250 0.76270 0.81310 0.11200
C 	C 	0.94700 0.75550 0.85070 -0.07300
H 	H 	0.94970 0.79370 0.87890 0.09500
N 	N 	0.86270 0.97200 0.80820 -0.00400
N 	N 	0.69270 0.84490 0.73470 -0.00500
N 	N 	0.73980 0.08180 0.72410 -0.00900
N 	N 	0.84320 0.80110 0.70080 -0.00300
N 	N 	0.02480 0.82860 0.82280 -0.00500
N 	N 	0.93170 0.58490 0.72200 -0.00800
O 	O 	0.77780 0.82010 0.95550 -0.44600
O 	O 	0.69580 0.79190 0.92370 -0.42100
O 	O 	0.90100 0.94710 0.83700 -0.09400
O 	O 	0.86330 0.03360 0.77810 -0.07900
O 	O 	0.64860 0.82070 0.74390 -0.08000
O 	O 	0.70650 0.84540 0.69010 -0.07900
O 	O 	0.84630 0.78750 0.74670 -0.08200
O 	O 	0.85630 0.75080 0.66820 -0.07400
O 	O 	0.70460 0.04620 0.74450 -0.08100
O 	O 	0.75130 0.16240 0.72550 -0.08100
O 	O 	0.86870 0.99230 0.54860 -0.25000
O 	O 	0.81430 0.10880 0.55060 -0.37200
O 	O 	0.87820 0.73040 0.92600 -0.42700
O 	O 	0.83210 0.62980 0.87900 -0.25800
O 	O 	0.03420 0.85690 0.86520 -0.09500
O 	O 	0.04840 0.85260 0.78590 -0.06900
O 	O 	0.91210 0.51210 0.72980 -0.08100
O 	O 	0.94310 0.61160 0.68020 -0.08600
Gd	Gd	0.65176 0.26371 0.49342 1.34400
C 	C 	0.75680 0.31970 0.57990 0.41600
C 	C 	0.74450 0.35150 0.63170 -0.06700
C 	C 	0.77990 0.33870 0.67480 -0.04100
H 	H 	0.81220 0.31140 0.67110 0.08800
C 	C 	0.76780 0.36590 0.72270 0.09500
C 	C 	0.72200 0.41240 0.73150 0.01400
C 	C 	0.68790 0.42490 0.68750 0.08300
C 	C 	0.69610 0.39430 0.63840 -0.03500
H 	H 	0.67060 0.40180 0.61110 0.06800
C 	C 	0.70820 0.44130 0.78440 -0.01200
C 	C 	0.72620 0.52450 0.80540 0.11900
C 	C 	0.71270 0.55580 0.85120 -0.09500
H 	H 	0.72460 0.61160 0.86290 0.10600
C 	C 	0.68180 0.50610 0.88020 0.01100
C 	C 	0.66290 0.42330 0.86140 -0.09400
H 	H 	0.64110 0.38900 0.88040 0.12000
C 	C 	0.67680 0.39320 0.81450 0.11900
C 	C 	0.66530 0.53840 0.93210 0.31600
C 	C 	0.63090 0.18250 0.61260 0.35200
C 	C 	0.59220 0.19130 0.65410 -0.00500
C 	C 	0.59580 0.13610 0.69570 -0.08000
H 	H 	0.62200 0.09270 0.69900 0.12000
C 	C 	0.56070 0.14420 0.73320 0.11400
C 	C 	0.51990 0.20650 0.73040 -0.00100
C 	C 	0.51750 0.26270 0.68690 0.11200
C 	C 	0.55300 0.25550 0.64930 -0.07300
H 	H 	0.55030 0.29370 0.62110 0.09500
N 	N 	0.63730 0.47200 0.69180 -0.00400
N 	N 	0.80730 0.34490 0.76530 -0.00500
N 	N 	0.76020 0.58180 0.77590 -0.00900
N 	N 	0.65680 0.30110 0.79920 -0.00300
N 	N 	0.47520 0.32860 0.67720 -0.00500
N 	N 	0.56830 0.08490 0.77800 -0.00800
O 	O 	0.72220 0.32010 0.54450 -0.44600
O 	O 	0.80420 0.29190 0.57630 -0.42100
O 	O 	0.59900 0.44710 0.66300 -0.09500
O 	O 	0.63670 0.53360 0.72190 -0.07900
O 	O 	0.85140 0.32070 0.75610 -0.08000
O 	O 	0.79350 0.34540 0.80990 -0.07900
O 	O 	0.65370 0.28750 0.75330 -0.08200
O 	O 	0.64370 0.25080 0.83180 -0.07400
O 	O 	0.79540 0.54620 0.75550 -0.08100
O 	O 	0.74870 0.66240 0.77450 -0.08100
O 	O 	0.63130 0.49230 0.95140 -0.24900
O 	O 	0.68570 0.60880 0.94940 -0.37200
O 	O 	0.62180 0.23040 0.57400 -0.42700
O 	O 	0.66790 0.12980 0.62100 -0.25800
O 	O 	0.46580 0.35690 0.63480 -0.09500
O 	O 	0.45160 0.35260 0.71410 -0.06900
O 	O 	0.58790 0.01210 0.77020 -0.08100
O 	O 	0.55690 0.11160 0.81980 -0.08600
Gd	Gd	0.15176 0.76371 0.49342 1.34400
C 	C 	0.25680 0.81970 0.57990 0.41600
C 	C 	0.24450 0.85150 0.63170 -0.06700
C 	C 	0.27990 0.83870 0.67480 -0.04100
H 	H 	0.31220 0.81140 0.67110 0.08800
C 	C 	0.26780 0.86590 0.72270 0.09500
C 	C 	0.22200 0.91240 0.73150 0.01400
C 	C 	0.18790 0.92490 0.68750 0.08300
C 	C 	0.19610 0.89430 0.63840 -0.03500
H 	H 	0.17060 0.90180 0.61110 0.06800
C 	C 	0.20820 0.94130 0.78440 -0.01100
C 	C 	0.22620 0.02450 0.80540 0.11800
C 	C 	0.21270 0.05580 0.85120 -0.09400
H 	H 	0.22460 0.11160 0.86290 0.10500
C 	C 	0.18180 0.00610 0.88020 0.01000
C 	C 	0.16290 0.92330 0.86140 -0.09300
H 	H 	0.14110 0.88900 0.88040 0.12000
C 	C 	0.17680 0.89320 0.81450 0.11900
C 	C 	0.16530 0.03840 0.93210 0.31500
C 	C 	0.13090 0.68250 0.61260 0.35200
C 	C 	0.09220 0.69130 0.65410 -0.00500
C 	C 	0.09580 0.63610 0.69570 -0.08000
H 	H 	0.12200 0.59270 0.69900 0.12100
C 	C 	0.06070 0.64420 0.73320 0.11400
C 	C 	0.01990 0.70650 0.73040 -0.00100
C 	C 	0.01750 0.76270 0.68690 0.11200
C 	C 	0.05300 0.75550 0.64930 -0.07300
H 	H 	0.05030 0.79370 0.62110 0.09500
N 	N 	0.13730 0.97200 0.69180 -0.00400
N 	N 	0.30730 0.84490 0.76530 -0.00500
N 	N 	0.26020 0.08180 0.77590 -0.00900
N 	N 	0.15680 0.80110 0.79920 -0.00300
N 	N 	0.97520 0.82860 0.67720 -0.00500
N 	N 	0.06830 0.58490 0.77800 -0.00800
O 	O 	0.22220 0.82010 0.54450 -0.44600
O 	O 	0.30420 0.79190 0.57630 -0.42100
O 	O 	0.09900 0.94710 0.66300 -0.09500
O 	O 	0.13670 0.03360 0.72190 -0.07900
O 	O 	0.35140 0.82070 0.75610 -0.08000
O 	O 	0.29350 0.84540 0.80990 -0.07900
O 	O 	0.15370 0.78750 0.75330 -0.08200
O 	O 	0.14370 0.75080 0.83180 -0.07400
O 	O 	0.29540 0.04620 0.75550 -0.08100
O 	O 	0.24870 0.16240 0.77450 -0.08100
O 	O 	0.13130 0.99230 0.95140 -0.24900
O 	O 	0.18570 0.10880 0.94940 -0.37200
O 	O 	0.12180 0.73040 0.57400 -0.42700
O 	O 	0.16790 0.62980 0.62100 -0.25800
O 	O 	0.96580 0.85690 0.63480 -0.09500
O 	O 	0.95160 0.85260 0.71410 -0.06900
O 	O 	0.08790 0.51210 0.77020 -0.08100
O 	O 	0.05690 0.61160 0.81980 -0.08600
Gd	Gd	0.65176 0.73629 0.99342 1.34600
C 	C 	0.75680 0.68030 0.07990 0.41600
C 	C 	0.74450 0.64850 0.13170 -0.06700
C 	C 	0.77990 0.66130 0.17480 -0.04100
H 	H 	0.81220 0.68860 0.17110 0.08800
C 	C 	0.76780 0.63410 0.22270 0.09500
C 	C 	0.72200 0.58760 0.23150 0.01400
C 	C 	0.68790 0.57510 0.18750 0.08300
C 	C 	0.69610 0.60570 0.13840 -0.03500
H 	H 	0.67060 0.59820 0.11110 0.06800
C 	C 	0.70820 0.55870 0.28440 -0.01200
C 	C 	0.72620 0.47550 0.30540 0.11900
C 	C 	0.71270 0.44420 0.35120 -0.09500
H 	H 	0.72460 0.38840 0.36290 0.10600
C 	C 	0.68180 0.49390 0.38020 0.01100
C 	C 	0.66290 0.57670 0.36140 -0.09400
H 	H 	0.64110 0.61100 0.38040 0.12000
C 	C 	0.67680 0.60680 0.31450 0.11900
C 	C 	0.66530 0.46160 0.43210 0.31600
C 	C 	0.63090 0.81750 0.11260 0.35300
C 	C 	0.59220 0.80870 0.15410 -0.00500
C 	C 	0.59580 0.86390 0.19570 -0.08000
H 	H 	0.62200 0.90730 0.19900 0.12000
C 	C 	0.56070 0.85580 0.23320 0.11400
C 	C 	0.51990 0.79350 0.23040 -0.00100
C 	C 	0.51750 0.73730 0.18690 0.11200
C 	C 	0.55300 0.74450 0.14930 -0.07300
H 	H 	0.55030 0.70630 0.12110 0.09500
N 	N 	0.63730 0.52800 0.19180 -0.00400
N 	N 	0.80730 0.65510 0.26530 -0.00500
N 	N 	0.76020 0.41820 0.27590 -0.00900
N 	N 	0.65680 0.69890 0.29920 -0.00300
N 	N 	0.47520 0.67140 0.17720 -0.00500
N 	N 	0.56830 0.91510 0.27800 -0.00800
O 	O 	0.72220 0.67990 0.04450 -0.44600
O 	O 	0.80420 0.70810 0.07630 -0.42100
O 	O 	0.59900 0.55290 0.16300 -0.09500
O 	O 	0.63670 0.46640 0.22190 -0.07900
O 	O 	0.85140 0.67930 0.25610 -0.08000
O 	O 	0.79350 0.65460 0.30990 -0.07900
O 	O 	0.65370 0.71250 0.25330 -0.08200
O 	O 	0.64370 0.74920 0.33180 -0.07400
O 	O 	0.79540 0.45380 0.25550 -0.08100
O 	O 	0.74870 0.33760 0.27450 -0.08100
O 	O 	0.63130 0.50770 0.45140 -0.25000
O 	O 	0.68570 0.39120 0.44940 -0.37200
O 	O 	0.62180 0.76960 0.07400 -0.42700
O 	O 	0.66790 0.87020 0.12100 -0.25800
O 	O 	0.46580 0.64310 0.13480 -0.09500
O 	O 	0.45160 0.64740 0.21410 -0.06900
O 	O 	0.58790 0.98790 0.27020 -0.08100
O 	O 	0.55690 0.88840 0.31980 -0.08600
Gd	Gd	0.15176 0.23629 0.99342 1.34500
C 	C 	0.25680 0.18030 0.07990 0.41600
C 	C 	0.24450 0.14850 0.13170 -0.06700
C 	C 	0.27990 0.16130 0.17480 -0.04100
H 	H 	0.31220 0.18860 0.17110 0.08800
C 	C 	0.26780 0.13410 0.22270 0.09500
C 	C 	0.22200 0.08760 0.23150 0.01400
C 	C 	0.18790 0.07510 0.18750 0.08300
C 	C 	0.19610 0.10570 0.13840 -0.03500
H 	H 	0.17060 0.09820 0.11110 0.06800
C 	C 	0.20820 0.05870 0.28440 -0.01100
C 	C 	0.22620 0.97550 0.30540 0.11800
C 	C 	0.21270 0.94420 0.35120 -0.09500
H 	H 	0.22460 0.88840 0.36290 0.10500
C 	C 	0.18180 0.99390 0.38020 0.01000
C 	C 	0.16290 0.07670 0.36140 -0.09300
H 	H 	0.14110 0.11100 0.38040 0.12000
C 	C 	0.17680 0.10680 0.31450 0.11900
C 	C 	0.16530 0.96160 0.43210 0.31600
C 	C 	0.13090 0.31750 0.11260 0.35200
C 	C 	0.09220 0.30870 0.15410 -0.00400
C 	C 	0.09580 0.36390 0.19570 -0.08000
H 	H 	0.12200 0.40730 0.19900 0.12100
C 	C 	0.06070 0.35580 0.23320 0.11400
C 	C 	0.01990 0.29350 0.23040 -0.00000
C 	C 	0.01750 0.23730 0.18690 0.11200
C 	C 	0.05300 0.24450 0.14930 -0.07300
H 	H 	0.05030 0.20630 0.12110 0.09500
N 	N 	0.13730 0.02800 0.19180 -0.00400
N 	N 	0.30730 0.15510 0.26530 -0.00500
N 	N 	0.26020 0.91820 0.27590 -0.00900
N 	N 	0.15680 0.19890 0.29920 -0.00300
N 	N 	0.97520 0.17140 0.17720 -0.00500
N 	N 	0.06830 0.41510 0.27800 -0.00800
O 	O 	0.22220 0.17990 0.04450 -0.44600
O 	O 	0.30420 0.20810 0.07630 -0.42100
O 	O 	0.09900 0.05290 0.16300 -0.09400
O 	O 	0.13670 0.96640 0.22190 -0.07900
O 	O 	0.35140 0.17930 0.25610 -0.08000
O 	O 	0.29350 0.15460 0.30990 -0.07900
O 	O 	0.15370 0.21250 0.25330 -0.08200
O 	O 	0.14370 0.24920 0.33180 -0.07400
O 	O 	0.29540 0.95380 0.25550 -0.08100
O 	O 	0.24870 0.83760 0.27450 -0.08100
O 	O 	0.13130 0.00770 0.45140 -0.25000
O 	O 	0.18570 0.89120 0.44940 -0.37200
O 	O 	0.12180 0.26960 0.07400 -0.42700
O 	O 	0.16790 0.37020 0.12100 -0.25800
O 	O 	0.96580 0.14310 0.13480 -0.09500
O 	O 	0.95160 0.14740 0.21410 -0.06900
O 	O 	0.08790 0.48790 0.27020 -0.08100
O 	O 	0.05690 0.38840 0.31980 -0.08600
Gd	Gd	0.34824 0.73629 0.50658 1.34400
C 	C 	0.24320 0.68030 0.42010 0.41600
C 	C 	0.25550 0.64850 0.36830 -0.06700
C 	C 	0.22010 0.66130 0.32520 -0.04100
H 	H 	0.18780 0.68860 0.32890 0.08800
C 	C 	0.23220 0.63410 0.27730 0.09500
C 	C 	0.27800 0.58760 0.26850 0.01400
C 	C 	0.31210 0.57510 0.31250 0.08300
C 	C 	0.30390 0.60570 0.36160 -0.03500
H 	H 	0.32940 0.59820 0.38890 0.06800
C 	C 	0.29180 0.55870 0.21560 -0.01200
C 	C 	0.27380 0.47550 0.19460 0.11900
C 	C 	0.28730 0.44420 0.14880 -0.09500
H 	H 	0.27540 0.38840 0.13710 0.10600
C 	C 	0.31820 0.49390 0.11980 0.01100
C 	C 	0.33710 0.57670 0.13860 -0.09400
H 	H 	0.35890 0.61100 0.11960 0.12000
C 	C 	0.32320 0.60680 0.18550 0.11900
C 	C 	0.33470 0.46160 0.06790 0.31600
C 	C 	0.36910 0.81750 0.38740 0.35200
C 	C 	0.40780 0.80870 0.34590 -0.00500
C 	C 	0.40420 0.86390 0.30430 -0.08000
H 	H 	0.37800 0.90730 0.30100 0.12000
C 	C 	0.43930 0.85580 0.26680 0.11400
C 	C 	0.48010 0.79350 0.26960 -0.00100
C 	C 	0.48250 0.73730 0.31310 0.11200
C 	C 	0.44700 0.74450 0.35070 -0.07300
H 	H 	0.44970 0.70630 0.37890 0.09500
N 	N 	0.36270 0.52800 0.30820 -0.00400
N 	N 	0.19270 0.65510 0.23470 -0.00500
N 	N 	0.23980 0.41820 0.22410 -0.00900
N 	N 	0.34320 0.69890 0.20080 -0.00300
N 	N 	0.52480 0.67140 0.32280 -0.00500
N 	N 	0.43170 0.91510 0.22200 -0.00800
O 	O 	0.27780 0.67990 0.45550 -0.44600
O 	O 	0.19580 0.70810 0.42370 -0.42100
O 	O 	0.40100 0.55290 0.33700 -0.09500
O 	O 	0.36330 0.46640 0.27810 -0.07900
O 	O 	0.14860 0.67930 0.24390 -0.08000
O 	O 	0.20650 0.65460 0.19010 -0.07900
O 	O 	0.34630 0.71250 0.24670 -0.08200
O 	O 	0.35630 0.74920 0.16820 -0.07400
O 	O 	0.20460 0.45380 0.24450 -0.08100
O 	O 	0.25130 0.33760 0.22550 -0.08100
O 	O 	0.36870 0.50770 0.04860 -0.24900
O 	O 	0.31430 0.39120 0.05060 -0.37200
O 	O 	0.37820 0.76960 0.42600 -0.42700
O 	O 	0.33210 0.87020 0.37900 -0.25800
O 	O 	0.53420 0.64310 0.36520 -0.09500
O 	O 	0.54840 0.64740 0.28590 -0.06900
O 	O 	0.41210 0.98790 0.22980 -0.08100
O 	O 	0.44310 0.88840 0.18020 -0.08600
Gd	Gd	0.84824 0.23629 0.50658 1.34400
C 	C 	0.74320 0.18030 0.42010 0.41600
C 	C 	0.75550 0.14850 0.36830 -0.06700
C 	C 	0.72010 0.16130 0.32520 -0.04100
H 	H 	0.68780 0.18860 0.32890 0.08800
C 	C 	0.73220 0.13410 0.27730 0.09500
C 	C 	0.77800 0.08760 0.26850 0.01400
C 	C 	0.81210 0.07510 0.31250 0.08300
C 	C 	0.80390 0.10570 0.36160 -0.03500
H 	H 	0.82940 0.09820 0.38890 0.06800
C 	C 	0.79180 0.05870 0.21560 -0.01100
C 	C 	0.77380 0.97550 0.19460 0.11800
C 	C 	0.78730 0.94420 0.14880 -0.09400
H 	H 	0.77540 0.88840 0.13710 0.10500
C 	C 	0.81820 0.99390 0.11980 0.01000
C 	C 	0.83710 0.07670 0.13860 -0.09300
H 	H 	0.85890 0.11100 0.11960 0.12000
C 	C 	0.82320 0.10680 0.18550 0.11900
C 	C 	0.83470 0.96160 0.06790 0.31500
C 	C 	0.86910 0.31750 0.38740 0.35200
C 	C 	0.90780 0.30870 0.34590 -0.00500
C 	C 	0.90420 0.36390 0.30430 -0.08000
H 	H 	0.87800 0.40730 0.30100 0.12100
C 	C 	0.93930 0.35580 0.26680 0.11400
C 	C 	0.98010 0.29350 0.26960 -0.00100
C 	C 	0.98250 0.23730 0.31310 0.11200
C 	C 	0.94700 0.24450 0.35070 -0.07300
H 	H 	0.94970 0.20630 0.37890 0.09500
N 	N 	0.86270 0.02800 0.30820 -0.00400
N 	N 	0.69270 0.15510 0.23470 -0.00500
N 	N 	0.73980 0.91820 0.22410 -0.00900
N 	N 	0.84320 0.19890 0.20080 -0.00300
N 	N 	0.02480 0.17140 0.32280 -0.00500
N 	N 	0.93170 0.41510 0.22200 -0.00800
O 	O 	0.77780 0.17990 0.45550 -0.44600
O 	O 	0.69580 0.20810 0.42370 -0.42100
O 	O 	0.90100 0.05290 0.33700 -0.09500
O 	O 	0.86330 0.96640 0.27810 -0.07900
O 	O 	0.64860 0.17930 0.24390 -0.08000
O 	O 	0.70650 0.15460 0.19010 -0.07900
O 	O 	0.84630 0.21250 0.24670 -0.08200
O 	O 	0.85630 0.24920 0.16820 -0.07400
O 	O 	0.70460 0.95380 0.24450 -0.08100
O 	O 	0.75130 0.83760 0.22550 -0.08100
O 	O 	0.86870 0.00770 0.04860 -0.24900
O 	O 	0.81430 0.89120 0.05060 -0.37200
O 	O 	0.87820 0.26960 0.42600 -0.42700
O 	O 	0.83210 0.37020 0.37900 -0.25800
O 	O 	0.03420 0.14310 0.36520 -0.09500
O 	O 	0.04840 0.14740 0.28590 -0.06900
O 	O 	0.91210 0.48790 0.22980 -0.08100
O 	O 	0.94310 0.38840 0.18020 -0.08600
