data_crystal

_cell_length_a 25.17900
_cell_length_b 14.74700
_cell_length_c 26.05300
_cell_angle_alpha 90.00000
_cell_angle_beta  94.96400
_cell_angle_gamma 90.00000

_symmetry_space_group_name_	'P 1'
_symmetry_space_group_name_H-M	'P 1'

loop_
_symmetry_equiv_pos_as_xyz
  x,y,z

loop_
_atom_site_label
_atom_site_type_symbol
_atom_site_fract_x
_atom_site_fract_y
_atom_site_fract_z
_atom_site_charge
Gd	Gd	0.85025 0.24571 0.00708 1.34400
C 	C 	0.84180 0.04130 0.06990 0.31800
C 	C 	0.82410 0.00750 0.12050 0.00300
C 	C 	0.79480 0.06100 0.15030 -0.08700
H 	H 	0.78410 0.11830 0.13870 0.10200
C 	C 	0.78110 0.03060 0.19760 0.11400
C 	C 	0.79520 0.94440 0.21730 -0.00800
C 	C 	0.82440 0.89220 0.18500 0.11900
C 	C 	0.83880 0.92090 0.13810 -0.09000
H 	H 	0.85820 0.88300 0.11820 0.11800
C 	C 	0.78160 0.91500 0.26970 0.01100
C 	C 	0.81790 0.92360 0.31290 0.08700
C 	C 	0.80800 0.89290 0.36160 -0.04200
H 	H 	0.83390 0.89800 0.38910 0.07000
C 	C 	0.75880 0.85480 0.36850 -0.05800
C 	C 	0.72160 0.84660 0.32730 -0.04500
H 	H 	0.68820 0.82250 0.33190 0.08900
C 	C 	0.73350 0.87430 0.27870 0.09900
C 	C 	0.86690 0.32560 0.88570 0.34500
C 	C 	0.90660 0.31880 0.84550 -0.00700
C 	C 	0.94750 0.25660 0.85070 -0.07500
H 	H 	0.95140 0.21900 0.87940 0.09600
C 	C 	0.98260 0.25020 0.81310 0.11400
C 	C 	0.97970 0.30400 0.76960 -0.00200
C 	C 	0.93770 0.36620 0.76550 0.11200
C 	C 	0.90110 0.37290 0.80300 -0.07600
H 	H 	0.87310 0.41420 0.79880 0.11900
C 	C 	0.74560 0.82280 0.42160 0.42200
N 	N 	0.75140 0.09130 0.22810 -0.01000
N 	N 	0.83980 0.79890 0.19990 -0.00600
N 	N 	0.86960 0.96590 0.30870 -0.00600
N 	N 	0.69310 0.85500 0.23620 -0.00300
N 	N 	0.92820 0.42510 0.72090 -0.00600
N 	N 	0.02560 0.18300 0.82190 -0.00600
O 	O 	0.82150 0.11400 0.05331 -0.37000
O 	O 	0.87660 0.99630 0.05031 -0.24700
O 	O 	0.76500 0.17040 0.22960 -0.07900
O 	O 	0.84240 0.77870 0.24530 -0.07900
O 	O 	0.85090 0.74720 0.16610 -0.07500
O 	O 	0.70640 0.85840 0.19220 -0.08100
O 	O 	0.64910 0.83090 0.24633 -0.08100
O 	O 	0.87270 0.02790 0.27750 -0.07800
O 	O 	0.90760 0.93830 0.33640 -0.09400
O 	O 	0.87940 0.28150 0.92671 -0.42400
O 	O 	0.82670 0.37150 0.87599 -0.25800
O 	O 	0.03610 0.15620 0.86570 -0.09500
O 	O 	0.04910 0.15770 0.78565 -0.06800
O 	O 	0.90310 0.49190 0.72490 -0.08200
O 	O 	0.94310 0.39890 0.68020 -0.09000
O 	O 	0.69930 0.79620 0.42488 -0.43600
O 	O 	0.78249 0.82360 0.45673 -0.44300
O 	O 	0.71440 0.06080 0.25040 -0.07900
Gd	Gd	0.35025 0.74571 0.00708 1.34600
C 	C 	0.34180 0.54130 0.06990 0.31900
C 	C 	0.32410 0.50750 0.12050 0.00400
C 	C 	0.29480 0.56100 0.15030 -0.08700
H 	H 	0.28410 0.61830 0.13870 0.10300
C 	C 	0.28110 0.53060 0.19760 0.11500
C 	C 	0.29520 0.44440 0.21730 -0.00900
C 	C 	0.32440 0.39220 0.18500 0.11900
C 	C 	0.33880 0.42090 0.13810 -0.09000
H 	H 	0.35820 0.38300 0.11820 0.11800
C 	C 	0.28160 0.41500 0.26970 0.01100
C 	C 	0.31790 0.42360 0.31290 0.08700
C 	C 	0.30800 0.39290 0.36160 -0.04200
H 	H 	0.33390 0.39800 0.38910 0.07100
C 	C 	0.25880 0.35480 0.36850 -0.05800
C 	C 	0.22160 0.34660 0.32730 -0.04500
H 	H 	0.18820 0.32250 0.33190 0.08900
C 	C 	0.23350 0.37430 0.27870 0.09800
C 	C 	0.36690 0.82560 0.88570 0.34500
C 	C 	0.40660 0.81880 0.84550 -0.00700
C 	C 	0.44750 0.75660 0.85070 -0.07500
H 	H 	0.45140 0.71900 0.87940 0.09600
C 	C 	0.48260 0.75020 0.81310 0.11300
C 	C 	0.47970 0.80400 0.76960 -0.00200
C 	C 	0.43770 0.86620 0.76550 0.11200
C 	C 	0.40110 0.87290 0.80300 -0.07600
H 	H 	0.37310 0.91420 0.79880 0.11900
C 	C 	0.24560 0.32280 0.42160 0.42200
N 	N 	0.25140 0.59130 0.22810 -0.01000
N 	N 	0.33980 0.29890 0.19990 -0.00600
N 	N 	0.36960 0.46590 0.30870 -0.00600
N 	N 	0.19310 0.35500 0.23620 -0.00300
N 	N 	0.42820 0.92510 0.72090 -0.00600
N 	N 	0.52560 0.68300 0.82190 -0.00500
O 	O 	0.32150 0.61400 0.05331 -0.37000
O 	O 	0.37660 0.49630 0.05031 -0.24700
O 	O 	0.26500 0.67040 0.22960 -0.07900
O 	O 	0.34240 0.27870 0.24530 -0.07900
O 	O 	0.35090 0.24720 0.16610 -0.07500
O 	O 	0.20640 0.35840 0.19220 -0.08100
O 	O 	0.14910 0.33090 0.24633 -0.08100
O 	O 	0.37270 0.52790 0.27750 -0.07800
O 	O 	0.40760 0.43830 0.33640 -0.09300
O 	O 	0.37940 0.78150 0.92671 -0.42400
O 	O 	0.32670 0.87150 0.87599 -0.25800
O 	O 	0.53610 0.65620 0.86570 -0.09400
O 	O 	0.54910 0.65770 0.78565 -0.06800
O 	O 	0.40310 0.99190 0.72490 -0.08300
O 	O 	0.44310 0.89890 0.68020 -0.09000
O 	O 	0.19930 0.29620 0.42488 -0.43600
O 	O 	0.28249 0.32360 0.45673 -0.44300
O 	O 	0.21440 0.56080 0.25040 -0.07900
Gd	Gd	0.14975 0.24571 0.49292 1.34400
C 	C 	0.15820 0.04130 0.43010 0.31900
C 	C 	0.17590 0.00750 0.37950 0.00400
C 	C 	0.20520 0.06100 0.34970 -0.08600
H 	H 	0.21590 0.11830 0.36130 0.10300
C 	C 	0.21890 0.03060 0.30240 0.11500
C 	C 	0.20480 0.94440 0.28270 -0.00900
C 	C 	0.17560 0.89220 0.31500 0.11900
C 	C 	0.16120 0.92090 0.36190 -0.09000
H 	H 	0.14180 0.88300 0.38180 0.11800
C 	C 	0.21840 0.91500 0.23030 0.01100
C 	C 	0.18210 0.92360 0.18710 0.08700
C 	C 	0.19200 0.89290 0.13840 -0.04200
H 	H 	0.16610 0.89800 0.11090 0.07100
C 	C 	0.24120 0.85480 0.13150 -0.05700
C 	C 	0.27840 0.84660 0.17270 -0.04500
H 	H 	0.31180 0.82250 0.16810 0.08900
C 	C 	0.26650 0.87430 0.22130 0.09900
C 	C 	0.13310 0.32560 0.61430 0.34500
C 	C 	0.09340 0.31880 0.65450 -0.00700
C 	C 	0.05250 0.25660 0.64930 -0.07500
H 	H 	0.04860 0.21900 0.62060 0.09600
C 	C 	0.01740 0.25020 0.68690 0.11300
C 	C 	0.02030 0.30400 0.73040 -0.00200
C 	C 	0.06230 0.36620 0.73450 0.11200
C 	C 	0.09890 0.37290 0.69700 -0.07600
H 	H 	0.12690 0.41420 0.70120 0.11900
C 	C 	0.25440 0.82280 0.07840 0.42200
N 	N 	0.24860 0.09130 0.27190 -0.01000
N 	N 	0.16020 0.79890 0.30010 -0.00600
N 	N 	0.13040 0.96590 0.19130 -0.00600
N 	N 	0.30690 0.85500 0.26380 -0.00300
N 	N 	0.07180 0.42510 0.77910 -0.00600
N 	N 	0.97440 0.18300 0.67810 -0.00500
O 	O 	0.17850 0.11400 0.44669 -0.37000
O 	O 	0.12340 0.99630 0.44969 -0.24800
O 	O 	0.23500 0.17040 0.27040 -0.07900
O 	O 	0.15760 0.77870 0.25470 -0.07900
O 	O 	0.14910 0.74720 0.33390 -0.07500
O 	O 	0.29360 0.85840 0.30780 -0.08200
O 	O 	0.35090 0.83090 0.25367 -0.08100
O 	O 	0.12730 0.02790 0.22250 -0.07800
O 	O 	0.09240 0.93830 0.16360 -0.09300
O 	O 	0.12060 0.28150 0.57329 -0.42400
O 	O 	0.17330 0.37150 0.62401 -0.25800
O 	O 	0.96390 0.15620 0.63430 -0.09500
O 	O 	0.95090 0.15770 0.71435 -0.06800
O 	O 	0.09690 0.49190 0.77510 -0.08200
O 	O 	0.05690 0.39890 0.81980 -0.09000
O 	O 	0.30070 0.79620 0.07512 -0.43700
O 	O 	0.21751 0.82360 0.04327 -0.44200
O 	O 	0.28560 0.06080 0.24960 -0.07900
Gd	Gd	0.64975 0.74571 0.49292 1.34400
C 	C 	0.65820 0.54130 0.43010 0.31900
C 	C 	0.67590 0.50750 0.37950 0.00400
C 	C 	0.70520 0.56100 0.34970 -0.08700
H 	H 	0.71590 0.61830 0.36130 0.10300
C 	C 	0.71890 0.53060 0.30240 0.11500
C 	C 	0.70480 0.44440 0.28270 -0.00900
C 	C 	0.67560 0.39220 0.31500 0.11900
C 	C 	0.66120 0.42090 0.36190 -0.09000
H 	H 	0.64180 0.38300 0.38180 0.11800
C 	C 	0.71840 0.41500 0.23030 0.01100
C 	C 	0.68210 0.42360 0.18710 0.08700
C 	C 	0.69200 0.39290 0.13840 -0.04100
H 	H 	0.66610 0.39800 0.11090 0.07100
C 	C 	0.74120 0.35480 0.13150 -0.05800
C 	C 	0.77840 0.34660 0.17270 -0.04500
H 	H 	0.81180 0.32250 0.16810 0.08900
C 	C 	0.76650 0.37430 0.22130 0.09800
C 	C 	0.63310 0.82560 0.61430 0.34500
C 	C 	0.59340 0.81880 0.65450 -0.00700
C 	C 	0.55250 0.75660 0.64930 -0.07500
H 	H 	0.54860 0.71900 0.62060 0.09600
C 	C 	0.51740 0.75020 0.68690 0.11300
C 	C 	0.52030 0.80400 0.73040 -0.00200
C 	C 	0.56230 0.86620 0.73450 0.11200
C 	C 	0.59890 0.87290 0.69700 -0.07600
H 	H 	0.62690 0.91420 0.70120 0.11900
C 	C 	0.75440 0.32280 0.07840 0.42300
N 	N 	0.74860 0.59130 0.27190 -0.01000
N 	N 	0.66020 0.29890 0.30010 -0.00600
N 	N 	0.63040 0.46590 0.19130 -0.00600
N 	N 	0.80690 0.35500 0.26380 -0.00300
N 	N 	0.57180 0.92510 0.77910 -0.00600
N 	N 	0.47440 0.68300 0.67810 -0.00500
O 	O 	0.67850 0.61400 0.44669 -0.37000
O 	O 	0.62340 0.49630 0.44969 -0.24800
O 	O 	0.73500 0.67040 0.27040 -0.07900
O 	O 	0.65760 0.27870 0.25470 -0.07900
O 	O 	0.64910 0.24720 0.33390 -0.07500
O 	O 	0.79360 0.35840 0.30780 -0.08200
O 	O 	0.85090 0.33090 0.25367 -0.08100
O 	O 	0.62730 0.52790 0.22250 -0.07800
O 	O 	0.59240 0.43830 0.16360 -0.09300
O 	O 	0.62060 0.78150 0.57329 -0.42400
O 	O 	0.67330 0.87150 0.62401 -0.25800
O 	O 	0.46390 0.65620 0.63430 -0.09500
O 	O 	0.45090 0.65770 0.71435 -0.06800
O 	O 	0.59690 0.99190 0.77510 -0.08300
O 	O 	0.55690 0.89890 0.81980 -0.09000
O 	O 	0.80070 0.29620 0.07512 -0.43700
O 	O 	0.71751 0.32360 0.04327 -0.44300
O 	O 	0.78560 0.56080 0.24960 -0.07900
Gd	Gd	0.14975 0.75429 0.99292 1.34500
C 	C 	0.15820 0.95870 0.93010 0.31900
C 	C 	0.17590 0.99250 0.87950 0.00400
C 	C 	0.20520 0.93900 0.84970 -0.08600
H 	H 	0.21590 0.88170 0.86130 0.10300
C 	C 	0.21890 0.96940 0.80240 0.11500
C 	C 	0.20480 0.05560 0.78270 -0.00800
C 	C 	0.17560 0.10780 0.81500 0.11900
C 	C 	0.16120 0.07910 0.86190 -0.09000
H 	H 	0.14180 0.11700 0.88180 0.11800
C 	C 	0.21840 0.08500 0.73030 0.01100
C 	C 	0.18210 0.07640 0.68710 0.08700
C 	C 	0.19200 0.10710 0.63840 -0.04200
H 	H 	0.16610 0.10200 0.61090 0.07000
C 	C 	0.24120 0.14520 0.63150 -0.05800
C 	C 	0.27840 0.15340 0.67270 -0.04500
H 	H 	0.31180 0.17750 0.66810 0.08900
C 	C 	0.26650 0.12570 0.72130 0.09900
C 	C 	0.13310 0.67440 0.11430 0.34500
C 	C 	0.09340 0.68120 0.15450 -0.00700
C 	C 	0.05250 0.74340 0.14930 -0.07500
H 	H 	0.04860 0.78100 0.12060 0.09600
C 	C 	0.01740 0.74980 0.18690 0.11400
C 	C 	0.02030 0.69600 0.23040 -0.00200
C 	C 	0.06230 0.63380 0.23450 0.11200
C 	C 	0.09890 0.62710 0.19700 -0.07600
H 	H 	0.12690 0.58580 0.20120 0.11900
C 	C 	0.25440 0.17720 0.57840 0.42200
N 	N 	0.24860 0.90870 0.77190 -0.01000
N 	N 	0.16020 0.20110 0.80010 -0.00600
N 	N 	0.13040 0.03410 0.69130 -0.00600
N 	N 	0.30690 0.14500 0.76380 -0.00300
N 	N 	0.07180 0.57490 0.27910 -0.00600
N 	N 	0.97440 0.81700 0.17810 -0.00600
O 	O 	0.17850 0.88600 0.94669 -0.37000
O 	O 	0.12340 0.00370 0.94969 -0.24700
O 	O 	0.23500 0.82960 0.77040 -0.07900
O 	O 	0.15760 0.22130 0.75470 -0.07900
O 	O 	0.14910 0.25280 0.83390 -0.07500
O 	O 	0.29360 0.14160 0.80780 -0.08100
O 	O 	0.35090 0.16910 0.75367 -0.08100
O 	O 	0.12730 0.97210 0.72250 -0.07800
O 	O 	0.09240 0.06170 0.66360 -0.09400
O 	O 	0.12060 0.71850 0.07329 -0.42400
O 	O 	0.17330 0.62850 0.12401 -0.25800
O 	O 	0.96390 0.84380 0.13430 -0.09500
O 	O 	0.95090 0.84230 0.21435 -0.06800
O 	O 	0.09690 0.50810 0.27510 -0.08200
O 	O 	0.05690 0.60110 0.31980 -0.09000
O 	O 	0.30070 0.20380 0.57512 -0.43600
O 	O 	0.21751 0.17640 0.54327 -0.44300
O 	O 	0.28560 0.93920 0.74960 -0.07900
Gd	Gd	0.64975 0.25429 0.99292 1.34600
C 	C 	0.65820 0.45870 0.93010 0.31900
C 	C 	0.67590 0.49250 0.87950 0.00400
C 	C 	0.70520 0.43900 0.84970 -0.08700
H 	H 	0.71590 0.38170 0.86130 0.10300
C 	C 	0.71890 0.46940 0.80240 0.11500
C 	C 	0.70480 0.55560 0.78270 -0.00900
C 	C 	0.67560 0.60780 0.81500 0.11900
C 	C 	0.66120 0.57910 0.86190 -0.09000
H 	H 	0.64180 0.61700 0.88180 0.11800
C 	C 	0.71840 0.58500 0.73030 0.01100
C 	C 	0.68210 0.57640 0.68710 0.08700
C 	C 	0.69200 0.60710 0.63840 -0.04200
H 	H 	0.66610 0.60200 0.61090 0.07100
C 	C 	0.74120 0.64520 0.63150 -0.05800
C 	C 	0.77840 0.65340 0.67270 -0.04500
H 	H 	0.81180 0.67750 0.66810 0.08900
C 	C 	0.76650 0.62570 0.72130 0.09800
C 	C 	0.63310 0.17440 0.11430 0.34500
C 	C 	0.59340 0.18120 0.15450 -0.00700
C 	C 	0.55250 0.24340 0.14930 -0.07500
H 	H 	0.54860 0.28100 0.12060 0.09600
C 	C 	0.51740 0.24980 0.18690 0.11300
C 	C 	0.52030 0.19600 0.23040 -0.00200
C 	C 	0.56230 0.13380 0.23450 0.11200
C 	C 	0.59890 0.12710 0.19700 -0.07600
H 	H 	0.62690 0.08580 0.20120 0.11900
C 	C 	0.75440 0.67720 0.57840 0.42200
N 	N 	0.74860 0.40870 0.77190 -0.01000
N 	N 	0.66020 0.70110 0.80010 -0.00600
N 	N 	0.63040 0.53410 0.69130 -0.00600
N 	N 	0.80690 0.64500 0.76380 -0.00300
N 	N 	0.57180 0.07490 0.27910 -0.00600
N 	N 	0.47440 0.31700 0.17810 -0.00500
O 	O 	0.67850 0.38600 0.94669 -0.37000
O 	O 	0.62340 0.50370 0.94969 -0.24700
O 	O 	0.73500 0.32960 0.77040 -0.07900
O 	O 	0.65760 0.72130 0.75470 -0.07900
O 	O 	0.64910 0.75280 0.83390 -0.07500
O 	O 	0.79360 0.64160 0.80780 -0.08100
O 	O 	0.85090 0.66910 0.75367 -0.08100
O 	O 	0.62730 0.47210 0.72250 -0.07800
O 	O 	0.59240 0.56170 0.66360 -0.09300
O 	O 	0.62060 0.21850 0.07329 -0.42400
O 	O 	0.67330 0.12850 0.12401 -0.25800
O 	O 	0.46390 0.34380 0.13430 -0.09400
O 	O 	0.45090 0.34230 0.21435 -0.06800
O 	O 	0.59690 0.00810 0.27510 -0.08300
O 	O 	0.55690 0.10110 0.31980 -0.09000
O 	O 	0.80070 0.70380 0.57512 -0.43600
O 	O 	0.71751 0.67640 0.54327 -0.44300
O 	O 	0.78560 0.43920 0.74960 -0.07900
Gd	Gd	0.85025 0.75429 0.50708 1.34400
C 	C 	0.84180 0.95870 0.56990 0.31900
C 	C 	0.82410 0.99250 0.62050 0.00400
C 	C 	0.79480 0.93900 0.65030 -0.08600
H 	H 	0.78410 0.88170 0.63870 0.10300
C 	C 	0.78110 0.96940 0.69760 0.11500
C 	C 	0.79520 0.05560 0.71730 -0.00900
C 	C 	0.82440 0.10780 0.68500 0.11900
C 	C 	0.83880 0.07910 0.63810 -0.09000
H 	H 	0.85820 0.11700 0.61820 0.11800
C 	C 	0.78160 0.08500 0.76970 0.01100
C 	C 	0.81790 0.07640 0.81290 0.08700
C 	C 	0.80800 0.10710 0.86160 -0.04200
H 	H 	0.83390 0.10200 0.88910 0.07100
C 	C 	0.75880 0.14520 0.86850 -0.05700
C 	C 	0.72160 0.15340 0.82730 -0.04500
H 	H 	0.68820 0.17750 0.83190 0.08900
C 	C 	0.73350 0.12570 0.77870 0.09900
C 	C 	0.86690 0.67440 0.38570 0.34500
C 	C 	0.90660 0.68120 0.34550 -0.00700
C 	C 	0.94750 0.74340 0.35070 -0.07500
H 	H 	0.95140 0.78100 0.37940 0.09600
C 	C 	0.98260 0.74980 0.31310 0.11300
C 	C 	0.97970 0.69600 0.26960 -0.00200
C 	C 	0.93770 0.63380 0.26550 0.11200
C 	C 	0.90110 0.62710 0.30300 -0.07600
H 	H 	0.87310 0.58580 0.29880 0.11900
C 	C 	0.74560 0.17720 0.92160 0.42200
N 	N 	0.75140 0.90870 0.72810 -0.01000
N 	N 	0.83980 0.20110 0.69990 -0.00600
N 	N 	0.86960 0.03410 0.80870 -0.00600
N 	N 	0.69310 0.14500 0.73620 -0.00300
N 	N 	0.92820 0.57490 0.22090 -0.00600
N 	N 	0.02560 0.81700 0.32190 -0.00500
O 	O 	0.82150 0.88600 0.55331 -0.37000
O 	O 	0.87660 0.00370 0.55031 -0.24800
O 	O 	0.76500 0.82960 0.72960 -0.07900
O 	O 	0.84240 0.22130 0.74530 -0.07900
O 	O 	0.85090 0.25280 0.66610 -0.07500
O 	O 	0.70640 0.14160 0.69220 -0.08200
O 	O 	0.64910 0.16910 0.74633 -0.08100
O 	O 	0.87270 0.97210 0.77750 -0.07800
O 	O 	0.90760 0.06170 0.83640 -0.09300
O 	O 	0.87940 0.71850 0.42671 -0.42400
O 	O 	0.82670 0.62850 0.37599 -0.25800
O 	O 	0.03610 0.84380 0.36570 -0.09500
O 	O 	0.04910 0.84230 0.28565 -0.06800
O 	O 	0.90310 0.50810 0.22490 -0.08200
O 	O 	0.94310 0.60110 0.18020 -0.09000
O 	O 	0.69930 0.20380 0.92488 -0.43700
O 	O 	0.78249 0.17640 0.95673 -0.44200
O 	O 	0.71440 0.93920 0.75040 -0.07900
Gd	Gd	0.35025 0.25429 0.50708 1.34400
C 	C 	0.34180 0.45870 0.56990 0.31900
C 	C 	0.32410 0.49250 0.62050 0.00400
C 	C 	0.29480 0.43900 0.65030 -0.08700
H 	H 	0.28410 0.38170 0.63870 0.10300
C 	C 	0.28110 0.46940 0.69760 0.11500
C 	C 	0.29520 0.55560 0.71730 -0.00900
C 	C 	0.32440 0.60780 0.68500 0.11900
C 	C 	0.33880 0.57910 0.63810 -0.09000
H 	H 	0.35820 0.61700 0.61820 0.11800
C 	C 	0.28160 0.58500 0.76970 0.01100
C 	C 	0.31790 0.57640 0.81290 0.08700
C 	C 	0.30800 0.60710 0.86160 -0.04100
H 	H 	0.33390 0.60200 0.88910 0.07100
C 	C 	0.25880 0.64520 0.86850 -0.05800
C 	C 	0.22160 0.65340 0.82730 -0.04500
H 	H 	0.18820 0.67750 0.83190 0.08900
C 	C 	0.23350 0.62570 0.77870 0.09800
C 	C 	0.36690 0.17440 0.38570 0.34500
C 	C 	0.40660 0.18120 0.34550 -0.00700
C 	C 	0.44750 0.24340 0.35070 -0.07500
H 	H 	0.45140 0.28100 0.37940 0.09600
C 	C 	0.48260 0.24980 0.31310 0.11300
C 	C 	0.47970 0.19600 0.26960 -0.00200
C 	C 	0.43770 0.13380 0.26550 0.11200
C 	C 	0.40110 0.12710 0.30300 -0.07600
H 	H 	0.37310 0.08580 0.29880 0.11900
C 	C 	0.24560 0.67720 0.92160 0.42300
N 	N 	0.25140 0.40870 0.72810 -0.01000
N 	N 	0.33980 0.70110 0.69990 -0.00600
N 	N 	0.36960 0.53410 0.80870 -0.00600
N 	N 	0.19310 0.64500 0.73620 -0.00300
N 	N 	0.42820 0.07490 0.22090 -0.00600
N 	N 	0.52560 0.31700 0.32190 -0.00500
O 	O 	0.32150 0.38600 0.55331 -0.37000
O 	O 	0.37660 0.50370 0.55031 -0.24800
O 	O 	0.26500 0.32960 0.72960 -0.07900
O 	O 	0.34240 0.72130 0.74530 -0.07900
O 	O 	0.35090 0.75280 0.66610 -0.07500
O 	O 	0.20640 0.64160 0.69220 -0.08200
O 	O 	0.14910 0.66910 0.74633 -0.08100
O 	O 	0.37270 0.47210 0.77750 -0.07800
O 	O 	0.40760 0.56170 0.83640 -0.09300
O 	O 	0.37940 0.21850 0.42671 -0.42400
O 	O 	0.32670 0.12850 0.37599 -0.25800
O 	O 	0.53610 0.34380 0.36570 -0.09500
O 	O 	0.54910 0.34230 0.28565 -0.06800
O 	O 	0.40310 0.00810 0.22490 -0.08300
O 	O 	0.44310 0.10110 0.18020 -0.09000
O 	O 	0.19930 0.70380 0.92488 -0.43700
O 	O 	0.28249 0.67640 0.95673 -0.44300
O 	O 	0.21440 0.43920 0.75040 -0.07900
