data_crystal

_cell_length_a 11.43900
_cell_length_b 11.96600
_cell_length_c 12.11300
_cell_angle_alpha 101.03600
_cell_angle_beta  106.89000
_cell_angle_gamma 107.95000

_symmetry_space_group_name_	'P 1'
_symmetry_space_group_name_H-M	'P 1'

loop_
_symmetry_equiv_pos_as_xyz
  x,y,z

loop_
_atom_site_label
_atom_site_type_symbol
_atom_site_fract_x
_atom_site_fract_y
_atom_site_fract_z
_atom_site_charge
Sr	Sr	0.28404 0.28592 0.77425 1.47700
O 	O 	0.92250 0.16800 0.42470 -0.43000
O 	O 	0.07060 0.25270 0.61080 -0.60600
O 	O 	0.86810 0.29920 0.29280 -0.43700
O 	O 	0.90920 0.96410 0.67550 -0.32900
O 	O 	0.11850 0.09210 0.76630 -0.54700
O 	O 	0.77560 0.87040 0.79270 -0.48500
O 	O 	0.26160 0.11010 0.58690 -0.54600
O 	O 	0.46250 0.24920 0.69650 -0.51000
O 	O 	0.66690 0.21470 0.68720 -0.47200
C 	C 	0.99670 0.26020 0.51620 0.43300
C 	C 	0.99740 0.38440 0.50840 -0.09900
C 	C 	0.93290 0.39610 0.39600 0.17900
C 	C 	0.06310 0.48730 0.61030 -0.18600
H 	H 	0.10550 0.47880 0.68450 0.05100
C 	C 	0.01250 0.02400 0.76940 0.31600
C 	C 	0.00610 0.01060 0.88910 -0.29800
C 	C 	0.11730 0.07400 0.99520 -0.02300
H 	H 	0.19580 0.12350 0.99150 -0.00000
C 	C 	0.88650 0.93480 0.89300 0.36500
C 	C 	0.38430 0.14790 0.61520 0.41200
C 	C 	0.44450 0.07150 0.55460 -0.26500
C 	C 	0.58280 0.10930 0.59480 0.30200
C 	C 	0.36320 0.96270 0.46060 0.04000
H 	H 	0.27170 0.93790 0.43450 0.04900
H 	H 	0.86100 0.23570 0.31200 0.27700
H 	H 	0.79300 0.87300 0.73130 0.30700
H 	H 	0.62200 0.25000 0.70700 0.28500
Sr	Sr	0.71596 0.71408 0.22575 1.48100
O 	O 	0.07750 0.83200 0.57530 -0.40900
O 	O 	0.92940 0.74730 0.38920 -0.51100
O 	O 	0.13190 0.70080 0.70720 -0.47900
O 	O 	0.09080 0.03590 0.32450 -0.49600
O 	O 	0.88150 0.90790 0.23370 -0.54600
O 	O 	0.22440 0.12960 0.20730 -0.42200
O 	O 	0.73840 0.88990 0.41310 -0.49000
O 	O 	0.53750 0.75080 0.30350 -0.48300
O 	O 	0.33310 0.78530 0.31280 -0.42500
C 	C 	0.00330 0.73980 0.48380 0.36000
C 	C 	0.00260 0.61560 0.49160 -0.25200
C 	C 	0.06710 0.60390 0.60400 0.27200
C 	C 	0.93690 0.51270 0.38970 0.01400
H 	H 	0.89450 0.52120 0.31550 0.00100
C 	C 	0.98750 0.97600 0.23060 0.47000
C 	C 	0.99390 0.98940 0.11090 -0.04200
C 	C 	0.88270 0.92600 0.00480 -0.16200
H 	H 	0.80420 0.87650 0.00850 0.06700
C 	C 	0.11350 0.06520 0.10700 0.10200
C 	C 	0.61570 0.85210 0.38480 0.34700
C 	C 	0.55550 0.92850 0.44540 -0.04400
C 	C 	0.41720 0.89070 0.40520 0.16200
C 	C 	0.63680 0.03730 0.53940 -0.22600
H 	H 	0.72830 0.06210 0.56550 0.11600
H 	H 	0.13900 0.76430 0.68800 0.29900
H 	H 	0.20700 0.12700 0.26870 0.26100
H 	H 	0.37800 0.75000 0.29300 0.26700
Sr	Sr	-0.00000 -0.00000 0.50000 1.50800
