data_crystal

_cell_length_a 9.47000
_cell_length_b 9.78450
_cell_length_c 12.74250
_cell_angle_alpha 87.24650
_cell_angle_beta  84.30290
_cell_angle_gamma 61.05770

_symmetry_space_group_name_	'P 1'
_symmetry_space_group_name_H-M	'P 1'

loop_
_symmetry_equiv_pos_as_xyz
  x,y,z

loop_
_atom_site_label
_atom_site_type_symbol
_atom_site_fract_x
_atom_site_fract_y
_atom_site_fract_z
_atom_site_charge
Mn	Mn	0.65426 0.69148 -0.00000 1.23800
Mn	Mn	0.34574 0.30852 -0.00000 1.23800
H 	H 	0.43560 0.23380 0.42580 0.07100
H 	H 	0.55540 0.22860 0.25900 0.03900
H 	H 	0.06330 0.76460 0.14430 0.11000
H 	H 	0.31170 0.76360 0.13870 -0.02100
H 	H 	0.68400 0.10000 0.10800 0.05900
H 	H 	0.33060 0.23380 0.57420 0.07000
H 	H 	0.21600 0.22860 0.74100 0.03800
H 	H 	0.17210 0.76460 0.85570 0.13100
H 	H 	0.92470 0.76360 0.86130 0.00800
H 	H 	0.21600 0.10000 0.89200 0.12600
H 	H 	0.56440 0.76620 0.57420 0.07100
H 	H 	0.44460 0.77140 0.74100 0.03800
H 	H 	0.93670 0.23540 0.85570 0.12700
H 	H 	0.68830 0.23640 0.86130 0.01600
H 	H 	0.31600 0.90000 0.89200 0.14100
H 	H 	0.66940 0.76620 0.42580 0.07100
H 	H 	0.78400 0.77140 0.25900 0.03900
H 	H 	0.82790 0.23540 0.14430 0.10500
H 	H 	0.07530 0.23640 0.13870 -0.01200
H 	H 	0.78400 0.90000 0.10800 0.07100
C 	C 	0.50890 0.13620 0.39360 -0.10100
C 	C 	0.58130 0.13320 0.29510 0.06300
C 	C 	0.06590 0.86060 0.14250 -0.22600
C 	C 	0.21400 0.85980 0.13810 0.11700
C 	C 	0.46820 0.53540 0.94690 0.39500
C 	C 	0.35490 0.13620 0.60640 -0.10100
C 	C 	0.28550 0.13320 0.70490 0.05900
C 	C 	0.07350 0.86060 0.85750 -0.18300
C 	C 	0.92620 0.85980 0.86190 0.16700
C 	C 	0.99640 0.53540 0.05310 0.08500
C 	C 	0.49110 0.86380 0.60640 -0.08700
C 	C 	0.41870 0.86680 0.70490 0.07500
C 	C 	0.93410 0.13940 0.85750 -0.14900
C 	C 	0.78600 0.14020 0.86190 0.12700
C 	C 	0.53180 0.46460 0.05310 0.03400
C 	C 	0.64510 0.86380 0.39360 -0.08600
C 	C 	0.71450 0.86680 0.29510 0.07700
C 	C 	0.92650 0.13940 0.14250 -0.19300
C 	C 	0.07380 0.14020 0.13810 0.07400
C 	C 	0.00360 0.46460 0.94690 0.34000
C 	C 	0.54020 0.00000 0.44720 0.03700
C 	C 	0.76450 0.00000 0.14040 -0.16800
C 	C 	0.92330 0.00000 0.14420 0.14900
C 	C 	0.21870 0.00000 0.13280 -0.22900
C 	C 	0.37750 0.00000 0.11750 0.38300
C 	C 	0.45980 0.00000 0.55280 0.03500
C 	C 	0.23550 0.00000 0.85960 -0.19500
C 	C 	0.07670 0.00000 0.85580 0.15600
C 	C 	0.78130 0.00000 0.86720 -0.18100
C 	C 	0.62250 -0.00000 0.88250 0.40700
N 	N 	0.68680 0.00000 0.24910 -0.10800
N 	N 	0.31320 0.00000 0.75090 -0.10900
O 	O 	0.50543 0.87074 0.11230 -0.45100
O 	O 	0.50180 0.63740 0.90850 -0.35100
O 	O 	0.38785 0.48530 0.90540 -0.34300
O 	O 	0.62383 0.87074 0.88770 -0.36400
O 	O 	0.86080 0.63740 0.09150 -0.36300
O 	O 	0.12685 0.48530 0.09460 -0.36900
O 	O 	0.49457 0.12926 0.88770 -0.37700
O 	O 	0.49820 0.36260 0.09150 -0.35400
O 	O 	0.61215 0.51470 0.09460 -0.34400
O 	O 	0.37617 0.12926 0.11230 -0.46400
O 	O 	0.13920 0.36260 0.90850 -0.34300
O 	O 	0.87315 0.51470 0.90540 -0.31500
