data_crystal

_cell_length_a 8.52110
_cell_length_b 11.97790
_cell_length_c 9.05930
_cell_angle_alpha 90.00000
_cell_angle_beta  90.00000
_cell_angle_gamma 90.00000

_symmetry_space_group_name_	'P 1'
_symmetry_space_group_name_H-M	'P 1'

loop_
_symmetry_equiv_pos_as_xyz
  x,y,z

loop_
_atom_site_label
_atom_site_type_symbol
_atom_site_fract_x
_atom_site_fract_y
_atom_site_fract_z
_atom_site_charge
O 	O 	0.25685 0.40746 0.37153 -0.41200
O 	O 	0.40434 0.17949 0.41632 -0.43100
O 	O 	0.55742 0.19135 0.61227 -0.41500
C 	C 	0.51980 0.21654 0.48493 0.50900
H 	H 	0.58330 0.26770 0.43590 -0.12400
O 	O 	0.24315 0.59254 0.37153 -0.41200
O 	O 	0.09566 0.82051 0.41632 -0.40400
O 	O 	0.94258 0.80865 0.61227 -0.39300
C 	C 	0.98020 0.78346 0.48493 0.50200
H 	H 	0.91670 0.73230 0.43590 -0.11900
O 	O 	0.24315 0.90746 0.12847 -0.34300
O 	O 	0.09566 0.67949 0.08368 -0.41000
O 	O 	0.94258 0.69135 0.88773 -0.39500
C 	C 	0.98020 0.71654 0.01507 0.48500
H 	H 	0.91670 0.76770 0.06410 -0.11200
O 	O 	0.25685 0.09254 0.12847 -0.39500
O 	O 	0.40434 0.32051 0.08368 -0.42400
O 	O 	0.55742 0.30865 0.88773 -0.40900
C 	C 	0.51980 0.28346 0.01507 0.50900
H 	H 	0.58330 0.23230 0.06410 -0.12800
O 	O 	0.74315 0.59254 0.62847 -0.41200
O 	O 	0.59566 0.82051 0.58368 -0.40800
O 	O 	0.44258 0.80865 0.38773 -0.39400
C 	C 	0.48020 0.78346 0.51507 0.50700
H 	H 	0.41670 0.73230 0.56410 -0.12000
O 	O 	0.75685 0.40746 0.62847 -0.41200
O 	O 	0.90434 0.17949 0.58368 -0.42900
O 	O 	0.05742 0.19135 0.38773 -0.41400
C 	C 	0.01980 0.21654 0.51507 0.50600
H 	H 	0.08330 0.26770 0.56410 -0.12400
O 	O 	0.75685 0.09254 0.87153 -0.39600
O 	O 	0.90434 0.32051 0.91632 -0.41400
O 	O 	0.05742 0.30865 0.11227 -0.40000
C 	C 	0.01980 0.28346 0.98493 0.48900
H 	H 	0.08330 0.23230 0.93590 -0.12300
O 	O 	0.74315 0.90746 0.87153 -0.34600
O 	O 	0.59566 0.67949 0.91632 -0.42000
O 	O 	0.44258 0.69135 0.11227 -0.40500
C 	C 	0.48020 0.71654 0.98493 0.50800
H 	H 	0.41670 0.76770 0.93590 -0.11800
Mn	Mn	0.25192 0.25000 0.25000 1.33100
Mn	Mn	0.24808 0.75000 0.25000 1.33300
Mn	Mn	0.74808 0.75000 0.75000 1.33300
Mn	Mn	0.75192 0.25000 0.75000 1.33100
C 	C 	0.25000 0.50000 0.31080 0.49200
H 	H 	0.25000 0.50000 0.20820 -0.11800
C 	C 	0.25000 0.00000 0.18920 0.38500
H 	H 	0.25000 0.00000 0.29180 -0.10200
C 	C 	0.75000 0.50000 0.68920 0.49200
H 	H 	0.75000 0.50000 0.79180 -0.11800
C 	C 	0.75000 0.00000 0.81080 0.39000
H 	H 	0.75000 0.00000 0.70820 -0.10300
