data_crystal

_cell_length_a 24.26000
_cell_length_b 24.41500
_cell_length_c 24.53100
_cell_angle_alpha 83.56600
_cell_angle_beta  62.29200
_cell_angle_gamma 61.71700

_symmetry_space_group_name_	'P 1'
_symmetry_space_group_name_H-M	'P 1'

loop_
_symmetry_equiv_pos_as_xyz
  x,y,z

loop_
_atom_site_label
_atom_site_type_symbol
_atom_site_fract_x
_atom_site_fract_y
_atom_site_fract_z
_atom_site_charge
Yb	Yb	0.15864 0.27999 0.13753 1.53800
O 	O 	0.06360 0.27610 0.22470 -0.26000
O 	O 	0.21930 0.26290 0.02510 -0.24500
O 	O 	0.21350 0.20430 0.19120 -0.25000
O 	O 	0.13100 0.38050 0.11060 -0.26400
O 	O 	0.26740 0.27630 0.10550 -0.26400
O 	O 	0.06480 0.30900 0.11380 -0.25100
O 	O 	0.13310 0.34270 0.22160 -0.25300
O 	O 	0.17730 0.18260 0.10720 -0.25900
N 	N 	0.04290 0.27840 0.28550 -0.06200
N 	N 	0.23500 0.21530 0.98990 -0.06800
N 	N 	0.26020 0.20350 0.20630 -0.06700
N 	N 	0.09450 0.41260 0.08010 -0.06700
N 	N 	0.31200 0.28570 0.05250 -0.06000
N 	N 	0.02030 0.28630 0.13570 -0.06300
N 	N 	0.14530 0.39060 0.21790 -0.06400
N 	N 	0.19130 0.13110 0.13430 -0.06400
C 	C 	0.07560 0.22740 0.30890 0.03800
C 	C 	0.98700 0.33130 0.32370 0.05300
C 	C 	0.18690 0.21940 0.97470 0.04700
C 	C 	0.29690 0.16460 0.97080 0.05100
C 	C 	0.23630 0.23750 0.26020 0.04200
C 	C 	0.32950 0.16730 0.16920 0.05300
C 	C 	0.12690 0.40240 0.01800 0.04100
C 	C 	0.02710 0.45450 0.11100 0.05700
C 	C 	0.37590 0.23610 0.01500 0.04800
C 	C 	0.29420 0.34580 0.03800 0.03400
C 	C 	0.03740 0.23210 0.10950 0.04300
C 	C 	0.95610 0.31900 0.18700 0.04700
C 	C 	0.09230 0.44940 0.23250 0.05300
C 	C 	0.21160 0.37970 0.20210 0.03600
C 	C 	0.13790 0.12480 0.18200 0.03800
C 	C 	0.25820 0.08580 0.11320 0.05300
H 	H 	0.11770 0.19170 0.28160 0.04100
C 	C 	0.04780 0.22730 0.37180 -0.09900
C 	C 	0.96020 0.33220 0.38580 -0.10500
H 	H 	0.96640 0.36790 0.30690 0.02500
H 	H 	0.14310 0.25710 0.98730 0.03400
C 	C 	0.20100 0.16920 0.94120 -0.10400
C 	C 	0.31410 0.11220 0.93540 -0.10300
H 	H 	0.33070 0.16330 0.98100 0.02400
H 	H 	0.18680 0.26080 0.28750 0.03900
C 	C 	0.28380 0.23770 0.27440 -0.09600
C 	C 	0.37790 0.16670 0.18320 -0.10000
H 	H 	0.34500 0.14200 0.13300 0.02400
C 	C 	0.08980 0.43700 0.98580 -0.09500
H 	H 	0.17530 0.37140 0.99580 0.04000
C 	C 	0.98910 0.48830 0.08090 -0.10300
H 	H 	0.00460 0.46130 0.15520 0.02300
C 	C 	0.42260 0.24560 0.96210 -0.10100
H 	H 	0.38780 0.19490 0.02600 0.02300
H 	H 	0.24970 0.38020 0.06450 0.04100
C 	C 	0.34140 0.35520 0.98520 -0.09200
C 	C 	0.99190 0.20730 0.13300 -0.09800
H 	H 	0.08190 0.21010 0.07360 0.03600
C 	C 	0.90840 0.29540 0.21200 -0.09500
H 	H 	0.94400 0.35780 0.20550 0.03000
H 	H 	0.04590 0.45630 0.24460 0.02700
C 	C 	0.10290 0.49990 0.23060 -0.10100
C 	C 	0.22480 0.42900 0.19910 -0.09300
H 	H 	0.24900 0.33780 0.19300 0.04300
C 	C 	0.15310 0.07060 0.21010 -0.09600
H 	H 	0.09020 0.15710 0.19640 0.03900
C 	C 	0.27510 0.03180 0.13960 -0.10100
H 	H 	0.29500 0.09120 0.07920 0.02400
H 	H 	0.07040 0.19100 0.38780 0.06300
C 	C 	0.98750 0.27910 0.41240 0.04300
H 	H 	0.92160 0.37010 0.41220 0.06600
H 	H 	0.16630 0.17240 0.93120 0.06700
C 	C 	0.26370 0.11460 0.92140 0.04500
H 	H 	0.35930 0.07590 0.92130 0.06400
C 	C 	0.35660 0.20320 0.23640 0.03800
H 	H 	0.26690 0.26230 0.31160 0.06400
H 	H 	0.42710 0.14110 0.15630 0.06300
C 	C 	0.02050 0.48140 0.01630 0.04400
H 	H 	0.11340 0.42940 0.94160 0.06300
H 	H 	0.94010 0.51730 0.10440 0.06400
H 	H 	0.46610 0.21040 0.93570 0.06400
C 	C 	0.40890 0.30460 0.94540 0.03800
H 	H 	0.32910 0.39650 0.97460 0.06300
H 	H 	0.00550 0.16840 0.11330 0.06200
C 	C 	0.92680 0.23800 0.18480 0.04200
H 	H 	0.86360 0.31820 0.24740 0.06300
C 	C 	0.17080 0.49090 0.21310 0.03900
H 	H 	0.06420 0.54120 0.24100 0.06500
H 	H 	0.27150 0.42080 0.18740 0.06400
H 	H 	0.11540 0.06670 0.24440 0.06300
C 	C 	0.22090 0.02290 0.18950 0.04200
H 	H 	0.32330 0.00030 0.12440 0.06300
C 	C 	0.95450 0.27620 0.47960 0.03900
C 	C 	0.27920 0.05630 0.88870 0.04500
C 	C 	0.40890 0.20680 0.24930 0.04700
C 	C 	0.46200 0.31620 0.89020 0.04300
C 	C 	0.87890 0.20900 0.21240 0.04100
C 	C 	0.18640 0.54280 0.21020 0.04400
C 	C 	0.23780 0.96380 0.21720 0.04100
C 	C 	0.96080 0.21990 0.50190 -0.09800
C 	C 	0.91420 0.32950 0.52450 -0.09400
C 	C 	0.23140 0.03560 0.90930 -0.10500
C 	C 	0.34450 0.02230 0.83760 -0.09800
C 	C 	0.47600 0.19080 0.20170 -0.09900
C 	C 	0.39430 0.22470 0.30740 -0.10800
C 	C 	0.47360 0.36620 0.89500 -0.10100
C 	C 	0.50350 0.27780 0.83350 -0.09900
C 	C 	0.81660 0.23460 0.26880 -0.09300
C 	C 	0.89710 0.15360 0.18260 -0.09800
C 	C 	0.13460 0.60140 0.24650 -0.09700
C 	C 	0.25240 0.53700 0.17110 -0.10300
C 	C 	0.19260 0.96100 0.27780 -0.10000
C 	C 	0.29850 0.90760 0.18340 -0.09700
H 	H 	0.98770 0.18260 0.47320 0.06200
C 	C 	0.92930 0.21640 0.56400 0.04600
C 	C 	0.88330 0.32480 0.58680 0.04200
H 	H 	0.90820 0.36920 0.51160 0.06300
H 	H 	0.18580 0.05950 0.94350 0.06600
C 	C 	0.24760 0.97960 0.88130 0.04800
H 	H 	0.37870 0.03650 0.82200 0.06500
C 	C 	0.35970 0.96740 0.80920 0.03800
C 	C 	0.52400 0.19710 0.21220 0.04100
H 	H 	0.48940 0.17540 0.16120 0.06500
C 	C 	0.44280 0.23010 0.31680 0.05800
H 	H 	0.34960 0.23360 0.34190 0.06700
H 	H 	0.44390 0.39530 0.93210 0.06400
C 	C 	0.52750 0.37330 0.84660 0.05100
H 	H 	0.49560 0.24470 0.82800 0.06500
C 	C 	0.55570 0.28720 0.78540 0.04100
H 	H 	0.80250 0.27250 0.29060 0.06300
C 	C 	0.77550 0.20550 0.29280 0.03800
H 	H 	0.93950 0.13470 0.14430 0.06100
C 	C 	0.85430 0.12540 0.20800 0.04800
C 	C 	0.14980 0.64890 0.24310 0.04200
H 	H 	0.08790 0.60810 0.27400 0.06400
H 	H 	0.28900 0.49850 0.14480 0.06500
C 	C 	0.26660 0.58530 0.16910 0.05200
H 	H 	0.15100 0.99820 0.30300 0.06300
C 	C 	0.20780 0.90530 0.30100 0.05100
C 	C 	0.31210 0.85320 0.20740 0.04000
H 	H 	0.33120 0.90770 0.14240 0.06300
N 	N 	0.89000 0.26910 0.60570 -0.06400
H 	H 	0.93480 0.17710 0.57800 0.02400
H 	H 	0.85710 0.36110 0.61670 0.03700
N 	N 	0.31200 0.94630 0.83230 -0.06100
H 	H 	0.21370 0.96510 0.89660 0.02400
H 	H 	0.40400 0.94460 0.77320 0.04000
N 	N 	0.50680 0.21610 0.26960 -0.06600
H 	H 	0.56940 0.18800 0.17870 0.04100
H 	H 	0.43100 0.24400 0.35730 0.02400
N 	N 	0.56810 0.33360 0.79290 -0.06600
H 	H 	0.53630 0.40620 0.85070 0.02300
H 	H 	0.58350 0.26100 0.74660 0.03900
N 	N 	0.79540 0.15100 0.26240 -0.06200
H 	H 	0.73280 0.22370 0.33100 0.04100
H 	H 	0.86690 0.08790 0.18660 0.02500
N 	N 	0.21540 0.64100 0.20500 -0.06400
H 	H 	0.11360 0.68830 0.26800 0.04000
H 	H 	0.31290 0.57950 0.14210 0.02400
H 	H 	0.17650 0.90400 0.34230 0.02400
N 	N 	0.26700 0.85160 0.26600 -0.06400
H 	H 	0.35370 0.81560 0.18300 0.03900
O 	O 	0.86040 0.26410 0.66590 -0.25300
O 	O 	0.32840 0.89200 0.80770 -0.25800
O 	O 	0.55250 0.22290 0.27990 -0.25400
O 	O 	0.62270 0.33950 0.74790 -0.24800
O 	O 	0.75700 0.12180 0.28700 -0.26300
O 	O 	0.23120 0.68670 0.20080 -0.25400
O 	O 	0.27950 0.79770 0.28910 -0.25300
Yb	Yb	0.74312 0.28067 0.73040 1.53800
Yb	Yb	0.34818 0.85676 0.71125 1.53700
O 	O 	0.75490 0.28720 0.63010 -0.25800
O 	O 	0.82100 0.18370 0.74610 -0.25700
O 	O 	0.66990 0.27110 0.83180 -0.25700
O 	O 	0.72450 0.38270 0.71360 -0.25800
O 	O 	0.63230 0.11960 0.39070 -0.25200
O 	O 	0.56600 0.11000 0.32500 -0.25900
O 	O 	0.70050 0.20040 0.21400 -0.25000
O 	O 	0.61310 0.23650 0.34950 -0.25100
O 	O 	0.71930 0.03130 0.27130 -0.25000
N 	N 	0.73340 0.26350 0.60270 -0.06500
N 	N 	0.88580 0.16040 0.73990 -0.06100
N 	N 	0.67830 0.26230 0.88250 -0.06500
N 	N 	0.67490 0.42980 0.70140 -0.06800
N 	N 	0.64630 0.14220 0.42740 -0.06900
N 	N 	0.54890 0.07950 0.37330 -0.06900
C 	C 	0.77840 0.20660 0.56850 0.05500
C 	C 	0.66810 0.29550 0.60900 0.04300
C 	C 	0.89530 0.18220 0.78130 0.03400
C 	C 	0.93990 0.11450 0.69330 0.04700
C 	C 	0.63930 0.31020 0.92850 0.05500
C 	C 	0.72380 0.20620 0.88830 0.04200
C 	C 	0.61410 0.47070 0.74940 0.05700
C 	C 	0.68670 0.43750 0.64280 0.05200
C 	C 	0.59380 0.18860 0.47230 0.05500
C 	C 	0.71270 0.11700 0.41840 0.04600
C 	C 	0.49570 0.11080 0.42810 0.05900
C 	C 	0.58590 0.01770 0.36690 0.04600
H 	H 	0.82390 0.18330 0.56650 0.02300
C 	C 	0.76040 0.18160 0.53690 -0.10500
H 	H 	0.63580 0.33520 0.63440 0.04000
C 	C 	0.64730 0.27070 0.57800 -0.09700
C 	C 	0.96160 0.15350 0.77820 -0.09300
H 	H 	0.85680 0.21700 0.81220 0.04300
C 	C 	0.00890 0.08590 0.68750 -0.09900
H 	H 	0.93200 0.10100 0.66400 0.02500
H 	H 	0.60830 0.35030 0.92340 0.02400
C 	C 	0.64370 0.30200 0.98240 -0.10500
C 	C 	0.73010 0.19620 0.94110 -0.10000
H 	H 	0.75200 0.17270 0.85500 0.04100
C 	C 	0.56480 0.52140 0.73900 -0.10700
H 	H 	0.60570 0.46400 0.79080 0.02100
C 	C 	0.63860 0.48760 0.63090 -0.10700
H 	H 	0.72920 0.40760 0.60930 0.03400
H 	H 	0.54670 0.20500 0.47890 0.02700
C 	C 	0.60670 0.21410 0.51040 -0.09800
H 	H 	0.74980 0.08300 0.38610 0.03700
C 	C 	0.72770 0.13950 0.45470 -0.09700
H 	H 	0.47070 0.15530 0.43270 0.02200
C 	C 	0.47540 0.08140 0.47800 -0.10700
C 	C 	0.56760 0.98550 0.41600 -0.09800
H 	H 	0.62550 0.99530 0.32790 0.03800
C 	C 	0.69460 0.21370 0.53970 0.04600
H 	H 	0.79360 0.14150 0.51250 0.06400
H 	H 	0.60030 0.29310 0.58330 0.06400
C 	C 	0.01960 0.10450 0.73080 0.03900
H 	H 	0.96780 0.16730 0.80870 0.06300
H 	H 	0.04760 0.05410 0.65370 0.06400
C 	C 	0.69040 0.24400 0.98990 0.04300
H 	H 	0.61470 0.33610 0.01510 0.06400
H 	H 	0.76250 0.15590 0.94450 0.06500
H 	H 	0.52180 0.54970 0.77320 0.06700
C 	C 	0.57660 0.53220 0.67860 0.04700
H 	H 	0.64740 0.49220 0.58910 0.06700
C 	C 	0.67580 0.18930 0.50230 0.03900
H 	H 	0.56850 0.24840 0.54200 0.06400
H 	H 	0.77530 0.12060 0.44740 0.06300
C 	C 	0.50940 0.01760 0.47360 0.04600
H 	H 	0.43690 0.10570 0.51670 0.06600
H 	H 	0.59470 0.94110 0.41080 0.06400
C 	C 	0.08880 0.07150 0.72980 0.04300
C 	C 	0.69370 0.23370 0.05000 0.04400
C 	C 	0.52570 0.59090 0.66730 0.04000
C 	C 	0.09300 0.05520 0.78490 -0.10300
C 	C 	0.15180 0.05480 0.67500 -0.10000
C 	C 	0.63760 0.27170 0.10530 -0.10100
C 	C 	0.75300 0.18560 0.05190 -0.10400
C 	C 	0.45170 0.61680 0.70510 -0.09700
C 	C 	0.54920 0.62400 0.62110 -0.10100
H 	H 	0.05080 0.06800 0.82350 0.06400
C 	C 	0.15850 0.02040 0.78300 0.05200
C 	C 	0.21620 0.02140 0.67530 0.04300
H 	H 	0.15050 0.06630 0.63720 0.06500
H 	H 	0.59660 0.30620 0.10530 0.06300
C 	C 	0.64070 0.26000 0.15890 0.04300
C 	C 	0.75460 0.17570 0.10750 0.05300
H 	H 	0.79280 0.15930 0.01470 0.06400
C 	C 	0.40620 0.67310 0.69760 0.04300
H 	H 	0.43350 0.59430 0.73630 0.06500
C 	C 	0.50190 0.68160 0.61610 0.05000
H 	H 	0.59830 0.60680 0.59260 0.06500
N 	N 	0.21710 0.00350 0.72950 -0.06900
H 	H 	0.16130 0.00850 0.82020 0.02300
H 	H 	0.25920 0.01110 0.63810 0.03500
N 	N 	0.69850 0.21180 0.16060 -0.06600
H 	H 	0.60160 0.28620 0.19640 0.03800
H 	H 	0.79600 0.14290 0.10830 0.02400
H 	H 	0.35650 0.68950 0.72300 0.03800
N 	N 	0.43160 0.70590 0.65390 -0.06600
H 	H 	0.51900 0.70490 0.58530 0.02400
Yb	Yb	0.84136 0.72001 0.86247 1.53900
O 	O 	0.93640 0.72390 0.77530 -0.25900
O 	O 	0.78070 0.73710 0.97490 -0.24400
O 	O 	0.78650 0.79570 0.80880 -0.24900
O 	O 	0.86900 0.61950 0.88940 -0.26300
O 	O 	0.73260 0.72370 0.89450 -0.26300
O 	O 	0.93520 0.69100 0.88620 -0.25100
O 	O 	0.86690 0.65730 0.77840 -0.25300
O 	O 	0.82270 0.81740 0.89280 -0.25900
N 	N 	0.95710 0.72160 0.71450 -0.06200
N 	N 	0.76500 0.78470 0.01010 -0.06800
N 	N 	0.73980 0.79650 0.79370 -0.06700
N 	N 	0.90550 0.58740 0.91990 -0.06700
N 	N 	0.68800 0.71430 0.94750 -0.06000
N 	N 	0.97970 0.71370 0.86430 -0.06300
N 	N 	0.85470 0.60940 0.78210 -0.06400
N 	N 	0.80870 0.86890 0.86570 -0.06400
C 	C 	0.92440 0.77260 0.69110 0.03800
C 	C 	0.01300 0.66870 0.67630 0.05300
C 	C 	0.81310 0.78060 0.02530 0.04700
C 	C 	0.70310 0.83540 0.02920 0.05100
C 	C 	0.76370 0.76250 0.73980 0.04200
C 	C 	0.67050 0.83270 0.83080 0.05300
C 	C 	0.87310 0.59760 0.98200 0.04100
C 	C 	0.97290 0.54550 0.88900 0.05700
C 	C 	0.62410 0.76390 0.98500 0.04800
C 	C 	0.70580 0.65420 0.96200 0.03400
C 	C 	0.96260 0.76790 0.89050 0.04300
C 	C 	0.04390 0.68100 0.81300 0.04700
C 	C 	0.90770 0.55060 0.76750 0.05300
C 	C 	0.78840 0.62030 0.79790 0.03600
C 	C 	0.86210 0.87520 0.81800 0.03800
C 	C 	0.74180 0.91420 0.88680 0.05300
H 	H 	0.88230 0.80830 0.71840 0.04100
C 	C 	0.95220 0.77270 0.62820 -0.09900
C 	C 	0.03980 0.66780 0.61420 -0.10500
H 	H 	0.03360 0.63210 0.69310 0.02500
H 	H 	0.85690 0.74290 0.01270 0.03400
C 	C 	0.79900 0.83080 0.05880 -0.10400
C 	C 	0.68590 0.88780 0.06460 -0.10300
H 	H 	0.66930 0.83670 0.01900 0.02400
H 	H 	0.81320 0.73920 0.71250 0.03900
C 	C 	0.71620 0.76230 0.72560 -0.09600
C 	C 	0.62210 0.83330 0.81680 -0.10000
H 	H 	0.65500 0.85800 0.86700 0.02400
C 	C 	0.91020 0.56300 0.01420 -0.09500
H 	H 	0.82470 0.62860 0.00420 0.04000
C 	C 	0.01090 0.51170 0.91910 -0.10300
H 	H 	0.99540 0.53870 0.84480 0.02300
C 	C 	0.57740 0.75440 0.03790 -0.10100
H 	H 	0.61220 0.80510 0.97400 0.02300
H 	H 	0.75030 0.61980 0.93550 0.04100
C 	C 	0.65860 0.64480 0.01480 -0.09200
C 	C 	0.00810 0.79270 0.86700 -0.09800
H 	H 	0.91810 0.78990 0.92640 0.03600
C 	C 	0.09160 0.70460 0.78800 -0.09500
H 	H 	0.05600 0.64220 0.79450 0.03000
H 	H 	0.95410 0.54370 0.75540 0.02700
C 	C 	0.89710 0.50010 0.76940 -0.10100
C 	C 	0.77520 0.57100 0.80090 -0.09300
H 	H 	0.75100 0.66220 0.80700 0.04300
C 	C 	0.84690 0.92940 0.78990 -0.09600
H 	H 	0.90980 0.84290 0.80360 0.03900
C 	C 	0.72490 0.96820 0.86040 -0.10100
H 	H 	0.70500 0.90880 0.92080 0.02400
H 	H 	0.92960 0.80900 0.61220 0.06300
C 	C 	0.01250 0.72090 0.58760 0.04300
H 	H 	0.07840 0.62990 0.58780 0.06600
H 	H 	0.83370 0.82760 0.06880 0.06700
C 	C 	0.73630 0.88540 0.07860 0.04500
H 	H 	0.64070 0.92410 0.07870 0.06400
C 	C 	0.64340 0.79680 0.76360 0.03800
H 	H 	0.73310 0.73770 0.68840 0.06400
H 	H 	0.57290 0.85890 0.84370 0.06300
C 	C 	0.97950 0.51860 0.98370 0.04400
H 	H 	0.88660 0.57060 0.05840 0.06300
H 	H 	0.05990 0.48270 0.89560 0.06400
H 	H 	0.53390 0.78960 0.06430 0.06400
C 	C 	0.59110 0.69540 0.05460 0.03800
H 	H 	0.67090 0.60350 0.02540 0.06300
H 	H 	0.99450 0.83160 0.88670 0.06200
C 	C 	0.07320 0.76200 0.81520 0.04200
H 	H 	0.13640 0.68180 0.75260 0.06300
C 	C 	0.82920 0.50910 0.78690 0.03900
H 	H 	0.93580 0.45880 0.75900 0.06500
H 	H 	0.72850 0.57920 0.81260 0.06400
H 	H 	0.88460 0.93330 0.75560 0.06300
C 	C 	0.77910 0.97710 0.81050 0.04200
H 	H 	0.67670 0.99970 0.87560 0.06300
C 	C 	0.04550 0.72380 0.52040 0.03900
C 	C 	0.72080 0.94370 0.11130 0.04500
C 	C 	0.59110 0.79320 0.75070 0.04700
C 	C 	0.53800 0.68380 0.10980 0.04300
C 	C 	0.12110 0.79100 0.78760 0.04100
C 	C 	0.81360 0.45720 0.78980 0.04400
C 	C 	0.76220 0.03620 0.78280 0.04100
C 	C 	0.03920 0.78010 0.49810 -0.09800
C 	C 	0.08580 0.67050 0.47550 -0.09400
C 	C 	0.76860 0.96440 0.09070 -0.10500
C 	C 	0.65550 0.97770 0.16240 -0.09800
C 	C 	0.52400 0.80920 0.79830 -0.09900
C 	C 	0.60570 0.77530 0.69260 -0.10800
C 	C 	0.52640 0.63380 0.10500 -0.10100
C 	C 	0.49650 0.72220 0.16650 -0.09900
C 	C 	0.18340 0.76540 0.73120 -0.09300
C 	C 	0.10290 0.84640 0.81740 -0.09800
C 	C 	0.86540 0.39860 0.75350 -0.09700
C 	C 	0.74760 0.46300 0.82890 -0.10300
C 	C 	0.80740 0.03900 0.72220 -0.10000
C 	C 	0.70150 0.09240 0.81660 -0.09700
H 	H 	0.01230 0.81740 0.52680 0.06200
C 	C 	0.07070 0.78360 0.43600 0.04600
C 	C 	0.11670 0.67520 0.41320 0.04200
H 	H 	0.09180 0.63080 0.48840 0.06300
H 	H 	0.81420 0.94050 0.05650 0.06600
C 	C 	0.75240 0.02040 0.11870 0.04800
H 	H 	0.62130 0.96350 0.17800 0.06500
C 	C 	0.64030 0.03260 0.19080 0.03800
C 	C 	0.47600 0.80290 0.78780 0.04100
H 	H 	0.51060 0.82460 0.83880 0.06500
C 	C 	0.55720 0.76990 0.68320 0.05800
H 	H 	0.65040 0.76640 0.65810 0.06700
H 	H 	0.55610 0.60470 0.06790 0.06400
C 	C 	0.47250 0.62670 0.15340 0.05100
H 	H 	0.50440 0.75530 0.17200 0.06500
C 	C 	0.44430 0.71280 0.21460 0.04100
H 	H 	0.19750 0.72750 0.70940 0.06300
C 	C 	0.22450 0.79450 0.70720 0.03800
H 	H 	0.06050 0.86530 0.85570 0.06100
C 	C 	0.14570 0.87460 0.79200 0.04800
C 	C 	0.85020 0.35110 0.75690 0.04200
H 	H 	0.91210 0.39190 0.72600 0.06400
H 	H 	0.71100 0.50150 0.85520 0.06500
C 	C 	0.73340 0.41470 0.83090 0.05200
H 	H 	0.84900 0.00180 0.69700 0.06300
C 	C 	0.79220 0.09470 0.69900 0.05100
C 	C 	0.68790 0.14680 0.79260 0.04000
H 	H 	0.66880 0.09230 0.85760 0.06300
N 	N 	0.11000 0.73090 0.39430 -0.06400
H 	H 	0.06520 0.82290 0.42200 0.02400
H 	H 	0.14290 0.63890 0.38330 0.03700
N 	N 	0.68800 0.05370 0.16770 -0.06100
H 	H 	0.78630 0.03490 0.10340 0.02400
H 	H 	0.59600 0.05540 0.22680 0.04000
N 	N 	0.49320 0.78390 0.73040 -0.06600
H 	H 	0.43060 0.81200 0.82130 0.04100
H 	H 	0.56900 0.75600 0.64270 0.02400
N 	N 	0.43190 0.66640 0.20710 -0.06600
H 	H 	0.46370 0.59380 0.14930 0.02300
H 	H 	0.41650 0.73900 0.25340 0.03900
N 	N 	0.20460 0.84900 0.73760 -0.06200
H 	H 	0.26720 0.77630 0.66900 0.04100
H 	H 	0.13310 0.91210 0.81340 0.02500
N 	N 	0.78460 0.35900 0.79500 -0.06400
H 	H 	0.88640 0.31170 0.73200 0.04000
H 	H 	0.68710 0.42050 0.85790 0.02400
H 	H 	0.82350 0.09600 0.65770 0.02400
N 	N 	0.73300 0.14840 0.73400 -0.06400
H 	H 	0.64630 0.18440 0.81700 0.03900
O 	O 	0.13960 0.73590 0.33410 -0.25300
O 	O 	0.67160 0.10800 0.19230 -0.25800
O 	O 	0.44750 0.77710 0.72010 -0.25400
O 	O 	0.37730 0.66050 0.25210 -0.24800
O 	O 	0.24300 0.87820 0.71300 -0.26300
O 	O 	0.76880 0.31330 0.79920 -0.25400
O 	O 	0.72050 0.20230 0.71090 -0.25300
Yb	Yb	0.25688 0.71933 0.26960 1.53800
Yb	Yb	0.65182 0.14324 0.28875 1.53700
O 	O 	0.24510 0.71280 0.36990 -0.25800
O 	O 	0.17900 0.81630 0.25390 -0.25700
O 	O 	0.33010 0.72890 0.16820 -0.25700
O 	O 	0.27550 0.61730 0.28640 -0.25800
O 	O 	0.36770 0.88040 0.60930 -0.25200
O 	O 	0.43400 0.89000 0.67500 -0.25900
O 	O 	0.29950 0.79960 0.78600 -0.25000
O 	O 	0.38690 0.76350 0.65050 -0.25100
O 	O 	0.28070 0.96870 0.72870 -0.25000
N 	N 	0.26660 0.73650 0.39730 -0.06500
N 	N 	0.11420 0.83960 0.26010 -0.06100
N 	N 	0.32170 0.73770 0.11750 -0.06500
N 	N 	0.32510 0.57020 0.29860 -0.06800
N 	N 	0.35370 0.85780 0.57260 -0.06900
N 	N 	0.45110 0.92050 0.62670 -0.06900
C 	C 	0.22160 0.79340 0.43150 0.05500
C 	C 	0.33190 0.70450 0.39100 0.04300
C 	C 	0.10470 0.81780 0.21870 0.03400
C 	C 	0.06010 0.88550 0.30670 0.04700
C 	C 	0.36070 0.68980 0.07150 0.05500
C 	C 	0.27620 0.79380 0.11170 0.04200
C 	C 	0.38590 0.52930 0.25060 0.05700
C 	C 	0.31330 0.56250 0.35720 0.05200
C 	C 	0.40620 0.81140 0.52770 0.05500
C 	C 	0.28730 0.88300 0.58160 0.04600
C 	C 	0.50430 0.88920 0.57190 0.05900
C 	C 	0.41410 0.98230 0.63310 0.04600
H 	H 	0.17610 0.81670 0.43350 0.02300
C 	C 	0.23960 0.81840 0.46310 -0.10500
H 	H 	0.36420 0.66480 0.36560 0.04000
C 	C 	0.35270 0.72930 0.42200 -0.09700
C 	C 	0.03840 0.84650 0.22180 -0.09300
H 	H 	0.14320 0.78300 0.18780 0.04300
C 	C 	0.99110 0.91410 0.31250 -0.09900
H 	H 	0.06800 0.89900 0.33600 0.02500
H 	H 	0.39170 0.64970 0.07660 0.02400
C 	C 	0.35630 0.69800 0.01760 -0.10500
C 	C 	0.26990 0.80380 0.05890 -0.10000
H 	H 	0.24800 0.82730 0.14500 0.04100
C 	C 	0.43520 0.47860 0.26100 -0.10700
H 	H 	0.39430 0.53600 0.20920 0.02100
C 	C 	0.36140 0.51240 0.36910 -0.10700
H 	H 	0.27080 0.59240 0.39070 0.03400
H 	H 	0.45330 0.79500 0.52110 0.02700
C 	C 	0.39330 0.78590 0.48960 -0.09800
H 	H 	0.25020 0.91700 0.61390 0.03700
C 	C 	0.27230 0.86050 0.54530 -0.09700
H 	H 	0.52930 0.84470 0.56730 0.02200
C 	C 	0.52460 0.91860 0.52200 -0.10700
C 	C 	0.43240 0.01450 0.58400 -0.09800
H 	H 	0.37450 0.00470 0.67210 0.03800
C 	C 	0.30540 0.78630 0.46030 0.04600
H 	H 	0.20640 0.85850 0.48750 0.06400
H 	H 	0.39970 0.70690 0.41670 0.06400
C 	C 	0.98040 0.89550 0.26920 0.03900
H 	H 	0.03220 0.83270 0.19130 0.06300
H 	H 	0.95240 0.94590 0.34630 0.06400
C 	C 	0.30960 0.75600 0.01010 0.04300
H 	H 	0.38530 0.66390 0.98490 0.06400
H 	H 	0.23750 0.84410 0.05550 0.06500
H 	H 	0.47820 0.45030 0.22680 0.06700
C 	C 	0.42340 0.46780 0.32140 0.04700
H 	H 	0.35260 0.50780 0.41090 0.06700
C 	C 	0.32420 0.81070 0.49770 0.03900
H 	H 	0.43150 0.75160 0.45800 0.06400
H 	H 	0.22470 0.87940 0.55260 0.06300
C 	C 	0.49060 0.98240 0.52640 0.04600
H 	H 	0.56310 0.89430 0.48330 0.06600
H 	H 	0.40530 0.05890 0.58920 0.06400
C 	C 	0.91120 0.92850 0.27020 0.04300
C 	C 	0.30630 0.76630 0.95000 0.04400
C 	C 	0.47430 0.40910 0.33270 0.04000
C 	C 	0.90700 0.94480 0.21510 -0.10300
C 	C 	0.84820 0.94520 0.32500 -0.10000
C 	C 	0.36240 0.72830 0.89470 -0.10100
C 	C 	0.24700 0.81440 0.94810 -0.10400
C 	C 	0.54830 0.38320 0.29490 -0.09700
C 	C 	0.45080 0.37600 0.37890 -0.10100
H 	H 	0.94920 0.93200 0.17650 0.06400
C 	C 	0.84150 0.97960 0.21700 0.05200
C 	C 	0.78380 0.97860 0.32470 0.04300
H 	H 	0.84950 0.93370 0.36280 0.06500
H 	H 	0.40340 0.69380 0.89470 0.06300
C 	C 	0.35930 0.74000 0.84110 0.04300
C 	C 	0.24540 0.82430 0.89250 0.05300
H 	H 	0.20720 0.84070 0.98530 0.06400
C 	C 	0.59380 0.32690 0.30240 0.04300
H 	H 	0.56650 0.40570 0.26370 0.06500
C 	C 	0.49810 0.31840 0.38390 0.05000
H 	H 	0.40170 0.39320 0.40740 0.06500
N 	N 	0.78290 0.99650 0.27050 -0.06900
H 	H 	0.83870 0.99150 0.17980 0.02300
H 	H 	0.74080 0.98890 0.36190 0.03500
N 	N 	0.30150 0.78820 0.83940 -0.06600
H 	H 	0.39840 0.71380 0.80360 0.03800
H 	H 	0.20400 0.85710 0.89170 0.02400
H 	H 	0.64350 0.31050 0.27700 0.03800
N 	N 	0.56840 0.29410 0.34610 -0.06600
H 	H 	0.48100 0.29510 0.41470 0.02400
