data_crystal

_cell_length_a 58.26880
_cell_length_b 58.26880
_cell_length_c 58.26880
_cell_angle_alpha 109.47100
_cell_angle_beta  109.47100
_cell_angle_gamma 109.47100

_symmetry_space_group_name_	'P 1'
_symmetry_space_group_name_H-M	'P 1'

loop_
_symmetry_equiv_pos_as_xyz
  x,y,z

loop_
_atom_site_label
_atom_site_type_symbol
_atom_site_fract_x
_atom_site_fract_y
_atom_site_fract_z
_atom_site_charge
O 	O 	0.62717 0.40953 0.82410 -0.41900
O 	O 	0.60227 0.40898 0.84667 -0.42000
O 	O 	0.79475 0.35194 0.97089 -0.40500
O 	O 	0.77469 0.31231 0.97100 -0.41300
O 	O 	0.62828 0.49511 0.65685 -0.41500
O 	O 	0.66875 0.51487 0.69728 -0.41300
O 	O 	0.61606 0.46742 0.81162 -0.41700
O 	O 	0.59187 0.46650 0.83449 -0.41400
C 	C 	0.61714 0.40221 0.83857 0.35400
C 	C 	0.62213 0.37965 0.84350 -0.08700
C 	C 	0.64433 0.37556 0.84293 0.00900
H 	H 	0.65670 0.38690 0.83900 0.04000
C 	C 	0.64853 0.35569 0.84798 -0.06800
H 	H 	0.66380 0.35340 0.84740 0.05000
C 	C 	0.63079 0.33853 0.85396 -0.00600
C 	C 	0.60895 0.34220 0.85337 -0.07000
H 	H 	0.59580 0.33000 0.85600 0.05100
C 	C 	0.60472 0.36252 0.84926 0.00800
H 	H 	0.58970 0.36490 0.85040 0.03800
C 	C 	0.63549 0.31589 0.85874 0.12600
C 	C 	0.66198 0.32183 0.87675 -0.19000
H 	H 	0.67750 0.34030 0.88640 0.09200
C 	C 	0.66611 0.30081 0.88082 0.14700
C 	C 	0.64369 0.27562 0.86623 -0.27000
H 	H 	0.64660 0.26130 0.86870 0.11200
C 	C 	0.61564 0.26723 0.84723 0.30100
C 	C 	0.61235 0.28781 0.84422 -0.26900
H 	H 	0.59410 0.28380 0.83210 0.11400
C 	C 	0.69389 0.30834 0.90077 -0.01500
C 	C 	0.71819 0.33068 0.90853 -0.06700
H 	H 	0.71730 0.34230 0.90040 0.04800
C 	C 	0.74385 0.33681 0.92770 0.02000
H 	H 	0.76050 0.35220 0.93230 0.03700
C 	C 	0.74561 0.32040 0.94057 -0.11400
C 	C 	0.72189 0.29914 0.93331 0.03400
H 	H 	0.72240 0.28780 0.94180 0.03200
C 	C 	0.69675 0.29316 0.91401 -0.07400
H 	H 	0.68020 0.27760 0.90940 0.04900
C 	C 	0.77343 0.32896 0.96231 0.37200
C 	C 	0.64625 0.51329 0.68206 0.35800
C 	C 	0.63964 0.53424 0.69688 -0.09800
C 	C 	0.61359 0.53220 0.68325 0.01900
H 	H 	0.60030 0.51730 0.66460 0.04000
C 	C 	0.60672 0.55144 0.69634 -0.07700
H 	H 	0.58890 0.54960 0.68670 0.05500
C 	C 	0.62600 0.57341 0.72357 0.00700
C 	C 	0.65156 0.57512 0.73754 -0.07900
H 	H 	0.66470 0.58960 0.75650 0.05300
C 	C 	0.65800 0.55543 0.72371 0.02200
H 	H 	0.67560 0.55700 0.73340 0.03700
C 	C 	0.61982 0.59457 0.73997 0.10600
C 	C 	0.63113 0.60654 0.76913 -0.21900
H 	H 	0.64390 0.60200 0.77910 0.09800
H 	H 	0.63630 0.65310 0.82340 0.13100
C 	C 	0.61592 0.59108 0.81804 -0.23300
H 	H 	0.63100 0.58890 0.81690 0.10500
C 	C 	0.59638 0.57099 0.81931 0.13100
C 	C 	0.59898 0.54790 0.81996 -0.01500
C 	C 	0.58972 0.53670 0.83442 -0.06200
H 	H 	0.58240 0.54520 0.84480 0.04900
C 	C 	0.59071 0.51334 0.83437 0.00800
H 	H 	0.58340 0.50570 0.84410 0.04300
C 	C 	0.60226 0.50068 0.82022 -0.09100
C 	C 	0.61225 0.51187 0.80652 0.01500
H 	H 	0.62050 0.50420 0.79690 0.04000
C 	C 	0.61031 0.53520 0.80697 -0.06200
H 	H 	0.61760 0.54290 0.79730 0.05000
C 	C 	0.60296 0.47560 0.82172 0.36800
O 	O 	0.58543 0.80307 0.17590 -0.41800
O 	O 	0.56231 0.75560 0.15333 -0.42000
O 	O 	0.38105 0.82386 0.02911 -0.40400
O 	O 	0.34131 0.80369 0.02900 -0.41300
O 	O 	0.83826 0.97143 0.34315 -0.41400
O 	O 	0.81759 0.97147 0.30272 -0.41200
O 	O 	0.65580 0.80444 0.18838 -0.41600
O 	O 	0.63201 0.75738 0.16551 -0.41300
C 	C 	0.56364 0.77857 0.16143 0.35500
C 	C 	0.53615 0.77863 0.15650 -0.08600
C 	C 	0.53263 0.80140 0.15707 0.01000
H 	H 	0.54790 0.81770 0.16100 0.04100
C 	C 	0.50771 0.80055 0.15202 -0.06700
H 	H 	0.50600 0.81640 0.15260 0.05100
C 	C 	0.48457 0.77683 0.14604 -0.00500
C 	C 	0.48883 0.75558 0.14663 -0.06900
H 	H 	0.47400 0.73980 0.14400 0.05100
C 	C 	0.51326 0.75546 0.15074 0.00900
H 	H 	0.51450 0.73930 0.14960 0.03900
C 	C 	0.45715 0.77675 0.14126 0.12700
C 	C 	0.44508 0.78523 0.12325 -0.18900
H 	H 	0.45390 0.79110 0.11360 0.09300
C 	C 	0.41999 0.78529 0.11918 0.14800
C 	C 	0.40939 0.77746 0.13377 -0.26900
H 	H 	0.39260 0.77790 0.13130 0.11300
C 	C 	0.42000 0.76841 0.15277 0.30100
C 	C 	0.44359 0.76813 0.15578 -0.26800
H 	H 	0.45170 0.76200 0.16790 0.11500
C 	C 	0.40757 0.79312 0.09923 -0.01400
C 	C 	0.42215 0.80966 0.09147 -0.06700
H 	H 	0.44190 0.81690 0.09960 0.04900
C 	C 	0.40911 0.81615 0.07230 0.02100
H 	H 	0.41990 0.82820 0.06770 0.03800
C 	C 	0.37983 0.80504 0.05943 -0.11400
C 	C 	0.36583 0.78858 0.06669 0.03500
H 	H 	0.34600 0.78060 0.05820 0.03100
C 	C 	0.37915 0.78274 0.08599 -0.07400
H 	H 	0.36820 0.77080 0.09060 0.04900
C 	C 	0.36665 0.81112 0.03769 0.37200
C 	C 	0.83123 0.96419 0.31794 0.35800
C 	C 	0.83736 0.94276 0.30312 -0.09800
C 	C 	0.84895 0.93034 0.31675 0.01900
H 	H 	0.85270 0.93570 0.33540 0.04000
C 	C 	0.85510 0.91038 0.30366 -0.07700
H 	H 	0.86290 0.90220 0.31330 0.05500
C 	C 	0.84984 0.90243 0.27643 0.00700
C 	C 	0.83758 0.91402 0.26246 -0.07900
H 	H 	0.83310 0.90820 0.24350 0.05300
C 	C 	0.83172 0.93429 0.27629 0.02200
H 	H 	0.82360 0.94220 0.26660 0.03700
C 	C 	0.85460 0.87985 0.26003 0.10600
C 	C 	0.83741 0.86200 0.23087 -0.21900
H 	H 	0.82290 0.86480 0.22090 0.09800
H 	H 	0.82970 0.81290 0.17660 0.13100
C 	C 	0.77304 0.79788 0.18196 -0.23300
H 	H 	0.77200 0.81410 0.18310 0.10500
C 	C 	0.75168 0.77707 0.18069 0.13100
C 	C 	0.72794 0.77902 0.18004 -0.01500
C 	C 	0.70228 0.75530 0.16558 -0.06200
H 	H 	0.70040 0.73760 0.15520 0.04900
C 	C 	0.67897 0.75634 0.16563 0.00800
H 	H 	0.66160 0.73930 0.15590 0.04300
C 	C 	0.68046 0.78204 0.17978 -0.09100
C 	C 	0.70535 0.80573 0.19348 0.01500
H 	H 	0.70730 0.82360 0.20310 0.04000
C 	C 	0.72823 0.80334 0.19303 -0.06200
H 	H 	0.74560 0.82030 0.20270 0.05000
C 	C 	0.65388 0.78124 0.17828 0.36800
O 	O 	0.41457 0.59047 0.21764 -0.41800
O 	O 	0.43769 0.59102 0.19329 -0.41900
O 	O 	0.61895 0.64806 0.44281 -0.40400
O 	O 	0.65869 0.68769 0.46238 -0.41300
O 	O 	0.16174 0.50489 0.13317 -0.41400
O 	O 	0.18241 0.48513 0.15388 -0.41200
O 	O 	0.34420 0.53258 0.14864 -0.41600
O 	O 	0.36799 0.53350 0.12537 -0.41300
C 	C 	0.43636 0.59779 0.21493 0.35500
C 	C 	0.46385 0.62035 0.24248 -0.08600
C 	C 	0.46737 0.62444 0.26877 0.01000
H 	H 	0.45210 0.61310 0.26980 0.04100
C 	C 	0.49229 0.64431 0.29284 -0.06700
H 	H 	0.49400 0.64660 0.31040 0.05100
C 	C 	0.51543 0.66147 0.29226 -0.00500
C 	C 	0.51117 0.65780 0.26675 -0.06900
H 	H 	0.52600 0.67000 0.26580 0.05100
C 	C 	0.48674 0.63748 0.24220 0.00900
H 	H 	0.48550 0.63510 0.22480 0.03900
C 	C 	0.54285 0.68411 0.31960 0.12700
C 	C 	0.55492 0.67817 0.34015 -0.18900
H 	H 	0.54610 0.65970 0.33720 0.09300
C 	C 	0.58001 0.69919 0.36530 0.14800
C 	C 	0.59061 0.72438 0.36807 -0.26900
H 	H 	0.60740 0.73870 0.38530 0.11300
C 	C 	0.58000 0.73277 0.34841 0.30100
C 	C 	0.55641 0.71219 0.32454 -0.26800
H 	H 	0.54830 0.71620 0.31030 0.11500
C 	C 	0.59243 0.69166 0.38555 -0.01400
C 	C 	0.57785 0.66932 0.38751 -0.06600
H 	H 	0.55810 0.65770 0.37500 0.04900
C 	C 	0.59089 0.66319 0.40704 0.02100
H 	H 	0.58010 0.64780 0.40830 0.03800
C 	C 	0.62017 0.67960 0.42521 -0.11300
C 	C 	0.63417 0.70086 0.42275 0.03500
H 	H 	0.65400 0.71220 0.43460 0.03200
C 	C 	0.62085 0.70684 0.40359 -0.07400
H 	H 	0.63180 0.72240 0.40260 0.04900
C 	C 	0.63335 0.67104 0.44447 0.37200
C 	C 	0.16877 0.48671 0.13296 0.35800
C 	C 	0.16264 0.46576 0.10540 -0.09800
C 	C 	0.15105 0.46780 0.08139 0.01900
H 	H 	0.14730 0.48270 0.08300 0.04000
C 	C 	0.14490 0.44856 0.05528 -0.07700
H 	H 	0.13710 0.45040 0.03930 0.05500
C 	C 	0.15016 0.42659 0.05259 0.00700
C 	C 	0.16242 0.42488 0.07644 -0.07900
H 	H 	0.16690 0.41040 0.07510 0.05200
C 	C 	0.16828 0.44457 0.10257 0.02200
H 	H 	0.17640 0.44300 0.11860 0.03700
C 	C 	0.14540 0.40543 0.02525 0.10600
C 	C 	0.16259 0.39346 0.02459 -0.21900
H 	H 	0.17710 0.39800 0.04190 0.09800
H 	H 	0.17030 0.34690 0.98320 0.13200
C 	C 	0.22696 0.40892 0.02484 -0.23400
H 	H 	0.22800 0.41110 0.04210 0.10500
C 	C 	0.24832 0.42901 0.02539 0.13100
C 	C 	0.27206 0.45210 0.05108 -0.01600
C 	C 	0.29772 0.46330 0.05302 -0.06200
H 	H 	0.29960 0.45480 0.03720 0.04900
C 	C 	0.32103 0.48666 0.07737 0.00800
H 	H 	0.33840 0.49430 0.07770 0.04300
C 	C 	0.31954 0.49932 0.10158 -0.09100
C 	C 	0.29465 0.48813 0.10038 0.01400
H 	H 	0.29270 0.49580 0.11630 0.04000
C 	C 	0.27177 0.46480 0.07511 -0.06200
H 	H 	0.25440 0.45710 0.07470 0.05000
C 	C 	0.34612 0.52440 0.12736 0.36800
O 	O 	0.37283 0.19693 0.78236 -0.41800
O 	O 	0.39773 0.24440 0.80671 -0.41900
O 	O 	0.20525 0.17614 0.55719 -0.40400
O 	O 	0.22531 0.19631 0.53762 -0.41300
O 	O 	0.37172 0.02857 0.86683 -0.41400
O 	O 	0.33125 0.02853 0.84612 -0.41200
O 	O 	0.38394 0.19556 0.85136 -0.41600
O 	O 	0.40813 0.24262 0.87463 -0.41300
C 	C 	0.38286 0.22143 0.78507 0.35500
C 	C 	0.37787 0.22137 0.75752 -0.08600
C 	C 	0.35567 0.19860 0.73123 0.01000
H 	H 	0.34330 0.18230 0.73020 0.04100
C 	C 	0.35147 0.19945 0.70716 -0.06700
H 	H 	0.33620 0.18360 0.68960 0.05100
C 	C 	0.36921 0.22317 0.70774 -0.00500
C 	C 	0.39105 0.24442 0.73325 -0.06900
H 	H 	0.40420 0.26020 0.73420 0.05100
C 	C 	0.39528 0.24454 0.75780 0.00900
H 	H 	0.41030 0.26070 0.77520 0.03900
C 	C 	0.36451 0.22325 0.68040 0.12700
C 	C 	0.33802 0.21477 0.65985 -0.18900
H 	H 	0.32250 0.20890 0.66280 0.09300
C 	C 	0.33389 0.21471 0.63470 0.14800
C 	C 	0.35631 0.22254 0.63193 -0.26900
H 	H 	0.35340 0.22210 0.61470 0.11300
C 	C 	0.38436 0.23159 0.65159 0.30100
C 	C 	0.38765 0.23187 0.67546 -0.26800
H 	H 	0.40590 0.23800 0.68970 0.11500
C 	C 	0.30611 0.20688 0.61445 -0.01400
C 	C 	0.28181 0.19034 0.61249 -0.06600
H 	H 	0.28270 0.18310 0.62500 0.04900
C 	C 	0.25615 0.18385 0.59296 0.02100
H 	H 	0.23950 0.17180 0.59170 0.03800
C 	C 	0.25439 0.19496 0.57479 -0.11300
C 	C 	0.27811 0.21142 0.57725 0.03500
H 	H 	0.27760 0.21940 0.56540 0.03200
C 	C 	0.30325 0.21726 0.59641 -0.07400
H 	H 	0.31980 0.22920 0.59740 0.04900
C 	C 	0.22657 0.18888 0.55553 0.37200
C 	C 	0.35375 0.03581 0.86704 0.35800
C 	C 	0.36036 0.05724 0.89460 -0.09800
C 	C 	0.38641 0.06966 0.91861 0.01900
H 	H 	0.39970 0.06430 0.91700 0.04000
C 	C 	0.39328 0.08962 0.94472 -0.07700
H 	H 	0.41110 0.09780 0.96070 0.05500
C 	C 	0.37400 0.09757 0.94741 0.00700
C 	C 	0.34844 0.08598 0.92356 -0.07900
H 	H 	0.33530 0.09180 0.92490 0.05200
C 	C 	0.34200 0.06571 0.89743 0.02200
H 	H 	0.32440 0.05780 0.88140 0.03700
C 	C 	0.38018 0.12015 0.97475 0.10700
C 	C 	0.36887 0.13800 0.97541 -0.21900
H 	H 	0.35610 0.13520 0.95810 0.09800
H 	H 	0.36370 0.18710 0.01680 0.13100
C 	C 	0.38408 0.20212 0.97516 -0.23300
H 	H 	0.36900 0.18590 0.95790 0.10500
C 	C 	0.40362 0.22293 0.97461 0.13200
C 	C 	0.40102 0.22098 0.94892 -0.01600
C 	C 	0.41028 0.24470 0.94698 -0.06200
H 	H 	0.41760 0.26240 0.96280 0.04900
C 	C 	0.40929 0.24366 0.92263 0.00800
H 	H 	0.41660 0.26070 0.92230 0.04300
C 	C 	0.39774 0.21796 0.89842 -0.09100
C 	C 	0.38775 0.19427 0.89962 0.01400
H 	H 	0.37950 0.17640 0.88370 0.04000
C 	C 	0.38969 0.19666 0.92489 -0.06200
H 	H 	0.38240 0.17970 0.92530 0.05000
C 	C 	0.39704 0.21876 0.87264 0.36800
O 	O 	0.82410 0.62717 0.40953 -0.41800
O 	O 	0.84667 0.60227 0.40898 -0.41900
O 	O 	0.97089 0.79475 0.35194 -0.40400
O 	O 	0.97100 0.77469 0.31231 -0.41200
O 	O 	0.65685 0.62828 0.49511 -0.41400
O 	O 	0.69728 0.66875 0.51487 -0.41200
O 	O 	0.81162 0.61606 0.46742 -0.41600
O 	O 	0.83449 0.59187 0.46650 -0.41300
C 	C 	0.83857 0.61714 0.40221 0.35500
C 	C 	0.84350 0.62213 0.37965 -0.08600
C 	C 	0.84293 0.64433 0.37556 0.01000
H 	H 	0.83900 0.65670 0.38690 0.04100
C 	C 	0.84798 0.64853 0.35569 -0.06700
H 	H 	0.84740 0.66380 0.35340 0.05100
C 	C 	0.85396 0.63079 0.33853 -0.00500
C 	C 	0.85337 0.60895 0.34220 -0.06900
H 	H 	0.85600 0.59580 0.33000 0.05200
C 	C 	0.84926 0.60472 0.36252 0.00900
H 	H 	0.85040 0.58970 0.36490 0.03900
C 	C 	0.85874 0.63549 0.31589 0.12700
C 	C 	0.87675 0.66198 0.32183 -0.18900
H 	H 	0.88640 0.67750 0.34030 0.09300
C 	C 	0.88082 0.66611 0.30081 0.14800
C 	C 	0.86623 0.64369 0.27562 -0.26900
H 	H 	0.86870 0.64660 0.26130 0.11300
C 	C 	0.84723 0.61564 0.26723 0.30200
C 	C 	0.84422 0.61235 0.28781 -0.26800
H 	H 	0.83210 0.59410 0.28380 0.11500
C 	C 	0.90077 0.69389 0.30834 -0.01400
C 	C 	0.90853 0.71819 0.33068 -0.06600
H 	H 	0.90040 0.71730 0.34230 0.04900
C 	C 	0.92770 0.74385 0.33681 0.02100
H 	H 	0.93230 0.76050 0.35220 0.03800
C 	C 	0.94057 0.74561 0.32040 -0.11300
C 	C 	0.93331 0.72189 0.29914 0.03500
H 	H 	0.94180 0.72240 0.28780 0.03200
C 	C 	0.91401 0.69675 0.29316 -0.07400
H 	H 	0.90940 0.68020 0.27760 0.04900
C 	C 	0.96231 0.77343 0.32896 0.37200
C 	C 	0.68206 0.64625 0.51329 0.35800
C 	C 	0.69688 0.63964 0.53424 -0.09800
C 	C 	0.68325 0.61359 0.53220 0.01900
H 	H 	0.66460 0.60030 0.51730 0.04000
C 	C 	0.69634 0.60672 0.55144 -0.07700
H 	H 	0.68670 0.58890 0.54960 0.05500
C 	C 	0.72357 0.62600 0.57341 0.00700
C 	C 	0.73754 0.65156 0.57512 -0.07900
H 	H 	0.75650 0.66470 0.58960 0.05300
C 	C 	0.72371 0.65800 0.55543 0.02200
H 	H 	0.73340 0.67560 0.55700 0.03700
C 	C 	0.73997 0.61982 0.59457 0.10600
C 	C 	0.76913 0.63113 0.60654 -0.21900
H 	H 	0.77910 0.64390 0.60200 0.09800
H 	H 	0.82340 0.63630 0.65310 0.13100
C 	C 	0.81804 0.61592 0.59108 -0.23300
H 	H 	0.81690 0.63100 0.58890 0.10500
C 	C 	0.81931 0.59638 0.57099 0.13100
C 	C 	0.81996 0.59898 0.54790 -0.01500
C 	C 	0.83442 0.58972 0.53670 -0.06200
H 	H 	0.84480 0.58240 0.54520 0.04900
C 	C 	0.83437 0.59071 0.51334 0.00800
H 	H 	0.84410 0.58340 0.50570 0.04300
C 	C 	0.82022 0.60226 0.50068 -0.09100
C 	C 	0.80652 0.61225 0.51187 0.01500
H 	H 	0.79690 0.62050 0.50420 0.04000
C 	C 	0.80697 0.61031 0.53520 -0.06200
H 	H 	0.79730 0.61760 0.54290 0.05000
C 	C 	0.82172 0.60296 0.47560 0.36800
O 	O 	0.17590 0.58543 0.80307 -0.41800
O 	O 	0.15333 0.56231 0.75560 -0.42000
O 	O 	0.02911 0.38105 0.82386 -0.40400
O 	O 	0.02900 0.34131 0.80369 -0.41300
O 	O 	0.34315 0.83826 0.97143 -0.41300
O 	O 	0.30272 0.81759 0.97147 -0.41100
O 	O 	0.18838 0.65580 0.80444 -0.41600
O 	O 	0.16551 0.63201 0.75738 -0.41300
C 	C 	0.16143 0.56364 0.77857 0.35500
C 	C 	0.15650 0.53615 0.77863 -0.08600
C 	C 	0.15707 0.53263 0.80140 0.01000
H 	H 	0.16100 0.54790 0.81770 0.04100
C 	C 	0.15202 0.50771 0.80055 -0.06700
H 	H 	0.15260 0.50600 0.81640 0.05100
C 	C 	0.14604 0.48457 0.77683 -0.00500
C 	C 	0.14663 0.48883 0.75558 -0.06900
H 	H 	0.14400 0.47400 0.73980 0.05100
C 	C 	0.15074 0.51326 0.75546 0.00900
H 	H 	0.14960 0.51450 0.73930 0.03900
C 	C 	0.14126 0.45715 0.77675 0.12700
C 	C 	0.12325 0.44508 0.78523 -0.18900
H 	H 	0.11360 0.45390 0.79110 0.09300
C 	C 	0.11918 0.41999 0.78529 0.14800
C 	C 	0.13377 0.40939 0.77746 -0.26900
H 	H 	0.13130 0.39260 0.77790 0.11300
C 	C 	0.15277 0.42000 0.76841 0.30100
C 	C 	0.15578 0.44359 0.76813 -0.26800
H 	H 	0.16790 0.45170 0.76200 0.11500
C 	C 	0.09923 0.40757 0.79312 -0.01400
C 	C 	0.09147 0.42215 0.80966 -0.06700
H 	H 	0.09960 0.44190 0.81690 0.04900
C 	C 	0.07230 0.40911 0.81615 0.02100
H 	H 	0.06770 0.41990 0.82820 0.03800
C 	C 	0.05943 0.37983 0.80504 -0.11400
C 	C 	0.06669 0.36583 0.78858 0.03500
H 	H 	0.05820 0.34600 0.78060 0.03100
C 	C 	0.08599 0.37915 0.78274 -0.07400
H 	H 	0.09060 0.36820 0.77080 0.04900
C 	C 	0.03769 0.36665 0.81112 0.37200
C 	C 	0.31794 0.83123 0.96419 0.35800
C 	C 	0.30312 0.83736 0.94276 -0.09800
C 	C 	0.31675 0.84895 0.93034 0.01900
H 	H 	0.33540 0.85270 0.93570 0.04000
C 	C 	0.30366 0.85510 0.91038 -0.07700
H 	H 	0.31330 0.86290 0.90220 0.05500
C 	C 	0.27643 0.84984 0.90243 0.00700
C 	C 	0.26246 0.83758 0.91402 -0.07900
H 	H 	0.24350 0.83310 0.90820 0.05300
C 	C 	0.27629 0.83172 0.93429 0.02200
H 	H 	0.26660 0.82360 0.94220 0.03700
C 	C 	0.26003 0.85460 0.87985 0.10600
C 	C 	0.23087 0.83741 0.86200 -0.21900
H 	H 	0.22090 0.82290 0.86480 0.09800
H 	H 	0.17660 0.82970 0.81290 0.13100
C 	C 	0.18196 0.77304 0.79788 -0.23300
H 	H 	0.18310 0.77200 0.81410 0.10500
C 	C 	0.18069 0.75168 0.77707 0.13100
C 	C 	0.18004 0.72794 0.77902 -0.01500
C 	C 	0.16558 0.70228 0.75530 -0.06200
H 	H 	0.15520 0.70040 0.73760 0.04900
C 	C 	0.16563 0.67897 0.75634 0.00800
H 	H 	0.15590 0.66160 0.73930 0.04300
C 	C 	0.17978 0.68046 0.78204 -0.09100
C 	C 	0.19348 0.70535 0.80573 0.01500
H 	H 	0.20310 0.70730 0.82360 0.04000
C 	C 	0.19303 0.72823 0.80334 -0.06200
H 	H 	0.20270 0.74560 0.82030 0.05000
C 	C 	0.17828 0.65388 0.78124 0.36800
O 	O 	0.21764 0.41457 0.59047 -0.41800
O 	O 	0.19329 0.43769 0.59102 -0.41900
O 	O 	0.44281 0.61895 0.64806 -0.40400
O 	O 	0.46238 0.65869 0.68769 -0.41300
O 	O 	0.13317 0.16174 0.50489 -0.41400
O 	O 	0.15388 0.18241 0.48513 -0.41200
O 	O 	0.14864 0.34420 0.53258 -0.41600
O 	O 	0.12537 0.36799 0.53350 -0.41300
C 	C 	0.21493 0.43636 0.59779 0.35500
C 	C 	0.24248 0.46385 0.62035 -0.08600
C 	C 	0.26877 0.46737 0.62444 0.01000
H 	H 	0.26980 0.45210 0.61310 0.04100
C 	C 	0.29284 0.49229 0.64431 -0.06700
H 	H 	0.31040 0.49400 0.64660 0.05100
C 	C 	0.29226 0.51543 0.66147 -0.00500
C 	C 	0.26675 0.51117 0.65780 -0.06900
H 	H 	0.26580 0.52600 0.67000 0.05100
C 	C 	0.24220 0.48674 0.63748 0.00900
H 	H 	0.22480 0.48550 0.63510 0.03900
C 	C 	0.31960 0.54285 0.68411 0.12700
C 	C 	0.34015 0.55492 0.67817 -0.18900
H 	H 	0.33720 0.54610 0.65970 0.09300
C 	C 	0.36530 0.58001 0.69919 0.14800
C 	C 	0.36807 0.59061 0.72438 -0.26900
H 	H 	0.38530 0.60740 0.73870 0.11300
C 	C 	0.34841 0.58000 0.73277 0.30100
C 	C 	0.32454 0.55641 0.71219 -0.26800
H 	H 	0.31030 0.54830 0.71620 0.11500
C 	C 	0.38555 0.59243 0.69166 -0.01400
C 	C 	0.38751 0.57785 0.66932 -0.06600
H 	H 	0.37500 0.55810 0.65770 0.04900
C 	C 	0.40704 0.59089 0.66319 0.02100
H 	H 	0.40830 0.58010 0.64780 0.03800
C 	C 	0.42521 0.62017 0.67960 -0.11300
C 	C 	0.42275 0.63417 0.70086 0.03500
H 	H 	0.43460 0.65400 0.71220 0.03200
C 	C 	0.40359 0.62085 0.70684 -0.07400
H 	H 	0.40260 0.63180 0.72240 0.04900
C 	C 	0.44447 0.63335 0.67104 0.37200
C 	C 	0.13296 0.16877 0.48671 0.35800
C 	C 	0.10540 0.16264 0.46576 -0.09800
C 	C 	0.08139 0.15105 0.46780 0.01900
H 	H 	0.08300 0.14730 0.48270 0.04000
C 	C 	0.05528 0.14490 0.44856 -0.07700
H 	H 	0.03930 0.13710 0.45040 0.05500
C 	C 	0.05259 0.15016 0.42659 0.00700
C 	C 	0.07644 0.16242 0.42488 -0.07900
H 	H 	0.07510 0.16690 0.41040 0.05200
C 	C 	0.10257 0.16828 0.44457 0.02200
H 	H 	0.11860 0.17640 0.44300 0.03700
C 	C 	0.02525 0.14540 0.40543 0.10600
C 	C 	0.02459 0.16259 0.39346 -0.21900
H 	H 	0.04190 0.17710 0.39800 0.09800
H 	H 	0.98320 0.17030 0.34690 0.13200
C 	C 	0.02484 0.22696 0.40892 -0.23400
H 	H 	0.04210 0.22800 0.41110 0.10500
C 	C 	0.02539 0.24832 0.42901 0.13100
C 	C 	0.05108 0.27206 0.45210 -0.01500
C 	C 	0.05302 0.29772 0.46330 -0.06200
H 	H 	0.03720 0.29960 0.45480 0.04900
C 	C 	0.07737 0.32103 0.48666 0.00800
H 	H 	0.07770 0.33840 0.49430 0.04300
C 	C 	0.10158 0.31954 0.49932 -0.09100
C 	C 	0.10038 0.29465 0.48813 0.01400
H 	H 	0.11630 0.29270 0.49580 0.04000
C 	C 	0.07511 0.27177 0.46480 -0.06200
H 	H 	0.07470 0.25440 0.45710 0.05000
C 	C 	0.12736 0.34612 0.52440 0.36800
O 	O 	0.78236 0.37283 0.19693 -0.41800
O 	O 	0.80671 0.39773 0.24440 -0.41900
O 	O 	0.55719 0.20525 0.17614 -0.40400
O 	O 	0.53762 0.22531 0.19631 -0.41300
O 	O 	0.86683 0.37172 0.02857 -0.41400
O 	O 	0.84612 0.33125 0.02853 -0.41200
O 	O 	0.85136 0.38394 0.19556 -0.41600
O 	O 	0.87463 0.40813 0.24262 -0.41300
C 	C 	0.78507 0.38286 0.22143 0.35500
C 	C 	0.75752 0.37787 0.22137 -0.08600
C 	C 	0.73123 0.35567 0.19860 0.01000
H 	H 	0.73020 0.34330 0.18230 0.04100
C 	C 	0.70716 0.35147 0.19945 -0.06700
H 	H 	0.68960 0.33620 0.18360 0.05100
C 	C 	0.70774 0.36921 0.22317 -0.00500
C 	C 	0.73325 0.39105 0.24442 -0.06900
H 	H 	0.73420 0.40420 0.26020 0.05100
C 	C 	0.75780 0.39528 0.24454 0.00900
H 	H 	0.77520 0.41030 0.26070 0.03900
C 	C 	0.68040 0.36451 0.22325 0.12700
C 	C 	0.65985 0.33802 0.21477 -0.18900
H 	H 	0.66280 0.32250 0.20890 0.09300
C 	C 	0.63470 0.33389 0.21471 0.14800
C 	C 	0.63193 0.35631 0.22254 -0.26900
H 	H 	0.61470 0.35340 0.22210 0.11300
C 	C 	0.65159 0.38436 0.23159 0.30100
C 	C 	0.67546 0.38765 0.23187 -0.26800
H 	H 	0.68970 0.40590 0.23800 0.11500
C 	C 	0.61445 0.30611 0.20688 -0.01400
C 	C 	0.61249 0.28181 0.19034 -0.06700
H 	H 	0.62500 0.28270 0.18310 0.04900
C 	C 	0.59296 0.25615 0.18385 0.02100
H 	H 	0.59170 0.23950 0.17180 0.03800
C 	C 	0.57479 0.25439 0.19496 -0.11300
C 	C 	0.57725 0.27811 0.21142 0.03500
H 	H 	0.56540 0.27760 0.21940 0.03100
C 	C 	0.59641 0.30325 0.21726 -0.07400
H 	H 	0.59740 0.31980 0.22920 0.04900
C 	C 	0.55553 0.22657 0.18888 0.37200
C 	C 	0.86704 0.35375 0.03581 0.35800
C 	C 	0.89460 0.36036 0.05724 -0.09800
C 	C 	0.91861 0.38641 0.06966 0.01900
H 	H 	0.91700 0.39970 0.06430 0.04000
C 	C 	0.94472 0.39328 0.08962 -0.07700
H 	H 	0.96070 0.41110 0.09780 0.05500
C 	C 	0.94741 0.37400 0.09757 0.00700
C 	C 	0.92356 0.34844 0.08598 -0.07900
H 	H 	0.92490 0.33530 0.09180 0.05200
C 	C 	0.89743 0.34200 0.06571 0.02200
H 	H 	0.88140 0.32440 0.05780 0.03700
C 	C 	0.97475 0.38018 0.12015 0.10600
C 	C 	0.97541 0.36887 0.13800 -0.21900
H 	H 	0.95810 0.35610 0.13520 0.09800
H 	H 	0.01680 0.36370 0.18710 0.13100
C 	C 	0.97516 0.38408 0.20212 -0.23300
H 	H 	0.95790 0.36900 0.18590 0.10500
C 	C 	0.97461 0.40362 0.22293 0.13200
C 	C 	0.94892 0.40102 0.22098 -0.01500
C 	C 	0.94698 0.41028 0.24470 -0.06200
H 	H 	0.96280 0.41760 0.26240 0.04900
C 	C 	0.92263 0.40929 0.24366 0.00800
H 	H 	0.92230 0.41660 0.26070 0.04300
C 	C 	0.89842 0.39774 0.21796 -0.09100
C 	C 	0.89962 0.38775 0.19427 0.01400
H 	H 	0.88370 0.37950 0.17640 0.04000
C 	C 	0.92489 0.38969 0.19666 -0.06200
H 	H 	0.92530 0.38240 0.17970 0.05000
C 	C 	0.87264 0.39704 0.21876 0.36800
O 	O 	0.40953 0.82410 0.62717 -0.41800
O 	O 	0.40898 0.84667 0.60227 -0.41900
O 	O 	0.35194 0.97089 0.79475 -0.40400
O 	O 	0.31231 0.97100 0.77469 -0.41300
O 	O 	0.49511 0.65685 0.62828 -0.41400
O 	O 	0.51487 0.69728 0.66875 -0.41200
O 	O 	0.46742 0.81162 0.61606 -0.41600
O 	O 	0.46650 0.83449 0.59187 -0.41300
C 	C 	0.40221 0.83857 0.61714 0.35500
C 	C 	0.37965 0.84350 0.62213 -0.08600
C 	C 	0.37556 0.84293 0.64433 0.01000
H 	H 	0.38690 0.83900 0.65670 0.04100
C 	C 	0.35569 0.84798 0.64853 -0.06700
H 	H 	0.35340 0.84740 0.66380 0.05100
C 	C 	0.33853 0.85396 0.63079 -0.00500
C 	C 	0.34220 0.85337 0.60895 -0.06900
H 	H 	0.33000 0.85600 0.59580 0.05100
C 	C 	0.36252 0.84926 0.60472 0.00900
H 	H 	0.36490 0.85040 0.58970 0.03900
C 	C 	0.31589 0.85874 0.63549 0.12700
C 	C 	0.32183 0.87675 0.66198 -0.18900
H 	H 	0.34030 0.88640 0.67750 0.09300
C 	C 	0.30081 0.88082 0.66611 0.14800
C 	C 	0.27562 0.86623 0.64369 -0.26900
H 	H 	0.26130 0.86870 0.64660 0.11300
C 	C 	0.26723 0.84723 0.61564 0.30100
C 	C 	0.28781 0.84422 0.61235 -0.26800
H 	H 	0.28380 0.83210 0.59410 0.11500
C 	C 	0.30834 0.90077 0.69389 -0.01400
C 	C 	0.33068 0.90853 0.71819 -0.06600
H 	H 	0.34230 0.90040 0.71730 0.04900
C 	C 	0.33681 0.92770 0.74385 0.02100
H 	H 	0.35220 0.93230 0.76050 0.03800
C 	C 	0.32040 0.94057 0.74561 -0.11300
C 	C 	0.29914 0.93331 0.72189 0.03500
H 	H 	0.28780 0.94180 0.72240 0.03200
C 	C 	0.29316 0.91401 0.69675 -0.07400
H 	H 	0.27760 0.90940 0.68020 0.04900
C 	C 	0.32896 0.96231 0.77343 0.37200
C 	C 	0.51329 0.68206 0.64625 0.35800
C 	C 	0.53424 0.69688 0.63964 -0.09800
C 	C 	0.53220 0.68325 0.61359 0.01900
H 	H 	0.51730 0.66460 0.60030 0.04000
C 	C 	0.55144 0.69634 0.60672 -0.07700
H 	H 	0.54960 0.68670 0.58890 0.05500
C 	C 	0.57341 0.72357 0.62600 0.00700
C 	C 	0.57512 0.73754 0.65156 -0.07900
H 	H 	0.58960 0.75650 0.66470 0.05300
C 	C 	0.55543 0.72371 0.65800 0.02200
H 	H 	0.55700 0.73340 0.67560 0.03700
C 	C 	0.59457 0.73997 0.61982 0.10600
C 	C 	0.60654 0.76913 0.63113 -0.21900
H 	H 	0.60200 0.77910 0.64390 0.09800
H 	H 	0.65310 0.82340 0.63630 0.13100
C 	C 	0.59108 0.81804 0.61592 -0.23300
H 	H 	0.58890 0.81690 0.63100 0.10500
C 	C 	0.57099 0.81931 0.59638 0.13100
C 	C 	0.54790 0.81996 0.59898 -0.01500
C 	C 	0.53670 0.83442 0.58972 -0.06200
H 	H 	0.54520 0.84480 0.58240 0.04900
C 	C 	0.51334 0.83437 0.59071 0.00800
H 	H 	0.50570 0.84410 0.58340 0.04300
C 	C 	0.50068 0.82022 0.60226 -0.09100
C 	C 	0.51187 0.80652 0.61225 0.01500
H 	H 	0.50420 0.79690 0.62050 0.04000
C 	C 	0.53520 0.80697 0.61031 -0.06200
H 	H 	0.54290 0.79730 0.61760 0.05000
C 	C 	0.47560 0.82172 0.60296 0.36800
O 	O 	0.80307 0.17590 0.58543 -0.41800
O 	O 	0.75560 0.15333 0.56231 -0.41900
O 	O 	0.82386 0.02911 0.38105 -0.40400
O 	O 	0.80369 0.02900 0.34131 -0.41300
O 	O 	0.97143 0.34315 0.83826 -0.41300
O 	O 	0.97147 0.30272 0.81759 -0.41100
O 	O 	0.80444 0.18838 0.65580 -0.41600
O 	O 	0.75738 0.16551 0.63201 -0.41300
C 	C 	0.77857 0.16143 0.56364 0.35500
C 	C 	0.77863 0.15650 0.53615 -0.08600
C 	C 	0.80140 0.15707 0.53263 0.01000
H 	H 	0.81770 0.16100 0.54790 0.04100
C 	C 	0.80055 0.15202 0.50771 -0.06700
H 	H 	0.81640 0.15260 0.50600 0.05100
C 	C 	0.77683 0.14604 0.48457 -0.00500
C 	C 	0.75558 0.14663 0.48883 -0.06900
H 	H 	0.73980 0.14400 0.47400 0.05100
C 	C 	0.75546 0.15074 0.51326 0.00900
H 	H 	0.73930 0.14960 0.51450 0.03900
C 	C 	0.77675 0.14126 0.45715 0.12700
C 	C 	0.78523 0.12325 0.44508 -0.18900
H 	H 	0.79110 0.11360 0.45390 0.09300
C 	C 	0.78529 0.11918 0.41999 0.14800
C 	C 	0.77746 0.13377 0.40939 -0.26900
H 	H 	0.77790 0.13130 0.39260 0.11300
C 	C 	0.76841 0.15277 0.42000 0.30100
C 	C 	0.76813 0.15578 0.44359 -0.26800
H 	H 	0.76200 0.16790 0.45170 0.11500
C 	C 	0.79312 0.09923 0.40757 -0.01400
C 	C 	0.80966 0.09147 0.42215 -0.06600
H 	H 	0.81690 0.09960 0.44190 0.04900
C 	C 	0.81615 0.07230 0.40911 0.02100
H 	H 	0.82820 0.06770 0.41990 0.03800
C 	C 	0.80504 0.05943 0.37983 -0.11300
C 	C 	0.78858 0.06669 0.36583 0.03500
H 	H 	0.78060 0.05820 0.34600 0.03200
C 	C 	0.78274 0.08599 0.37915 -0.07400
H 	H 	0.77080 0.09060 0.36820 0.04900
C 	C 	0.81112 0.03769 0.36665 0.37200
C 	C 	0.96419 0.31794 0.83123 0.35800
C 	C 	0.94276 0.30312 0.83736 -0.09800
C 	C 	0.93034 0.31675 0.84895 0.01900
H 	H 	0.93570 0.33540 0.85270 0.04000
C 	C 	0.91038 0.30366 0.85510 -0.07700
H 	H 	0.90220 0.31330 0.86290 0.05500
C 	C 	0.90243 0.27643 0.84984 0.00700
C 	C 	0.91402 0.26246 0.83758 -0.07900
H 	H 	0.90820 0.24350 0.83310 0.05300
C 	C 	0.93429 0.27629 0.83172 0.02200
H 	H 	0.94220 0.26660 0.82360 0.03700
C 	C 	0.87985 0.26003 0.85460 0.10600
C 	C 	0.86200 0.23087 0.83741 -0.21900
H 	H 	0.86480 0.22090 0.82290 0.09800
H 	H 	0.81290 0.17660 0.82970 0.13100
C 	C 	0.79788 0.18196 0.77304 -0.23300
H 	H 	0.81410 0.18310 0.77200 0.10500
C 	C 	0.77707 0.18069 0.75168 0.13100
C 	C 	0.77902 0.18004 0.72794 -0.01500
C 	C 	0.75530 0.16558 0.70228 -0.06200
H 	H 	0.73760 0.15520 0.70040 0.04900
C 	C 	0.75634 0.16563 0.67897 0.00800
H 	H 	0.73930 0.15590 0.66160 0.04300
C 	C 	0.78204 0.17978 0.68046 -0.09100
C 	C 	0.80573 0.19348 0.70535 0.01500
H 	H 	0.82360 0.20310 0.70730 0.04000
C 	C 	0.80334 0.19303 0.72823 -0.06200
H 	H 	0.82030 0.20270 0.74560 0.05000
C 	C 	0.78124 0.17828 0.65388 0.36800
O 	O 	0.59047 0.21764 0.41457 -0.41800
O 	O 	0.59102 0.19329 0.43769 -0.41900
O 	O 	0.64806 0.44281 0.61895 -0.40400
O 	O 	0.68769 0.46238 0.65869 -0.41300
O 	O 	0.50489 0.13317 0.16174 -0.41400
O 	O 	0.48513 0.15388 0.18241 -0.41200
O 	O 	0.53258 0.14864 0.34420 -0.41600
O 	O 	0.53350 0.12537 0.36799 -0.41300
C 	C 	0.59779 0.21493 0.43636 0.35500
C 	C 	0.62035 0.24248 0.46385 -0.08600
C 	C 	0.62444 0.26877 0.46737 0.01000
H 	H 	0.61310 0.26980 0.45210 0.04100
C 	C 	0.64431 0.29284 0.49229 -0.06700
H 	H 	0.64660 0.31040 0.49400 0.05100
C 	C 	0.66147 0.29226 0.51543 -0.00500
C 	C 	0.65780 0.26675 0.51117 -0.06900
H 	H 	0.67000 0.26580 0.52600 0.05100
C 	C 	0.63748 0.24220 0.48674 0.00900
H 	H 	0.63510 0.22480 0.48550 0.03900
C 	C 	0.68411 0.31960 0.54285 0.12700
C 	C 	0.67817 0.34015 0.55492 -0.18900
H 	H 	0.65970 0.33720 0.54610 0.09300
C 	C 	0.69919 0.36530 0.58001 0.14800
C 	C 	0.72438 0.36807 0.59061 -0.26900
H 	H 	0.73870 0.38530 0.60740 0.11300
C 	C 	0.73277 0.34841 0.58000 0.30100
C 	C 	0.71219 0.32454 0.55641 -0.26800
H 	H 	0.71620 0.31030 0.54830 0.11500
C 	C 	0.69166 0.38555 0.59243 -0.01400
C 	C 	0.66932 0.38751 0.57785 -0.06600
H 	H 	0.65770 0.37500 0.55810 0.04900
C 	C 	0.66319 0.40704 0.59089 0.02100
H 	H 	0.64780 0.40830 0.58010 0.03800
C 	C 	0.67960 0.42521 0.62017 -0.11300
C 	C 	0.70086 0.42275 0.63417 0.03500
H 	H 	0.71220 0.43460 0.65400 0.03200
C 	C 	0.70684 0.40359 0.62085 -0.07400
H 	H 	0.72240 0.40260 0.63180 0.04900
C 	C 	0.67104 0.44447 0.63335 0.37200
C 	C 	0.48671 0.13296 0.16877 0.35800
C 	C 	0.46576 0.10540 0.16264 -0.09800
C 	C 	0.46780 0.08139 0.15105 0.01900
H 	H 	0.48270 0.08300 0.14730 0.04000
C 	C 	0.44856 0.05528 0.14490 -0.07700
H 	H 	0.45040 0.03930 0.13710 0.05500
C 	C 	0.42659 0.05259 0.15016 0.00700
C 	C 	0.42488 0.07644 0.16242 -0.07900
H 	H 	0.41040 0.07510 0.16690 0.05200
C 	C 	0.44457 0.10257 0.16828 0.02200
H 	H 	0.44300 0.11860 0.17640 0.03700
C 	C 	0.40543 0.02525 0.14540 0.10600
C 	C 	0.39346 0.02459 0.16259 -0.21900
H 	H 	0.39800 0.04190 0.17710 0.09800
H 	H 	0.34690 0.98320 0.17030 0.13100
C 	C 	0.40892 0.02484 0.22696 -0.23300
H 	H 	0.41110 0.04210 0.22800 0.10500
C 	C 	0.42901 0.02539 0.24832 0.13100
C 	C 	0.45210 0.05108 0.27206 -0.01500
C 	C 	0.46330 0.05302 0.29772 -0.06200
H 	H 	0.45480 0.03720 0.29960 0.04900
C 	C 	0.48666 0.07737 0.32103 0.00800
H 	H 	0.49430 0.07770 0.33840 0.04300
C 	C 	0.49932 0.10158 0.31954 -0.09100
C 	C 	0.48813 0.10038 0.29465 0.01500
H 	H 	0.49580 0.11630 0.29270 0.04000
C 	C 	0.46480 0.07511 0.27177 -0.06200
H 	H 	0.45710 0.07470 0.25440 0.05000
C 	C 	0.52440 0.12736 0.34612 0.36800
O 	O 	0.19693 0.78236 0.37283 -0.41800
O 	O 	0.24440 0.80671 0.39773 -0.41900
O 	O 	0.17614 0.55719 0.20525 -0.40400
O 	O 	0.19631 0.53762 0.22531 -0.41300
O 	O 	0.02857 0.86683 0.37172 -0.41400
O 	O 	0.02853 0.84612 0.33125 -0.41200
O 	O 	0.19556 0.85136 0.38394 -0.41600
O 	O 	0.24262 0.87463 0.40813 -0.41300
C 	C 	0.22143 0.78507 0.38286 0.35500
C 	C 	0.22137 0.75752 0.37787 -0.08600
C 	C 	0.19860 0.73123 0.35567 0.01000
H 	H 	0.18230 0.73020 0.34330 0.04100
C 	C 	0.19945 0.70716 0.35147 -0.06700
H 	H 	0.18360 0.68960 0.33620 0.05100
C 	C 	0.22317 0.70774 0.36921 -0.00500
C 	C 	0.24442 0.73325 0.39105 -0.06900
H 	H 	0.26020 0.73420 0.40420 0.05100
C 	C 	0.24454 0.75780 0.39528 0.00900
H 	H 	0.26070 0.77520 0.41030 0.03900
C 	C 	0.22325 0.68040 0.36451 0.12700
C 	C 	0.21477 0.65985 0.33802 -0.18900
H 	H 	0.20890 0.66280 0.32250 0.09300
C 	C 	0.21471 0.63470 0.33389 0.14800
C 	C 	0.22254 0.63193 0.35631 -0.26900
H 	H 	0.22210 0.61470 0.35340 0.11300
C 	C 	0.23159 0.65159 0.38436 0.30100
C 	C 	0.23187 0.67546 0.38765 -0.26800
H 	H 	0.23800 0.68970 0.40590 0.11500
C 	C 	0.20688 0.61445 0.30611 -0.01400
C 	C 	0.19034 0.61249 0.28181 -0.06700
H 	H 	0.18310 0.62500 0.28270 0.04900
C 	C 	0.18385 0.59296 0.25615 0.02100
H 	H 	0.17180 0.59170 0.23950 0.03800
C 	C 	0.19496 0.57479 0.25439 -0.11300
C 	C 	0.21142 0.57725 0.27811 0.03500
H 	H 	0.21940 0.56540 0.27760 0.03100
C 	C 	0.21726 0.59641 0.30325 -0.07400
H 	H 	0.22920 0.59740 0.31980 0.04900
C 	C 	0.18888 0.55553 0.22657 0.37200
C 	C 	0.03581 0.86704 0.35375 0.35800
C 	C 	0.05724 0.89460 0.36036 -0.09800
C 	C 	0.06966 0.91861 0.38641 0.01900
H 	H 	0.06430 0.91700 0.39970 0.04000
C 	C 	0.08962 0.94472 0.39328 -0.07700
H 	H 	0.09780 0.96070 0.41110 0.05500
C 	C 	0.09757 0.94741 0.37400 0.00700
C 	C 	0.08598 0.92356 0.34844 -0.07900
H 	H 	0.09180 0.92490 0.33530 0.05200
C 	C 	0.06571 0.89743 0.34200 0.02200
H 	H 	0.05780 0.88140 0.32440 0.03700
C 	C 	0.12015 0.97475 0.38018 0.10600
C 	C 	0.13800 0.97541 0.36887 -0.21900
H 	H 	0.13520 0.95810 0.35610 0.09800
H 	H 	0.18710 0.01680 0.36370 0.13100
C 	C 	0.20212 0.97516 0.38408 -0.23300
H 	H 	0.18590 0.95790 0.36900 0.10500
C 	C 	0.22293 0.97461 0.40362 0.13100
C 	C 	0.22098 0.94892 0.40102 -0.01500
C 	C 	0.24470 0.94698 0.41028 -0.06200
H 	H 	0.26240 0.96280 0.41760 0.04900
C 	C 	0.24366 0.92263 0.40929 0.00800
H 	H 	0.26070 0.92230 0.41660 0.04300
C 	C 	0.21796 0.89842 0.39774 -0.09100
C 	C 	0.19427 0.89962 0.38775 0.01500
H 	H 	0.17640 0.88370 0.37950 0.04000
C 	C 	0.19666 0.92489 0.38969 -0.06200
H 	H 	0.17970 0.92530 0.38240 0.05000
C 	C 	0.21876 0.87264 0.39704 0.36800
O 	O 	0.19693 0.41457 0.82410 -0.41800
O 	O 	0.24440 0.43769 0.84667 -0.41900
O 	O 	0.17614 0.61895 0.97089 -0.40400
O 	O 	0.19631 0.65869 0.97100 -0.41200
O 	O 	0.02857 0.16174 0.65685 -0.41400
O 	O 	0.02853 0.18241 0.69728 -0.41200
O 	O 	0.19556 0.34420 0.81162 -0.41600
O 	O 	0.24262 0.36799 0.83449 -0.41300
C 	C 	0.22143 0.43636 0.83857 0.35500
C 	C 	0.22137 0.46385 0.84350 -0.08600
C 	C 	0.19860 0.46737 0.84293 0.01000
H 	H 	0.18230 0.45210 0.83900 0.04100
C 	C 	0.19945 0.49229 0.84798 -0.06700
H 	H 	0.18360 0.49400 0.84740 0.05100
C 	C 	0.22317 0.51543 0.85396 -0.00500
C 	C 	0.24442 0.51117 0.85337 -0.06900
H 	H 	0.26020 0.52600 0.85600 0.05200
C 	C 	0.24454 0.48674 0.84926 0.00900
H 	H 	0.26070 0.48550 0.85040 0.03900
C 	C 	0.22325 0.54285 0.85874 0.12700
C 	C 	0.21477 0.55492 0.87675 -0.18900
H 	H 	0.20890 0.54610 0.88640 0.09300
C 	C 	0.21471 0.58001 0.88082 0.14800
C 	C 	0.22254 0.59061 0.86623 -0.26900
H 	H 	0.22210 0.60740 0.86870 0.11300
C 	C 	0.23159 0.58000 0.84723 0.30200
C 	C 	0.23187 0.55641 0.84422 -0.26800
H 	H 	0.23800 0.54830 0.83210 0.11500
C 	C 	0.20688 0.59243 0.90077 -0.01400
C 	C 	0.19034 0.57785 0.90853 -0.06600
H 	H 	0.18310 0.55810 0.90040 0.04900
C 	C 	0.18385 0.59089 0.92770 0.02100
H 	H 	0.17180 0.58010 0.93230 0.03800
C 	C 	0.19496 0.62017 0.94057 -0.11300
C 	C 	0.21142 0.63417 0.93331 0.03500
H 	H 	0.21940 0.65400 0.94180 0.03200
C 	C 	0.21726 0.62085 0.91401 -0.07400
H 	H 	0.22920 0.63180 0.90940 0.04900
C 	C 	0.18888 0.63335 0.96231 0.37200
C 	C 	0.03581 0.16877 0.68206 0.35800
C 	C 	0.05724 0.16264 0.69688 -0.09800
C 	C 	0.06966 0.15105 0.68325 0.01900
H 	H 	0.06430 0.14730 0.66460 0.03900
C 	C 	0.08962 0.14490 0.69634 -0.07700
H 	H 	0.09780 0.13710 0.68670 0.05500
C 	C 	0.09757 0.15016 0.72357 0.00700
C 	C 	0.08598 0.16242 0.73754 -0.07900
H 	H 	0.09180 0.16690 0.75650 0.05200
C 	C 	0.06571 0.16828 0.72371 0.02200
H 	H 	0.05780 0.17640 0.73340 0.03700
C 	C 	0.12015 0.14540 0.73997 0.10600
C 	C 	0.13800 0.16259 0.76913 -0.21900
H 	H 	0.13520 0.17710 0.77910 0.09800
H 	H 	0.18710 0.17030 0.82340 0.13100
C 	C 	0.20212 0.22696 0.81804 -0.23300
H 	H 	0.18590 0.22800 0.81690 0.10500
C 	C 	0.22293 0.24832 0.81931 0.13100
C 	C 	0.22098 0.27206 0.81996 -0.01500
C 	C 	0.24470 0.29772 0.83442 -0.06200
H 	H 	0.26240 0.29960 0.84480 0.04900
C 	C 	0.24366 0.32103 0.83437 0.00800
H 	H 	0.26070 0.33840 0.84410 0.04300
C 	C 	0.21796 0.31954 0.82022 -0.09100
C 	C 	0.19427 0.29465 0.80652 0.01500
H 	H 	0.17640 0.29270 0.79690 0.04000
C 	C 	0.19666 0.27177 0.80697 -0.06200
H 	H 	0.17970 0.25440 0.79730 0.05000
C 	C 	0.21876 0.34612 0.82172 0.36800
O 	O 	0.59047 0.37283 0.17590 -0.41800
O 	O 	0.59102 0.39773 0.15333 -0.42000
O 	O 	0.64806 0.20525 0.02911 -0.40400
O 	O 	0.68769 0.22531 0.02900 -0.41300
O 	O 	0.50489 0.37172 0.34315 -0.41400
O 	O 	0.48513 0.33125 0.30272 -0.41200
O 	O 	0.53258 0.38394 0.18838 -0.41600
O 	O 	0.53350 0.40813 0.16551 -0.41300
C 	C 	0.59779 0.38286 0.16143 0.35500
C 	C 	0.62035 0.37787 0.15650 -0.08600
C 	C 	0.62444 0.35567 0.15707 0.01000
H 	H 	0.61310 0.34330 0.16100 0.04100
C 	C 	0.64431 0.35147 0.15202 -0.06700
H 	H 	0.64660 0.33620 0.15260 0.05100
C 	C 	0.66147 0.36921 0.14604 -0.00500
C 	C 	0.65780 0.39105 0.14663 -0.06900
H 	H 	0.67000 0.40420 0.14400 0.05100
C 	C 	0.63748 0.39528 0.15074 0.00900
H 	H 	0.63510 0.41030 0.14960 0.03900
C 	C 	0.68411 0.36451 0.14126 0.12700
C 	C 	0.67817 0.33802 0.12325 -0.18900
H 	H 	0.65970 0.32250 0.11360 0.09300
C 	C 	0.69919 0.33389 0.11918 0.14800
C 	C 	0.72438 0.35631 0.13377 -0.26900
H 	H 	0.73870 0.35340 0.13130 0.11300
C 	C 	0.73277 0.38436 0.15277 0.30100
C 	C 	0.71219 0.38765 0.15578 -0.26800
H 	H 	0.71620 0.40590 0.16790 0.11500
C 	C 	0.69166 0.30611 0.09923 -0.01400
C 	C 	0.66932 0.28181 0.09147 -0.06700
H 	H 	0.65770 0.28270 0.09960 0.04900
C 	C 	0.66319 0.25615 0.07230 0.02100
H 	H 	0.64780 0.23950 0.06770 0.03800
C 	C 	0.67960 0.25439 0.05943 -0.11400
C 	C 	0.70086 0.27811 0.06669 0.03500
H 	H 	0.71220 0.27760 0.05820 0.03100
C 	C 	0.70684 0.30325 0.08599 -0.07400
H 	H 	0.72240 0.31980 0.09060 0.04900
C 	C 	0.67104 0.22657 0.03769 0.37200
C 	C 	0.48671 0.35375 0.31794 0.35800
C 	C 	0.46576 0.36036 0.30312 -0.09800
C 	C 	0.46780 0.38641 0.31675 0.01900
H 	H 	0.48270 0.39970 0.33540 0.04000
C 	C 	0.44856 0.39328 0.30366 -0.07700
H 	H 	0.45040 0.41110 0.31330 0.05500
C 	C 	0.42659 0.37400 0.27643 0.00700
C 	C 	0.42488 0.34844 0.26246 -0.07900
H 	H 	0.41040 0.33530 0.24350 0.05200
C 	C 	0.44457 0.34200 0.27629 0.02200
H 	H 	0.44300 0.32440 0.26660 0.03700
C 	C 	0.40543 0.38018 0.26003 0.10600
C 	C 	0.39346 0.36887 0.23087 -0.21900
H 	H 	0.39800 0.35610 0.22090 0.09800
H 	H 	0.34690 0.36370 0.17660 0.13100
C 	C 	0.40892 0.38408 0.18196 -0.23300
H 	H 	0.41110 0.36900 0.18310 0.10500
C 	C 	0.42901 0.40362 0.18069 0.13100
C 	C 	0.45210 0.40102 0.18004 -0.01500
C 	C 	0.46330 0.41028 0.16558 -0.06200
H 	H 	0.45480 0.41760 0.15520 0.04900
C 	C 	0.48666 0.40929 0.16563 0.00800
H 	H 	0.49430 0.41660 0.15590 0.04300
C 	C 	0.49932 0.39774 0.17978 -0.09100
C 	C 	0.48813 0.38775 0.19348 0.01500
H 	H 	0.49580 0.37950 0.20310 0.04000
C 	C 	0.46480 0.38969 0.19303 -0.06300
H 	H 	0.45710 0.38240 0.20270 0.05000
C 	C 	0.52440 0.39704 0.17828 0.36800
O 	O 	0.80307 0.62717 0.21764 -0.41800
O 	O 	0.75560 0.60227 0.19329 -0.41900
O 	O 	0.82386 0.79475 0.44281 -0.40400
O 	O 	0.80369 0.77469 0.46238 -0.41300
O 	O 	0.97143 0.62828 0.13317 -0.41400
O 	O 	0.97147 0.66875 0.15388 -0.41100
O 	O 	0.80444 0.61606 0.14864 -0.41600
O 	O 	0.75738 0.59187 0.12537 -0.41300
C 	C 	0.77857 0.61714 0.21493 0.35500
C 	C 	0.77863 0.62213 0.24248 -0.08600
C 	C 	0.80140 0.64433 0.26877 0.01000
H 	H 	0.81770 0.65670 0.26980 0.04100
C 	C 	0.80055 0.64853 0.29284 -0.06700
H 	H 	0.81640 0.66380 0.31040 0.05100
C 	C 	0.77683 0.63079 0.29226 -0.00500
C 	C 	0.75558 0.60895 0.26675 -0.06900
H 	H 	0.73980 0.59580 0.26580 0.05100
C 	C 	0.75546 0.60472 0.24220 0.00900
H 	H 	0.73930 0.58970 0.22480 0.03900
C 	C 	0.77675 0.63549 0.31960 0.12700
C 	C 	0.78523 0.66198 0.34015 -0.18900
H 	H 	0.79110 0.67750 0.33720 0.09300
C 	C 	0.78529 0.66611 0.36530 0.14800
C 	C 	0.77746 0.64369 0.36807 -0.26900
H 	H 	0.77790 0.64660 0.38530 0.11300
C 	C 	0.76841 0.61564 0.34841 0.30100
C 	C 	0.76813 0.61235 0.32454 -0.26800
H 	H 	0.76200 0.59410 0.31030 0.11500
C 	C 	0.79312 0.69389 0.38555 -0.01400
C 	C 	0.80966 0.71819 0.38751 -0.06600
H 	H 	0.81690 0.71730 0.37500 0.04900
C 	C 	0.81615 0.74385 0.40704 0.02100
H 	H 	0.82820 0.76050 0.40830 0.03800
C 	C 	0.80504 0.74561 0.42521 -0.11300
C 	C 	0.78858 0.72189 0.42275 0.03500
H 	H 	0.78060 0.72240 0.43460 0.03200
C 	C 	0.78274 0.69675 0.40359 -0.07400
H 	H 	0.77080 0.68020 0.40260 0.04900
C 	C 	0.81112 0.77343 0.44447 0.37200
C 	C 	0.96419 0.64625 0.13296 0.35800
C 	C 	0.94276 0.63964 0.10540 -0.09800
C 	C 	0.93034 0.61359 0.08139 0.01900
H 	H 	0.93570 0.60030 0.08300 0.04000
C 	C 	0.91038 0.60672 0.05528 -0.07700
H 	H 	0.90220 0.58890 0.03930 0.05500
C 	C 	0.90243 0.62600 0.05259 0.00700
C 	C 	0.91402 0.65156 0.07644 -0.07900
H 	H 	0.90820 0.66470 0.07510 0.05200
C 	C 	0.93429 0.65800 0.10257 0.02200
H 	H 	0.94220 0.67560 0.11860 0.03700
C 	C 	0.87985 0.61982 0.02525 0.10600
C 	C 	0.86200 0.63113 0.02459 -0.21900
H 	H 	0.86480 0.64390 0.04190 0.09800
H 	H 	0.81290 0.63630 0.98320 0.13200
C 	C 	0.79788 0.61592 0.02484 -0.23400
H 	H 	0.81410 0.63100 0.04210 0.10500
C 	C 	0.77707 0.59638 0.02539 0.13100
C 	C 	0.77902 0.59898 0.05108 -0.01600
C 	C 	0.75530 0.58972 0.05302 -0.06200
H 	H 	0.73760 0.58240 0.03720 0.04900
C 	C 	0.75634 0.59071 0.07737 0.00800
H 	H 	0.73930 0.58340 0.07770 0.04300
C 	C 	0.78204 0.60226 0.10158 -0.09100
C 	C 	0.80573 0.61225 0.10038 0.01400
H 	H 	0.82360 0.62050 0.11630 0.04000
C 	C 	0.80334 0.61031 0.07511 -0.06200
H 	H 	0.82030 0.61760 0.07470 0.05000
C 	C 	0.78124 0.60296 0.12736 0.36800
O 	O 	0.40953 0.58543 0.78236 -0.41800
O 	O 	0.40898 0.56231 0.80671 -0.41900
O 	O 	0.35194 0.38105 0.55719 -0.40400
O 	O 	0.31231 0.34131 0.53762 -0.41300
O 	O 	0.49511 0.83826 0.86683 -0.41400
O 	O 	0.51487 0.81759 0.84612 -0.41200
O 	O 	0.46742 0.65580 0.85136 -0.41600
O 	O 	0.46650 0.63201 0.87463 -0.41300
C 	C 	0.40221 0.56364 0.78507 0.35500
C 	C 	0.37965 0.53615 0.75752 -0.08600
C 	C 	0.37556 0.53263 0.73123 0.01000
H 	H 	0.38690 0.54790 0.73020 0.04100
C 	C 	0.35569 0.50771 0.70716 -0.06700
H 	H 	0.35340 0.50600 0.68960 0.05100
C 	C 	0.33853 0.48457 0.70774 -0.00500
C 	C 	0.34220 0.48883 0.73325 -0.06900
H 	H 	0.33000 0.47400 0.73420 0.05100
C 	C 	0.36252 0.51326 0.75780 0.00900
H 	H 	0.36490 0.51450 0.77520 0.03900
C 	C 	0.31589 0.45715 0.68040 0.12700
C 	C 	0.32183 0.44508 0.65985 -0.18900
H 	H 	0.34030 0.45390 0.66280 0.09300
C 	C 	0.30081 0.41999 0.63470 0.14800
C 	C 	0.27562 0.40939 0.63193 -0.26900
H 	H 	0.26130 0.39260 0.61470 0.11300
C 	C 	0.26723 0.42000 0.65159 0.30100
C 	C 	0.28781 0.44359 0.67546 -0.26800
H 	H 	0.28380 0.45170 0.68970 0.11500
C 	C 	0.30834 0.40757 0.61445 -0.01400
C 	C 	0.33068 0.42215 0.61249 -0.06600
H 	H 	0.34230 0.44190 0.62500 0.04900
C 	C 	0.33681 0.40911 0.59296 0.02100
H 	H 	0.35220 0.41990 0.59170 0.03800
C 	C 	0.32040 0.37983 0.57479 -0.11300
C 	C 	0.29914 0.36583 0.57725 0.03500
H 	H 	0.28780 0.34600 0.56540 0.03200
C 	C 	0.29316 0.37915 0.59641 -0.07400
H 	H 	0.27760 0.36820 0.59740 0.04900
C 	C 	0.32896 0.36665 0.55553 0.37200
C 	C 	0.51329 0.83123 0.86704 0.35800
C 	C 	0.53424 0.83736 0.89460 -0.09800
C 	C 	0.53220 0.84895 0.91861 0.01900
H 	H 	0.51730 0.85270 0.91700 0.04000
C 	C 	0.55144 0.85510 0.94472 -0.07700
H 	H 	0.54960 0.86290 0.96070 0.05500
C 	C 	0.57341 0.84984 0.94741 0.00700
C 	C 	0.57512 0.83758 0.92356 -0.07900
H 	H 	0.58960 0.83310 0.92490 0.05300
C 	C 	0.55543 0.83172 0.89743 0.02200
H 	H 	0.55700 0.82360 0.88140 0.03700
C 	C 	0.59457 0.85460 0.97475 0.10700
C 	C 	0.60654 0.83741 0.97541 -0.21900
H 	H 	0.60200 0.82290 0.95810 0.09800
H 	H 	0.65310 0.82970 0.01680 0.13100
C 	C 	0.59108 0.77304 0.97516 -0.23300
H 	H 	0.58890 0.77200 0.95790 0.10500
C 	C 	0.57099 0.75168 0.97461 0.13200
C 	C 	0.54790 0.72794 0.94892 -0.01600
C 	C 	0.53670 0.70228 0.94698 -0.06200
H 	H 	0.54520 0.70040 0.96280 0.04900
C 	C 	0.51334 0.67897 0.92263 0.00800
H 	H 	0.50570 0.66160 0.92230 0.04300
C 	C 	0.50068 0.68046 0.89842 -0.09100
C 	C 	0.51187 0.70535 0.89962 0.01400
H 	H 	0.50420 0.70730 0.88370 0.04000
C 	C 	0.53520 0.72823 0.92489 -0.06200
H 	H 	0.54290 0.74560 0.92530 0.05000
C 	C 	0.47560 0.65388 0.87264 0.36800
O 	O 	0.58543 0.78236 0.40953 -0.41800
O 	O 	0.56231 0.80671 0.40898 -0.41900
O 	O 	0.38105 0.55719 0.35194 -0.40400
O 	O 	0.34131 0.53762 0.31231 -0.41300
O 	O 	0.83826 0.86683 0.49511 -0.41400
O 	O 	0.81759 0.84612 0.51487 -0.41200
O 	O 	0.65580 0.85136 0.46742 -0.41600
O 	O 	0.63201 0.87463 0.46650 -0.41300
C 	C 	0.56364 0.78507 0.40221 0.35500
C 	C 	0.53615 0.75752 0.37965 -0.08600
C 	C 	0.53263 0.73123 0.37556 0.01000
H 	H 	0.54790 0.73020 0.38690 0.04100
C 	C 	0.50771 0.70716 0.35569 -0.06700
H 	H 	0.50600 0.68960 0.35340 0.05100
C 	C 	0.48457 0.70774 0.33853 -0.00500
C 	C 	0.48883 0.73325 0.34220 -0.06900
H 	H 	0.47400 0.73420 0.33000 0.05100
C 	C 	0.51326 0.75780 0.36252 0.00900
H 	H 	0.51450 0.77520 0.36490 0.03900
C 	C 	0.45715 0.68040 0.31589 0.12700
C 	C 	0.44508 0.65985 0.32183 -0.18900
H 	H 	0.45390 0.66280 0.34030 0.09300
C 	C 	0.41999 0.63470 0.30081 0.14800
C 	C 	0.40939 0.63193 0.27562 -0.26900
H 	H 	0.39260 0.61470 0.26130 0.11300
C 	C 	0.42000 0.65159 0.26723 0.30100
C 	C 	0.44359 0.67546 0.28781 -0.26800
H 	H 	0.45170 0.68970 0.28380 0.11500
C 	C 	0.40757 0.61445 0.30834 -0.01400
C 	C 	0.42215 0.61249 0.33068 -0.06600
H 	H 	0.44190 0.62500 0.34230 0.04900
C 	C 	0.40911 0.59296 0.33681 0.02100
H 	H 	0.41990 0.59170 0.35220 0.03800
C 	C 	0.37983 0.57479 0.32040 -0.11300
C 	C 	0.36583 0.57725 0.29914 0.03500
H 	H 	0.34600 0.56540 0.28780 0.03200
C 	C 	0.37915 0.59641 0.29316 -0.07400
H 	H 	0.36820 0.59740 0.27760 0.04900
C 	C 	0.36665 0.55553 0.32896 0.37200
C 	C 	0.83123 0.86704 0.51329 0.35800
C 	C 	0.83736 0.89460 0.53424 -0.09800
C 	C 	0.84895 0.91861 0.53220 0.01900
H 	H 	0.85270 0.91700 0.51730 0.04000
C 	C 	0.85510 0.94472 0.55144 -0.07700
H 	H 	0.86290 0.96070 0.54960 0.05500
C 	C 	0.84984 0.94741 0.57341 0.00700
C 	C 	0.83758 0.92356 0.57512 -0.07900
H 	H 	0.83310 0.92490 0.58960 0.05300
C 	C 	0.83172 0.89743 0.55543 0.02200
H 	H 	0.82360 0.88140 0.55700 0.03700
C 	C 	0.85460 0.97475 0.59457 0.10600
C 	C 	0.83741 0.97541 0.60654 -0.21900
H 	H 	0.82290 0.95810 0.60200 0.09800
H 	H 	0.82970 0.01680 0.65310 0.13100
C 	C 	0.77304 0.97516 0.59108 -0.23300
H 	H 	0.77200 0.95790 0.58890 0.10500
C 	C 	0.75168 0.97461 0.57099 0.13100
C 	C 	0.72794 0.94892 0.54790 -0.01500
C 	C 	0.70228 0.94698 0.53670 -0.06200
H 	H 	0.70040 0.96280 0.54520 0.04900
C 	C 	0.67897 0.92263 0.51334 0.00800
H 	H 	0.66160 0.92230 0.50570 0.04300
C 	C 	0.68046 0.89842 0.50068 -0.09100
C 	C 	0.70535 0.89962 0.51187 0.01500
H 	H 	0.70730 0.88370 0.50420 0.04000
C 	C 	0.72823 0.92489 0.53520 -0.06200
H 	H 	0.74560 0.92530 0.54290 0.05000
C 	C 	0.65388 0.87264 0.47560 0.36800
O 	O 	0.62717 0.21764 0.80307 -0.41800
O 	O 	0.60227 0.19329 0.75560 -0.41900
O 	O 	0.79475 0.44281 0.82386 -0.40400
O 	O 	0.77469 0.46238 0.80369 -0.41300
O 	O 	0.62828 0.13317 0.97143 -0.41300
O 	O 	0.66875 0.15388 0.97147 -0.41100
O 	O 	0.61606 0.14864 0.80444 -0.41600
O 	O 	0.59187 0.12537 0.75738 -0.41300
C 	C 	0.61714 0.21493 0.77857 0.35500
C 	C 	0.62213 0.24248 0.77863 -0.08600
C 	C 	0.64433 0.26877 0.80140 0.01000
H 	H 	0.65670 0.26980 0.81770 0.04100
C 	C 	0.64853 0.29284 0.80055 -0.06700
H 	H 	0.66380 0.31040 0.81640 0.05100
C 	C 	0.63079 0.29226 0.77683 -0.00500
C 	C 	0.60895 0.26675 0.75558 -0.06900
H 	H 	0.59580 0.26580 0.73980 0.05100
C 	C 	0.60472 0.24220 0.75546 0.00900
H 	H 	0.58970 0.22480 0.73930 0.03900
C 	C 	0.63549 0.31960 0.77675 0.12700
C 	C 	0.66198 0.34015 0.78523 -0.18900
H 	H 	0.67750 0.33720 0.79110 0.09300
C 	C 	0.66611 0.36530 0.78529 0.14800
C 	C 	0.64369 0.36807 0.77746 -0.26900
H 	H 	0.64660 0.38530 0.77790 0.11300
C 	C 	0.61564 0.34841 0.76841 0.30100
C 	C 	0.61235 0.32454 0.76813 -0.26800
H 	H 	0.59410 0.31030 0.76200 0.11500
C 	C 	0.69389 0.38555 0.79312 -0.01400
C 	C 	0.71819 0.38751 0.80966 -0.06600
H 	H 	0.71730 0.37500 0.81690 0.04900
C 	C 	0.74385 0.40704 0.81615 0.02100
H 	H 	0.76050 0.40830 0.82820 0.03800
C 	C 	0.74561 0.42521 0.80504 -0.11300
C 	C 	0.72189 0.42275 0.78858 0.03500
H 	H 	0.72240 0.43460 0.78060 0.03200
C 	C 	0.69675 0.40359 0.78274 -0.07400
H 	H 	0.68020 0.40260 0.77080 0.04900
C 	C 	0.77343 0.44447 0.81112 0.37200
C 	C 	0.64625 0.13296 0.96419 0.35800
C 	C 	0.63964 0.10540 0.94276 -0.09800
C 	C 	0.61359 0.08139 0.93034 0.01900
H 	H 	0.60030 0.08300 0.93570 0.04000
C 	C 	0.60672 0.05528 0.91038 -0.07700
H 	H 	0.58890 0.03930 0.90220 0.05500
C 	C 	0.62600 0.05259 0.90243 0.00700
C 	C 	0.65156 0.07644 0.91402 -0.07900
H 	H 	0.66470 0.07510 0.90820 0.05300
C 	C 	0.65800 0.10257 0.93429 0.02200
H 	H 	0.67560 0.11860 0.94220 0.03700
C 	C 	0.61982 0.02525 0.87985 0.10600
C 	C 	0.63113 0.02459 0.86200 -0.21900
H 	H 	0.64390 0.04190 0.86480 0.09900
H 	H 	0.63630 0.98320 0.81290 0.13100
C 	C 	0.61592 0.02484 0.79788 -0.23300
H 	H 	0.63100 0.04210 0.81410 0.10500
C 	C 	0.59638 0.02539 0.77707 0.13100
C 	C 	0.59898 0.05108 0.77902 -0.01500
C 	C 	0.58972 0.05302 0.75530 -0.06200
H 	H 	0.58240 0.03720 0.73760 0.04900
C 	C 	0.59071 0.07737 0.75634 0.00800
H 	H 	0.58340 0.07770 0.73930 0.04300
C 	C 	0.60226 0.10158 0.78204 -0.09100
C 	C 	0.61225 0.10038 0.80573 0.01500
H 	H 	0.62050 0.11630 0.82360 0.04000
C 	C 	0.61031 0.07511 0.80334 -0.06200
H 	H 	0.61760 0.07470 0.82030 0.05000
C 	C 	0.60296 0.12736 0.78124 0.36800
O 	O 	0.37283 0.17590 0.59047 -0.41800
O 	O 	0.39773 0.15333 0.59102 -0.41900
O 	O 	0.20525 0.02911 0.64806 -0.40400
O 	O 	0.22531 0.02900 0.68769 -0.41300
O 	O 	0.37172 0.34315 0.50489 -0.41400
O 	O 	0.33125 0.30272 0.48513 -0.41200
O 	O 	0.38394 0.18838 0.53258 -0.41600
O 	O 	0.40813 0.16551 0.53350 -0.41300
C 	C 	0.38286 0.16143 0.59779 0.35500
C 	C 	0.37787 0.15650 0.62035 -0.08600
C 	C 	0.35567 0.15707 0.62444 0.01000
H 	H 	0.34330 0.16100 0.61310 0.04100
C 	C 	0.35147 0.15202 0.64431 -0.06700
H 	H 	0.33620 0.15260 0.64660 0.05100
C 	C 	0.36921 0.14604 0.66147 -0.00500
C 	C 	0.39105 0.14663 0.65780 -0.06900
H 	H 	0.40420 0.14400 0.67000 0.05100
C 	C 	0.39528 0.15074 0.63748 0.00900
H 	H 	0.41030 0.14960 0.63510 0.03900
C 	C 	0.36451 0.14126 0.68411 0.12700
C 	C 	0.33802 0.12325 0.67817 -0.18900
H 	H 	0.32250 0.11360 0.65970 0.09300
C 	C 	0.33389 0.11918 0.69919 0.14800
C 	C 	0.35631 0.13377 0.72438 -0.26900
H 	H 	0.35340 0.13130 0.73870 0.11300
C 	C 	0.38436 0.15277 0.73277 0.30100
C 	C 	0.38765 0.15578 0.71219 -0.26800
H 	H 	0.40590 0.16790 0.71620 0.11500
C 	C 	0.30611 0.09923 0.69166 -0.01400
C 	C 	0.28181 0.09147 0.66932 -0.06600
H 	H 	0.28270 0.09960 0.65770 0.04900
C 	C 	0.25615 0.07230 0.66319 0.02100
H 	H 	0.23950 0.06770 0.64780 0.03800
C 	C 	0.25439 0.05943 0.67960 -0.11300
C 	C 	0.27811 0.06669 0.70086 0.03500
H 	H 	0.27760 0.05820 0.71220 0.03100
C 	C 	0.30325 0.08599 0.70684 -0.07400
H 	H 	0.31980 0.09060 0.72240 0.04900
C 	C 	0.22657 0.03769 0.67104 0.37200
C 	C 	0.35375 0.31794 0.48671 0.35800
C 	C 	0.36036 0.30312 0.46576 -0.09800
C 	C 	0.38641 0.31675 0.46780 0.01900
H 	H 	0.39970 0.33540 0.48270 0.04000
C 	C 	0.39328 0.30366 0.44856 -0.07700
H 	H 	0.41110 0.31330 0.45040 0.05500
C 	C 	0.37400 0.27643 0.42659 0.00700
C 	C 	0.34844 0.26246 0.42488 -0.07900
H 	H 	0.33530 0.24350 0.41040 0.05200
C 	C 	0.34200 0.27629 0.44457 0.02200
H 	H 	0.32440 0.26660 0.44300 0.03700
C 	C 	0.38018 0.26003 0.40543 0.10600
C 	C 	0.36887 0.23087 0.39346 -0.21900
H 	H 	0.35610 0.22090 0.39800 0.09800
H 	H 	0.36370 0.17660 0.34690 0.13100
C 	C 	0.38408 0.18196 0.40892 -0.23300
H 	H 	0.36900 0.18310 0.41110 0.10500
C 	C 	0.40362 0.18069 0.42901 0.13100
C 	C 	0.40102 0.18004 0.45210 -0.01500
C 	C 	0.41028 0.16558 0.46330 -0.06200
H 	H 	0.41760 0.15520 0.45480 0.04900
C 	C 	0.40929 0.16563 0.48666 0.00800
H 	H 	0.41660 0.15590 0.49430 0.04300
C 	C 	0.39774 0.17978 0.49932 -0.09100
C 	C 	0.38775 0.19348 0.48813 0.01500
H 	H 	0.37950 0.20310 0.49580 0.04000
C 	C 	0.38969 0.19303 0.46480 -0.06300
H 	H 	0.38240 0.20270 0.45710 0.05000
C 	C 	0.39704 0.17828 0.52440 0.36800
O 	O 	0.41457 0.82410 0.19693 -0.41800
O 	O 	0.43769 0.84667 0.24440 -0.41900
O 	O 	0.61895 0.97089 0.17614 -0.40400
O 	O 	0.65869 0.97100 0.19631 -0.41300
O 	O 	0.16174 0.65685 0.02857 -0.41400
O 	O 	0.18241 0.69728 0.02853 -0.41200
O 	O 	0.34420 0.81162 0.19556 -0.41600
O 	O 	0.36799 0.83449 0.24262 -0.41300
C 	C 	0.43636 0.83857 0.22143 0.35500
C 	C 	0.46385 0.84350 0.22137 -0.08600
C 	C 	0.46737 0.84293 0.19860 0.01000
H 	H 	0.45210 0.83900 0.18230 0.04100
C 	C 	0.49229 0.84798 0.19945 -0.06700
H 	H 	0.49400 0.84740 0.18360 0.05100
C 	C 	0.51543 0.85396 0.22317 -0.00500
C 	C 	0.51117 0.85337 0.24442 -0.06900
H 	H 	0.52600 0.85600 0.26020 0.05100
C 	C 	0.48674 0.84926 0.24454 0.00900
H 	H 	0.48550 0.85040 0.26070 0.03900
C 	C 	0.54285 0.85874 0.22325 0.12700
C 	C 	0.55492 0.87675 0.21477 -0.18900
H 	H 	0.54610 0.88640 0.20890 0.09300
C 	C 	0.58001 0.88082 0.21471 0.14800
C 	C 	0.59061 0.86623 0.22254 -0.26900
H 	H 	0.60740 0.86870 0.22210 0.11300
C 	C 	0.58000 0.84723 0.23159 0.30100
C 	C 	0.55641 0.84422 0.23187 -0.26800
H 	H 	0.54830 0.83210 0.23800 0.11500
C 	C 	0.59243 0.90077 0.20688 -0.01400
C 	C 	0.57785 0.90853 0.19034 -0.06600
H 	H 	0.55810 0.90040 0.18310 0.04900
C 	C 	0.59089 0.92770 0.18385 0.02100
H 	H 	0.58010 0.93230 0.17180 0.03800
C 	C 	0.62017 0.94057 0.19496 -0.11300
C 	C 	0.63417 0.93331 0.21142 0.03500
H 	H 	0.65400 0.94180 0.21940 0.03200
C 	C 	0.62085 0.91401 0.21726 -0.07400
H 	H 	0.63180 0.90940 0.22920 0.04900
C 	C 	0.63335 0.96231 0.18888 0.37200
C 	C 	0.16877 0.68206 0.03581 0.35800
C 	C 	0.16264 0.69688 0.05724 -0.09800
C 	C 	0.15105 0.68325 0.06966 0.01900
H 	H 	0.14730 0.66460 0.06430 0.03900
C 	C 	0.14490 0.69634 0.08962 -0.07700
H 	H 	0.13710 0.68670 0.09780 0.05500
C 	C 	0.15016 0.72357 0.09757 0.00700
C 	C 	0.16242 0.73754 0.08598 -0.07900
H 	H 	0.16690 0.75650 0.09180 0.05200
C 	C 	0.16828 0.72371 0.06571 0.02200
H 	H 	0.17640 0.73340 0.05780 0.03700
C 	C 	0.14540 0.73997 0.12015 0.10600
C 	C 	0.16259 0.76913 0.13800 -0.21900
H 	H 	0.17710 0.77910 0.13520 0.09800
H 	H 	0.17030 0.82340 0.18710 0.13100
C 	C 	0.22696 0.81804 0.20212 -0.23300
H 	H 	0.22800 0.81690 0.18590 0.10500
C 	C 	0.24832 0.81931 0.22293 0.13100
C 	C 	0.27206 0.81996 0.22098 -0.01500
C 	C 	0.29772 0.83442 0.24470 -0.06200
H 	H 	0.29960 0.84480 0.26240 0.04900
C 	C 	0.32103 0.83437 0.24366 0.00800
H 	H 	0.33840 0.84410 0.26070 0.04300
C 	C 	0.31954 0.82022 0.21796 -0.09100
C 	C 	0.29465 0.80652 0.19427 0.01500
H 	H 	0.29270 0.79690 0.17640 0.04000
C 	C 	0.27177 0.80697 0.19666 -0.06200
H 	H 	0.25440 0.79730 0.17970 0.05000
C 	C 	0.34612 0.82172 0.21876 0.36800
O 	O 	0.21764 0.80307 0.62717 -0.41800
O 	O 	0.19329 0.75560 0.60227 -0.41900
O 	O 	0.44281 0.82386 0.79475 -0.40400
O 	O 	0.46238 0.80369 0.77469 -0.41300
O 	O 	0.13317 0.97143 0.62828 -0.41400
O 	O 	0.15388 0.97147 0.66875 -0.41200
O 	O 	0.14864 0.80444 0.61606 -0.41600
O 	O 	0.12537 0.75738 0.59187 -0.41300
C 	C 	0.21493 0.77857 0.61714 0.35500
C 	C 	0.24248 0.77863 0.62213 -0.08600
C 	C 	0.26877 0.80140 0.64433 0.01000
H 	H 	0.26980 0.81770 0.65670 0.04100
C 	C 	0.29284 0.80055 0.64853 -0.06700
H 	H 	0.31040 0.81640 0.66380 0.05100
C 	C 	0.29226 0.77683 0.63079 -0.00500
C 	C 	0.26675 0.75558 0.60895 -0.06900
H 	H 	0.26580 0.73980 0.59580 0.05100
C 	C 	0.24220 0.75546 0.60472 0.00900
H 	H 	0.22480 0.73930 0.58970 0.03900
C 	C 	0.31960 0.77675 0.63549 0.12700
C 	C 	0.34015 0.78523 0.66198 -0.18900
H 	H 	0.33720 0.79110 0.67750 0.09300
C 	C 	0.36530 0.78529 0.66611 0.14800
C 	C 	0.36807 0.77746 0.64369 -0.26900
H 	H 	0.38530 0.77790 0.64660 0.11300
C 	C 	0.34841 0.76841 0.61564 0.30100
C 	C 	0.32454 0.76813 0.61235 -0.26800
H 	H 	0.31030 0.76200 0.59410 0.11500
C 	C 	0.38555 0.79312 0.69389 -0.01400
C 	C 	0.38751 0.80966 0.71819 -0.06600
H 	H 	0.37500 0.81690 0.71730 0.04900
C 	C 	0.40704 0.81615 0.74385 0.02100
H 	H 	0.40830 0.82820 0.76050 0.03800
C 	C 	0.42521 0.80504 0.74561 -0.11300
C 	C 	0.42275 0.78858 0.72189 0.03500
H 	H 	0.43460 0.78060 0.72240 0.03200
C 	C 	0.40359 0.78274 0.69675 -0.07400
H 	H 	0.40260 0.77080 0.68020 0.04900
C 	C 	0.44447 0.81112 0.77343 0.37200
C 	C 	0.13296 0.96419 0.64625 0.35800
C 	C 	0.10540 0.94276 0.63964 -0.09800
C 	C 	0.08139 0.93034 0.61359 0.01800
H 	H 	0.08300 0.93570 0.60030 0.04000
C 	C 	0.05528 0.91038 0.60672 -0.07700
H 	H 	0.03930 0.90220 0.58890 0.05500
C 	C 	0.05259 0.90243 0.62600 0.00600
C 	C 	0.07644 0.91402 0.65156 -0.07800
H 	H 	0.07510 0.90820 0.66470 0.05200
C 	C 	0.10257 0.93429 0.65800 0.02100
H 	H 	0.11860 0.94220 0.67560 0.03700
C 	C 	0.02525 0.87985 0.61982 0.10800
C 	C 	0.02459 0.86200 0.63113 -0.22200
H 	H 	0.04190 0.86480 0.64390 0.09900
H 	H 	0.98320 0.81290 0.63630 0.13300
C 	C 	0.02484 0.79788 0.61592 -0.23500
H 	H 	0.04210 0.81410 0.63100 0.10500
C 	C 	0.02539 0.77707 0.59638 0.13200
C 	C 	0.05108 0.77902 0.59898 -0.01600
C 	C 	0.05302 0.75530 0.58972 -0.06200
H 	H 	0.03720 0.73760 0.58240 0.04900
C 	C 	0.07737 0.75634 0.59071 0.00800
H 	H 	0.07770 0.73930 0.58340 0.04300
C 	C 	0.10158 0.78204 0.60226 -0.09100
C 	C 	0.10038 0.80573 0.61225 0.01400
H 	H 	0.11630 0.82360 0.62050 0.04000
C 	C 	0.07511 0.80334 0.61031 -0.06200
H 	H 	0.07470 0.82030 0.61760 0.05000
C 	C 	0.12736 0.78124 0.60296 0.36800
O 	O 	0.78236 0.40953 0.58543 -0.41800
O 	O 	0.80671 0.40898 0.56231 -0.41900
O 	O 	0.55719 0.35194 0.38105 -0.40400
O 	O 	0.53762 0.31231 0.34131 -0.41300
O 	O 	0.86683 0.49511 0.83826 -0.41400
O 	O 	0.84612 0.51487 0.81759 -0.41200
O 	O 	0.85136 0.46742 0.65580 -0.41600
O 	O 	0.87463 0.46650 0.63201 -0.41300
C 	C 	0.78507 0.40221 0.56364 0.35500
C 	C 	0.75752 0.37965 0.53615 -0.08600
C 	C 	0.73123 0.37556 0.53263 0.01000
H 	H 	0.73020 0.38690 0.54790 0.04100
C 	C 	0.70716 0.35569 0.50771 -0.06700
H 	H 	0.68960 0.35340 0.50600 0.05100
C 	C 	0.70774 0.33853 0.48457 -0.00500
C 	C 	0.73325 0.34220 0.48883 -0.06900
H 	H 	0.73420 0.33000 0.47400 0.05100
C 	C 	0.75780 0.36252 0.51326 0.00900
H 	H 	0.77520 0.36490 0.51450 0.03900
C 	C 	0.68040 0.31589 0.45715 0.12700
C 	C 	0.65985 0.32183 0.44508 -0.18900
H 	H 	0.66280 0.34030 0.45390 0.09300
C 	C 	0.63470 0.30081 0.41999 0.14800
C 	C 	0.63193 0.27562 0.40939 -0.26900
H 	H 	0.61470 0.26130 0.39260 0.11300
C 	C 	0.65159 0.26723 0.42000 0.30100
C 	C 	0.67546 0.28781 0.44359 -0.26800
H 	H 	0.68970 0.28380 0.45170 0.11500
C 	C 	0.61445 0.30834 0.40757 -0.01400
C 	C 	0.61249 0.33068 0.42215 -0.06600
H 	H 	0.62500 0.34230 0.44190 0.04900
C 	C 	0.59296 0.33681 0.40911 0.02100
H 	H 	0.59170 0.35220 0.41990 0.03800
C 	C 	0.57479 0.32040 0.37983 -0.11300
C 	C 	0.57725 0.29914 0.36583 0.03500
H 	H 	0.56540 0.28780 0.34600 0.03200
C 	C 	0.59641 0.29316 0.37915 -0.07400
H 	H 	0.59740 0.27760 0.36820 0.04900
C 	C 	0.55553 0.32896 0.36665 0.37200
C 	C 	0.86704 0.51329 0.83123 0.35800
C 	C 	0.89460 0.53424 0.83736 -0.09700
C 	C 	0.91861 0.53220 0.84895 0.01800
H 	H 	0.91700 0.51730 0.85270 0.04000
C 	C 	0.94472 0.55144 0.85510 -0.07700
H 	H 	0.96070 0.54960 0.86290 0.05500
C 	C 	0.94741 0.57341 0.84984 0.00600
C 	C 	0.92356 0.57512 0.83758 -0.07800
H 	H 	0.92490 0.58960 0.83310 0.05200
C 	C 	0.89743 0.55543 0.83172 0.02100
H 	H 	0.88140 0.55700 0.82360 0.03700
C 	C 	0.97475 0.59457 0.85460 0.10800
C 	C 	0.97541 0.60654 0.83741 -0.22200
H 	H 	0.95810 0.60200 0.82290 0.09900
H 	H 	0.01680 0.65310 0.82970 0.13200
C 	C 	0.97516 0.59108 0.77304 -0.23400
H 	H 	0.95790 0.58890 0.77200 0.10500
C 	C 	0.97461 0.57099 0.75168 0.13200
C 	C 	0.94892 0.54790 0.72794 -0.01600
C 	C 	0.94698 0.53670 0.70228 -0.06200
H 	H 	0.96280 0.54520 0.70040 0.04900
C 	C 	0.92263 0.51334 0.67897 0.00800
H 	H 	0.92230 0.50570 0.66160 0.04300
C 	C 	0.89842 0.50068 0.68046 -0.09100
C 	C 	0.89962 0.51187 0.70535 0.01400
H 	H 	0.88370 0.50420 0.70730 0.04000
C 	C 	0.92489 0.53520 0.72823 -0.06200
H 	H 	0.92530 0.54290 0.74560 0.05000
C 	C 	0.87264 0.47560 0.65388 0.36800
O 	O 	0.82410 0.19693 0.41457 -0.41800
O 	O 	0.84667 0.24440 0.43769 -0.41900
O 	O 	0.97089 0.17614 0.61895 -0.40400
O 	O 	0.97100 0.19631 0.65869 -0.41200
O 	O 	0.65685 0.02857 0.16174 -0.41400
O 	O 	0.69728 0.02853 0.18241 -0.41200
O 	O 	0.81162 0.19556 0.34420 -0.41600
O 	O 	0.83449 0.24262 0.36799 -0.41300
C 	C 	0.83857 0.22143 0.43636 0.35500
C 	C 	0.84350 0.22137 0.46385 -0.08600
C 	C 	0.84293 0.19860 0.46737 0.01000
H 	H 	0.83900 0.18230 0.45210 0.04100
C 	C 	0.84798 0.19945 0.49229 -0.06700
H 	H 	0.84740 0.18360 0.49400 0.05100
C 	C 	0.85396 0.22317 0.51543 -0.00500
C 	C 	0.85337 0.24442 0.51117 -0.06900
H 	H 	0.85600 0.26020 0.52600 0.05200
C 	C 	0.84926 0.24454 0.48674 0.00900
H 	H 	0.85040 0.26070 0.48550 0.03900
C 	C 	0.85874 0.22325 0.54285 0.12700
C 	C 	0.87675 0.21477 0.55492 -0.18900
H 	H 	0.88640 0.20890 0.54610 0.09300
C 	C 	0.88082 0.21471 0.58001 0.14800
C 	C 	0.86623 0.22254 0.59061 -0.26900
H 	H 	0.86870 0.22210 0.60740 0.11300
C 	C 	0.84723 0.23159 0.58000 0.30200
C 	C 	0.84422 0.23187 0.55641 -0.26800
H 	H 	0.83210 0.23800 0.54830 0.11500
C 	C 	0.90077 0.20688 0.59243 -0.01400
C 	C 	0.90853 0.19034 0.57785 -0.06600
H 	H 	0.90040 0.18310 0.55810 0.04900
C 	C 	0.92770 0.18385 0.59089 0.02100
H 	H 	0.93230 0.17180 0.58010 0.03800
C 	C 	0.94057 0.19496 0.62017 -0.11300
C 	C 	0.93331 0.21142 0.63417 0.03500
H 	H 	0.94180 0.21940 0.65400 0.03200
C 	C 	0.91401 0.21726 0.62085 -0.07400
H 	H 	0.90940 0.22920 0.63180 0.04900
C 	C 	0.96231 0.18888 0.63335 0.37200
C 	C 	0.68206 0.03581 0.16877 0.35800
C 	C 	0.69688 0.05724 0.16264 -0.09800
C 	C 	0.68325 0.06966 0.15105 0.01900
H 	H 	0.66460 0.06430 0.14730 0.04000
C 	C 	0.69634 0.08962 0.14490 -0.07700
H 	H 	0.68670 0.09780 0.13710 0.05500
C 	C 	0.72357 0.09757 0.15016 0.00700
C 	C 	0.73754 0.08598 0.16242 -0.07900
H 	H 	0.75650 0.09180 0.16690 0.05300
C 	C 	0.72371 0.06571 0.16828 0.02200
H 	H 	0.73340 0.05780 0.17640 0.03700
C 	C 	0.73997 0.12015 0.14540 0.10600
C 	C 	0.76913 0.13800 0.16259 -0.21900
H 	H 	0.77910 0.13520 0.17710 0.09800
H 	H 	0.82340 0.18710 0.17030 0.13100
C 	C 	0.81804 0.20212 0.22696 -0.23300
H 	H 	0.81690 0.18590 0.22800 0.10500
C 	C 	0.81931 0.22293 0.24832 0.13100
C 	C 	0.81996 0.22098 0.27206 -0.01500
C 	C 	0.83442 0.24470 0.29772 -0.06200
H 	H 	0.84480 0.26240 0.29960 0.04900
C 	C 	0.83437 0.24366 0.32103 0.00800
H 	H 	0.84410 0.26070 0.33840 0.04300
C 	C 	0.82022 0.21796 0.31954 -0.09100
C 	C 	0.80652 0.19427 0.29465 0.01500
H 	H 	0.79690 0.17640 0.29270 0.04000
C 	C 	0.80697 0.19666 0.27177 -0.06200
H 	H 	0.79730 0.17970 0.25440 0.05000
C 	C 	0.82172 0.21876 0.34612 0.36800
O 	O 	0.17590 0.59047 0.37283 -0.41800
O 	O 	0.15333 0.59102 0.39773 -0.42000
O 	O 	0.02911 0.64806 0.20525 -0.40400
O 	O 	0.02900 0.68769 0.22531 -0.41300
O 	O 	0.34315 0.50489 0.37172 -0.41400
O 	O 	0.30272 0.48513 0.33125 -0.41200
O 	O 	0.18838 0.53258 0.38394 -0.41600
O 	O 	0.16551 0.53350 0.40813 -0.41300
C 	C 	0.16143 0.59779 0.38286 0.35500
C 	C 	0.15650 0.62035 0.37787 -0.08600
C 	C 	0.15707 0.62444 0.35567 0.01000
H 	H 	0.16100 0.61310 0.34330 0.04100
C 	C 	0.15202 0.64431 0.35147 -0.06700
H 	H 	0.15260 0.64660 0.33620 0.05100
C 	C 	0.14604 0.66147 0.36921 -0.00500
C 	C 	0.14663 0.65780 0.39105 -0.06900
H 	H 	0.14400 0.67000 0.40420 0.05100
C 	C 	0.15074 0.63748 0.39528 0.00900
H 	H 	0.14960 0.63510 0.41030 0.03900
C 	C 	0.14126 0.68411 0.36451 0.12700
C 	C 	0.12325 0.67817 0.33802 -0.18900
H 	H 	0.11360 0.65970 0.32250 0.09300
C 	C 	0.11918 0.69919 0.33389 0.14800
C 	C 	0.13377 0.72438 0.35631 -0.26900
H 	H 	0.13130 0.73870 0.35340 0.11300
C 	C 	0.15277 0.73277 0.38436 0.30100
C 	C 	0.15578 0.71219 0.38765 -0.26800
H 	H 	0.16790 0.71620 0.40590 0.11500
C 	C 	0.09923 0.69166 0.30611 -0.01400
C 	C 	0.09147 0.66932 0.28181 -0.06700
H 	H 	0.09960 0.65770 0.28270 0.04900
C 	C 	0.07230 0.66319 0.25615 0.02100
H 	H 	0.06770 0.64780 0.23950 0.03800
C 	C 	0.05943 0.67960 0.25439 -0.11400
C 	C 	0.06669 0.70086 0.27811 0.03500
H 	H 	0.05820 0.71220 0.27760 0.03100
C 	C 	0.08599 0.70684 0.30325 -0.07400
H 	H 	0.09060 0.72240 0.31980 0.04900
C 	C 	0.03769 0.67104 0.22657 0.37200
C 	C 	0.31794 0.48671 0.35375 0.35800
C 	C 	0.30312 0.46576 0.36036 -0.09800
C 	C 	0.31675 0.46780 0.38641 0.01900
H 	H 	0.33540 0.48270 0.39970 0.04000
C 	C 	0.30366 0.44856 0.39328 -0.07700
H 	H 	0.31330 0.45040 0.41110 0.05500
C 	C 	0.27643 0.42659 0.37400 0.00700
C 	C 	0.26246 0.42488 0.34844 -0.07900
H 	H 	0.24350 0.41040 0.33530 0.05200
C 	C 	0.27629 0.44457 0.34200 0.02200
H 	H 	0.26660 0.44300 0.32440 0.03700
C 	C 	0.26003 0.40543 0.38018 0.10600
C 	C 	0.23087 0.39346 0.36887 -0.21900
H 	H 	0.22090 0.39800 0.35610 0.09800
H 	H 	0.17660 0.34690 0.36370 0.13100
C 	C 	0.18196 0.40892 0.38408 -0.23300
H 	H 	0.18310 0.41110 0.36900 0.10500
C 	C 	0.18069 0.42901 0.40362 0.13100
C 	C 	0.18004 0.45210 0.40102 -0.01500
C 	C 	0.16558 0.46330 0.41028 -0.06200
H 	H 	0.15520 0.45480 0.41760 0.04900
C 	C 	0.16563 0.48666 0.40929 0.00800
H 	H 	0.15590 0.49430 0.41660 0.04300
C 	C 	0.17978 0.49932 0.39774 -0.09100
C 	C 	0.19348 0.48813 0.38775 0.01500
H 	H 	0.20310 0.49580 0.37950 0.04000
C 	C 	0.19303 0.46480 0.38969 -0.06300
H 	H 	0.20270 0.45710 0.38240 0.05000
C 	C 	0.17828 0.52440 0.39704 0.36800
O 	O 	0.37283 0.59047 0.17590 -0.41800
O 	O 	0.39773 0.59102 0.15333 -0.42000
O 	O 	0.20525 0.64806 0.02911 -0.40400
O 	O 	0.22531 0.68769 0.02900 -0.41300
O 	O 	0.37172 0.50489 0.34315 -0.41400
O 	O 	0.33125 0.48513 0.30272 -0.41200
O 	O 	0.38394 0.53258 0.18838 -0.41600
O 	O 	0.40813 0.53350 0.16551 -0.41300
C 	C 	0.38286 0.59779 0.16143 0.35500
C 	C 	0.37787 0.62035 0.15650 -0.08600
C 	C 	0.35567 0.62444 0.15707 0.01000
H 	H 	0.34330 0.61310 0.16100 0.04100
C 	C 	0.35147 0.64431 0.15202 -0.06700
H 	H 	0.33620 0.64660 0.15260 0.05100
C 	C 	0.36921 0.66147 0.14604 -0.00500
C 	C 	0.39105 0.65780 0.14663 -0.06900
H 	H 	0.40420 0.67000 0.14400 0.05100
C 	C 	0.39528 0.63748 0.15074 0.00900
H 	H 	0.41030 0.63510 0.14960 0.03900
C 	C 	0.36451 0.68411 0.14126 0.12700
C 	C 	0.33802 0.67817 0.12325 -0.18900
H 	H 	0.32250 0.65970 0.11360 0.09300
C 	C 	0.33389 0.69919 0.11918 0.14800
C 	C 	0.35631 0.72438 0.13377 -0.26900
H 	H 	0.35340 0.73870 0.13130 0.11300
C 	C 	0.38436 0.73277 0.15277 0.30100
C 	C 	0.38765 0.71219 0.15578 -0.26800
H 	H 	0.40590 0.71620 0.16790 0.11500
C 	C 	0.30611 0.69166 0.09923 -0.01400
C 	C 	0.28181 0.66932 0.09147 -0.06700
H 	H 	0.28270 0.65770 0.09960 0.04900
C 	C 	0.25615 0.66319 0.07230 0.02100
H 	H 	0.23950 0.64780 0.06770 0.03800
C 	C 	0.25439 0.67960 0.05943 -0.11400
C 	C 	0.27811 0.70086 0.06669 0.03500
H 	H 	0.27760 0.71220 0.05820 0.03100
C 	C 	0.30325 0.70684 0.08599 -0.07400
H 	H 	0.31980 0.72240 0.09060 0.04900
C 	C 	0.22657 0.67104 0.03769 0.37200
C 	C 	0.35375 0.48671 0.31794 0.35800
C 	C 	0.36036 0.46576 0.30312 -0.09800
C 	C 	0.38641 0.46780 0.31675 0.01900
H 	H 	0.39970 0.48270 0.33540 0.04000
C 	C 	0.39328 0.44856 0.30366 -0.07700
H 	H 	0.41110 0.45040 0.31330 0.05500
C 	C 	0.37400 0.42659 0.27643 0.00700
C 	C 	0.34844 0.42488 0.26246 -0.07900
H 	H 	0.33530 0.41040 0.24350 0.05200
C 	C 	0.34200 0.44457 0.27629 0.02200
H 	H 	0.32440 0.44300 0.26660 0.03700
C 	C 	0.38018 0.40543 0.26003 0.10600
C 	C 	0.36887 0.39346 0.23087 -0.21900
H 	H 	0.35610 0.39800 0.22090 0.09800
H 	H 	0.36370 0.34690 0.17660 0.13100
C 	C 	0.38408 0.40892 0.18196 -0.23300
H 	H 	0.36900 0.41110 0.18310 0.10500
C 	C 	0.40362 0.42901 0.18069 0.13100
C 	C 	0.40102 0.45210 0.18004 -0.01500
C 	C 	0.41028 0.46330 0.16558 -0.06200
H 	H 	0.41760 0.45480 0.15520 0.04900
C 	C 	0.40929 0.48666 0.16563 0.00800
H 	H 	0.41660 0.49430 0.15590 0.04300
C 	C 	0.39774 0.49932 0.17978 -0.09100
C 	C 	0.38775 0.48813 0.19348 0.01500
H 	H 	0.37950 0.49580 0.20310 0.04000
C 	C 	0.38969 0.46480 0.19303 -0.06300
H 	H 	0.38240 0.45710 0.20270 0.05000
C 	C 	0.39704 0.52440 0.17828 0.36800
O 	O 	0.41457 0.19693 0.82410 -0.41800
O 	O 	0.43769 0.24440 0.84667 -0.41900
O 	O 	0.61895 0.17614 0.97089 -0.40400
O 	O 	0.65869 0.19631 0.97100 -0.41200
O 	O 	0.16174 0.02857 0.65685 -0.41400
O 	O 	0.18241 0.02853 0.69728 -0.41200
O 	O 	0.34420 0.19556 0.81162 -0.41600
O 	O 	0.36799 0.24262 0.83449 -0.41300
C 	C 	0.43636 0.22143 0.83857 0.35500
C 	C 	0.46385 0.22137 0.84350 -0.08600
C 	C 	0.46737 0.19860 0.84293 0.01000
H 	H 	0.45210 0.18230 0.83900 0.04100
C 	C 	0.49229 0.19945 0.84798 -0.06700
H 	H 	0.49400 0.18360 0.84740 0.05100
C 	C 	0.51543 0.22317 0.85396 -0.00500
C 	C 	0.51117 0.24442 0.85337 -0.06900
H 	H 	0.52600 0.26020 0.85600 0.05200
C 	C 	0.48674 0.24454 0.84926 0.00900
H 	H 	0.48550 0.26070 0.85040 0.03900
C 	C 	0.54285 0.22325 0.85874 0.12700
C 	C 	0.55492 0.21477 0.87675 -0.18900
H 	H 	0.54610 0.20890 0.88640 0.09300
C 	C 	0.58001 0.21471 0.88082 0.14800
C 	C 	0.59061 0.22254 0.86623 -0.26900
H 	H 	0.60740 0.22210 0.86870 0.11300
C 	C 	0.58000 0.23159 0.84723 0.30200
C 	C 	0.55641 0.23187 0.84422 -0.26800
H 	H 	0.54830 0.23800 0.83210 0.11500
C 	C 	0.59243 0.20688 0.90077 -0.01400
C 	C 	0.57785 0.19034 0.90853 -0.06600
H 	H 	0.55810 0.18310 0.90040 0.04900
C 	C 	0.59089 0.18385 0.92770 0.02100
H 	H 	0.58010 0.17180 0.93230 0.03800
C 	C 	0.62017 0.19496 0.94057 -0.11300
C 	C 	0.63417 0.21142 0.93331 0.03500
H 	H 	0.65400 0.21940 0.94180 0.03200
C 	C 	0.62085 0.21726 0.91401 -0.07400
H 	H 	0.63180 0.22920 0.90940 0.04900
C 	C 	0.63335 0.18888 0.96231 0.37200
C 	C 	0.16877 0.03581 0.68206 0.35800
C 	C 	0.16264 0.05724 0.69688 -0.09800
C 	C 	0.15105 0.06966 0.68325 0.01900
H 	H 	0.14730 0.06430 0.66460 0.04000
C 	C 	0.14490 0.08962 0.69634 -0.07700
H 	H 	0.13710 0.09780 0.68670 0.05500
C 	C 	0.15016 0.09757 0.72357 0.00700
C 	C 	0.16242 0.08598 0.73754 -0.07900
H 	H 	0.16690 0.09180 0.75650 0.05300
C 	C 	0.16828 0.06571 0.72371 0.02200
H 	H 	0.17640 0.05780 0.73340 0.03700
C 	C 	0.14540 0.12015 0.73997 0.10600
C 	C 	0.16259 0.13800 0.76913 -0.21900
H 	H 	0.17710 0.13520 0.77910 0.09800
H 	H 	0.17030 0.18710 0.82340 0.13100
C 	C 	0.22696 0.20212 0.81804 -0.23300
H 	H 	0.22800 0.18590 0.81690 0.10500
C 	C 	0.24832 0.22293 0.81931 0.13100
C 	C 	0.27206 0.22098 0.81996 -0.01500
C 	C 	0.29772 0.24470 0.83442 -0.06200
H 	H 	0.29960 0.26240 0.84480 0.04900
C 	C 	0.32103 0.24366 0.83437 0.00800
H 	H 	0.33840 0.26070 0.84410 0.04300
C 	C 	0.31954 0.21796 0.82022 -0.09100
C 	C 	0.29465 0.19427 0.80652 0.01500
H 	H 	0.29270 0.17640 0.79690 0.04000
C 	C 	0.27177 0.19666 0.80697 -0.06200
H 	H 	0.25440 0.17970 0.79730 0.05000
C 	C 	0.34612 0.21876 0.82172 0.36800
O 	O 	0.58543 0.40953 0.78236 -0.41800
O 	O 	0.56231 0.40898 0.80671 -0.41900
O 	O 	0.38105 0.35194 0.55719 -0.40400
O 	O 	0.34131 0.31231 0.53762 -0.41300
O 	O 	0.83826 0.49511 0.86683 -0.41400
O 	O 	0.81759 0.51487 0.84612 -0.41200
O 	O 	0.65580 0.46742 0.85136 -0.41600
O 	O 	0.63201 0.46650 0.87463 -0.41300
C 	C 	0.56364 0.40221 0.78507 0.35500
C 	C 	0.53615 0.37965 0.75752 -0.08600
C 	C 	0.53263 0.37556 0.73123 0.01000
H 	H 	0.54790 0.38690 0.73020 0.04100
C 	C 	0.50771 0.35569 0.70716 -0.06700
H 	H 	0.50600 0.35340 0.68960 0.05100
C 	C 	0.48457 0.33853 0.70774 -0.00500
C 	C 	0.48883 0.34220 0.73325 -0.06900
H 	H 	0.47400 0.33000 0.73420 0.05100
C 	C 	0.51326 0.36252 0.75780 0.00900
H 	H 	0.51450 0.36490 0.77520 0.03900
C 	C 	0.45715 0.31589 0.68040 0.12700
C 	C 	0.44508 0.32183 0.65985 -0.18900
H 	H 	0.45390 0.34030 0.66280 0.09300
C 	C 	0.41999 0.30081 0.63470 0.14800
C 	C 	0.40939 0.27562 0.63193 -0.26900
H 	H 	0.39260 0.26130 0.61470 0.11300
C 	C 	0.42000 0.26723 0.65159 0.30100
C 	C 	0.44359 0.28781 0.67546 -0.26800
H 	H 	0.45170 0.28380 0.68970 0.11500
C 	C 	0.40757 0.30834 0.61445 -0.01400
C 	C 	0.42215 0.33068 0.61249 -0.06600
H 	H 	0.44190 0.34230 0.62500 0.04900
C 	C 	0.40911 0.33681 0.59296 0.02100
H 	H 	0.41990 0.35220 0.59170 0.03800
C 	C 	0.37983 0.32040 0.57479 -0.11300
C 	C 	0.36583 0.29914 0.57725 0.03500
H 	H 	0.34600 0.28780 0.56540 0.03200
C 	C 	0.37915 0.29316 0.59641 -0.07400
H 	H 	0.36820 0.27760 0.59740 0.04900
C 	C 	0.36665 0.32896 0.55553 0.37200
C 	C 	0.83123 0.51329 0.86704 0.35800
C 	C 	0.83736 0.53424 0.89460 -0.09800
C 	C 	0.84895 0.53220 0.91861 0.01900
H 	H 	0.85270 0.51730 0.91700 0.04000
C 	C 	0.85510 0.55144 0.94472 -0.07700
H 	H 	0.86290 0.54960 0.96070 0.05500
C 	C 	0.84984 0.57341 0.94741 0.00700
C 	C 	0.83758 0.57512 0.92356 -0.07900
H 	H 	0.83310 0.58960 0.92490 0.05300
C 	C 	0.83172 0.55543 0.89743 0.02200
H 	H 	0.82360 0.55700 0.88140 0.03700
C 	C 	0.85460 0.59457 0.97475 0.10700
C 	C 	0.83741 0.60654 0.97541 -0.21900
H 	H 	0.82290 0.60200 0.95810 0.09800
H 	H 	0.82970 0.65310 0.01680 0.13100
C 	C 	0.77304 0.59108 0.97516 -0.23300
H 	H 	0.77200 0.58890 0.95790 0.10500
C 	C 	0.75168 0.57099 0.97461 0.13200
C 	C 	0.72794 0.54790 0.94892 -0.01600
C 	C 	0.70228 0.53670 0.94698 -0.06200
H 	H 	0.70040 0.54520 0.96280 0.04900
C 	C 	0.67897 0.51334 0.92263 0.00800
H 	H 	0.66160 0.50570 0.92230 0.04300
C 	C 	0.68046 0.50068 0.89842 -0.09100
C 	C 	0.70535 0.51187 0.89962 0.01400
H 	H 	0.70730 0.50420 0.88370 0.04000
C 	C 	0.72823 0.53520 0.92489 -0.06200
H 	H 	0.74560 0.54290 0.92530 0.05000
C 	C 	0.65388 0.47560 0.87264 0.36800
O 	O 	0.62717 0.80307 0.21764 -0.41800
O 	O 	0.60227 0.75560 0.19329 -0.41900
O 	O 	0.79475 0.82386 0.44281 -0.40400
O 	O 	0.77469 0.80369 0.46238 -0.41300
O 	O 	0.62828 0.97143 0.13317 -0.41400
O 	O 	0.66875 0.97147 0.15388 -0.41200
O 	O 	0.61606 0.80444 0.14864 -0.41600
O 	O 	0.59187 0.75738 0.12537 -0.41300
C 	C 	0.61714 0.77857 0.21493 0.35500
C 	C 	0.62213 0.77863 0.24248 -0.08600
C 	C 	0.64433 0.80140 0.26877 0.01000
H 	H 	0.65670 0.81770 0.26980 0.04100
C 	C 	0.64853 0.80055 0.29284 -0.06700
H 	H 	0.66380 0.81640 0.31040 0.05100
C 	C 	0.63079 0.77683 0.29226 -0.00500
C 	C 	0.60895 0.75558 0.26675 -0.06900
H 	H 	0.59580 0.73980 0.26580 0.05100
C 	C 	0.60472 0.75546 0.24220 0.00900
H 	H 	0.58970 0.73930 0.22480 0.03900
C 	C 	0.63549 0.77675 0.31960 0.12700
C 	C 	0.66198 0.78523 0.34015 -0.18900
H 	H 	0.67750 0.79110 0.33720 0.09300
C 	C 	0.66611 0.78529 0.36530 0.14800
C 	C 	0.64369 0.77746 0.36807 -0.26900
H 	H 	0.64660 0.77790 0.38530 0.11300
C 	C 	0.61564 0.76841 0.34841 0.30100
C 	C 	0.61235 0.76813 0.32454 -0.26800
H 	H 	0.59410 0.76200 0.31030 0.11500
C 	C 	0.69389 0.79312 0.38555 -0.01400
C 	C 	0.71819 0.80966 0.38751 -0.06600
H 	H 	0.71730 0.81690 0.37500 0.04900
C 	C 	0.74385 0.81615 0.40704 0.02100
H 	H 	0.76050 0.82820 0.40830 0.03800
C 	C 	0.74561 0.80504 0.42521 -0.11300
C 	C 	0.72189 0.78858 0.42275 0.03500
H 	H 	0.72240 0.78060 0.43460 0.03200
C 	C 	0.69675 0.78274 0.40359 -0.07400
H 	H 	0.68020 0.77080 0.40260 0.04900
C 	C 	0.77343 0.81112 0.44447 0.37200
C 	C 	0.64625 0.96419 0.13296 0.35800
C 	C 	0.63964 0.94276 0.10540 -0.09800
C 	C 	0.61359 0.93034 0.08139 0.01900
H 	H 	0.60030 0.93570 0.08300 0.04000
C 	C 	0.60672 0.91038 0.05528 -0.07700
H 	H 	0.58890 0.90220 0.03930 0.05500
C 	C 	0.62600 0.90243 0.05259 0.00700
C 	C 	0.65156 0.91402 0.07644 -0.07900
H 	H 	0.66470 0.90820 0.07510 0.05200
C 	C 	0.65800 0.93429 0.10257 0.02200
H 	H 	0.67560 0.94220 0.11860 0.03700
C 	C 	0.61982 0.87985 0.02525 0.10600
C 	C 	0.63113 0.86200 0.02459 -0.21900
H 	H 	0.64390 0.86480 0.04190 0.09800
H 	H 	0.63630 0.81290 0.98320 0.13200
C 	C 	0.61592 0.79788 0.02484 -0.23400
H 	H 	0.63100 0.81410 0.04210 0.10500
C 	C 	0.59638 0.77707 0.02539 0.13100
C 	C 	0.59898 0.77902 0.05108 -0.01600
C 	C 	0.58972 0.75530 0.05302 -0.06200
H 	H 	0.58240 0.73760 0.03720 0.04900
C 	C 	0.59071 0.75634 0.07737 0.00800
H 	H 	0.58340 0.73930 0.07770 0.04300
C 	C 	0.60226 0.78204 0.10158 -0.09100
C 	C 	0.61225 0.80573 0.10038 0.01400
H 	H 	0.62050 0.82360 0.11630 0.04000
C 	C 	0.61031 0.80334 0.07511 -0.06200
H 	H 	0.61760 0.82030 0.07470 0.05000
C 	C 	0.60296 0.78124 0.12736 0.36800
O 	O 	0.17590 0.37283 0.59047 -0.41800
O 	O 	0.15333 0.39773 0.59102 -0.42000
O 	O 	0.02911 0.20525 0.64806 -0.40400
O 	O 	0.02900 0.22531 0.68769 -0.41300
O 	O 	0.34315 0.37172 0.50489 -0.41400
O 	O 	0.30272 0.33125 0.48513 -0.41200
O 	O 	0.18838 0.38394 0.53258 -0.41600
O 	O 	0.16551 0.40813 0.53350 -0.41300
C 	C 	0.16143 0.38286 0.59779 0.35500
C 	C 	0.15650 0.37787 0.62035 -0.08600
C 	C 	0.15707 0.35567 0.62444 0.01000
H 	H 	0.16100 0.34330 0.61310 0.04100
C 	C 	0.15202 0.35147 0.64431 -0.06700
H 	H 	0.15260 0.33620 0.64660 0.05100
C 	C 	0.14604 0.36921 0.66147 -0.00500
C 	C 	0.14663 0.39105 0.65780 -0.06900
H 	H 	0.14400 0.40420 0.67000 0.05100
C 	C 	0.15074 0.39528 0.63748 0.00900
H 	H 	0.14960 0.41030 0.63510 0.03900
C 	C 	0.14126 0.36451 0.68411 0.12700
C 	C 	0.12325 0.33802 0.67817 -0.18900
H 	H 	0.11360 0.32250 0.65970 0.09300
C 	C 	0.11918 0.33389 0.69919 0.14800
C 	C 	0.13377 0.35631 0.72438 -0.26900
H 	H 	0.13130 0.35340 0.73870 0.11300
C 	C 	0.15277 0.38436 0.73277 0.30100
C 	C 	0.15578 0.38765 0.71219 -0.26800
H 	H 	0.16790 0.40590 0.71620 0.11500
C 	C 	0.09923 0.30611 0.69166 -0.01400
C 	C 	0.09147 0.28181 0.66932 -0.06700
H 	H 	0.09960 0.28270 0.65770 0.04900
C 	C 	0.07230 0.25615 0.66319 0.02100
H 	H 	0.06770 0.23950 0.64780 0.03800
C 	C 	0.05943 0.25439 0.67960 -0.11400
C 	C 	0.06669 0.27811 0.70086 0.03500
H 	H 	0.05820 0.27760 0.71220 0.03100
C 	C 	0.08599 0.30325 0.70684 -0.07400
H 	H 	0.09060 0.31980 0.72240 0.04900
C 	C 	0.03769 0.22657 0.67104 0.37200
C 	C 	0.31794 0.35375 0.48671 0.35800
C 	C 	0.30312 0.36036 0.46576 -0.09800
C 	C 	0.31675 0.38641 0.46780 0.01900
H 	H 	0.33540 0.39970 0.48270 0.04000
C 	C 	0.30366 0.39328 0.44856 -0.07700
H 	H 	0.31330 0.41110 0.45040 0.05500
C 	C 	0.27643 0.37400 0.42659 0.00700
C 	C 	0.26246 0.34844 0.42488 -0.07900
H 	H 	0.24350 0.33530 0.41040 0.05200
C 	C 	0.27629 0.34200 0.44457 0.02200
H 	H 	0.26660 0.32440 0.44300 0.03700
C 	C 	0.26003 0.38018 0.40543 0.10600
C 	C 	0.23087 0.36887 0.39346 -0.21900
H 	H 	0.22090 0.35610 0.39800 0.09800
H 	H 	0.17660 0.36370 0.34690 0.13100
C 	C 	0.18196 0.38408 0.40892 -0.23300
H 	H 	0.18310 0.36900 0.41110 0.10500
C 	C 	0.18069 0.40362 0.42901 0.13100
C 	C 	0.18004 0.40102 0.45210 -0.01500
C 	C 	0.16558 0.41028 0.46330 -0.06200
H 	H 	0.15520 0.41760 0.45480 0.04900
C 	C 	0.16563 0.40929 0.48666 0.00800
H 	H 	0.15590 0.41660 0.49430 0.04300
C 	C 	0.17978 0.39774 0.49932 -0.09100
C 	C 	0.19348 0.38775 0.48813 0.01500
H 	H 	0.20310 0.37950 0.49580 0.04000
C 	C 	0.19303 0.38969 0.46480 -0.06300
H 	H 	0.20270 0.38240 0.45710 0.05000
C 	C 	0.17828 0.39704 0.52440 0.36800
O 	O 	0.82410 0.41457 0.19693 -0.41800
O 	O 	0.84667 0.43769 0.24440 -0.41900
O 	O 	0.97089 0.61895 0.17614 -0.40400
O 	O 	0.97100 0.65869 0.19631 -0.41200
O 	O 	0.65685 0.16174 0.02857 -0.41400
O 	O 	0.69728 0.18241 0.02853 -0.41200
O 	O 	0.81162 0.34420 0.19556 -0.41600
O 	O 	0.83449 0.36799 0.24262 -0.41300
C 	C 	0.83857 0.43636 0.22143 0.35500
C 	C 	0.84350 0.46385 0.22137 -0.08600
C 	C 	0.84293 0.46737 0.19860 0.01000
H 	H 	0.83900 0.45210 0.18230 0.04100
C 	C 	0.84798 0.49229 0.19945 -0.06700
H 	H 	0.84740 0.49400 0.18360 0.05100
C 	C 	0.85396 0.51543 0.22317 -0.00500
C 	C 	0.85337 0.51117 0.24442 -0.06900
H 	H 	0.85600 0.52600 0.26020 0.05200
C 	C 	0.84926 0.48674 0.24454 0.00900
H 	H 	0.85040 0.48550 0.26070 0.03900
C 	C 	0.85874 0.54285 0.22325 0.12700
C 	C 	0.87675 0.55492 0.21477 -0.18900
H 	H 	0.88640 0.54610 0.20890 0.09300
C 	C 	0.88082 0.58001 0.21471 0.14800
C 	C 	0.86623 0.59061 0.22254 -0.26900
H 	H 	0.86870 0.60740 0.22210 0.11300
C 	C 	0.84723 0.58000 0.23159 0.30200
C 	C 	0.84422 0.55641 0.23187 -0.26800
H 	H 	0.83210 0.54830 0.23800 0.11500
C 	C 	0.90077 0.59243 0.20688 -0.01400
C 	C 	0.90853 0.57785 0.19034 -0.06600
H 	H 	0.90040 0.55810 0.18310 0.04900
C 	C 	0.92770 0.59089 0.18385 0.02100
H 	H 	0.93230 0.58010 0.17180 0.03800
C 	C 	0.94057 0.62017 0.19496 -0.11300
C 	C 	0.93331 0.63417 0.21142 0.03500
H 	H 	0.94180 0.65400 0.21940 0.03200
C 	C 	0.91401 0.62085 0.21726 -0.07400
H 	H 	0.90940 0.63180 0.22920 0.04900
C 	C 	0.96231 0.63335 0.18888 0.37200
C 	C 	0.68206 0.16877 0.03581 0.35800
C 	C 	0.69688 0.16264 0.05724 -0.09800
C 	C 	0.68325 0.15105 0.06966 0.01900
H 	H 	0.66460 0.14730 0.06430 0.03900
C 	C 	0.69634 0.14490 0.08962 -0.07700
H 	H 	0.68670 0.13710 0.09780 0.05500
C 	C 	0.72357 0.15016 0.09757 0.00700
C 	C 	0.73754 0.16242 0.08598 -0.07900
H 	H 	0.75650 0.16690 0.09180 0.05200
C 	C 	0.72371 0.16828 0.06571 0.02200
H 	H 	0.73340 0.17640 0.05780 0.03700
C 	C 	0.73997 0.14540 0.12015 0.10600
C 	C 	0.76913 0.16259 0.13800 -0.21900
H 	H 	0.77910 0.17710 0.13520 0.09800
H 	H 	0.82340 0.17030 0.18710 0.13100
C 	C 	0.81804 0.22696 0.20212 -0.23300
H 	H 	0.81690 0.22800 0.18590 0.10500
C 	C 	0.81931 0.24832 0.22293 0.13100
C 	C 	0.81996 0.27206 0.22098 -0.01500
C 	C 	0.83442 0.29772 0.24470 -0.06200
H 	H 	0.84480 0.29960 0.26240 0.04900
C 	C 	0.83437 0.32103 0.24366 0.00800
H 	H 	0.84410 0.33840 0.26070 0.04300
C 	C 	0.82022 0.31954 0.21796 -0.09100
C 	C 	0.80652 0.29465 0.19427 0.01500
H 	H 	0.79690 0.29270 0.17640 0.04000
C 	C 	0.80697 0.27177 0.19666 -0.06200
H 	H 	0.79730 0.25440 0.17970 0.05000
C 	C 	0.82172 0.34612 0.21876 0.36800
O 	O 	0.78236 0.58543 0.40953 -0.41800
O 	O 	0.80671 0.56231 0.40898 -0.41900
O 	O 	0.55719 0.38105 0.35194 -0.40400
O 	O 	0.53762 0.34131 0.31231 -0.41300
O 	O 	0.86683 0.83826 0.49511 -0.41400
O 	O 	0.84612 0.81759 0.51487 -0.41200
O 	O 	0.85136 0.65580 0.46742 -0.41600
O 	O 	0.87463 0.63201 0.46650 -0.41300
C 	C 	0.78507 0.56364 0.40221 0.35500
C 	C 	0.75752 0.53615 0.37965 -0.08600
C 	C 	0.73123 0.53263 0.37556 0.01000
H 	H 	0.73020 0.54790 0.38690 0.04100
C 	C 	0.70716 0.50771 0.35569 -0.06700
H 	H 	0.68960 0.50600 0.35340 0.05100
C 	C 	0.70774 0.48457 0.33853 -0.00500
C 	C 	0.73325 0.48883 0.34220 -0.06900
H 	H 	0.73420 0.47400 0.33000 0.05100
C 	C 	0.75780 0.51326 0.36252 0.00900
H 	H 	0.77520 0.51450 0.36490 0.03900
C 	C 	0.68040 0.45715 0.31589 0.12700
C 	C 	0.65985 0.44508 0.32183 -0.18900
H 	H 	0.66280 0.45390 0.34030 0.09300
C 	C 	0.63470 0.41999 0.30081 0.14800
C 	C 	0.63193 0.40939 0.27562 -0.26900
H 	H 	0.61470 0.39260 0.26130 0.11300
C 	C 	0.65159 0.42000 0.26723 0.30100
C 	C 	0.67546 0.44359 0.28781 -0.26800
H 	H 	0.68970 0.45170 0.28380 0.11500
C 	C 	0.61445 0.40757 0.30834 -0.01400
C 	C 	0.61249 0.42215 0.33068 -0.06600
H 	H 	0.62500 0.44190 0.34230 0.04900
C 	C 	0.59296 0.40911 0.33681 0.02100
H 	H 	0.59170 0.41990 0.35220 0.03800
C 	C 	0.57479 0.37983 0.32040 -0.11300
C 	C 	0.57725 0.36583 0.29914 0.03500
H 	H 	0.56540 0.34600 0.28780 0.03200
C 	C 	0.59641 0.37915 0.29316 -0.07400
H 	H 	0.59740 0.36820 0.27760 0.04900
C 	C 	0.55553 0.36665 0.32896 0.37200
C 	C 	0.86704 0.83123 0.51329 0.35800
C 	C 	0.89460 0.83736 0.53424 -0.09700
C 	C 	0.91861 0.84895 0.53220 0.01800
H 	H 	0.91700 0.85270 0.51730 0.04000
C 	C 	0.94472 0.85510 0.55144 -0.07700
H 	H 	0.96070 0.86290 0.54960 0.05500
C 	C 	0.94741 0.84984 0.57341 0.00600
C 	C 	0.92356 0.83758 0.57512 -0.07800
H 	H 	0.92490 0.83310 0.58960 0.05200
C 	C 	0.89743 0.83172 0.55543 0.02100
H 	H 	0.88140 0.82360 0.55700 0.03700
C 	C 	0.97475 0.85460 0.59457 0.10800
C 	C 	0.97541 0.83741 0.60654 -0.22200
H 	H 	0.95810 0.82290 0.60200 0.09900
H 	H 	0.01680 0.82970 0.65310 0.13200
C 	C 	0.97516 0.77304 0.59108 -0.23400
H 	H 	0.95790 0.77200 0.58890 0.10500
C 	C 	0.97461 0.75168 0.57099 0.13200
C 	C 	0.94892 0.72794 0.54790 -0.01600
C 	C 	0.94698 0.70228 0.53670 -0.06200
H 	H 	0.96280 0.70040 0.54520 0.04900
C 	C 	0.92263 0.67897 0.51334 0.00800
H 	H 	0.92230 0.66160 0.50570 0.04300
C 	C 	0.89842 0.68046 0.50068 -0.09100
C 	C 	0.89962 0.70535 0.51187 0.01400
H 	H 	0.88370 0.70730 0.50420 0.04000
C 	C 	0.92489 0.72823 0.53520 -0.06200
H 	H 	0.92530 0.74560 0.54290 0.05000
C 	C 	0.87264 0.65388 0.47560 0.36800
O 	O 	0.21764 0.62717 0.80307 -0.41800
O 	O 	0.19329 0.60227 0.75560 -0.41900
O 	O 	0.44281 0.79475 0.82386 -0.40400
O 	O 	0.46238 0.77469 0.80369 -0.41300
O 	O 	0.13317 0.62828 0.97143 -0.41300
O 	O 	0.15388 0.66875 0.97147 -0.41100
O 	O 	0.14864 0.61606 0.80444 -0.41600
O 	O 	0.12537 0.59187 0.75738 -0.41300
C 	C 	0.21493 0.61714 0.77857 0.35500
C 	C 	0.24248 0.62213 0.77863 -0.08600
C 	C 	0.26877 0.64433 0.80140 0.01000
H 	H 	0.26980 0.65670 0.81770 0.04100
C 	C 	0.29284 0.64853 0.80055 -0.06700
H 	H 	0.31040 0.66380 0.81640 0.05100
C 	C 	0.29226 0.63079 0.77683 -0.00500
C 	C 	0.26675 0.60895 0.75558 -0.06900
H 	H 	0.26580 0.59580 0.73980 0.05100
C 	C 	0.24220 0.60472 0.75546 0.00900
H 	H 	0.22480 0.58970 0.73930 0.03900
C 	C 	0.31960 0.63549 0.77675 0.12700
C 	C 	0.34015 0.66198 0.78523 -0.18900
H 	H 	0.33720 0.67750 0.79110 0.09300
C 	C 	0.36530 0.66611 0.78529 0.14800
C 	C 	0.36807 0.64369 0.77746 -0.26900
H 	H 	0.38530 0.64660 0.77790 0.11300
C 	C 	0.34841 0.61564 0.76841 0.30100
C 	C 	0.32454 0.61235 0.76813 -0.26800
H 	H 	0.31030 0.59410 0.76200 0.11500
C 	C 	0.38555 0.69389 0.79312 -0.01400
C 	C 	0.38751 0.71819 0.80966 -0.06600
H 	H 	0.37500 0.71730 0.81690 0.04900
C 	C 	0.40704 0.74385 0.81615 0.02100
H 	H 	0.40830 0.76050 0.82820 0.03800
C 	C 	0.42521 0.74561 0.80504 -0.11300
C 	C 	0.42275 0.72189 0.78858 0.03500
H 	H 	0.43460 0.72240 0.78060 0.03200
C 	C 	0.40359 0.69675 0.78274 -0.07400
H 	H 	0.40260 0.68020 0.77080 0.04900
C 	C 	0.44447 0.77343 0.81112 0.37200
C 	C 	0.13296 0.64625 0.96419 0.35800
C 	C 	0.10540 0.63964 0.94276 -0.09700
C 	C 	0.08139 0.61359 0.93034 0.01800
H 	H 	0.08300 0.60030 0.93570 0.04000
C 	C 	0.05528 0.60672 0.91038 -0.07700
H 	H 	0.03930 0.58890 0.90220 0.05500
C 	C 	0.05259 0.62600 0.90243 0.00600
C 	C 	0.07644 0.65156 0.91402 -0.07800
H 	H 	0.07510 0.66470 0.90820 0.05200
C 	C 	0.10257 0.65800 0.93429 0.02100
H 	H 	0.11860 0.67560 0.94220 0.03700
C 	C 	0.02525 0.61982 0.87985 0.10800
C 	C 	0.02459 0.63113 0.86200 -0.22200
H 	H 	0.04190 0.64390 0.86480 0.09900
H 	H 	0.98320 0.63630 0.81290 0.13300
C 	C 	0.02484 0.61592 0.79788 -0.23500
H 	H 	0.04210 0.63100 0.81410 0.10500
C 	C 	0.02539 0.59638 0.77707 0.13200
C 	C 	0.05108 0.59898 0.77902 -0.01600
C 	C 	0.05302 0.58972 0.75530 -0.06200
H 	H 	0.03720 0.58240 0.73760 0.04900
C 	C 	0.07737 0.59071 0.75634 0.00800
H 	H 	0.07770 0.58340 0.73930 0.04300
C 	C 	0.10158 0.60226 0.78204 -0.09100
C 	C 	0.10038 0.61225 0.80573 0.01400
H 	H 	0.11630 0.62050 0.82360 0.04000
C 	C 	0.07511 0.61031 0.80334 -0.06200
H 	H 	0.07470 0.61760 0.82030 0.05000
C 	C 	0.12736 0.60296 0.78124 0.36800
O 	O 	0.59047 0.17590 0.37283 -0.41800
O 	O 	0.59102 0.15333 0.39773 -0.41900
O 	O 	0.64806 0.02911 0.20525 -0.40400
O 	O 	0.68769 0.02900 0.22531 -0.41300
O 	O 	0.50489 0.34315 0.37172 -0.41400
O 	O 	0.48513 0.30272 0.33125 -0.41200
O 	O 	0.53258 0.18838 0.38394 -0.41600
O 	O 	0.53350 0.16551 0.40813 -0.41300
C 	C 	0.59779 0.16143 0.38286 0.35500
C 	C 	0.62035 0.15650 0.37787 -0.08600
C 	C 	0.62444 0.15707 0.35567 0.01000
H 	H 	0.61310 0.16100 0.34330 0.04100
C 	C 	0.64431 0.15202 0.35147 -0.06700
H 	H 	0.64660 0.15260 0.33620 0.05100
C 	C 	0.66147 0.14604 0.36921 -0.00500
C 	C 	0.65780 0.14663 0.39105 -0.06900
H 	H 	0.67000 0.14400 0.40420 0.05100
C 	C 	0.63748 0.15074 0.39528 0.00900
H 	H 	0.63510 0.14960 0.41030 0.03900
C 	C 	0.68411 0.14126 0.36451 0.12700
C 	C 	0.67817 0.12325 0.33802 -0.18900
H 	H 	0.65970 0.11360 0.32250 0.09300
C 	C 	0.69919 0.11918 0.33389 0.14800
C 	C 	0.72438 0.13377 0.35631 -0.26900
H 	H 	0.73870 0.13130 0.35340 0.11300
C 	C 	0.73277 0.15277 0.38436 0.30100
C 	C 	0.71219 0.15578 0.38765 -0.26800
H 	H 	0.71620 0.16790 0.40590 0.11500
C 	C 	0.69166 0.09923 0.30611 -0.01400
C 	C 	0.66932 0.09147 0.28181 -0.06600
H 	H 	0.65770 0.09960 0.28270 0.04900
C 	C 	0.66319 0.07230 0.25615 0.02100
H 	H 	0.64780 0.06770 0.23950 0.03800
C 	C 	0.67960 0.05943 0.25439 -0.11300
C 	C 	0.70086 0.06669 0.27811 0.03500
H 	H 	0.71220 0.05820 0.27760 0.03100
C 	C 	0.70684 0.08599 0.30325 -0.07400
H 	H 	0.72240 0.09060 0.31980 0.04900
C 	C 	0.67104 0.03769 0.22657 0.37200
C 	C 	0.48671 0.31794 0.35375 0.35800
C 	C 	0.46576 0.30312 0.36036 -0.09800
C 	C 	0.46780 0.31675 0.38641 0.01900
H 	H 	0.48270 0.33540 0.39970 0.04000
C 	C 	0.44856 0.30366 0.39328 -0.07700
H 	H 	0.45040 0.31330 0.41110 0.05500
C 	C 	0.42659 0.27643 0.37400 0.00700
C 	C 	0.42488 0.26246 0.34844 -0.07900
H 	H 	0.41040 0.24350 0.33530 0.05200
C 	C 	0.44457 0.27629 0.34200 0.02200
H 	H 	0.44300 0.26660 0.32440 0.03700
C 	C 	0.40543 0.26003 0.38018 0.10600
C 	C 	0.39346 0.23087 0.36887 -0.21900
H 	H 	0.39800 0.22090 0.35610 0.09800
H 	H 	0.34690 0.17660 0.36370 0.13100
C 	C 	0.40892 0.18196 0.38408 -0.23300
H 	H 	0.41110 0.18310 0.36900 0.10500
C 	C 	0.42901 0.18069 0.40362 0.13100
C 	C 	0.45210 0.18004 0.40102 -0.01500
C 	C 	0.46330 0.16558 0.41028 -0.06200
H 	H 	0.45480 0.15520 0.41760 0.04900
C 	C 	0.48666 0.16563 0.40929 0.00800
H 	H 	0.49430 0.15590 0.41660 0.04300
C 	C 	0.49932 0.17978 0.39774 -0.09100
C 	C 	0.48813 0.19348 0.38775 0.01500
H 	H 	0.49580 0.20310 0.37950 0.04000
C 	C 	0.46480 0.19303 0.38969 -0.06300
H 	H 	0.45710 0.20270 0.38240 0.05000
C 	C 	0.52440 0.17828 0.39704 0.36800
O 	O 	0.19693 0.82410 0.41457 -0.41800
O 	O 	0.24440 0.84667 0.43769 -0.41900
O 	O 	0.17614 0.97089 0.61895 -0.40400
O 	O 	0.19631 0.97100 0.65869 -0.41300
O 	O 	0.02857 0.65685 0.16174 -0.41400
O 	O 	0.02853 0.69728 0.18241 -0.41200
O 	O 	0.19556 0.81162 0.34420 -0.41600
O 	O 	0.24262 0.83449 0.36799 -0.41300
C 	C 	0.22143 0.83857 0.43636 0.35500
C 	C 	0.22137 0.84350 0.46385 -0.08600
C 	C 	0.19860 0.84293 0.46737 0.01000
H 	H 	0.18230 0.83900 0.45210 0.04100
C 	C 	0.19945 0.84798 0.49229 -0.06700
H 	H 	0.18360 0.84740 0.49400 0.05100
C 	C 	0.22317 0.85396 0.51543 -0.00500
C 	C 	0.24442 0.85337 0.51117 -0.06900
H 	H 	0.26020 0.85600 0.52600 0.05100
C 	C 	0.24454 0.84926 0.48674 0.00900
H 	H 	0.26070 0.85040 0.48550 0.03900
C 	C 	0.22325 0.85874 0.54285 0.12700
C 	C 	0.21477 0.87675 0.55492 -0.18900
H 	H 	0.20890 0.88640 0.54610 0.09300
C 	C 	0.21471 0.88082 0.58001 0.14800
C 	C 	0.22254 0.86623 0.59061 -0.26900
H 	H 	0.22210 0.86870 0.60740 0.11300
C 	C 	0.23159 0.84723 0.58000 0.30100
C 	C 	0.23187 0.84422 0.55641 -0.26800
H 	H 	0.23800 0.83210 0.54830 0.11500
C 	C 	0.20688 0.90077 0.59243 -0.01400
C 	C 	0.19034 0.90853 0.57785 -0.06600
H 	H 	0.18310 0.90040 0.55810 0.04900
C 	C 	0.18385 0.92770 0.59089 0.02100
H 	H 	0.17180 0.93230 0.58010 0.03800
C 	C 	0.19496 0.94057 0.62017 -0.11300
C 	C 	0.21142 0.93331 0.63417 0.03500
H 	H 	0.21940 0.94180 0.65400 0.03200
C 	C 	0.21726 0.91401 0.62085 -0.07400
H 	H 	0.22920 0.90940 0.63180 0.04900
C 	C 	0.18888 0.96231 0.63335 0.37200
C 	C 	0.03581 0.68206 0.16877 0.35800
C 	C 	0.05724 0.69688 0.16264 -0.09800
C 	C 	0.06966 0.68325 0.15105 0.01900
H 	H 	0.06430 0.66460 0.14730 0.03900
C 	C 	0.08962 0.69634 0.14490 -0.07700
H 	H 	0.09780 0.68670 0.13710 0.05500
C 	C 	0.09757 0.72357 0.15016 0.00700
C 	C 	0.08598 0.73754 0.16242 -0.07900
H 	H 	0.09180 0.75650 0.16690 0.05200
C 	C 	0.06571 0.72371 0.16828 0.02200
H 	H 	0.05780 0.73340 0.17640 0.03700
C 	C 	0.12015 0.73997 0.14540 0.10600
C 	C 	0.13800 0.76913 0.16259 -0.21900
H 	H 	0.13520 0.77910 0.17710 0.09800
H 	H 	0.18710 0.82340 0.17030 0.13100
C 	C 	0.20212 0.81804 0.22696 -0.23300
H 	H 	0.18590 0.81690 0.22800 0.10500
C 	C 	0.22293 0.81931 0.24832 0.13100
C 	C 	0.22098 0.81996 0.27206 -0.01500
C 	C 	0.24470 0.83442 0.29772 -0.06200
H 	H 	0.26240 0.84480 0.29960 0.04900
C 	C 	0.24366 0.83437 0.32103 0.00800
H 	H 	0.26070 0.84410 0.33840 0.04300
C 	C 	0.21796 0.82022 0.31954 -0.09100
C 	C 	0.19427 0.80652 0.29465 0.01500
H 	H 	0.17640 0.79690 0.29270 0.04000
C 	C 	0.19666 0.80697 0.27177 -0.06200
H 	H 	0.17970 0.79730 0.25440 0.05000
C 	C 	0.21876 0.82172 0.34612 0.36800
O 	O 	0.40953 0.78236 0.58543 -0.41800
O 	O 	0.40898 0.80671 0.56231 -0.41900
O 	O 	0.35194 0.55719 0.38105 -0.40400
O 	O 	0.31231 0.53762 0.34131 -0.41300
O 	O 	0.49511 0.86683 0.83826 -0.41400
O 	O 	0.51487 0.84612 0.81759 -0.41200
O 	O 	0.46742 0.85136 0.65580 -0.41600
O 	O 	0.46650 0.87463 0.63201 -0.41300
C 	C 	0.40221 0.78507 0.56364 0.35500
C 	C 	0.37965 0.75752 0.53615 -0.08600
C 	C 	0.37556 0.73123 0.53263 0.01000
H 	H 	0.38690 0.73020 0.54790 0.04100
C 	C 	0.35569 0.70716 0.50771 -0.06700
H 	H 	0.35340 0.68960 0.50600 0.05100
C 	C 	0.33853 0.70774 0.48457 -0.00500
C 	C 	0.34220 0.73325 0.48883 -0.06900
H 	H 	0.33000 0.73420 0.47400 0.05100
C 	C 	0.36252 0.75780 0.51326 0.00900
H 	H 	0.36490 0.77520 0.51450 0.03900
C 	C 	0.31589 0.68040 0.45715 0.12700
C 	C 	0.32183 0.65985 0.44508 -0.18900
H 	H 	0.34030 0.66280 0.45390 0.09300
C 	C 	0.30081 0.63470 0.41999 0.14800
C 	C 	0.27562 0.63193 0.40939 -0.26900
H 	H 	0.26130 0.61470 0.39260 0.11300
C 	C 	0.26723 0.65159 0.42000 0.30100
C 	C 	0.28781 0.67546 0.44359 -0.26800
H 	H 	0.28380 0.68970 0.45170 0.11500
C 	C 	0.30834 0.61445 0.40757 -0.01400
C 	C 	0.33068 0.61249 0.42215 -0.06600
H 	H 	0.34230 0.62500 0.44190 0.04900
C 	C 	0.33681 0.59296 0.40911 0.02100
H 	H 	0.35220 0.59170 0.41990 0.03800
C 	C 	0.32040 0.57479 0.37983 -0.11300
C 	C 	0.29914 0.57725 0.36583 0.03500
H 	H 	0.28780 0.56540 0.34600 0.03200
C 	C 	0.29316 0.59641 0.37915 -0.07400
H 	H 	0.27760 0.59740 0.36820 0.04900
C 	C 	0.32896 0.55553 0.36665 0.37200
C 	C 	0.51329 0.86704 0.83123 0.35800
C 	C 	0.53424 0.89460 0.83736 -0.09800
C 	C 	0.53220 0.91861 0.84895 0.01900
H 	H 	0.51730 0.91700 0.85270 0.04000
C 	C 	0.55144 0.94472 0.85510 -0.07700
H 	H 	0.54960 0.96070 0.86290 0.05500
C 	C 	0.57341 0.94741 0.84984 0.00700
C 	C 	0.57512 0.92356 0.83758 -0.07900
H 	H 	0.58960 0.92490 0.83310 0.05300
C 	C 	0.55543 0.89743 0.83172 0.02200
H 	H 	0.55700 0.88140 0.82360 0.03700
C 	C 	0.59457 0.97475 0.85460 0.10600
C 	C 	0.60654 0.97541 0.83741 -0.21900
H 	H 	0.60200 0.95810 0.82290 0.09800
H 	H 	0.65310 0.01680 0.82970 0.13100
C 	C 	0.59108 0.97516 0.77304 -0.23300
H 	H 	0.58890 0.95790 0.77200 0.10500
C 	C 	0.57099 0.97461 0.75168 0.13100
C 	C 	0.54790 0.94892 0.72794 -0.01500
C 	C 	0.53670 0.94698 0.70228 -0.06200
H 	H 	0.54520 0.96280 0.70040 0.04900
C 	C 	0.51334 0.92263 0.67897 0.00800
H 	H 	0.50570 0.92230 0.66160 0.04300
C 	C 	0.50068 0.89842 0.68046 -0.09100
C 	C 	0.51187 0.89962 0.70535 0.01500
H 	H 	0.50420 0.88370 0.70730 0.04000
C 	C 	0.53520 0.92489 0.72823 -0.06200
H 	H 	0.54290 0.92530 0.74560 0.05000
C 	C 	0.47560 0.87264 0.65388 0.36800
O 	O 	0.80307 0.21764 0.62717 -0.41800
O 	O 	0.75560 0.19329 0.60227 -0.41900
O 	O 	0.82386 0.44281 0.79475 -0.40400
O 	O 	0.80369 0.46238 0.77469 -0.41300
O 	O 	0.97143 0.13317 0.62828 -0.41300
O 	O 	0.97147 0.15388 0.66875 -0.41100
O 	O 	0.80444 0.14864 0.61606 -0.41600
O 	O 	0.75738 0.12537 0.59187 -0.41300
C 	C 	0.77857 0.21493 0.61714 0.35500
C 	C 	0.77863 0.24248 0.62213 -0.08600
C 	C 	0.80140 0.26877 0.64433 0.01000
H 	H 	0.81770 0.26980 0.65670 0.04100
C 	C 	0.80055 0.29284 0.64853 -0.06700
H 	H 	0.81640 0.31040 0.66380 0.05100
C 	C 	0.77683 0.29226 0.63079 -0.00500
C 	C 	0.75558 0.26675 0.60895 -0.06900
H 	H 	0.73980 0.26580 0.59580 0.05100
C 	C 	0.75546 0.24220 0.60472 0.00900
H 	H 	0.73930 0.22480 0.58970 0.03900
C 	C 	0.77675 0.31960 0.63549 0.12700
C 	C 	0.78523 0.34015 0.66198 -0.18900
H 	H 	0.79110 0.33720 0.67750 0.09300
C 	C 	0.78529 0.36530 0.66611 0.14800
C 	C 	0.77746 0.36807 0.64369 -0.26900
H 	H 	0.77790 0.38530 0.64660 0.11300
C 	C 	0.76841 0.34841 0.61564 0.30100
C 	C 	0.76813 0.32454 0.61235 -0.26800
H 	H 	0.76200 0.31030 0.59410 0.11500
C 	C 	0.79312 0.38555 0.69389 -0.01400
C 	C 	0.80966 0.38751 0.71819 -0.06600
H 	H 	0.81690 0.37500 0.71730 0.04900
C 	C 	0.81615 0.40704 0.74385 0.02100
H 	H 	0.82820 0.40830 0.76050 0.03800
C 	C 	0.80504 0.42521 0.74561 -0.11300
C 	C 	0.78858 0.42275 0.72189 0.03500
H 	H 	0.78060 0.43460 0.72240 0.03200
C 	C 	0.78274 0.40359 0.69675 -0.07400
H 	H 	0.77080 0.40260 0.68020 0.04900
C 	C 	0.81112 0.44447 0.77343 0.37200
C 	C 	0.96419 0.13296 0.64625 0.35800
C 	C 	0.94276 0.10540 0.63964 -0.09800
C 	C 	0.93034 0.08139 0.61359 0.01900
H 	H 	0.93570 0.08300 0.60030 0.04000
C 	C 	0.91038 0.05528 0.60672 -0.07700
H 	H 	0.90220 0.03930 0.58890 0.05500
C 	C 	0.90243 0.05259 0.62600 0.00700
C 	C 	0.91402 0.07644 0.65156 -0.07900
H 	H 	0.90820 0.07510 0.66470 0.05300
C 	C 	0.93429 0.10257 0.65800 0.02200
H 	H 	0.94220 0.11860 0.67560 0.03700
C 	C 	0.87985 0.02525 0.61982 0.10600
C 	C 	0.86200 0.02459 0.63113 -0.22000
H 	H 	0.86480 0.04190 0.64390 0.09900
H 	H 	0.81290 0.98320 0.63630 0.13100
C 	C 	0.79788 0.02484 0.61592 -0.23300
H 	H 	0.81410 0.04210 0.63100 0.10500
C 	C 	0.77707 0.02539 0.59638 0.13100
C 	C 	0.77902 0.05108 0.59898 -0.01500
C 	C 	0.75530 0.05302 0.58972 -0.06200
H 	H 	0.73760 0.03720 0.58240 0.04900
C 	C 	0.75634 0.07737 0.59071 0.00800
H 	H 	0.73930 0.07770 0.58340 0.04300
C 	C 	0.78204 0.10158 0.60226 -0.09100
C 	C 	0.80573 0.10038 0.61225 0.01500
H 	H 	0.82360 0.11630 0.62050 0.04000
C 	C 	0.80334 0.07511 0.61031 -0.06200
H 	H 	0.82030 0.07470 0.61760 0.05000
C 	C 	0.78124 0.12736 0.60296 0.36800
O 	O 	0.80307 0.58543 0.17590 -0.41800
O 	O 	0.75560 0.56231 0.15333 -0.42000
O 	O 	0.82386 0.38105 0.02911 -0.40400
O 	O 	0.80369 0.34131 0.02900 -0.41300
O 	O 	0.97143 0.83826 0.34315 -0.41300
O 	O 	0.97147 0.81759 0.30272 -0.41100
O 	O 	0.80444 0.65580 0.18838 -0.41600
O 	O 	0.75738 0.63201 0.16551 -0.41300
C 	C 	0.77857 0.56364 0.16143 0.35500
C 	C 	0.77863 0.53615 0.15650 -0.08600
C 	C 	0.80140 0.53263 0.15707 0.01000
H 	H 	0.81770 0.54790 0.16100 0.04100
C 	C 	0.80055 0.50771 0.15202 -0.06700
H 	H 	0.81640 0.50600 0.15260 0.05100
C 	C 	0.77683 0.48457 0.14604 -0.00500
C 	C 	0.75558 0.48883 0.14663 -0.06900
H 	H 	0.73980 0.47400 0.14400 0.05100
C 	C 	0.75546 0.51326 0.15074 0.00900
H 	H 	0.73930 0.51450 0.14960 0.03900
C 	C 	0.77675 0.45715 0.14126 0.12700
C 	C 	0.78523 0.44508 0.12325 -0.18900
H 	H 	0.79110 0.45390 0.11360 0.09300
C 	C 	0.78529 0.41999 0.11918 0.14800
C 	C 	0.77746 0.40939 0.13377 -0.26900
H 	H 	0.77790 0.39260 0.13130 0.11300
C 	C 	0.76841 0.42000 0.15277 0.30100
C 	C 	0.76813 0.44359 0.15578 -0.26800
H 	H 	0.76200 0.45170 0.16790 0.11500
C 	C 	0.79312 0.40757 0.09923 -0.01400
C 	C 	0.80966 0.42215 0.09147 -0.06700
H 	H 	0.81690 0.44190 0.09960 0.04900
C 	C 	0.81615 0.40911 0.07230 0.02100
H 	H 	0.82820 0.41990 0.06770 0.03800
C 	C 	0.80504 0.37983 0.05943 -0.11400
C 	C 	0.78858 0.36583 0.06669 0.03500
H 	H 	0.78060 0.34600 0.05820 0.03100
C 	C 	0.78274 0.37915 0.08599 -0.07400
H 	H 	0.77080 0.36820 0.09060 0.04900
C 	C 	0.81112 0.36665 0.03769 0.37200
C 	C 	0.96419 0.83123 0.31794 0.35800
C 	C 	0.94276 0.83736 0.30312 -0.09800
C 	C 	0.93034 0.84895 0.31675 0.01900
H 	H 	0.93570 0.85270 0.33540 0.04000
C 	C 	0.91038 0.85510 0.30366 -0.07700
H 	H 	0.90220 0.86290 0.31330 0.05500
C 	C 	0.90243 0.84984 0.27643 0.00700
C 	C 	0.91402 0.83758 0.26246 -0.07900
H 	H 	0.90820 0.83310 0.24350 0.05300
C 	C 	0.93429 0.83172 0.27629 0.02200
H 	H 	0.94220 0.82360 0.26660 0.03700
C 	C 	0.87985 0.85460 0.26003 0.10600
C 	C 	0.86200 0.83741 0.23087 -0.21900
H 	H 	0.86480 0.82290 0.22090 0.09800
H 	H 	0.81290 0.82970 0.17660 0.13100
C 	C 	0.79788 0.77304 0.18196 -0.23300
H 	H 	0.81410 0.77200 0.18310 0.10500
C 	C 	0.77707 0.75168 0.18069 0.13100
C 	C 	0.77902 0.72794 0.18004 -0.01500
C 	C 	0.75530 0.70228 0.16558 -0.06200
H 	H 	0.73760 0.70040 0.15520 0.04900
C 	C 	0.75634 0.67897 0.16563 0.00800
H 	H 	0.73930 0.66160 0.15590 0.04300
C 	C 	0.78204 0.68046 0.17978 -0.09100
C 	C 	0.80573 0.70535 0.19348 0.01500
H 	H 	0.82360 0.70730 0.20310 0.04000
C 	C 	0.80334 0.72823 0.19303 -0.06200
H 	H 	0.82030 0.74560 0.20270 0.05000
C 	C 	0.78124 0.65388 0.17828 0.36800
O 	O 	0.40953 0.62717 0.82410 -0.41800
O 	O 	0.40898 0.60227 0.84667 -0.41900
O 	O 	0.35194 0.79475 0.97089 -0.40400
O 	O 	0.31231 0.77469 0.97100 -0.41200
O 	O 	0.49511 0.62828 0.65685 -0.41400
O 	O 	0.51487 0.66875 0.69728 -0.41200
O 	O 	0.46742 0.61606 0.81162 -0.41600
O 	O 	0.46650 0.59187 0.83449 -0.41300
C 	C 	0.40221 0.61714 0.83857 0.35500
C 	C 	0.37965 0.62213 0.84350 -0.08600
C 	C 	0.37556 0.64433 0.84293 0.01000
H 	H 	0.38690 0.65670 0.83900 0.04100
C 	C 	0.35569 0.64853 0.84798 -0.06700
H 	H 	0.35340 0.66380 0.84740 0.05100
C 	C 	0.33853 0.63079 0.85396 -0.00500
C 	C 	0.34220 0.60895 0.85337 -0.06900
H 	H 	0.33000 0.59580 0.85600 0.05200
C 	C 	0.36252 0.60472 0.84926 0.00900
H 	H 	0.36490 0.58970 0.85040 0.03900
C 	C 	0.31589 0.63549 0.85874 0.12700
C 	C 	0.32183 0.66198 0.87675 -0.18900
H 	H 	0.34030 0.67750 0.88640 0.09300
C 	C 	0.30081 0.66611 0.88082 0.14800
C 	C 	0.27562 0.64369 0.86623 -0.26900
H 	H 	0.26130 0.64660 0.86870 0.11300
C 	C 	0.26723 0.61564 0.84723 0.30200
C 	C 	0.28781 0.61235 0.84422 -0.26800
H 	H 	0.28380 0.59410 0.83210 0.11500
C 	C 	0.30834 0.69389 0.90077 -0.01400
C 	C 	0.33068 0.71819 0.90853 -0.06600
H 	H 	0.34230 0.71730 0.90040 0.04900
C 	C 	0.33681 0.74385 0.92770 0.02100
H 	H 	0.35220 0.76050 0.93230 0.03800
C 	C 	0.32040 0.74561 0.94057 -0.11300
C 	C 	0.29914 0.72189 0.93331 0.03500
H 	H 	0.28780 0.72240 0.94180 0.03200
C 	C 	0.29316 0.69675 0.91401 -0.07400
H 	H 	0.27760 0.68020 0.90940 0.04900
C 	C 	0.32896 0.77343 0.96231 0.37200
C 	C 	0.51329 0.64625 0.68206 0.35800
C 	C 	0.53424 0.63964 0.69688 -0.09800
C 	C 	0.53220 0.61359 0.68325 0.01900
H 	H 	0.51730 0.60030 0.66460 0.04000
C 	C 	0.55144 0.60672 0.69634 -0.07700
H 	H 	0.54960 0.58890 0.68670 0.05500
C 	C 	0.57341 0.62600 0.72357 0.00700
C 	C 	0.57512 0.65156 0.73754 -0.07900
H 	H 	0.58960 0.66470 0.75650 0.05300
C 	C 	0.55543 0.65800 0.72371 0.02200
H 	H 	0.55700 0.67560 0.73340 0.03700
C 	C 	0.59457 0.61982 0.73997 0.10600
C 	C 	0.60654 0.63113 0.76913 -0.21900
H 	H 	0.60200 0.64390 0.77910 0.09800
H 	H 	0.65310 0.63630 0.82340 0.13100
C 	C 	0.59108 0.61592 0.81804 -0.23300
H 	H 	0.58890 0.63100 0.81690 0.10500
C 	C 	0.57099 0.59638 0.81931 0.13100
C 	C 	0.54790 0.59898 0.81996 -0.01500
C 	C 	0.53670 0.58972 0.83442 -0.06200
H 	H 	0.54520 0.58240 0.84480 0.04900
C 	C 	0.51334 0.59071 0.83437 0.00800
H 	H 	0.50570 0.58340 0.84410 0.04300
C 	C 	0.50068 0.60226 0.82022 -0.09100
C 	C 	0.51187 0.61225 0.80652 0.01500
H 	H 	0.50420 0.62050 0.79690 0.04000
C 	C 	0.53520 0.61031 0.80697 -0.06200
H 	H 	0.54290 0.61760 0.79730 0.05000
C 	C 	0.47560 0.60296 0.82172 0.36800
O 	O 	0.19693 0.37283 0.78236 -0.41800
O 	O 	0.24440 0.39773 0.80671 -0.41900
O 	O 	0.17614 0.20525 0.55719 -0.40400
O 	O 	0.19631 0.22531 0.53762 -0.41300
O 	O 	0.02857 0.37172 0.86683 -0.41400
O 	O 	0.02853 0.33125 0.84612 -0.41200
O 	O 	0.19556 0.38394 0.85136 -0.41600
O 	O 	0.24262 0.40813 0.87463 -0.41300
C 	C 	0.22143 0.38286 0.78507 0.35500
C 	C 	0.22137 0.37787 0.75752 -0.08600
C 	C 	0.19860 0.35567 0.73123 0.01000
H 	H 	0.18230 0.34330 0.73020 0.04100
C 	C 	0.19945 0.35147 0.70716 -0.06700
H 	H 	0.18360 0.33620 0.68960 0.05100
C 	C 	0.22317 0.36921 0.70774 -0.00500
C 	C 	0.24442 0.39105 0.73325 -0.06900
H 	H 	0.26020 0.40420 0.73420 0.05100
C 	C 	0.24454 0.39528 0.75780 0.00900
H 	H 	0.26070 0.41030 0.77520 0.03900
C 	C 	0.22325 0.36451 0.68040 0.12700
C 	C 	0.21477 0.33802 0.65985 -0.18900
H 	H 	0.20890 0.32250 0.66280 0.09300
C 	C 	0.21471 0.33389 0.63470 0.14800
C 	C 	0.22254 0.35631 0.63193 -0.26900
H 	H 	0.22210 0.35340 0.61470 0.11300
C 	C 	0.23159 0.38436 0.65159 0.30100
C 	C 	0.23187 0.38765 0.67546 -0.26800
H 	H 	0.23800 0.40590 0.68970 0.11500
C 	C 	0.20688 0.30611 0.61445 -0.01400
C 	C 	0.19034 0.28181 0.61249 -0.06700
H 	H 	0.18310 0.28270 0.62500 0.04900
C 	C 	0.18385 0.25615 0.59296 0.02100
H 	H 	0.17180 0.23950 0.59170 0.03800
C 	C 	0.19496 0.25439 0.57479 -0.11300
C 	C 	0.21142 0.27811 0.57725 0.03500
H 	H 	0.21940 0.27760 0.56540 0.03100
C 	C 	0.21726 0.30325 0.59641 -0.07400
H 	H 	0.22920 0.31980 0.59740 0.04900
C 	C 	0.18888 0.22657 0.55553 0.37200
C 	C 	0.03581 0.35375 0.86704 0.35800
C 	C 	0.05724 0.36036 0.89460 -0.09800
C 	C 	0.06966 0.38641 0.91861 0.01900
H 	H 	0.06430 0.39970 0.91700 0.04000
C 	C 	0.08962 0.39328 0.94472 -0.07700
H 	H 	0.09780 0.41110 0.96070 0.05500
C 	C 	0.09757 0.37400 0.94741 0.00700
C 	C 	0.08598 0.34844 0.92356 -0.07900
H 	H 	0.09180 0.33530 0.92490 0.05200
C 	C 	0.06571 0.34200 0.89743 0.02200
H 	H 	0.05780 0.32440 0.88140 0.03700
C 	C 	0.12015 0.38018 0.97475 0.10700
C 	C 	0.13800 0.36887 0.97541 -0.21900
H 	H 	0.13520 0.35610 0.95810 0.09800
H 	H 	0.18710 0.36370 0.01680 0.13100
C 	C 	0.20212 0.38408 0.97516 -0.23300
H 	H 	0.18590 0.36900 0.95790 0.10500
C 	C 	0.22293 0.40362 0.97461 0.13200
C 	C 	0.22098 0.40102 0.94892 -0.01600
C 	C 	0.24470 0.41028 0.94698 -0.06200
H 	H 	0.26240 0.41760 0.96280 0.04900
C 	C 	0.24366 0.40929 0.92263 0.00800
H 	H 	0.26070 0.41660 0.92230 0.04300
C 	C 	0.21796 0.39774 0.89842 -0.09100
C 	C 	0.19427 0.38775 0.89962 0.01400
H 	H 	0.17640 0.37950 0.88370 0.04000
C 	C 	0.19666 0.38969 0.92489 -0.06200
H 	H 	0.17970 0.38240 0.92530 0.05000
C 	C 	0.21876 0.39704 0.87264 0.36800
O 	O 	0.59047 0.41457 0.21764 -0.41800
O 	O 	0.59102 0.43769 0.19329 -0.41900
O 	O 	0.64806 0.61895 0.44281 -0.40400
O 	O 	0.68769 0.65869 0.46238 -0.41300
O 	O 	0.50489 0.16174 0.13317 -0.41400
O 	O 	0.48513 0.18241 0.15388 -0.41200
O 	O 	0.53258 0.34420 0.14864 -0.41600
O 	O 	0.53350 0.36799 0.12537 -0.41300
C 	C 	0.59779 0.43636 0.21493 0.35500
C 	C 	0.62035 0.46385 0.24248 -0.08600
C 	C 	0.62444 0.46737 0.26877 0.01000
H 	H 	0.61310 0.45210 0.26980 0.04100
C 	C 	0.64431 0.49229 0.29284 -0.06700
H 	H 	0.64660 0.49400 0.31040 0.05100
C 	C 	0.66147 0.51543 0.29226 -0.00500
C 	C 	0.65780 0.51117 0.26675 -0.06900
H 	H 	0.67000 0.52600 0.26580 0.05100
C 	C 	0.63748 0.48674 0.24220 0.00900
H 	H 	0.63510 0.48550 0.22480 0.03900
C 	C 	0.68411 0.54285 0.31960 0.12700
C 	C 	0.67817 0.55492 0.34015 -0.18900
H 	H 	0.65970 0.54610 0.33720 0.09300
C 	C 	0.69919 0.58001 0.36530 0.14800
C 	C 	0.72438 0.59061 0.36807 -0.26900
H 	H 	0.73870 0.60740 0.38530 0.11300
C 	C 	0.73277 0.58000 0.34841 0.30100
C 	C 	0.71219 0.55641 0.32454 -0.26800
H 	H 	0.71620 0.54830 0.31030 0.11500
C 	C 	0.69166 0.59243 0.38555 -0.01400
C 	C 	0.66932 0.57785 0.38751 -0.06600
H 	H 	0.65770 0.55810 0.37500 0.04900
C 	C 	0.66319 0.59089 0.40704 0.02100
H 	H 	0.64780 0.58010 0.40830 0.03800
C 	C 	0.67960 0.62017 0.42521 -0.11300
C 	C 	0.70086 0.63417 0.42275 0.03500
H 	H 	0.71220 0.65400 0.43460 0.03200
C 	C 	0.70684 0.62085 0.40359 -0.07400
H 	H 	0.72240 0.63180 0.40260 0.04900
C 	C 	0.67104 0.63335 0.44447 0.37200
C 	C 	0.48671 0.16877 0.13296 0.35800
C 	C 	0.46576 0.16264 0.10540 -0.09800
C 	C 	0.46780 0.15105 0.08139 0.01900
H 	H 	0.48270 0.14730 0.08300 0.04000
C 	C 	0.44856 0.14490 0.05528 -0.07700
H 	H 	0.45040 0.13710 0.03930 0.05500
C 	C 	0.42659 0.15016 0.05259 0.00700
C 	C 	0.42488 0.16242 0.07644 -0.07900
H 	H 	0.41040 0.16690 0.07510 0.05200
C 	C 	0.44457 0.16828 0.10257 0.02200
H 	H 	0.44300 0.17640 0.11860 0.03700
C 	C 	0.40543 0.14540 0.02525 0.10600
C 	C 	0.39346 0.16259 0.02459 -0.21900
H 	H 	0.39800 0.17710 0.04190 0.09800
H 	H 	0.34690 0.17030 0.98320 0.13200
C 	C 	0.40892 0.22696 0.02484 -0.23400
H 	H 	0.41110 0.22800 0.04210 0.10500
C 	C 	0.42901 0.24832 0.02539 0.13100
C 	C 	0.45210 0.27206 0.05108 -0.01600
C 	C 	0.46330 0.29772 0.05302 -0.06200
H 	H 	0.45480 0.29960 0.03720 0.04900
C 	C 	0.48666 0.32103 0.07737 0.00800
H 	H 	0.49430 0.33840 0.07770 0.04300
C 	C 	0.49932 0.31954 0.10158 -0.09100
C 	C 	0.48813 0.29465 0.10038 0.01400
H 	H 	0.49580 0.29270 0.11630 0.04000
C 	C 	0.46480 0.27177 0.07511 -0.06200
H 	H 	0.45710 0.25440 0.07470 0.05000
C 	C 	0.52440 0.34612 0.12736 0.36800
O 	O 	0.41457 0.21764 0.59047 -0.41800
O 	O 	0.43769 0.19329 0.59102 -0.41900
O 	O 	0.61895 0.44281 0.64806 -0.40400
O 	O 	0.65869 0.46238 0.68769 -0.41300
O 	O 	0.16174 0.13317 0.50489 -0.41400
O 	O 	0.18241 0.15388 0.48513 -0.41200
O 	O 	0.34420 0.14864 0.53258 -0.41600
O 	O 	0.36799 0.12537 0.53350 -0.41300
C 	C 	0.43636 0.21493 0.59779 0.35500
C 	C 	0.46385 0.24248 0.62035 -0.08600
C 	C 	0.46737 0.26877 0.62444 0.01000
H 	H 	0.45210 0.26980 0.61310 0.04100
C 	C 	0.49229 0.29284 0.64431 -0.06700
H 	H 	0.49400 0.31040 0.64660 0.05100
C 	C 	0.51543 0.29226 0.66147 -0.00500
C 	C 	0.51117 0.26675 0.65780 -0.06900
H 	H 	0.52600 0.26580 0.67000 0.05100
C 	C 	0.48674 0.24220 0.63748 0.00900
H 	H 	0.48550 0.22480 0.63510 0.03900
C 	C 	0.54285 0.31960 0.68411 0.12700
C 	C 	0.55492 0.34015 0.67817 -0.18900
H 	H 	0.54610 0.33720 0.65970 0.09300
C 	C 	0.58001 0.36530 0.69919 0.14800
C 	C 	0.59061 0.36807 0.72438 -0.26900
H 	H 	0.60740 0.38530 0.73870 0.11300
C 	C 	0.58000 0.34841 0.73277 0.30100
C 	C 	0.55641 0.32454 0.71219 -0.26800
H 	H 	0.54830 0.31030 0.71620 0.11500
C 	C 	0.59243 0.38555 0.69166 -0.01400
C 	C 	0.57785 0.38751 0.66932 -0.06600
H 	H 	0.55810 0.37500 0.65770 0.04900
C 	C 	0.59089 0.40704 0.66319 0.02100
H 	H 	0.58010 0.40830 0.64780 0.03800
C 	C 	0.62017 0.42521 0.67960 -0.11300
C 	C 	0.63417 0.42275 0.70086 0.03500
H 	H 	0.65400 0.43460 0.71220 0.03200
C 	C 	0.62085 0.40359 0.70684 -0.07400
H 	H 	0.63180 0.40260 0.72240 0.04900
C 	C 	0.63335 0.44447 0.67104 0.37200
C 	C 	0.16877 0.13296 0.48671 0.35800
C 	C 	0.16264 0.10540 0.46576 -0.09800
C 	C 	0.15105 0.08139 0.46780 0.01900
H 	H 	0.14730 0.08300 0.48270 0.04000
C 	C 	0.14490 0.05528 0.44856 -0.07700
H 	H 	0.13710 0.03930 0.45040 0.05500
C 	C 	0.15016 0.05259 0.42659 0.00700
C 	C 	0.16242 0.07644 0.42488 -0.07900
H 	H 	0.16690 0.07510 0.41040 0.05200
C 	C 	0.16828 0.10257 0.44457 0.02200
H 	H 	0.17640 0.11860 0.44300 0.03700
C 	C 	0.14540 0.02525 0.40543 0.10600
C 	C 	0.16259 0.02459 0.39346 -0.21900
H 	H 	0.17710 0.04190 0.39800 0.09800
H 	H 	0.17030 0.98320 0.34690 0.13100
C 	C 	0.22696 0.02484 0.40892 -0.23300
H 	H 	0.22800 0.04210 0.41110 0.10500
C 	C 	0.24832 0.02539 0.42901 0.13100
C 	C 	0.27206 0.05108 0.45210 -0.01500
C 	C 	0.29772 0.05302 0.46330 -0.06200
H 	H 	0.29960 0.03720 0.45480 0.04900
C 	C 	0.32103 0.07737 0.48666 0.00800
H 	H 	0.33840 0.07770 0.49430 0.04300
C 	C 	0.31954 0.10158 0.49932 -0.09100
C 	C 	0.29465 0.10038 0.48813 0.01500
H 	H 	0.29270 0.11630 0.49580 0.04000
C 	C 	0.27177 0.07511 0.46480 -0.06200
H 	H 	0.25440 0.07470 0.45710 0.05000
C 	C 	0.34612 0.12736 0.52440 0.36800
O 	O 	0.37283 0.78236 0.19693 -0.41800
O 	O 	0.39773 0.80671 0.24440 -0.41900
O 	O 	0.20525 0.55719 0.17614 -0.40400
O 	O 	0.22531 0.53762 0.19631 -0.41300
O 	O 	0.37172 0.86683 0.02857 -0.41400
O 	O 	0.33125 0.84612 0.02853 -0.41200
O 	O 	0.38394 0.85136 0.19556 -0.41600
O 	O 	0.40813 0.87463 0.24262 -0.41300
C 	C 	0.38286 0.78507 0.22143 0.35500
C 	C 	0.37787 0.75752 0.22137 -0.08600
C 	C 	0.35567 0.73123 0.19860 0.01000
H 	H 	0.34330 0.73020 0.18230 0.04100
C 	C 	0.35147 0.70716 0.19945 -0.06700
H 	H 	0.33620 0.68960 0.18360 0.05100
C 	C 	0.36921 0.70774 0.22317 -0.00500
C 	C 	0.39105 0.73325 0.24442 -0.06900
H 	H 	0.40420 0.73420 0.26020 0.05100
C 	C 	0.39528 0.75780 0.24454 0.00900
H 	H 	0.41030 0.77520 0.26070 0.03900
C 	C 	0.36451 0.68040 0.22325 0.12700
C 	C 	0.33802 0.65985 0.21477 -0.18900
H 	H 	0.32250 0.66280 0.20890 0.09300
C 	C 	0.33389 0.63470 0.21471 0.14800
C 	C 	0.35631 0.63193 0.22254 -0.26900
H 	H 	0.35340 0.61470 0.22210 0.11300
C 	C 	0.38436 0.65159 0.23159 0.30100
C 	C 	0.38765 0.67546 0.23187 -0.26800
H 	H 	0.40590 0.68970 0.23800 0.11500
C 	C 	0.30611 0.61445 0.20688 -0.01400
C 	C 	0.28181 0.61249 0.19034 -0.06700
H 	H 	0.28270 0.62500 0.18310 0.04900
C 	C 	0.25615 0.59296 0.18385 0.02100
H 	H 	0.23950 0.59170 0.17180 0.03800
C 	C 	0.25439 0.57479 0.19496 -0.11300
C 	C 	0.27811 0.57725 0.21142 0.03500
H 	H 	0.27760 0.56540 0.21940 0.03100
C 	C 	0.30325 0.59641 0.21726 -0.07400
H 	H 	0.31980 0.59740 0.22920 0.04900
C 	C 	0.22657 0.55553 0.18888 0.37200
C 	C 	0.35375 0.86704 0.03581 0.35800
C 	C 	0.36036 0.89460 0.05724 -0.09800
C 	C 	0.38641 0.91861 0.06966 0.01900
H 	H 	0.39970 0.91700 0.06430 0.03900
C 	C 	0.39328 0.94472 0.08962 -0.07700
H 	H 	0.41110 0.96070 0.09780 0.05500
C 	C 	0.37400 0.94741 0.09757 0.00700
C 	C 	0.34844 0.92356 0.08598 -0.07900
H 	H 	0.33530 0.92490 0.09180 0.05200
C 	C 	0.34200 0.89743 0.06571 0.02200
H 	H 	0.32440 0.88140 0.05780 0.03700
C 	C 	0.38018 0.97475 0.12015 0.10600
C 	C 	0.36887 0.97541 0.13800 -0.21900
H 	H 	0.35610 0.95810 0.13520 0.09800
H 	H 	0.36370 0.01680 0.18710 0.13100
C 	C 	0.38408 0.97516 0.20212 -0.23300
H 	H 	0.36900 0.95790 0.18590 0.10500
C 	C 	0.40362 0.97461 0.22293 0.13100
C 	C 	0.40102 0.94892 0.22098 -0.01500
C 	C 	0.41028 0.94698 0.24470 -0.06200
H 	H 	0.41760 0.96280 0.26240 0.04900
C 	C 	0.40929 0.92263 0.24366 0.00800
H 	H 	0.41660 0.92230 0.26070 0.04300
C 	C 	0.39774 0.89842 0.21796 -0.09100
C 	C 	0.38775 0.89962 0.19427 0.01500
H 	H 	0.37950 0.88370 0.17640 0.04000
C 	C 	0.38969 0.92489 0.19666 -0.06200
H 	H 	0.38240 0.92530 0.17970 0.05000
C 	C 	0.39704 0.87264 0.21876 0.36800
O 	O 	0.62717 0.82410 0.40953 -0.41800
O 	O 	0.60227 0.84667 0.40898 -0.41900
O 	O 	0.79475 0.97089 0.35194 -0.40400
O 	O 	0.77469 0.97100 0.31231 -0.41300
O 	O 	0.62828 0.65685 0.49511 -0.41400
O 	O 	0.66875 0.69728 0.51487 -0.41200
O 	O 	0.61606 0.81162 0.46742 -0.41600
O 	O 	0.59187 0.83449 0.46650 -0.41300
C 	C 	0.61714 0.83857 0.40221 0.35500
C 	C 	0.62213 0.84350 0.37965 -0.08600
C 	C 	0.64433 0.84293 0.37556 0.01000
H 	H 	0.65670 0.83900 0.38690 0.04100
C 	C 	0.64853 0.84798 0.35569 -0.06700
H 	H 	0.66380 0.84740 0.35340 0.05100
C 	C 	0.63079 0.85396 0.33853 -0.00500
C 	C 	0.60895 0.85337 0.34220 -0.06900
H 	H 	0.59580 0.85600 0.33000 0.05100
C 	C 	0.60472 0.84926 0.36252 0.00900
H 	H 	0.58970 0.85040 0.36490 0.03900
C 	C 	0.63549 0.85874 0.31589 0.12700
C 	C 	0.66198 0.87675 0.32183 -0.18900
H 	H 	0.67750 0.88640 0.34030 0.09300
C 	C 	0.66611 0.88082 0.30081 0.14800
C 	C 	0.64369 0.86623 0.27562 -0.26900
H 	H 	0.64660 0.86870 0.26130 0.11300
C 	C 	0.61564 0.84723 0.26723 0.30100
C 	C 	0.61235 0.84422 0.28781 -0.26800
H 	H 	0.59410 0.83210 0.28380 0.11500
C 	C 	0.69389 0.90077 0.30834 -0.01400
C 	C 	0.71819 0.90853 0.33068 -0.06600
H 	H 	0.71730 0.90040 0.34230 0.04900
C 	C 	0.74385 0.92770 0.33681 0.02100
H 	H 	0.76050 0.93230 0.35220 0.03800
C 	C 	0.74561 0.94057 0.32040 -0.11300
C 	C 	0.72189 0.93331 0.29914 0.03500
H 	H 	0.72240 0.94180 0.28780 0.03200
C 	C 	0.69675 0.91401 0.29316 -0.07400
H 	H 	0.68020 0.90940 0.27760 0.04900
C 	C 	0.77343 0.96231 0.32896 0.37200
C 	C 	0.64625 0.68206 0.51329 0.35800
C 	C 	0.63964 0.69688 0.53424 -0.09800
C 	C 	0.61359 0.68325 0.53220 0.01900
H 	H 	0.60030 0.66460 0.51730 0.04000
C 	C 	0.60672 0.69634 0.55144 -0.07700
H 	H 	0.58890 0.68670 0.54960 0.05500
C 	C 	0.62600 0.72357 0.57341 0.00700
C 	C 	0.65156 0.73754 0.57512 -0.07900
H 	H 	0.66470 0.75650 0.58960 0.05300
C 	C 	0.65800 0.72371 0.55543 0.02200
H 	H 	0.67560 0.73340 0.55700 0.03700
C 	C 	0.61982 0.73997 0.59457 0.10600
C 	C 	0.63113 0.76913 0.60654 -0.21900
H 	H 	0.64390 0.77910 0.60200 0.09800
H 	H 	0.63630 0.82340 0.65310 0.13100
C 	C 	0.61592 0.81804 0.59108 -0.23300
H 	H 	0.63100 0.81690 0.58890 0.10500
C 	C 	0.59638 0.81931 0.57099 0.13100
C 	C 	0.59898 0.81996 0.54790 -0.01500
C 	C 	0.58972 0.83442 0.53670 -0.06200
H 	H 	0.58240 0.84480 0.54520 0.04900
C 	C 	0.59071 0.83437 0.51334 0.00800
H 	H 	0.58340 0.84410 0.50570 0.04300
C 	C 	0.60226 0.82022 0.50068 -0.09100
C 	C 	0.61225 0.80652 0.51187 0.01500
H 	H 	0.62050 0.79690 0.50420 0.04000
C 	C 	0.61031 0.80697 0.53520 -0.06200
H 	H 	0.61760 0.79730 0.54290 0.05000
C 	C 	0.60296 0.82172 0.47560 0.36800
O 	O 	0.58543 0.17590 0.80307 -0.41800
O 	O 	0.56231 0.15333 0.75560 -0.41900
O 	O 	0.38105 0.02911 0.82386 -0.40400
O 	O 	0.34131 0.02900 0.80369 -0.41300
O 	O 	0.83826 0.34315 0.97143 -0.41300
O 	O 	0.81759 0.30272 0.97147 -0.41100
O 	O 	0.65580 0.18838 0.80444 -0.41600
O 	O 	0.63201 0.16551 0.75738 -0.41300
C 	C 	0.56364 0.16143 0.77857 0.35500
C 	C 	0.53615 0.15650 0.77863 -0.08600
C 	C 	0.53263 0.15707 0.80140 0.01000
H 	H 	0.54790 0.16100 0.81770 0.04100
C 	C 	0.50771 0.15202 0.80055 -0.06700
H 	H 	0.50600 0.15260 0.81640 0.05100
C 	C 	0.48457 0.14604 0.77683 -0.00500
C 	C 	0.48883 0.14663 0.75558 -0.06900
H 	H 	0.47400 0.14400 0.73980 0.05100
C 	C 	0.51326 0.15074 0.75546 0.00900
H 	H 	0.51450 0.14960 0.73930 0.03900
C 	C 	0.45715 0.14126 0.77675 0.12700
C 	C 	0.44508 0.12325 0.78523 -0.18900
H 	H 	0.45390 0.11360 0.79110 0.09300
C 	C 	0.41999 0.11918 0.78529 0.14800
C 	C 	0.40939 0.13377 0.77746 -0.26900
H 	H 	0.39260 0.13130 0.77790 0.11300
C 	C 	0.42000 0.15277 0.76841 0.30100
C 	C 	0.44359 0.15578 0.76813 -0.26800
H 	H 	0.45170 0.16790 0.76200 0.11500
C 	C 	0.40757 0.09923 0.79312 -0.01400
C 	C 	0.42215 0.09147 0.80966 -0.06600
H 	H 	0.44190 0.09960 0.81690 0.04900
C 	C 	0.40911 0.07230 0.81615 0.02100
H 	H 	0.41990 0.06770 0.82820 0.03800
C 	C 	0.37983 0.05943 0.80504 -0.11300
C 	C 	0.36583 0.06669 0.78858 0.03500
H 	H 	0.34600 0.05820 0.78060 0.03200
C 	C 	0.37915 0.08599 0.78274 -0.07400
H 	H 	0.36820 0.09060 0.77080 0.04900
C 	C 	0.36665 0.03769 0.81112 0.37200
C 	C 	0.83123 0.31794 0.96419 0.35800
C 	C 	0.83736 0.30312 0.94276 -0.09800
C 	C 	0.84895 0.31675 0.93034 0.01900
H 	H 	0.85270 0.33540 0.93570 0.04000
C 	C 	0.85510 0.30366 0.91038 -0.07700
H 	H 	0.86290 0.31330 0.90220 0.05500
C 	C 	0.84984 0.27643 0.90243 0.00700
C 	C 	0.83758 0.26246 0.91402 -0.07900
H 	H 	0.83310 0.24350 0.90820 0.05300
C 	C 	0.83172 0.27629 0.93429 0.02200
H 	H 	0.82360 0.26660 0.94220 0.03700
C 	C 	0.85460 0.26003 0.87985 0.10600
C 	C 	0.83741 0.23087 0.86200 -0.21900
H 	H 	0.82290 0.22090 0.86480 0.09800
H 	H 	0.82970 0.17660 0.81290 0.13100
C 	C 	0.77304 0.18196 0.79788 -0.23300
H 	H 	0.77200 0.18310 0.81410 0.10500
C 	C 	0.75168 0.18069 0.77707 0.13100
C 	C 	0.72794 0.18004 0.77902 -0.01500
C 	C 	0.70228 0.16558 0.75530 -0.06200
H 	H 	0.70040 0.15520 0.73760 0.04900
C 	C 	0.67897 0.16563 0.75634 0.00800
H 	H 	0.66160 0.15590 0.73930 0.04300
C 	C 	0.68046 0.17978 0.78204 -0.09100
C 	C 	0.70535 0.19348 0.80573 0.01500
H 	H 	0.70730 0.20310 0.82360 0.04000
C 	C 	0.72823 0.19303 0.80334 -0.06200
H 	H 	0.74560 0.20270 0.82030 0.05000
C 	C 	0.65388 0.17828 0.78124 0.36800
O 	O 	0.78236 0.19693 0.37283 -0.41800
O 	O 	0.80671 0.24440 0.39773 -0.41900
O 	O 	0.55719 0.17614 0.20525 -0.40400
O 	O 	0.53762 0.19631 0.22531 -0.41300
O 	O 	0.86683 0.02857 0.37172 -0.41400
O 	O 	0.84612 0.02853 0.33125 -0.41200
O 	O 	0.85136 0.19556 0.38394 -0.41600
O 	O 	0.87463 0.24262 0.40813 -0.41300
C 	C 	0.78507 0.22143 0.38286 0.35500
C 	C 	0.75752 0.22137 0.37787 -0.08600
C 	C 	0.73123 0.19860 0.35567 0.01000
H 	H 	0.73020 0.18230 0.34330 0.04100
C 	C 	0.70716 0.19945 0.35147 -0.06700
H 	H 	0.68960 0.18360 0.33620 0.05100
C 	C 	0.70774 0.22317 0.36921 -0.00500
C 	C 	0.73325 0.24442 0.39105 -0.06900
H 	H 	0.73420 0.26020 0.40420 0.05100
C 	C 	0.75780 0.24454 0.39528 0.00900
H 	H 	0.77520 0.26070 0.41030 0.03900
C 	C 	0.68040 0.22325 0.36451 0.12700
C 	C 	0.65985 0.21477 0.33802 -0.18900
H 	H 	0.66280 0.20890 0.32250 0.09300
C 	C 	0.63470 0.21471 0.33389 0.14800
C 	C 	0.63193 0.22254 0.35631 -0.26900
H 	H 	0.61470 0.22210 0.35340 0.11300
C 	C 	0.65159 0.23159 0.38436 0.30100
C 	C 	0.67546 0.23187 0.38765 -0.26800
H 	H 	0.68970 0.23800 0.40590 0.11500
C 	C 	0.61445 0.20688 0.30611 -0.01400
C 	C 	0.61249 0.19034 0.28181 -0.06600
H 	H 	0.62500 0.18310 0.28270 0.04900
C 	C 	0.59296 0.18385 0.25615 0.02100
H 	H 	0.59170 0.17180 0.23950 0.03800
C 	C 	0.57479 0.19496 0.25439 -0.11300
C 	C 	0.57725 0.21142 0.27811 0.03500
H 	H 	0.56540 0.21940 0.27760 0.03200
C 	C 	0.59641 0.21726 0.30325 -0.07400
H 	H 	0.59740 0.22920 0.31980 0.04900
C 	C 	0.55553 0.18888 0.22657 0.37200
C 	C 	0.86704 0.03581 0.35375 0.35800
C 	C 	0.89460 0.05724 0.36036 -0.09800
C 	C 	0.91861 0.06966 0.38641 0.01900
H 	H 	0.91700 0.06430 0.39970 0.04000
C 	C 	0.94472 0.08962 0.39328 -0.07700
H 	H 	0.96070 0.09780 0.41110 0.05500
C 	C 	0.94741 0.09757 0.37400 0.00700
C 	C 	0.92356 0.08598 0.34844 -0.07900
H 	H 	0.92490 0.09180 0.33530 0.05200
C 	C 	0.89743 0.06571 0.34200 0.02200
H 	H 	0.88140 0.05780 0.32440 0.03700
C 	C 	0.97475 0.12015 0.38018 0.10600
C 	C 	0.97541 0.13800 0.36887 -0.21900
H 	H 	0.95810 0.13520 0.35610 0.09800
H 	H 	0.01680 0.18710 0.36370 0.13100
C 	C 	0.97516 0.20212 0.38408 -0.23300
H 	H 	0.95790 0.18590 0.36900 0.10500
C 	C 	0.97461 0.22293 0.40362 0.13200
C 	C 	0.94892 0.22098 0.40102 -0.01500
C 	C 	0.94698 0.24470 0.41028 -0.06200
H 	H 	0.96280 0.26240 0.41760 0.04900
C 	C 	0.92263 0.24366 0.40929 0.00800
H 	H 	0.92230 0.26070 0.41660 0.04300
C 	C 	0.89842 0.21796 0.39774 -0.09100
C 	C 	0.89962 0.19427 0.38775 0.01400
H 	H 	0.88370 0.17640 0.37950 0.04000
C 	C 	0.92489 0.19666 0.38969 -0.06200
H 	H 	0.92530 0.17970 0.38240 0.05000
C 	C 	0.87264 0.21876 0.39704 0.36800
O 	O 	0.21764 0.59047 0.41457 -0.41800
O 	O 	0.19329 0.59102 0.43769 -0.41900
O 	O 	0.44281 0.64806 0.61895 -0.40400
O 	O 	0.46238 0.68769 0.65869 -0.41300
O 	O 	0.13317 0.50489 0.16174 -0.41400
O 	O 	0.15388 0.48513 0.18241 -0.41200
O 	O 	0.14864 0.53258 0.34420 -0.41600
O 	O 	0.12537 0.53350 0.36799 -0.41300
C 	C 	0.21493 0.59779 0.43636 0.35500
C 	C 	0.24248 0.62035 0.46385 -0.08600
C 	C 	0.26877 0.62444 0.46737 0.01000
H 	H 	0.26980 0.61310 0.45210 0.04100
C 	C 	0.29284 0.64431 0.49229 -0.06700
H 	H 	0.31040 0.64660 0.49400 0.05100
C 	C 	0.29226 0.66147 0.51543 -0.00500
C 	C 	0.26675 0.65780 0.51117 -0.06900
H 	H 	0.26580 0.67000 0.52600 0.05100
C 	C 	0.24220 0.63748 0.48674 0.00900
H 	H 	0.22480 0.63510 0.48550 0.03900
C 	C 	0.31960 0.68411 0.54285 0.12700
C 	C 	0.34015 0.67817 0.55492 -0.18900
H 	H 	0.33720 0.65970 0.54610 0.09300
C 	C 	0.36530 0.69919 0.58001 0.14800
C 	C 	0.36807 0.72438 0.59061 -0.26900
H 	H 	0.38530 0.73870 0.60740 0.11300
C 	C 	0.34841 0.73277 0.58000 0.30100
C 	C 	0.32454 0.71219 0.55641 -0.26800
H 	H 	0.31030 0.71620 0.54830 0.11500
C 	C 	0.38555 0.69166 0.59243 -0.01400
C 	C 	0.38751 0.66932 0.57785 -0.06600
H 	H 	0.37500 0.65770 0.55810 0.04900
C 	C 	0.40704 0.66319 0.59089 0.02100
H 	H 	0.40830 0.64780 0.58010 0.03800
C 	C 	0.42521 0.67960 0.62017 -0.11300
C 	C 	0.42275 0.70086 0.63417 0.03500
H 	H 	0.43460 0.71220 0.65400 0.03200
C 	C 	0.40359 0.70684 0.62085 -0.07400
H 	H 	0.40260 0.72240 0.63180 0.04900
C 	C 	0.44447 0.67104 0.63335 0.37200
C 	C 	0.13296 0.48671 0.16877 0.35800
C 	C 	0.10540 0.46576 0.16264 -0.09800
C 	C 	0.08139 0.46780 0.15105 0.01900
H 	H 	0.08300 0.48270 0.14730 0.04000
C 	C 	0.05528 0.44856 0.14490 -0.07700
H 	H 	0.03930 0.45040 0.13710 0.05500
C 	C 	0.05259 0.42659 0.15016 0.00700
C 	C 	0.07644 0.42488 0.16242 -0.07900
H 	H 	0.07510 0.41040 0.16690 0.05200
C 	C 	0.10257 0.44457 0.16828 0.02200
H 	H 	0.11860 0.44300 0.17640 0.03700
C 	C 	0.02525 0.40543 0.14540 0.10600
C 	C 	0.02459 0.39346 0.16259 -0.21900
H 	H 	0.04190 0.39800 0.17710 0.09800
H 	H 	0.98320 0.34690 0.17030 0.13200
C 	C 	0.02484 0.40892 0.22696 -0.23400
H 	H 	0.04210 0.41110 0.22800 0.10500
C 	C 	0.02539 0.42901 0.24832 0.13100
C 	C 	0.05108 0.45210 0.27206 -0.01500
C 	C 	0.05302 0.46330 0.29772 -0.06200
H 	H 	0.03720 0.45480 0.29960 0.04900
C 	C 	0.07737 0.48666 0.32103 0.00800
H 	H 	0.07770 0.49430 0.33840 0.04300
C 	C 	0.10158 0.49932 0.31954 -0.09100
C 	C 	0.10038 0.48813 0.29465 0.01400
H 	H 	0.11630 0.49580 0.29270 0.04000
C 	C 	0.07511 0.46480 0.27177 -0.06200
H 	H 	0.07470 0.45710 0.25440 0.05000
C 	C 	0.12736 0.52440 0.34612 0.36800
O 	O 	0.17590 0.80307 0.58543 -0.41800
O 	O 	0.15333 0.75560 0.56231 -0.41900
O 	O 	0.02911 0.82386 0.38105 -0.40400
O 	O 	0.02900 0.80369 0.34131 -0.41300
O 	O 	0.34315 0.97143 0.83826 -0.41400
O 	O 	0.30272 0.97147 0.81759 -0.41200
O 	O 	0.18838 0.80444 0.65580 -0.41600
O 	O 	0.16551 0.75738 0.63201 -0.41300
C 	C 	0.16143 0.77857 0.56364 0.35500
C 	C 	0.15650 0.77863 0.53615 -0.08600
C 	C 	0.15707 0.80140 0.53263 0.01000
H 	H 	0.16100 0.81770 0.54790 0.04100
C 	C 	0.15202 0.80055 0.50771 -0.06700
H 	H 	0.15260 0.81640 0.50600 0.05100
C 	C 	0.14604 0.77683 0.48457 -0.00500
C 	C 	0.14663 0.75558 0.48883 -0.06900
H 	H 	0.14400 0.73980 0.47400 0.05100
C 	C 	0.15074 0.75546 0.51326 0.00900
H 	H 	0.14960 0.73930 0.51450 0.03900
C 	C 	0.14126 0.77675 0.45715 0.12700
C 	C 	0.12325 0.78523 0.44508 -0.18900
H 	H 	0.11360 0.79110 0.45390 0.09300
C 	C 	0.11918 0.78529 0.41999 0.14800
C 	C 	0.13377 0.77746 0.40939 -0.26900
H 	H 	0.13130 0.77790 0.39260 0.11300
C 	C 	0.15277 0.76841 0.42000 0.30100
C 	C 	0.15578 0.76813 0.44359 -0.26800
H 	H 	0.16790 0.76200 0.45170 0.11500
C 	C 	0.09923 0.79312 0.40757 -0.01400
C 	C 	0.09147 0.80966 0.42215 -0.06700
H 	H 	0.09960 0.81690 0.44190 0.04900
C 	C 	0.07230 0.81615 0.40911 0.02100
H 	H 	0.06770 0.82820 0.41990 0.03800
C 	C 	0.05943 0.80504 0.37983 -0.11400
C 	C 	0.06669 0.78858 0.36583 0.03500
H 	H 	0.05820 0.78060 0.34600 0.03100
C 	C 	0.08599 0.78274 0.37915 -0.07400
H 	H 	0.09060 0.77080 0.36820 0.04900
C 	C 	0.03769 0.81112 0.36665 0.37200
C 	C 	0.31794 0.96419 0.83123 0.35800
C 	C 	0.30312 0.94276 0.83736 -0.09800
C 	C 	0.31675 0.93034 0.84895 0.01900
H 	H 	0.33540 0.93570 0.85270 0.04000
C 	C 	0.30366 0.91038 0.85510 -0.07700
H 	H 	0.31330 0.90220 0.86290 0.05500
C 	C 	0.27643 0.90243 0.84984 0.00700
C 	C 	0.26246 0.91402 0.83758 -0.07900
H 	H 	0.24350 0.90820 0.83310 0.05300
C 	C 	0.27629 0.93429 0.83172 0.02200
H 	H 	0.26660 0.94220 0.82360 0.03700
C 	C 	0.26003 0.87985 0.85460 0.10600
C 	C 	0.23087 0.86200 0.83741 -0.21900
H 	H 	0.22090 0.86480 0.82290 0.09800
H 	H 	0.17660 0.81290 0.82970 0.13100
C 	C 	0.18196 0.79788 0.77304 -0.23300
H 	H 	0.18310 0.81410 0.77200 0.10500
C 	C 	0.18069 0.77707 0.75168 0.13100
C 	C 	0.18004 0.77902 0.72794 -0.01500
C 	C 	0.16558 0.75530 0.70228 -0.06200
H 	H 	0.15520 0.73760 0.70040 0.04900
C 	C 	0.16563 0.75634 0.67897 0.00800
H 	H 	0.15590 0.73930 0.66160 0.04300
C 	C 	0.17978 0.78204 0.68046 -0.09100
C 	C 	0.19348 0.80573 0.70535 0.01500
H 	H 	0.20310 0.82360 0.70730 0.04000
C 	C 	0.19303 0.80334 0.72823 -0.06200
H 	H 	0.20270 0.82030 0.74560 0.05000
C 	C 	0.17828 0.78124 0.65388 0.36800
O 	O 	0.82410 0.40953 0.62717 -0.41800
O 	O 	0.84667 0.40898 0.60227 -0.41900
O 	O 	0.97089 0.35194 0.79475 -0.40400
O 	O 	0.97100 0.31231 0.77469 -0.41200
O 	O 	0.65685 0.49511 0.62828 -0.41400
O 	O 	0.69728 0.51487 0.66875 -0.41200
O 	O 	0.81162 0.46742 0.61606 -0.41600
O 	O 	0.83449 0.46650 0.59187 -0.41300
C 	C 	0.83857 0.40221 0.61714 0.35500
C 	C 	0.84350 0.37965 0.62213 -0.08600
C 	C 	0.84293 0.37556 0.64433 0.01000
H 	H 	0.83900 0.38690 0.65670 0.04100
C 	C 	0.84798 0.35569 0.64853 -0.06700
H 	H 	0.84740 0.35340 0.66380 0.05100
C 	C 	0.85396 0.33853 0.63079 -0.00500
C 	C 	0.85337 0.34220 0.60895 -0.06900
H 	H 	0.85600 0.33000 0.59580 0.05200
C 	C 	0.84926 0.36252 0.60472 0.00900
H 	H 	0.85040 0.36490 0.58970 0.03900
C 	C 	0.85874 0.31589 0.63549 0.12700
C 	C 	0.87675 0.32183 0.66198 -0.18900
H 	H 	0.88640 0.34030 0.67750 0.09300
C 	C 	0.88082 0.30081 0.66611 0.14800
C 	C 	0.86623 0.27562 0.64369 -0.26900
H 	H 	0.86870 0.26130 0.64660 0.11300
C 	C 	0.84723 0.26723 0.61564 0.30200
C 	C 	0.84422 0.28781 0.61235 -0.26800
H 	H 	0.83210 0.28380 0.59410 0.11500
C 	C 	0.90077 0.30834 0.69389 -0.01400
C 	C 	0.90853 0.33068 0.71819 -0.06600
H 	H 	0.90040 0.34230 0.71730 0.04900
C 	C 	0.92770 0.33681 0.74385 0.02100
H 	H 	0.93230 0.35220 0.76050 0.03800
C 	C 	0.94057 0.32040 0.74561 -0.11300
C 	C 	0.93331 0.29914 0.72189 0.03500
H 	H 	0.94180 0.28780 0.72240 0.03200
C 	C 	0.91401 0.29316 0.69675 -0.07400
H 	H 	0.90940 0.27760 0.68020 0.04900
C 	C 	0.96231 0.32896 0.77343 0.37200
C 	C 	0.68206 0.51329 0.64625 0.35800
C 	C 	0.69688 0.53424 0.63964 -0.09800
C 	C 	0.68325 0.53220 0.61359 0.01900
H 	H 	0.66460 0.51730 0.60030 0.04000
C 	C 	0.69634 0.55144 0.60672 -0.07700
H 	H 	0.68670 0.54960 0.58890 0.05500
C 	C 	0.72357 0.57341 0.62600 0.00700
C 	C 	0.73754 0.57512 0.65156 -0.07900
H 	H 	0.75650 0.58960 0.66470 0.05300
C 	C 	0.72371 0.55543 0.65800 0.02200
H 	H 	0.73340 0.55700 0.67560 0.03700
C 	C 	0.73997 0.59457 0.61982 0.10600
C 	C 	0.76913 0.60654 0.63113 -0.21900
H 	H 	0.77910 0.60200 0.64390 0.09800
H 	H 	0.82340 0.65310 0.63630 0.13100
C 	C 	0.81804 0.59108 0.61592 -0.23300
H 	H 	0.81690 0.58890 0.63100 0.10500
C 	C 	0.81931 0.57099 0.59638 0.13100
C 	C 	0.81996 0.54790 0.59898 -0.01500
C 	C 	0.83442 0.53670 0.58972 -0.06200
H 	H 	0.84480 0.54520 0.58240 0.04900
C 	C 	0.83437 0.51334 0.59071 0.00800
H 	H 	0.84410 0.50570 0.58340 0.04300
C 	C 	0.82022 0.50068 0.60226 -0.09100
C 	C 	0.80652 0.51187 0.61225 0.01500
H 	H 	0.79690 0.50420 0.62050 0.04000
C 	C 	0.80697 0.53520 0.61031 -0.06200
H 	H 	0.79730 0.54290 0.61760 0.05000
C 	C 	0.82172 0.47560 0.60296 0.36800
Cu	Cu	0.62288 0.43772 0.81484 0.90100
Cu	Cu	0.59525 0.43768 0.84243 0.91100
Cu	Cu	0.62288 0.80804 0.18516 0.90100
Cu	Cu	0.59525 0.75282 0.15757 0.91100
Cu	Cu	0.37712 0.56228 0.18516 0.90100
Cu	Cu	0.40475 0.56232 0.15757 0.91100
Cu	Cu	0.37712 0.19196 0.81484 0.90100
Cu	Cu	0.40475 0.24718 0.84243 0.91100
Cu	Cu	0.81484 0.62288 0.43772 0.90100
Cu	Cu	0.84243 0.59525 0.43768 0.91100
Cu	Cu	0.18516 0.62288 0.80804 0.90100
Cu	Cu	0.15757 0.59525 0.75282 0.91100
Cu	Cu	0.18516 0.37712 0.56228 0.90100
Cu	Cu	0.15757 0.40475 0.56232 0.91100
Cu	Cu	0.81484 0.37712 0.19196 0.90100
Cu	Cu	0.84243 0.40475 0.24718 0.91100
Cu	Cu	0.43772 0.81484 0.62288 0.90100
Cu	Cu	0.43768 0.84243 0.59525 0.91100
Cu	Cu	0.80804 0.18516 0.62288 0.90100
Cu	Cu	0.75282 0.15757 0.59525 0.91100
Cu	Cu	0.56228 0.18516 0.37712 0.90100
Cu	Cu	0.56232 0.15757 0.40475 0.91100
Cu	Cu	0.19196 0.81484 0.37712 0.90100
Cu	Cu	0.24718 0.84243 0.40475 0.91100
Cu	Cu	0.19196 0.37712 0.81484 0.90100
Cu	Cu	0.24718 0.40475 0.84243 0.91100
Cu	Cu	0.56228 0.37712 0.18516 0.90100
Cu	Cu	0.56232 0.40475 0.15757 0.91100
Cu	Cu	0.80804 0.62288 0.18516 0.90100
Cu	Cu	0.75282 0.59525 0.15757 0.91100
Cu	Cu	0.43772 0.62288 0.81484 0.90100
Cu	Cu	0.43768 0.59525 0.84243 0.91100
Cu	Cu	0.62288 0.81484 0.43772 0.90100
Cu	Cu	0.59525 0.84243 0.43768 0.91100
Cu	Cu	0.62288 0.18516 0.80804 0.90100
Cu	Cu	0.59525 0.15757 0.75282 0.91100
Cu	Cu	0.37712 0.18516 0.56228 0.90100
Cu	Cu	0.40475 0.15757 0.56232 0.91100
Cu	Cu	0.37712 0.81484 0.19196 0.90100
Cu	Cu	0.40475 0.84243 0.24718 0.91100
Cu	Cu	0.18516 0.80804 0.62288 0.90100
Cu	Cu	0.15757 0.75282 0.59525 0.91100
Cu	Cu	0.81484 0.43772 0.62288 0.90100
Cu	Cu	0.84243 0.43768 0.59525 0.91100
Cu	Cu	0.81484 0.19196 0.37712 0.90100
Cu	Cu	0.84243 0.24718 0.40475 0.91100
Cu	Cu	0.18516 0.56228 0.37712 0.90100
Cu	Cu	0.15757 0.56232 0.40475 0.91100
Cu	Cu	0.83294 0.36535 -0.00000 0.90600
Cu	Cu	0.80883 0.31824 -0.00000 0.90700
Cu	Cu	0.36535 0.83294 -0.00000 0.90600
Cu	Cu	0.31824 0.80883 -0.00000 0.90700
Cu	Cu	0.63465 0.63465 0.46759 0.90700
Cu	Cu	0.68176 0.68176 0.49059 0.90700
Cu	Cu	0.16706 0.16706 0.53241 0.90700
Cu	Cu	0.19117 0.19117 0.50941 0.90700
Cu	Cu	-0.00000 0.83294 0.36535 0.90600
Cu	Cu	0.00000 0.80883 0.31824 0.90700
Cu	Cu	-0.00000 0.36535 0.83294 0.90600
Cu	Cu	0.00000 0.31824 0.80883 0.90700
Cu	Cu	0.46759 0.63465 0.63465 0.90700
Cu	Cu	0.49059 0.68176 0.68176 0.90700
Cu	Cu	0.53241 0.16706 0.16706 0.90700
Cu	Cu	0.50941 0.19117 0.19117 0.90700
Cu	Cu	0.36535 1.00000 0.83294 0.90700
Cu	Cu	0.31824 1.00000 0.80883 0.90700
Cu	Cu	0.83294 0.00000 0.36535 0.90700
Cu	Cu	0.80883 0.00000 0.31824 0.90700
Cu	Cu	0.63465 0.46759 0.63465 0.90700
Cu	Cu	0.68176 0.49059 0.68176 0.90700
Cu	Cu	0.16706 0.53241 0.16706 0.90700
Cu	Cu	0.19117 0.50941 0.19117 0.90700
Cu	Cu	0.16706 0.63465 -0.00000 0.90600
Cu	Cu	0.19117 0.68176 -0.00000 0.90700
Cu	Cu	0.63465 0.16706 -0.00000 0.90600
Cu	Cu	0.68176 0.19117 -0.00000 0.90700
Cu	Cu	0.83294 0.83294 0.46759 0.90700
Cu	Cu	0.80883 0.80883 0.49059 0.90700
Cu	Cu	0.36535 0.36535 0.53241 0.90700
Cu	Cu	0.31824 0.31824 0.50941 0.90700
Cu	Cu	0.36535 0.53241 0.36535 0.90700
Cu	Cu	0.31824 0.50941 0.31824 0.90700
Cu	Cu	0.83294 0.46759 0.83294 0.90700
Cu	Cu	0.80883 0.49059 0.80883 0.90700
Cu	Cu	0.16706 -0.00000 0.63465 0.90700
Cu	Cu	0.19117 1.00000 0.68176 0.90700
Cu	Cu	0.63465 0.00000 0.16706 0.90700
Cu	Cu	0.68176 0.00000 0.19117 0.90700
Cu	Cu	0.46759 0.83294 0.83294 0.90700
Cu	Cu	0.49059 0.80883 0.80883 0.90700
Cu	Cu	0.53241 0.36535 0.36535 0.90700
Cu	Cu	0.50941 0.31824 0.31824 0.90700
Cu	Cu	0.00000 0.16706 0.63465 0.90600
Cu	Cu	-0.00000 0.19117 0.68176 0.90700
Cu	Cu	0.00000 0.63465 0.16706 0.90600
Cu	Cu	-0.00000 0.68176 0.19117 0.90700
C 	C 	0.59172 0.23945 0.83117 -0.50900
H 	H 	0.59730 0.22580 0.82310 0.18500
H 	H 	0.57710 0.23830 0.81540 0.17400
C 	C 	0.40828 0.76055 0.16883 -0.50900
H 	H 	0.40270 0.77420 0.17690 0.18500
H 	H 	0.42290 0.76170 0.18460 0.17400
C 	C 	0.59172 0.76055 0.35227 -0.50900
H 	H 	0.59730 0.77420 0.37150 0.18500
H 	H 	0.57710 0.76170 0.33880 0.17400
C 	C 	0.40828 0.23945 0.64773 -0.50900
H 	H 	0.40270 0.22580 0.62850 0.18500
H 	H 	0.42290 0.23830 0.66120 0.17400
C 	C 	0.83117 0.59172 0.23945 -0.50900
H 	H 	0.82310 0.59730 0.22580 0.18500
H 	H 	0.81540 0.57710 0.23830 0.17400
C 	C 	0.16883 0.40828 0.76055 -0.50900
H 	H 	0.17690 0.40270 0.77420 0.18500
H 	H 	0.18460 0.42290 0.76170 0.17400
C 	C 	0.35227 0.59172 0.76055 -0.50900
H 	H 	0.37150 0.59730 0.77420 0.18500
H 	H 	0.33880 0.57710 0.76170 0.17400
C 	C 	0.64773 0.40828 0.23945 -0.50900
H 	H 	0.62850 0.40270 0.22580 0.18500
H 	H 	0.66120 0.42290 0.23830 0.17400
C 	C 	0.23945 0.83117 0.59172 -0.50900
H 	H 	0.22580 0.82310 0.59730 0.18500
H 	H 	0.23830 0.81540 0.57710 0.17400
C 	C 	0.76055 0.16883 0.40828 -0.50900
H 	H 	0.77420 0.17690 0.40270 0.18500
H 	H 	0.76170 0.18460 0.42290 0.17400
C 	C 	0.76055 0.35227 0.59172 -0.50900
H 	H 	0.77420 0.37150 0.59730 0.18500
H 	H 	0.76170 0.33880 0.57710 0.17400
C 	C 	0.23945 0.64773 0.40828 -0.50900
H 	H 	0.22580 0.62850 0.40270 0.18500
H 	H 	0.23830 0.66120 0.42290 0.17400
C 	C 	0.23945 0.59172 0.83117 -0.50900
H 	H 	0.22580 0.59730 0.82310 0.18500
H 	H 	0.23830 0.57710 0.81540 0.17400
C 	C 	0.76055 0.40828 0.16883 -0.50900
H 	H 	0.77420 0.40270 0.17690 0.18500
H 	H 	0.76170 0.42290 0.18460 0.17400
C 	C 	0.76055 0.59172 0.35227 -0.50900
H 	H 	0.77420 0.59730 0.37150 0.18500
H 	H 	0.76170 0.57710 0.33880 0.17400
C 	C 	0.23945 0.40828 0.64773 -0.50900
H 	H 	0.22580 0.40270 0.62850 0.18500
H 	H 	0.23830 0.42290 0.66120 0.17400
C 	C 	0.40828 0.64773 0.23945 -0.50900
H 	H 	0.40270 0.62850 0.22580 0.18500
H 	H 	0.42290 0.66120 0.23830 0.17400
C 	C 	0.59172 0.35227 0.76055 -0.50900
H 	H 	0.59730 0.37150 0.77420 0.18500
H 	H 	0.57710 0.33880 0.76170 0.17400
C 	C 	0.40828 0.16883 0.76055 -0.50900
H 	H 	0.40270 0.17690 0.77420 0.18500
H 	H 	0.42290 0.18460 0.76170 0.17400
C 	C 	0.59172 0.83117 0.23945 -0.50900
H 	H 	0.59730 0.82310 0.22580 0.18500
H 	H 	0.57710 0.81540 0.23830 0.17400
C 	C 	0.35227 0.76055 0.59172 -0.50900
H 	H 	0.37150 0.77420 0.59730 0.18500
H 	H 	0.33880 0.76170 0.57710 0.17400
C 	C 	0.64773 0.23945 0.40828 -0.50900
H 	H 	0.62850 0.22580 0.40270 0.18500
H 	H 	0.66120 0.23830 0.42290 0.17400
C 	C 	0.83117 0.23945 0.59172 -0.50900
H 	H 	0.82310 0.22580 0.59730 0.18500
H 	H 	0.81540 0.23830 0.57710 0.17400
C 	C 	0.16883 0.76055 0.40828 -0.50900
H 	H 	0.17690 0.77420 0.40270 0.18500
H 	H 	0.18460 0.76170 0.42290 0.17400
C 	C 	0.60132 0.60132 0.72586 -0.16400
H 	H 	0.59300 0.59300 0.70600 0.08400
C 	C 	0.62449 0.62449 0.78384 0.22200
C 	C 	0.63437 0.63437 0.81426 -0.38200
C 	C 	0.61427 0.61427 0.81830 0.22600
C 	C 	0.57404 0.57404 0.81918 -0.18800
H 	H 	0.55980 0.55980 0.81900 0.09300
C 	C 	0.87546 0.87546 0.27414 -0.16400
H 	H 	0.88700 0.88700 0.29400 0.08400
C 	C 	0.84065 0.84065 0.21616 0.22200
C 	C 	0.82011 0.82011 0.18574 -0.38100
C 	C 	0.79597 0.79597 0.18170 0.22600
C 	C 	0.75486 0.75486 0.18082 -0.18800
H 	H 	0.74080 0.74080 0.18100 0.09300
C 	C 	0.12454 0.39868 -0.00000 -0.16500
H 	H 	0.11300 0.40700 -0.00000 0.08400
C 	C 	0.15935 0.37551 -0.00000 0.22100
C 	C 	0.17989 0.36563 -0.00000 -0.38200
C 	C 	0.20403 0.38573 -0.00000 0.22500
C 	C 	0.24514 0.42596 -0.00000 -0.18900
H 	H 	0.25920 0.44020 -0.00000 0.09300
C 	C 	0.39868 0.12454 -0.00000 -0.16500
H 	H 	0.40700 0.11300 -0.00000 0.08400
C 	C 	0.37551 0.15935 -0.00000 0.22100
C 	C 	0.36563 0.17989 -0.00000 -0.38200
C 	C 	0.38573 0.20403 -0.00000 0.22500
C 	C 	0.42596 0.24514 -0.00000 -0.18900
H 	H 	0.44020 0.25920 -0.00000 0.09300
C 	C 	0.72586 0.60132 0.60132 -0.16400
H 	H 	0.70600 0.59300 0.59300 0.08400
C 	C 	0.78384 0.62449 0.62449 0.22200
C 	C 	0.81426 0.63437 0.63437 -0.38200
C 	C 	0.81830 0.61427 0.61427 0.22600
C 	C 	0.81918 0.57404 0.57404 -0.18800
H 	H 	0.81900 0.55980 0.55980 0.09300
C 	C 	0.27414 0.87546 0.87546 -0.16400
H 	H 	0.29400 0.88700 0.88700 0.08400
C 	C 	0.21616 0.84065 0.84065 0.22200
C 	C 	0.18574 0.82011 0.82011 -0.38100
C 	C 	0.18170 0.79597 0.79597 0.22600
C 	C 	0.18082 0.75486 0.75486 -0.18800
H 	H 	0.18100 0.74080 0.74080 0.09300
C 	C 	0.00000 0.12454 0.39868 -0.16500
H 	H 	-0.00000 0.11300 0.40700 0.08400
C 	C 	-0.00000 0.15935 0.37551 0.22100
C 	C 	0.00000 0.17989 0.36563 -0.38200
C 	C 	0.00000 0.20403 0.38573 0.22500
C 	C 	-0.00000 0.24514 0.42596 -0.18900
H 	H 	0.00000 0.25920 0.44020 0.09300
C 	C 	0.00000 0.39868 0.12454 -0.16500
H 	H 	-0.00000 0.40700 0.11300 0.08400
C 	C 	-0.00000 0.37551 0.15935 0.22100
C 	C 	0.00000 0.36563 0.17989 -0.38200
C 	C 	-0.00000 0.38573 0.20403 0.22500
C 	C 	-0.00000 0.42596 0.24514 -0.18900
H 	H 	-0.00000 0.44020 0.25920 0.09300
C 	C 	0.60132 0.72586 0.60132 -0.16400
H 	H 	0.59300 0.70600 0.59300 0.08400
C 	C 	0.62449 0.78384 0.62449 0.22200
C 	C 	0.63437 0.81426 0.63437 -0.38100
C 	C 	0.61427 0.81830 0.61427 0.22600
C 	C 	0.57404 0.81918 0.57404 -0.18800
H 	H 	0.55980 0.81900 0.55980 0.09300
C 	C 	0.87546 0.27414 0.87546 -0.16400
H 	H 	0.88700 0.29400 0.88700 0.08400
C 	C 	0.84065 0.21616 0.84065 0.22200
C 	C 	0.82011 0.18574 0.82011 -0.38200
C 	C 	0.79597 0.18170 0.79597 0.22600
C 	C 	0.75486 0.18082 0.75486 -0.18800
H 	H 	0.74080 0.18100 0.74080 0.09300
C 	C 	0.39868 -0.00000 0.12454 -0.16400
H 	H 	0.40700 0.00000 0.11300 0.08400
C 	C 	0.37551 -0.00000 0.15935 0.22200
C 	C 	0.36563 -0.00000 0.17989 -0.38100
C 	C 	0.38573 0.00000 0.20403 0.22600
C 	C 	0.42596 0.00000 0.24514 -0.18800
H 	H 	0.44020 -0.00000 0.25920 0.09300
C 	C 	0.12454 0.00000 0.39868 -0.16400
H 	H 	0.11300 0.00000 0.40700 0.08400
C 	C 	0.15935 0.00000 0.37551 0.22200
C 	C 	0.17989 -0.00000 0.36563 -0.38100
C 	C 	0.20403 0.00000 0.38573 0.22600
C 	C 	0.24514 0.00000 0.42596 -0.18800
H 	H 	0.25920 0.00000 0.44020 0.09300
C 	C 	0.12454 0.12454 0.72586 -0.16400
H 	H 	0.11300 0.11300 0.70600 0.08400
C 	C 	0.15935 0.15935 0.78384 0.22200
C 	C 	0.17989 0.17989 0.81426 -0.38100
C 	C 	0.20403 0.20403 0.81830 0.22600
C 	C 	0.24514 0.24514 0.81918 -0.18800
H 	H 	0.25920 0.25920 0.81900 0.09300
C 	C 	0.39868 0.39868 0.27414 -0.16400
H 	H 	0.40700 0.40700 0.29400 0.08400
C 	C 	0.37551 0.37551 0.21616 0.22200
C 	C 	0.36563 0.36563 0.18574 -0.38100
C 	C 	0.38573 0.38573 0.18170 0.22600
C 	C 	0.42596 0.42596 0.18082 -0.18800
H 	H 	0.44020 0.44020 0.18100 0.09300
C 	C 	0.87546 0.60132 -0.00000 -0.16500
H 	H 	0.88700 0.59300 -0.00000 0.08400
C 	C 	0.84065 0.62449 -0.00000 0.22100
C 	C 	0.82011 0.63437 -0.00000 -0.38200
C 	C 	0.79597 0.61427 -0.00000 0.22500
C 	C 	0.75486 0.57404 -0.00000 -0.18900
H 	H 	0.74080 0.55980 -0.00000 0.09300
C 	C 	0.60132 0.87546 -0.00000 -0.16500
H 	H 	0.59300 0.88700 -0.00000 0.08400
C 	C 	0.62449 0.84065 -0.00000 0.22100
C 	C 	0.63437 0.82011 -0.00000 -0.38200
C 	C 	0.61427 0.79597 -0.00000 0.22500
C 	C 	0.57404 0.75486 -0.00000 -0.18900
H 	H 	0.55980 0.74080 -0.00000 0.09300
C 	C 	0.87546 0.00000 0.60132 -0.16400
H 	H 	0.88700 0.00000 0.59300 0.08400
C 	C 	0.84065 1.00000 0.62449 0.22200
C 	C 	0.82011 0.00000 0.63437 -0.38200
C 	C 	0.79597 -0.00000 0.61427 0.22600
C 	C 	0.75486 0.00000 0.57404 -0.18800
H 	H 	0.74080 0.00000 0.55980 0.09300
C 	C 	0.60132 -0.00000 0.87546 -0.16400
H 	H 	0.59300 -0.00000 0.88700 0.08400
C 	C 	0.62449 1.00000 0.84065 0.22200
C 	C 	0.63437 0.00000 0.82011 -0.38200
C 	C 	0.61427 0.00000 0.79597 0.22600
C 	C 	0.57404 -0.00000 0.75486 -0.18800
H 	H 	0.55980 0.00000 0.74080 0.09300
C 	C 	0.39868 0.27414 0.39868 -0.16400
H 	H 	0.40700 0.29400 0.40700 0.08400
C 	C 	0.37551 0.21616 0.37551 0.22200
C 	C 	0.36563 0.18574 0.36563 -0.38100
C 	C 	0.38573 0.18170 0.38573 0.22600
C 	C 	0.42596 0.18082 0.42596 -0.18800
H 	H 	0.44020 0.18100 0.44020 0.09300
C 	C 	0.12454 0.72586 0.12454 -0.16400
H 	H 	0.11300 0.70600 0.11300 0.08400
C 	C 	0.15935 0.78384 0.15935 0.22100
C 	C 	0.17989 0.81426 0.17989 -0.38100
C 	C 	0.20403 0.81830 0.20403 0.22600
C 	C 	0.24514 0.81918 0.24514 -0.18800
H 	H 	0.25920 0.81900 0.25920 0.09300
C 	C 	-0.00000 0.87546 0.60132 -0.16700
H 	H 	-0.00000 0.88700 0.59300 0.08500
C 	C 	1.00000 0.84065 0.62449 0.22500
C 	C 	0.00000 0.82011 0.63437 -0.38500
C 	C 	0.00000 0.79597 0.61427 0.22700
C 	C 	-0.00000 0.75486 0.57404 -0.18900
H 	H 	0.00000 0.74080 0.55980 0.09300
C 	C 	0.00000 0.60132 0.87546 -0.16700
H 	H 	-0.00000 0.59300 0.88700 0.08500
C 	C 	1.00000 0.62449 0.84065 0.22500
C 	C 	0.00000 0.63437 0.82011 -0.38500
C 	C 	0.00000 0.61427 0.79597 0.22700
C 	C 	0.00000 0.57404 0.75486 -0.18900
H 	H 	0.00000 0.55980 0.74080 0.09300
C 	C 	0.72586 0.12454 0.12454 -0.16400
H 	H 	0.70600 0.11300 0.11300 0.08400
C 	C 	0.78384 0.15935 0.15935 0.22200
C 	C 	0.81426 0.17989 0.17989 -0.38100
C 	C 	0.81830 0.20403 0.20403 0.22600
C 	C 	0.81918 0.24514 0.24514 -0.18800
H 	H 	0.81900 0.25920 0.25920 0.09300
C 	C 	0.27414 0.39868 0.39868 -0.16400
H 	H 	0.29400 0.40700 0.40700 0.08400
C 	C 	0.21616 0.37551 0.37551 0.22200
C 	C 	0.18574 0.36563 0.36563 -0.38100
C 	C 	0.18170 0.38573 0.38573 0.22600
C 	C 	0.18082 0.42596 0.42596 -0.18800
H 	H 	0.18100 0.44020 0.44020 0.09300
