data_crystal

_cell_length_a 18.46500
_cell_length_b 9.24420
_cell_length_c 19.69900
_cell_angle_alpha 90.00000
_cell_angle_beta  102.18000
_cell_angle_gamma 90.00000

_symmetry_space_group_name_	'P 1'
_symmetry_space_group_name_H-M	'P 1'

loop_
_symmetry_equiv_pos_as_xyz
  x,y,z

loop_
_atom_site_label
_atom_site_type_symbol
_atom_site_fract_x
_atom_site_fract_y
_atom_site_fract_z
_atom_site_charge
Dy	Dy	0.02077 0.21845 0.99515 1.89400
O 	O 	0.27700 0.98380 0.04240 -0.14200
C 	C 	0.24870 0.77250 0.08620 -0.03100
H 	H 	0.22180 0.69720 0.10020 0.05000
O 	O 	0.13080 0.07310 0.00870 -0.44300
O 	O 	0.02050 0.14940 0.87950 -0.44100
O 	O 	0.09870 0.85730 0.04580 -0.51300
O 	O 	0.00270 0.93730 0.92390 -0.54900
O 	O 	0.46530 0.88470 0.05750 -0.51500
C 	C 	0.32590 0.77630 0.09050 -0.01200
H 	H 	0.35980 0.70410 0.10810 0.04100
O 	O 	0.40800 0.09940 0.03540 -0.50000
C 	C 	0.22110 0.90090 0.05750 -0.01200
C 	C 	0.14230 0.94740 0.03480 0.44000
C 	C 	0.34140 0.90580 0.06390 -0.03700
C 	C 	0.00170 0.95140 0.80530 -0.02000
C 	C 	0.40980 0.96980 0.05150 0.44200
C 	C 	0.00830 0.01720 0.87380 0.42500
C 	C 	0.00090 0.81080 0.78630 -0.02400
H 	H 	0.00140 0.73050 0.81490 0.04000
Dy	Dy	0.52077 0.71845 0.99515 1.89800
O 	O 	0.77700 0.48380 0.04240 -0.13900
C 	C 	0.74870 0.27250 0.08620 -0.02800
H 	H 	0.72180 0.19720 0.10020 0.04900
O 	O 	0.63080 0.57310 0.00870 -0.45300
O 	O 	0.52050 0.64940 0.87950 -0.44400
O 	O 	0.59870 0.35730 0.04580 -0.52300
O 	O 	0.50270 0.43730 0.92390 -0.56000
O 	O 	0.96530 0.38470 0.05750 -0.51600
C 	C 	0.82590 0.27630 0.09050 -0.01300
H 	H 	0.85980 0.20410 0.10810 0.04000
O 	O 	0.90800 0.59940 0.03540 -0.50300
C 	C 	0.72110 0.40090 0.05750 -0.01600
C 	C 	0.64230 0.44740 0.03480 0.44900
C 	C 	0.84140 0.40580 0.06390 -0.03800
C 	C 	0.50170 0.45140 0.80530 -0.02600
C 	C 	0.90980 0.46980 0.05150 0.44600
C 	C 	0.50830 0.51720 0.87380 0.43400
C 	C 	0.50090 0.31080 0.78630 -0.02900
H 	H 	0.50140 0.23050 0.81490 0.03900
Dy	Dy	0.97923 0.21845 0.50485 1.87800
O 	O 	0.72300 0.98380 0.45760 -0.14000
C 	C 	0.75130 0.77250 0.41380 -0.02800
H 	H 	0.77820 0.69720 0.39980 0.04800
O 	O 	0.86920 0.07310 0.49130 -0.45100
O 	O 	0.97950 0.14940 0.62050 -0.44300
O 	O 	0.90130 0.85730 0.45420 -0.52700
O 	O 	0.99730 0.93730 0.57610 -0.56100
O 	O 	0.53470 0.88470 0.44250 -0.51400
C 	C 	0.67410 0.77630 0.40950 -0.01300
H 	H 	0.64020 0.70410 0.39190 0.04000
O 	O 	0.59200 0.09940 0.46460 -0.50400
C 	C 	0.77890 0.90090 0.44250 -0.01700
C 	C 	0.85770 0.94740 0.46520 0.44800
C 	C 	0.65860 0.90580 0.43610 -0.03800
C 	C 	0.99830 0.95140 0.69470 -0.02600
C 	C 	0.59020 0.96980 0.44850 0.44500
C 	C 	0.99170 0.01720 0.62620 0.43200
C 	C 	0.99910 0.81080 0.71370 -0.03500
H 	H 	0.99860 0.73050 0.68510 0.04000
Dy	Dy	0.47923 0.71845 0.50485 1.89300
O 	O 	0.22300 0.48380 0.45760 -0.13900
C 	C 	0.25130 0.27250 0.41380 -0.02800
H 	H 	0.27820 0.19720 0.39980 0.04900
O 	O 	0.36920 0.57310 0.49130 -0.45200
O 	O 	0.47950 0.64940 0.62050 -0.44300
O 	O 	0.40130 0.35730 0.45420 -0.52200
O 	O 	0.49730 0.43730 0.57610 -0.55800
O 	O 	0.03470 0.38470 0.44250 -0.51000
C 	C 	0.17410 0.27630 0.40950 -0.01200
H 	H 	0.14020 0.20410 0.39190 0.04100
O 	O 	0.09200 0.59940 0.46460 -0.50400
C 	C 	0.27890 0.40090 0.44250 -0.01600
C 	C 	0.35770 0.44740 0.46520 0.44800
C 	C 	0.15860 0.40580 0.43610 -0.03800
C 	C 	0.49830 0.45140 0.69470 -0.02600
C 	C 	0.09020 0.46980 0.44850 0.44700
C 	C 	0.49170 0.51720 0.62620 0.43400
C 	C 	0.49910 0.31080 0.71370 -0.02900
H 	H 	0.49860 0.23050 0.68510 0.03900
Dy	Dy	0.97923 0.78155 0.00485 1.86900
O 	O 	0.72300 0.01620 0.95760 -0.14100
C 	C 	0.75130 0.22750 0.91380 -0.02900
H 	H 	0.77820 0.30280 0.89980 0.04900
O 	O 	0.86920 0.92690 0.99130 -0.44300
O 	O 	0.97950 0.85060 0.12050 -0.44300
O 	O 	0.90130 0.14270 0.95420 -0.52100
O 	O 	0.99730 0.06270 0.07610 -0.55600
O 	O 	0.53470 0.11530 0.94250 -0.51600
C 	C 	0.67410 0.22370 0.90950 -0.01300
H 	H 	0.64020 0.29590 0.89190 0.04000
O 	O 	0.59200 0.90060 0.96460 -0.50100
C 	C 	0.77890 0.09910 0.94250 -0.01400
C 	C 	0.85770 0.05260 0.96520 0.44200
C 	C 	0.65860 0.09420 0.93610 -0.03700
C 	C 	0.99830 0.04860 0.19470 -0.02400
C 	C 	0.59020 0.03020 0.94850 0.44200
C 	C 	0.99170 0.98280 0.12620 0.42400
C 	C 	0.99910 0.18920 0.21370 -0.04500
H 	H 	0.99860 0.26950 0.18510 0.04300
Dy	Dy	0.47923 0.28155 0.00485 1.90100
O 	O 	0.22300 0.51620 0.95760 -0.13900
C 	C 	0.25130 0.72750 0.91380 -0.02800
H 	H 	0.27820 0.80280 0.89980 0.04900
O 	O 	0.36920 0.42690 0.99130 -0.45400
O 	O 	0.47950 0.35060 0.12050 -0.44400
O 	O 	0.40130 0.64270 0.95420 -0.52300
O 	O 	0.49730 0.56270 0.07610 -0.55900
O 	O 	0.03470 0.61530 0.94250 -0.50900
C 	C 	0.17410 0.72370 0.90950 -0.01300
H 	H 	0.14020 0.79590 0.89190 0.04100
O 	O 	0.09200 0.40060 0.96460 -0.50400
C 	C 	0.27890 0.59910 0.94250 -0.01600
C 	C 	0.35770 0.55260 0.96520 0.44900
C 	C 	0.15860 0.59420 0.93610 -0.03700
C 	C 	0.49830 0.54860 0.19470 -0.02600
C 	C 	0.09020 0.53020 0.94850 0.44600
C 	C 	0.49170 0.48280 0.12620 0.43400
C 	C 	0.49910 0.68920 0.21370 -0.02900
H 	H 	0.49860 0.76950 0.18510 0.03900
Dy	Dy	0.02077 0.78155 0.49515 1.90800
O 	O 	0.27700 0.01620 0.54240 -0.14000
C 	C 	0.24870 0.22750 0.58620 -0.02900
H 	H 	0.22180 0.30280 0.60020 0.04900
O 	O 	0.13080 0.92690 0.50870 -0.45200
O 	O 	0.02050 0.85060 0.37950 -0.44200
O 	O 	0.09870 0.14270 0.54580 -0.51800
O 	O 	0.00270 0.06270 0.42390 -0.55300
O 	O 	0.46530 0.11530 0.55750 -0.51400
C 	C 	0.32590 0.22370 0.59050 -0.01300
H 	H 	0.35980 0.29590 0.60810 0.04000
O 	O 	0.40800 0.90060 0.53540 -0.50400
C 	C 	0.22110 0.09910 0.55750 -0.01500
C 	C 	0.14230 0.05260 0.53480 0.44700
C 	C 	0.34140 0.09420 0.56390 -0.03800
C 	C 	0.00170 0.04860 0.30530 -0.02600
C 	C 	0.40980 0.03020 0.55150 0.44600
C 	C 	0.00830 0.98280 0.37380 0.43200
C 	C 	0.00090 0.18920 0.28630 -0.01300
H 	H 	0.00140 0.26950 0.31490 0.03700
Dy	Dy	0.52077 0.28155 0.49515 1.89300
O 	O 	0.77700 0.51620 0.54240 -0.13900
C 	C 	0.74870 0.72750 0.58620 -0.02900
H 	H 	0.72180 0.80280 0.60020 0.04900
O 	O 	0.63080 0.42690 0.50870 -0.45200
O 	O 	0.52050 0.35060 0.37950 -0.44300
O 	O 	0.59870 0.64270 0.54580 -0.52200
O 	O 	0.50270 0.56270 0.42390 -0.55800
O 	O 	0.96530 0.61530 0.55750 -0.51800
C 	C 	0.82590 0.72370 0.59050 -0.01300
H 	H 	0.85980 0.79590 0.60810 0.04000
O 	O 	0.90800 0.40060 0.53540 -0.50400
C 	C 	0.72110 0.59910 0.55750 -0.01600
C 	C 	0.64230 0.55260 0.53480 0.44800
C 	C 	0.84140 0.59420 0.56390 -0.03900
C 	C 	0.50170 0.54860 0.30530 -0.02600
C 	C 	0.90980 0.53020 0.55150 0.44700
C 	C 	0.50830 0.48280 0.37380 0.43400
C 	C 	0.50090 0.68920 0.28630 -0.02900
H 	H 	0.50140 0.76950 0.31490 0.03900
O 	O 	0.00000 0.03800 0.75000 -0.13500
O 	O 	0.50000 0.53800 0.75000 -0.13500
O 	O 	0.00000 0.96200 0.25000 -0.13100
O 	O 	0.50000 0.46200 0.25000 -0.13500
