data_crystal

_cell_length_a 12.19450
_cell_length_b 12.19450
_cell_length_c 12.16900
_cell_angle_alpha 119.48200
_cell_angle_beta  119.48200
_cell_angle_gamma 52.67820

_symmetry_space_group_name_	'P 1'
_symmetry_space_group_name_H-M	'P 1'

loop_
_symmetry_equiv_pos_as_xyz
  x,y,z

loop_
_atom_site_label
_atom_site_type_symbol
_atom_site_fract_x
_atom_site_fract_y
_atom_site_fract_z
_atom_site_charge
H 	H 	0.49600 0.28600 0.08100 -0.29500
H 	H 	0.52500 0.01300 0.75000 -0.02200
H 	H 	0.55300 0.19100 0.76000 0.02200
H 	H 	0.60400 0.72800 0.75600 -0.03000
H 	H 	0.20900 0.99700 0.77200 0.05500
H 	H 	0.20500 0.79100 0.56700 -0.00800
H 	H 	0.24800 0.30600 0.94600 -0.08600
H 	H 	0.22100 0.07500 0.05100 -0.13500
H 	H 	0.98600 0.30600 0.03900 0.20900
H 	H 	0.23500 0.74900 0.13600 -0.03500
C 	C 	0.50466 0.24526 0.99980 0.45500
C 	C 	0.52858 0.19538 0.81500 -0.01900
C 	C 	0.52441 0.08561 0.81460 0.00700
C 	C 	0.50115 0.76875 0.72950 0.09400
C 	C 	0.28351 0.80591 0.63160 0.01200
C 	C 	0.28410 0.91710 0.74260 -0.00600
C 	C 	0.21312 0.28112 0.97640 0.28300
C 	C 	0.06818 0.27678 0.02440 -0.45400
C 	C 	0.19504 0.15304 0.03310 0.17200
C 	C 	0.30621 0.68621 0.19080 -0.00400
N 	N 	0.50998 0.11678 0.93220 -0.40800
N 	N 	0.51427 0.29927 0.93430 -0.37300
N 	N 	0.42396 0.89276 0.80660 -0.29600
N 	N 	0.42265 0.70965 0.62290 -0.35100
N 	N 	0.28852 0.15532 0.00290 -0.51000
N 	N 	0.08030 0.35790 0.98820 -0.03800
N 	N 	0.42529 0.56429 0.15280 -0.38900
H 	H 	0.46472 0.00699 0.46903 0.03700
H 	H 	0.71400 0.50400 0.41900 -0.07400
H 	H 	0.98700 0.47500 0.75000 0.03700
H 	H 	0.80900 0.44700 0.74000 0.05200
H 	H 	0.27200 0.39600 0.74400 -0.05100
H 	H 	0.00300 0.79100 0.72800 -0.00800
H 	H 	0.20900 0.79500 0.93300 0.06300
H 	H 	0.69400 0.75200 0.55400 -0.02500
H 	H 	0.92500 0.77900 0.44900 0.08700
H 	H 	0.69400 0.01400 0.46100 -0.11100
H 	H 	0.25100 0.76500 0.36400 -0.00100
C 	C 	0.75474 0.49534 0.50020 0.12400
C 	C 	0.80462 0.47142 0.68500 -0.02200
C 	C 	0.91439 0.47559 0.68540 0.04000
C 	C 	0.23125 0.49885 0.77050 0.09600
C 	C 	0.19409 0.71649 0.86840 0.00100
C 	C 	0.08290 0.71590 0.75740 0.00000
C 	C 	0.71888 0.78688 0.52360 0.11200
C 	C 	0.72322 0.93182 0.47560 0.23100
C 	C 	0.84696 0.80496 0.46690 -0.09800
C 	C 	0.31379 0.69379 0.30920 -0.00600
N 	N 	0.88322 0.49002 0.56780 -0.35000
N 	N 	0.70073 0.48573 0.56570 -0.35000
N 	N 	0.10724 0.57604 0.69340 -0.36400
N 	N 	0.29035 0.57735 0.87710 -0.31600
N 	N 	0.84468 0.71148 0.49710 -0.31600
N 	N 	0.64210 0.91970 0.51180 -0.13600
N 	N 	0.43571 0.57471 0.34720 -0.36200
H 	H 	0.99301 0.53528 0.03097 0.08500
H 	H 	0.50400 0.71400 0.91900 0.14000
H 	H 	0.47500 0.98700 0.25000 0.03000
H 	H 	0.44700 0.80900 0.24000 0.02900
H 	H 	0.39600 0.27200 0.24400 -0.06800
H 	H 	0.79100 0.00300 0.22800 -0.03700
H 	H 	0.79500 0.20900 0.43300 0.00800
H 	H 	0.75200 0.69400 0.05400 0.00600
H 	H 	0.77900 0.92500 0.94900 0.13500
H 	H 	0.01400 0.69400 0.96100 -0.14500
H 	H 	0.76500 0.25100 0.86400 0.04200
C 	C 	0.49534 0.75474 0.00020 -0.20000
C 	C 	0.47142 0.80462 0.18500 -0.02100
C 	C 	0.47559 0.91439 0.18540 0.03300
C 	C 	0.49885 0.23125 0.27050 0.09300
C 	C 	0.71649 0.19409 0.36840 -0.00700
C 	C 	0.71590 0.08290 0.25740 -0.01700
C 	C 	0.78688 0.71888 0.02360 -0.06200
C 	C 	0.93182 0.72322 0.97560 0.42500
C 	C 	0.80496 0.84696 0.96690 -0.15500
C 	C 	0.69379 0.31379 0.80920 0.01000
N 	N 	0.49002 0.88322 0.06780 -0.31900
N 	N 	0.48573 0.70073 0.06570 -0.32800
N 	N 	0.57604 0.10724 0.19340 -0.38500
N 	N 	0.57735 0.29035 0.37710 -0.35100
N 	N 	0.71148 0.84468 0.99710 -0.19600
N 	N 	0.91970 0.64210 0.01180 -0.25200
N 	N 	0.57471 0.43571 0.84720 -0.32700
H 	H 	0.28600 0.49600 0.58100 -0.07400
H 	H 	0.01300 0.52500 0.25000 -0.03500
H 	H 	0.19100 0.55300 0.26000 -0.00700
H 	H 	0.72800 0.60400 0.25600 -0.04500
H 	H 	0.99700 0.20900 0.27200 0.02700
H 	H 	0.79100 0.20500 0.06700 -0.06300
H 	H 	0.30600 0.24800 0.44600 -0.04800
H 	H 	0.07500 0.22100 0.55100 -0.08500
H 	H 	0.30600 0.98600 0.53900 0.17400
H 	H 	0.74900 0.23500 0.63600 0.00400
C 	C 	0.24526 0.50466 0.49980 0.11400
C 	C 	0.19538 0.52858 0.31500 -0.01900
C 	C 	0.08561 0.52441 0.31460 -0.00100
C 	C 	0.76875 0.50115 0.22950 0.09200
C 	C 	0.80591 0.28351 0.13160 0.00300
C 	C 	0.91710 0.28410 0.24260 -0.02400
C 	C 	0.28112 0.21312 0.47640 0.09200
C 	C 	0.27678 0.06818 0.52440 -0.25300
C 	C 	0.15304 0.19504 0.53310 0.11400
C 	C 	0.68621 0.30621 0.69080 0.01400
N 	N 	0.11678 0.50998 0.43220 -0.38600
N 	N 	0.29927 0.51427 0.43430 -0.35600
N 	N 	0.89276 0.42396 0.30660 -0.32100
N 	N 	0.70965 0.42265 0.12290 -0.38000
N 	N 	0.15532 0.28852 0.50290 -0.39100
N 	N 	0.35790 0.08030 0.48820 -0.12600
N 	N 	0.56429 0.42529 0.65280 -0.36200
Ga	Ga	0.50000 0.00000 -0.00000 1.96500
Ga	Ga	0.00000 0.50000 0.50000 1.99300
Ga	Ga	0.50000 0.50000 -0.00000 1.98100
Ga	Ga	0.50000 0.50000 0.50000 2.00900
H 	H 	0.58100 0.41900 0.25000 -0.07300
C 	C 	0.49770 0.50230 0.25000 0.11000
H 	H 	0.41900 0.58100 0.75000 -0.06100
C 	C 	0.50230 0.49770 0.75000 0.11200
