data_crystal

_cell_length_a 10.16180
_cell_length_b 21.97470
_cell_length_c 14.11400
_cell_angle_alpha 91.53300
_cell_angle_beta  90.00000
_cell_angle_gamma 90.00000

_symmetry_space_group_name_	'P 1'
_symmetry_space_group_name_H-M	'P 1'

loop_
_symmetry_equiv_pos_as_xyz
  x,y,z

loop_
_atom_site_label
_atom_site_type_symbol
_atom_site_fract_x
_atom_site_fract_y
_atom_site_fract_z
_atom_site_charge
Nd	Nd	0.55949 0.74056 0.23235 2.18200
Nd	Nd	0.74962 0.75072 0.97447 2.37900
Nd	Nd	0.05949 0.25944 0.26765 2.17800
Nd	Nd	0.24962 0.24928 0.52553 2.38400
Nd	Nd	0.44051 0.25944 0.76765 2.18200
Nd	Nd	0.25038 0.24928 0.02553 2.37900
Nd	Nd	0.94051 0.74056 0.73235 2.17700
Nd	Nd	0.75038 0.75072 0.47447 2.38300
H 	H 	0.87750 0.65910 0.27720 0.15300
H 	H 	0.01210 0.68540 0.24170 0.14400
H 	H 	0.79670 0.56110 0.18810 0.05800
H 	H 	0.85820 0.46590 0.13240 0.07900
H 	H 	0.23230 0.51870 0.12860 0.08100
H 	H 	0.17330 0.61420 0.18350 0.04400
H 	H 	0.03820 0.41130 0.02930 0.17200
H 	H 	0.18290 0.42410 0.06170 0.17600
H 	H 	0.68410 0.91550 0.05330 0.19700
H 	H 	0.54180 0.90530 0.01390 0.19600
H 	H 	0.72640 0.00710 0.13530 0.08200
H 	H 	0.66040 0.09720 0.20840 0.04500
H 	H 	0.28770 0.04350 0.18880 0.06100
H 	H 	0.35320 0.95360 0.11600 0.07300
H 	H 	0.35400 0.12960 0.30140 0.16500
H 	H 	0.49410 0.15790 0.28740 0.15900
H 	H 	0.30040 0.62200 0.01380 0.19000
H 	H 	0.36370 0.62650 0.91270 0.18700
H 	H 	0.49160 0.56720 0.12820 0.08000
H 	H 	0.41920 0.52780 0.85460 0.07200
H 	H 	0.41230 0.88440 0.35370 0.17700
H 	H 	0.34850 0.86740 0.45060 0.16500
H 	H 	0.53510 0.97760 0.34110 0.07700
H 	H 	0.40410 0.92900 0.59490 0.06100
H 	H 	0.37750 0.34090 0.22280 0.15300
H 	H 	0.51210 0.31460 0.25830 0.14700
H 	H 	0.29670 0.43890 0.31190 0.05400
H 	H 	0.35820 0.53410 0.36760 0.08300
H 	H 	0.73230 0.48130 0.37140 0.08500
H 	H 	0.67330 0.38580 0.31650 0.04000
H 	H 	0.53820 0.58870 0.47070 0.17700
H 	H 	0.68290 0.57590 0.43830 0.17900
H 	H 	0.18410 0.08450 0.44670 0.19300
H 	H 	0.04180 0.09470 0.48610 0.19300
H 	H 	0.22640 0.99290 0.36470 0.07700
H 	H 	0.16040 0.90280 0.29160 0.04800
H 	H 	0.78770 0.95650 0.31120 0.06400
H 	H 	0.85320 0.04640 0.38400 0.07000
H 	H 	0.85400 0.87040 0.19860 0.16700
H 	H 	0.99410 0.84210 0.21260 0.16200
H 	H 	0.80040 0.37800 0.48620 0.19200
H 	H 	0.86370 0.37350 0.58730 0.18700
H 	H 	0.99160 0.43280 0.37180 0.08100
H 	H 	0.91920 0.47220 0.64540 0.07200
H 	H 	0.91230 0.11560 0.14630 0.17700
H 	H 	0.84850 0.13260 0.04940 0.16600
H 	H 	0.03510 0.02240 0.15890 0.07900
H 	H 	0.90410 0.07100 0.90510 0.06100
H 	H 	0.12250 0.34090 0.72280 0.15300
H 	H 	0.98790 0.31460 0.75830 0.14400
H 	H 	0.20330 0.43890 0.81190 0.05800
H 	H 	0.14180 0.53410 0.86760 0.07900
H 	H 	0.76770 0.48130 0.87140 0.08100
H 	H 	0.82670 0.38580 0.81650 0.04400
H 	H 	0.96180 0.58870 0.97070 0.17200
H 	H 	0.81710 0.57590 0.93830 0.17600
H 	H 	0.31590 0.08450 0.94670 0.19700
H 	H 	0.45820 0.09470 0.98610 0.19600
H 	H 	0.27360 0.99290 0.86470 0.08200
H 	H 	0.33960 0.90280 0.79160 0.04500
H 	H 	0.71230 0.95650 0.81120 0.06100
H 	H 	0.64680 0.04640 0.88400 0.07300
H 	H 	0.64600 0.87040 0.69860 0.16500
H 	H 	0.50590 0.84210 0.71260 0.15900
H 	H 	0.69960 0.37800 0.98620 0.19000
H 	H 	0.63630 0.37350 0.08730 0.18700
H 	H 	0.50840 0.43280 0.87180 0.08000
H 	H 	0.58080 0.47220 0.14540 0.07200
H 	H 	0.58770 0.11560 0.64630 0.17700
H 	H 	0.65150 0.13260 0.54940 0.16500
H 	H 	0.46490 0.02240 0.65890 0.07700
H 	H 	0.59590 0.07100 0.40510 0.06100
H 	H 	0.62250 0.65910 0.77720 0.15300
H 	H 	0.48790 0.68540 0.74170 0.14700
H 	H 	0.70330 0.56110 0.68810 0.05400
H 	H 	0.64180 0.46590 0.63240 0.08300
H 	H 	0.26770 0.51870 0.62860 0.08500
H 	H 	0.32670 0.61420 0.68350 0.04000
H 	H 	0.46180 0.41130 0.52930 0.17700
H 	H 	0.31710 0.42410 0.56170 0.17900
H 	H 	0.81590 0.91550 0.55330 0.19300
H 	H 	0.95820 0.90530 0.51390 0.19300
H 	H 	0.77360 0.00710 0.63530 0.07700
H 	H 	0.83960 0.09720 0.70840 0.04800
H 	H 	0.21230 0.04350 0.68880 0.06400
H 	H 	0.14680 0.95360 0.61600 0.07000
H 	H 	0.14600 0.12960 0.80140 0.16700
H 	H 	0.00590 0.15790 0.78740 0.16200
H 	H 	0.19960 0.62200 0.51380 0.19200
H 	H 	0.13630 0.62650 0.41270 0.18700
H 	H 	0.00840 0.56720 0.62820 0.08100
H 	H 	0.08080 0.52780 0.35460 0.07200
H 	H 	0.08770 0.88440 0.85370 0.17700
H 	H 	0.15150 0.86740 0.95060 0.16600
H 	H 	0.96490 0.97760 0.84110 0.07900
H 	H 	0.09590 0.92900 0.09490 0.06100
C 	C 	0.86510 0.69246 0.14340 0.49400
C 	C 	0.93540 0.66173 0.22290 -0.45100
C 	C 	0.97730 0.59859 0.19030 0.13000
C 	C 	0.88490 0.55307 0.17560 -0.08700
C 	C 	0.92190 0.49573 0.14230 -0.13600
C 	C 	0.05150 0.48243 0.12400 0.19800
C 	C 	0.14410 0.52727 0.14010 -0.15300
C 	C 	0.10890 0.58472 0.17290 -0.08600
C 	C 	0.09290 0.42099 0.08390 -0.53100
C 	C 	0.08510 0.36881 0.15070 0.55700
C 	C 	0.57980 0.85447 0.12940 0.57000
C 	C 	0.59260 0.91119 0.07160 -0.55400
C 	C 	0.54890 0.97006 0.11950 0.20800
C 	C 	0.63730 0.01379 0.14650 -0.15800
C 	C 	0.59770 0.06825 0.19040 -0.08400
C 	C 	0.46690 0.07958 0.20720 0.14900
C 	C 	0.37690 0.03626 0.17860 -0.09800
C 	C 	0.41610 0.98212 0.13510 -0.13300
C 	C 	0.42060 0.13861 0.25460 -0.48600
C 	C 	0.36480 0.18198 0.18470 0.52300
C 	C 	0.47360 0.67021 0.01600 0.63700
C 	C 	0.38280 0.62019 0.97910 -0.56200
C 	C 	0.44480 0.55803 0.98990 0.18200
C 	C 	0.49460 0.54021 0.07630 -0.12300
C 	C 	0.45150 0.51674 0.91340 -0.12100
C 	C 	0.53510 0.83515 0.43570 0.53000
C 	C 	0.42890 0.88133 0.42110 -0.51400
C 	C 	0.46330 0.94325 0.46140 0.18300
C 	C 	0.52070 0.98633 0.40520 -0.12300
C 	C 	0.44290 0.95753 0.55630 -0.10900
C 	C 	0.36510 0.30754 0.35660 0.49400
C 	C 	0.43540 0.33827 0.27710 -0.45100
C 	C 	0.47730 0.40141 0.30970 0.11900
C 	C 	0.38490 0.44693 0.32440 -0.07600
C 	C 	0.42190 0.50427 0.35770 -0.15300
C 	C 	0.55150 0.51757 0.37600 0.21300
C 	C 	0.64410 0.47273 0.35990 -0.16600
C 	C 	0.60890 0.41528 0.32710 -0.07200
C 	C 	0.59290 0.57901 0.41610 -0.54000
C 	C 	0.58510 0.63119 0.34930 0.56100
C 	C 	0.07980 0.14553 0.37060 0.56800
C 	C 	0.09260 0.08881 0.42840 -0.54600
C 	C 	0.04890 0.02994 0.38050 0.19600
C 	C 	0.13730 0.98621 0.35350 -0.14600
C 	C 	0.09770 0.93175 0.30960 -0.09600
C 	C 	0.96690 0.92042 0.29280 0.15900
C 	C 	0.87690 0.96374 0.32140 -0.10700
C 	C 	0.91610 0.01788 0.36490 -0.12200
C 	C 	0.92060 0.86139 0.24540 -0.49300
C 	C 	0.86480 0.81802 0.31530 0.52600
C 	C 	0.97360 0.32979 0.48400 0.63700
C 	C 	0.88280 0.37981 0.52090 -0.56600
C 	C 	0.94480 0.44197 0.51010 0.18200
C 	C 	0.99460 0.45979 0.42370 -0.12200
C 	C 	0.95150 0.48326 0.58660 -0.12300
C 	C 	0.03510 0.16485 0.06430 0.52500
C 	C 	0.92890 0.11867 0.07890 -0.51200
C 	C 	0.96330 0.05675 0.03860 0.19400
C 	C 	0.02070 0.01367 0.09480 -0.13400
C 	C 	0.94290 0.04247 0.94370 -0.11100
C 	C 	0.13490 0.30754 0.85660 0.49400
C 	C 	0.06460 0.33827 0.77710 -0.45100
C 	C 	0.02270 0.40141 0.80970 0.13000
C 	C 	0.11510 0.44693 0.82440 -0.08700
C 	C 	0.07810 0.50427 0.85770 -0.13600
C 	C 	0.94850 0.51757 0.87600 0.19800
C 	C 	0.85590 0.47273 0.85990 -0.15300
C 	C 	0.89110 0.41528 0.82710 -0.08600
C 	C 	0.90710 0.57901 0.91610 -0.53100
C 	C 	0.91490 0.63119 0.84930 0.55700
C 	C 	0.42020 0.14553 0.87060 0.57000
C 	C 	0.40740 0.08881 0.92840 -0.55400
C 	C 	0.45110 0.02994 0.88050 0.20800
C 	C 	0.36270 0.98621 0.85350 -0.15800
C 	C 	0.40230 0.93175 0.80960 -0.08400
C 	C 	0.53310 0.92042 0.79280 0.14900
C 	C 	0.62310 0.96374 0.82140 -0.09800
C 	C 	0.58390 0.01788 0.86490 -0.13300
C 	C 	0.57940 0.86139 0.74540 -0.48600
C 	C 	0.63520 0.81802 0.81530 0.52300
C 	C 	0.52640 0.32979 0.98400 0.63700
C 	C 	0.61720 0.37981 0.02090 -0.56200
C 	C 	0.55520 0.44197 0.01010 0.18200
C 	C 	0.50540 0.45979 0.92370 -0.12300
C 	C 	0.54850 0.48326 0.08660 -0.12100
C 	C 	0.46490 0.16485 0.56430 0.53000
C 	C 	0.57110 0.11867 0.57890 -0.51400
C 	C 	0.53670 0.05675 0.53860 0.18300
C 	C 	0.47930 0.01367 0.59480 -0.12300
C 	C 	0.55710 0.04247 0.44370 -0.10900
C 	C 	0.63490 0.69246 0.64340 0.49400
C 	C 	0.56460 0.66173 0.72290 -0.45100
C 	C 	0.52270 0.59859 0.69030 0.11900
C 	C 	0.61510 0.55307 0.67560 -0.07600
C 	C 	0.57810 0.49573 0.64230 -0.15300
C 	C 	0.44850 0.48243 0.62400 0.21300
C 	C 	0.35590 0.52727 0.64010 -0.16600
C 	C 	0.39110 0.58472 0.67290 -0.07200
C 	C 	0.40710 0.42099 0.58390 -0.54000
C 	C 	0.41490 0.36881 0.65070 0.56100
C 	C 	0.92020 0.85447 0.62940 0.56800
C 	C 	0.90740 0.91119 0.57160 -0.54600
C 	C 	0.95110 0.97006 0.61950 0.19600
C 	C 	0.86270 0.01379 0.64650 -0.14600
C 	C 	0.90230 0.06825 0.69040 -0.09600
C 	C 	0.03310 0.07958 0.70720 0.15900
C 	C 	0.12310 0.03626 0.67860 -0.10700
C 	C 	0.08390 0.98212 0.63510 -0.12200
C 	C 	0.07940 0.13861 0.75460 -0.49300
C 	C 	0.13520 0.18198 0.68470 0.52600
C 	C 	0.02640 0.67021 0.51600 0.63700
C 	C 	0.11720 0.62019 0.47910 -0.56600
C 	C 	0.05520 0.55803 0.48990 0.18200
C 	C 	0.00540 0.54021 0.57630 -0.12200
C 	C 	0.04850 0.51674 0.41340 -0.12300
C 	C 	0.96490 0.83515 0.93570 0.52500
C 	C 	0.07110 0.88133 0.92110 -0.51200
C 	C 	0.03670 0.94325 0.96140 0.19400
C 	C 	0.97930 0.98633 0.90520 -0.13400
C 	C 	0.05710 0.95753 0.05630 -0.11100
O 	O 	0.74070 0.69198 0.13836 -0.63100
O 	O 	0.93040 0.71676 0.07925 -0.53200
O 	O 	0.16330 0.32461 0.13516 -0.70700
O 	O 	0.00690 0.36709 0.21723 -0.52700
O 	O 	0.63300 0.80544 0.09773 -0.72400
O 	O 	0.51980 0.85354 0.20504 -0.53800
O 	O 	0.26590 0.21452 0.20486 -0.65700
O 	O 	0.41980 0.18703 0.10573 -0.52600
O 	O 	0.56700 0.68458 0.96458 -0.62900
O 	O 	0.45050 0.69366 0.09604 -0.60900
O 	O 	0.63090 0.84676 0.48784 -0.55200
O 	O 	0.52650 0.78297 0.39340 -0.67000
O 	O 	0.24070 0.30802 0.36164 -0.63200
O 	O 	0.43040 0.28324 0.42075 -0.53600
O 	O 	0.66330 0.67539 0.36484 -0.70900
O 	O 	0.50690 0.63291 0.28277 -0.52700
O 	O 	0.13300 0.19456 0.40227 -0.72500
O 	O 	0.01980 0.14646 0.29496 -0.53800
O 	O 	0.76590 0.78548 0.29514 -0.65800
O 	O 	0.91980 0.81297 0.39427 -0.52700
O 	O 	0.06700 0.31542 0.53542 -0.62900
O 	O 	0.95050 0.30634 0.40396 -0.60800
O 	O 	0.13090 0.15324 0.01216 -0.55200
O 	O 	0.02650 0.21703 0.10660 -0.67000
O 	O 	0.25930 0.30802 0.86164 -0.63100
O 	O 	0.06960 0.28324 0.92075 -0.53200
O 	O 	0.83670 0.67539 0.86484 -0.70700
O 	O 	0.99310 0.63291 0.78277 -0.52700
O 	O 	0.36700 0.19456 0.90227 -0.72400
O 	O 	0.48020 0.14646 0.79496 -0.53800
O 	O 	0.73410 0.78548 0.79514 -0.65700
O 	O 	0.58020 0.81297 0.89427 -0.52600
O 	O 	0.43300 0.31542 0.03542 -0.62900
O 	O 	0.54950 0.30634 0.90396 -0.60900
O 	O 	0.36910 0.15324 0.51216 -0.55200
O 	O 	0.47350 0.21703 0.60660 -0.67000
O 	O 	0.75930 0.69198 0.63836 -0.63200
O 	O 	0.56960 0.71676 0.57925 -0.53600
O 	O 	0.33670 0.32461 0.63516 -0.70900
O 	O 	0.49310 0.36709 0.71723 -0.52700
O 	O 	0.86700 0.80544 0.59773 -0.72500
O 	O 	0.98020 0.85354 0.70504 -0.53800
O 	O 	0.23410 0.21452 0.70486 -0.65800
O 	O 	0.08020 0.18703 0.60573 -0.52700
O 	O 	0.93300 0.68458 0.46458 -0.62900
O 	O 	0.04950 0.69366 0.59604 -0.60800
O 	O 	0.86910 0.84676 0.98784 -0.55200
O 	O 	0.97350 0.78297 0.89340 -0.67000
