data_crystal

_cell_length_a 22.99300
_cell_length_b 22.99300
_cell_length_c 71.29700
_cell_angle_alpha 90.00000
_cell_angle_beta  90.00000
_cell_angle_gamma 120.00000

_symmetry_space_group_name_	'P 1'
_symmetry_space_group_name_H-M	'P 1'

loop_
_symmetry_equiv_pos_as_xyz
  x,y,z

loop_
_atom_site_label
_atom_site_type_symbol
_atom_site_fract_x
_atom_site_fract_y
_atom_site_fract_z
_atom_site_charge
Ag	Ag	0.02620 0.51138 0.50099 0.47300
O 	O 	0.25550 0.62310 0.42651 -0.53900
C 	C 	0.20760 0.63700 0.42770 0.34300
O 	O 	0.29900 0.58590 0.39405 -0.54400
C 	C 	0.32570 0.52440 0.41474 -0.43500
H 	H 	0.31460 0.47980 0.41770 0.16200
C 	C 	0.30060 0.53210 0.39743 0.32900
N 	N 	0.08890 0.55660 0.47641 -0.18600
C 	C 	0.15730 0.57890 0.47676 -0.00500
H 	H 	0.17770 0.57540 0.48800 -0.00500
C 	C 	0.19590 0.60650 0.46073 -0.02900
H 	H 	0.24270 0.62180 0.46100 0.04600
C 	C 	0.16600 0.61170 0.44435 -0.09700
C 	C 	0.49160 0.90240 0.44399 -0.02800
H 	H 	0.51550 0.92280 0.43280 0.02400
C 	C 	0.50270 0.94100 0.46002 0.00200
H 	H 	0.53420 0.98780 0.45980 0.02700
N 	N 	0.17690 0.79720 0.35614 -0.18500
C 	C 	0.22190 0.77520 0.35215 0.01000
H 	H 	0.24100 0.78160 0.34000 0.01100
C 	C 	0.23910 0.74390 0.36598 -0.03700
H 	H 	0.26990 0.72880 0.36330 0.07000
C 	C 	0.21120 0.73450 0.38379 -0.07300
C 	C 	0.16620 0.75650 0.38778 -0.04100
H 	H 	0.14710 0.75010 0.40000 0.02300
C 	C 	0.14900 0.78780 0.37396 0.00300
H 	H 	0.11820 0.80290 0.37670 -0.00600
Ag	Ag	0.69287 0.84471 0.83432 0.50400
O 	O 	0.92217 0.95643 0.75984 -0.52400
C 	C 	0.87427 0.97033 0.76103 0.44000
O 	O 	0.96567 0.91923 0.72738 -0.49900
C 	C 	0.99237 0.85773 0.74807 -0.33000
H 	H 	0.98127 0.81313 0.75103 0.14300
C 	C 	0.96727 0.86543 0.73076 0.29300
N 	N 	0.75557 0.88993 0.80974 -0.17400
C 	C 	0.82397 0.91223 0.81009 -0.00100
H 	H 	0.84437 0.90873 0.82133 0.01300
C 	C 	0.86257 0.93983 0.79406 -0.00500
H 	H 	0.90937 0.95513 0.79433 0.06100
C 	C 	0.83267 0.94503 0.77768 -0.11600
C 	C 	0.15827 0.23573 0.77732 -0.02800
H 	H 	0.18217 0.25613 0.76613 0.00900
C 	C 	0.16937 0.27433 0.79335 -0.01600
H 	H 	0.20087 0.32113 0.79313 0.00800
N 	N 	0.84357 0.13053 0.68947 -0.18500
C 	C 	0.88857 0.10853 0.68548 0.00200
H 	H 	0.90767 0.11493 0.67333 0.01600
C 	C 	0.90577 0.07723 0.69931 -0.03100
H 	H 	0.93657 0.06213 0.69663 0.06900
C 	C 	0.87787 0.06783 0.71712 -0.09200
C 	C 	0.83287 0.08983 0.72111 -0.03300
H 	H 	0.81377 0.08343 0.73333 0.01400
C 	C 	0.81567 0.12113 0.70729 -0.00600
H 	H 	0.78487 0.13623 0.71003 -0.00800
Ag	Ag	0.35953 0.17805 0.16766 0.48900
O 	O 	0.58883 0.28977 0.09318 -0.54000
C 	C 	0.54093 0.30367 0.09437 0.34300
O 	O 	0.63233 0.25257 0.06072 -0.54900
C 	C 	0.65903 0.19107 0.08141 -0.44400
H 	H 	0.64793 0.14647 0.08437 0.16100
C 	C 	0.63393 0.19877 0.06410 0.34200
N 	N 	0.42223 0.22327 0.14308 -0.18300
C 	C 	0.49063 0.24557 0.14343 -0.00500
H 	H 	0.51103 0.24207 0.15467 -0.00500
C 	C 	0.52923 0.27317 0.12740 -0.02900
H 	H 	0.57603 0.28847 0.12767 0.04600
C 	C 	0.49933 0.27837 0.11102 -0.09600
C 	C 	0.82493 0.56907 0.11066 -0.03400
H 	H 	0.84883 0.58947 0.09947 0.01600
C 	C 	0.83603 0.60767 0.12669 -0.00500
H 	H 	0.86753 0.65447 0.12647 0.01200
N 	N 	0.51023 0.46387 0.02281 -0.18600
C 	C 	0.55523 0.44187 0.01882 0.00900
H 	H 	0.57433 0.44827 0.00667 0.01000
C 	C 	0.57243 0.41057 0.03265 -0.03800
H 	H 	0.60323 0.39547 0.02997 0.07000
C 	C 	0.54453 0.40117 0.05046 -0.07400
C 	C 	0.49953 0.42317 0.05445 -0.04200
H 	H 	0.48043 0.41677 0.06667 0.02300
C 	C 	0.48233 0.45447 0.04063 0.00200
H 	H 	0.45153 0.46957 0.04337 -0.00600
Ag	Ag	0.48862 0.51482 0.50099 0.49400
O 	O 	0.37690 0.63240 0.42651 -0.53700
C 	C 	0.36300 0.57060 0.42770 0.34200
O 	O 	0.41410 0.71310 0.39405 -0.54500
C 	C 	0.47560 0.80130 0.41474 -0.43600
H 	H 	0.52020 0.83480 0.41770 0.16800
C 	C 	0.46790 0.76850 0.39743 0.33100
N 	N 	0.44340 0.53230 0.47641 -0.18100
C 	C 	0.42110 0.57840 0.47676 -0.00300
H 	H 	0.42460 0.60230 0.48800 -0.00100
C 	C 	0.39350 0.58940 0.46073 -0.02800
H 	H 	0.37820 0.62090 0.46100 0.04700
C 	C 	0.38830 0.55430 0.44435 -0.09500
C 	C 	0.09760 0.58920 0.44399 -0.03800
H 	H 	0.07720 0.59270 0.43280 0.00500
C 	C 	0.05900 0.56170 0.46002 -0.01300
H 	H 	0.01220 0.54640 0.45980 -0.00800
N 	N 	0.20280 0.37970 0.35614 -0.18900
C 	C 	0.22480 0.44670 0.35215 0.00600
H 	H 	0.21840 0.45940 0.34000 0.00800
C 	C 	0.25610 0.49520 0.36598 -0.03900
H 	H 	0.27120 0.54110 0.36330 0.07000
C 	C 	0.26550 0.47670 0.38379 -0.07600
C 	C 	0.24350 0.40970 0.38778 -0.04500
H 	H 	0.24990 0.39700 0.40000 0.01900
C 	C 	0.21220 0.36120 0.37396 -0.00200
H 	H 	0.19710 0.31530 0.37670 -0.01500
Ag	Ag	0.15529 0.84815 0.83432 0.49500
O 	O 	0.04357 0.96573 0.75984 -0.50000
C 	C 	0.02967 0.90393 0.76103 0.25500
O 	O 	0.08077 0.04643 0.72738 -0.58600
C 	C 	0.14227 0.13463 0.74807 -0.46000
H 	H 	0.18687 0.16813 0.75103 0.16700
C 	C 	0.13457 0.10183 0.73076 0.34200
N 	N 	0.11007 0.86563 0.80974 -0.18500
C 	C 	0.08777 0.91173 0.81009 0.00800
H 	H 	0.09127 0.93563 0.82133 -0.00000
C 	C 	0.06017 0.92273 0.79406 -0.04900
H 	H 	0.04487 0.95423 0.79433 0.05900
C 	C 	0.05497 0.88763 0.77768 -0.06000
C 	C 	0.76427 0.92253 0.77732 -0.01200
H 	H 	0.74387 0.92603 0.76613 0.01700
C 	C 	0.72567 0.89503 0.79335 -0.00900
H 	H 	0.67887 0.87973 0.79313 0.01400
N 	N 	0.86947 0.71303 0.68947 -0.18700
C 	C 	0.89147 0.78003 0.68548 0.02100
H 	H 	0.88507 0.79273 0.67333 0.00900
C 	C 	0.92277 0.82853 0.69931 -0.05000
H 	H 	0.93787 0.87443 0.69663 0.08400
C 	C 	0.93217 0.81003 0.71712 -0.04600
C 	C 	0.91017 0.74303 0.72111 -0.05400
H 	H 	0.91657 0.73033 0.73333 0.03500
C 	C 	0.87887 0.69453 0.70729 0.01400
H 	H 	0.86377 0.64863 0.71003 -0.00400
Ag	Ag	0.82195 0.18149 0.16766 0.49200
O 	O 	0.71023 0.29907 0.09318 -0.53800
C 	C 	0.69633 0.23727 0.09437 0.34500
O 	O 	0.74743 0.37977 0.06072 -0.54200
C 	C 	0.80893 0.46797 0.08141 -0.43000
H 	H 	0.85353 0.50147 0.08437 0.16500
C 	C 	0.80123 0.43517 0.06410 0.32000
N 	N 	0.77673 0.19897 0.14308 -0.18300
C 	C 	0.75443 0.24507 0.14343 -0.00500
H 	H 	0.75793 0.26897 0.15467 -0.00100
C 	C 	0.72683 0.25607 0.12740 -0.02700
H 	H 	0.71153 0.28757 0.12767 0.04600
C 	C 	0.72163 0.22097 0.11102 -0.09800
C 	C 	0.43093 0.25587 0.11066 -0.03500
H 	H 	0.41053 0.25937 0.09947 0.01200
C 	C 	0.39233 0.22837 0.12669 -0.00900
H 	H 	0.34553 0.21307 0.12647 0.00700
N 	N 	0.53613 0.04637 0.02281 -0.18000
C 	C 	0.55813 0.11337 0.01882 -0.01100
H 	H 	0.55173 0.12607 0.00667 0.00800
C 	C 	0.58943 0.16187 0.03265 -0.01400
H 	H 	0.60453 0.20777 0.02997 0.06200
C 	C 	0.59883 0.14337 0.05046 -0.11200
C 	C 	0.57683 0.07637 0.05445 0.03000
H 	H 	0.58323 0.06367 0.06667 -0.01400
C 	C 	0.54553 0.02787 0.04063 -0.13900
H 	H 	0.53043 0.98197 0.04337 0.08600
Ag	Ag	0.48518 0.97380 0.50099 0.52500
O 	O 	0.36760 0.74450 0.42651 -0.53700
C 	C 	0.42940 0.79240 0.42770 0.34600
O 	O 	0.28690 0.70100 0.39405 -0.54400
C 	C 	0.19870 0.67430 0.41474 -0.43500
H 	H 	0.16520 0.68540 0.41770 0.16200
C 	C 	0.23150 0.69940 0.39743 0.33000
N 	N 	0.46770 0.91110 0.47641 -0.17400
C 	C 	0.42160 0.84270 0.47676 0.00200
H 	H 	0.39770 0.82230 0.48800 0.00100
C 	C 	0.41060 0.80410 0.46073 -0.02500
H 	H 	0.37910 0.75730 0.46100 0.04700
C 	C 	0.44570 0.83400 0.44435 -0.09100
C 	C 	0.41080 0.50840 0.44399 -0.03500
H 	H 	0.40730 0.48450 0.43280 0.01100
C 	C 	0.43830 0.49730 0.46002 -0.00800
H 	H 	0.45360 0.46580 0.45980 0.00600
N 	N 	0.62030 0.82310 0.35614 -0.18300
C 	C 	0.55330 0.77810 0.35215 0.01100
H 	H 	0.54060 0.75900 0.34000 0.01000
C 	C 	0.50480 0.76090 0.36598 -0.03800
H 	H 	0.45890 0.73010 0.36330 0.07000
C 	C 	0.52330 0.78880 0.38379 -0.07300
C 	C 	0.59030 0.83380 0.38778 -0.03900
H 	H 	0.60300 0.85290 0.40000 0.03000
C 	C 	0.63880 0.85100 0.37396 0.00600
H 	H 	0.68470 0.88180 0.37670 0.00500
Ag	Ag	0.15185 0.30713 0.83432 0.48600
O 	O 	0.03427 0.07783 0.75984 -0.57800
C 	C 	0.09607 0.12573 0.76103 0.35400
O 	O 	0.95357 0.03433 0.72738 -0.54800
C 	C 	0.86537 0.00763 0.74807 -0.54400
H 	H 	0.83187 0.01873 0.75103 0.18200
C 	C 	0.89817 0.03273 0.73076 0.35800
N 	N 	0.13437 0.24443 0.80974 -0.18300
C 	C 	0.08827 0.17603 0.81009 -0.01700
H 	H 	0.06437 0.15563 0.82133 -0.01700
C 	C 	0.07727 0.13743 0.79406 -0.02300
H 	H 	0.04577 0.09063 0.79433 0.01900
C 	C 	0.11237 0.16733 0.77768 -0.11400
C 	C 	0.07747 0.84173 0.77732 -0.05800
H 	H 	0.07397 0.81783 0.76613 0.01300
C 	C 	0.10497 0.83063 0.79335 0.00100
H 	H 	0.12027 0.79913 0.79313 0.00000
N 	N 	0.28697 0.15643 0.68947 -0.18800
C 	C 	0.21997 0.11143 0.68548 -0.00300
H 	H 	0.20727 0.09233 0.67333 0.00200
C 	C 	0.17147 0.09423 0.69931 -0.03300
H 	H 	0.12557 0.06343 0.69663 0.05000
C 	C 	0.18997 0.12213 0.71712 -0.09200
C 	C 	0.25697 0.16713 0.72111 -0.03700
H 	H 	0.26967 0.18623 0.73333 0.01600
C 	C 	0.30547 0.18433 0.70729 -0.00700
H 	H 	0.35137 0.21513 0.71003 -0.00700
Ag	Ag	0.81851 0.64047 0.16766 0.49900
O 	O 	0.70093 0.41117 0.09318 -0.53700
C 	C 	0.76273 0.45907 0.09437 0.34100
O 	O 	0.62023 0.36767 0.06072 -0.54500
C 	C 	0.53203 0.34097 0.08141 -0.43600
H 	H 	0.49853 0.35207 0.08437 0.16300
C 	C 	0.56483 0.36607 0.06410 0.33000
N 	N 	0.80103 0.57777 0.14308 -0.18000
C 	C 	0.75493 0.50937 0.14343 -0.00100
H 	H 	0.73103 0.48897 0.15467 -0.00100
C 	C 	0.74393 0.47077 0.12740 -0.02700
H 	H 	0.71243 0.42397 0.12767 0.04700
C 	C 	0.77903 0.50067 0.11102 -0.09200
C 	C 	0.74413 0.17507 0.11066 -0.03500
H 	H 	0.74063 0.15117 0.09947 0.00800
C 	C 	0.77163 0.16397 0.12669 -0.01100
H 	H 	0.78693 0.13247 0.12647 -0.00000
N 	N 	0.95363 0.48977 0.02281 -0.19100
C 	C 	0.88663 0.44477 0.01882 0.02300
H 	H 	0.87393 0.42567 0.00667 0.01000
C 	C 	0.83813 0.42757 0.03265 -0.05700
H 	H 	0.79223 0.39677 0.02997 0.07700
C 	C 	0.85663 0.45547 0.05046 -0.04600
C 	C 	0.92363 0.50047 0.05445 -0.09600
H 	H 	0.93633 0.51957 0.06667 0.05200
C 	C 	0.97213 0.51767 0.04063 0.10800
H 	H 	0.01803 0.54847 0.04337 -0.07500
Ag	Ag	0.48862 0.97380 0.00099 0.52400
O 	O 	0.37690 0.74450 0.92651 -0.53600
C 	C 	0.36300 0.79240 0.92770 0.34500
O 	O 	0.41410 0.70100 0.89405 -0.54400
C 	C 	0.47560 0.67430 0.91474 -0.43600
H 	H 	0.52020 0.68540 0.91770 0.16600
C 	C 	0.46790 0.69940 0.89743 0.33100
N 	N 	0.44340 0.91110 0.97641 -0.17400
C 	C 	0.42110 0.84270 0.97676 0.00200
H 	H 	0.42460 0.82230 0.98800 0.00200
C 	C 	0.39350 0.80410 0.96073 -0.02600
H 	H 	0.37820 0.75730 0.96100 0.04700
C 	C 	0.38830 0.83400 0.94435 -0.09200
C 	C 	0.09760 0.50840 0.94399 -0.03900
H 	H 	0.07720 0.48450 0.93280 0.00300
C 	C 	0.05900 0.49730 0.96002 -0.01500
H 	H 	0.01220 0.46580 0.95980 -0.00900
N 	N 	0.20280 0.82310 0.85614 -0.18600
C 	C 	0.22480 0.77810 0.85215 0.00900
H 	H 	0.21840 0.75900 0.84000 0.00800
C 	C 	0.25610 0.76090 0.86598 -0.03900
H 	H 	0.27120 0.73010 0.86330 0.07000
C 	C 	0.26550 0.78880 0.88379 -0.07400
C 	C 	0.24350 0.83380 0.88778 -0.04100
H 	H 	0.24990 0.85290 0.90000 0.02700
C 	C 	0.21220 0.85100 0.87396 0.00300
H 	H 	0.19710 0.88180 0.87670 -0.00100
Ag	Ag	0.15529 0.30713 0.33432 0.48500
O 	O 	0.04357 0.07783 0.25984 -0.55100
C 	C 	0.02967 0.12573 0.26103 0.26100
O 	O 	0.08077 0.03433 0.22738 -0.58900
C 	C 	0.14227 0.00763 0.24807 -0.57800
H 	H 	0.18687 0.01873 0.25103 0.18800
C 	C 	0.13457 0.03273 0.23076 0.37300
N 	N 	0.11007 0.24443 0.30974 -0.18800
C 	C 	0.08777 0.17603 0.31009 -0.00700
H 	H 	0.09127 0.15563 0.32133 -0.01800
C 	C 	0.06017 0.13743 0.29406 -0.04600
H 	H 	0.04487 0.09063 0.29433 0.02700
C 	C 	0.05497 0.16733 0.27768 -0.07900
C 	C 	0.76427 0.84173 0.27732 -0.04100
H 	H 	0.74387 0.81783 0.26613 0.01600
C 	C 	0.72567 0.83063 0.29335 0.00000
H 	H 	0.67887 0.79913 0.29313 0.00600
N 	N 	0.86947 0.15643 0.18947 -0.18800
C 	C 	0.89147 0.11143 0.18548 0.01100
H 	H 	0.88507 0.09233 0.17333 0.00200
C 	C 	0.92277 0.09423 0.19931 -0.04400
H 	H 	0.93787 0.06343 0.19663 0.06700
C 	C 	0.93217 0.12213 0.21712 -0.06200
C 	C 	0.91017 0.16713 0.22111 -0.04900
H 	H 	0.91657 0.18623 0.23333 0.02900
C 	C 	0.87887 0.18433 0.20729 0.00600
H 	H 	0.86377 0.21513 0.21003 -0.00600
Ag	Ag	0.82195 0.64047 0.66766 0.49800
O 	O 	0.71023 0.41117 0.59318 -0.53700
C 	C 	0.69633 0.45907 0.59437 0.34300
O 	O 	0.74743 0.36767 0.56072 -0.54200
C 	C 	0.80893 0.34097 0.58141 -0.43000
H 	H 	0.85353 0.35207 0.58437 0.16500
C 	C 	0.80123 0.36607 0.56410 0.32000
N 	N 	0.77673 0.57777 0.64308 -0.18000
C 	C 	0.75443 0.50937 0.64343 -0.00200
H 	H 	0.75793 0.48897 0.65467 -0.00000
C 	C 	0.72683 0.47077 0.62740 -0.02700
H 	H 	0.71153 0.42397 0.62767 0.04700
C 	C 	0.72163 0.50067 0.61102 -0.09400
C 	C 	0.43093 0.17507 0.61066 -0.03600
H 	H 	0.41053 0.15117 0.59947 0.00700
C 	C 	0.39233 0.16397 0.62669 -0.01200
H 	H 	0.34553 0.13247 0.62647 -0.00000
N 	N 	0.53613 0.48977 0.52281 -0.18600
C 	C 	0.55813 0.44477 0.51882 0.00900
H 	H 	0.55173 0.42567 0.50667 0.00900
C 	C 	0.58943 0.42757 0.53265 -0.03800
H 	H 	0.60453 0.39677 0.52997 0.07000
C 	C 	0.59883 0.45547 0.55046 -0.07400
C 	C 	0.57683 0.50047 0.55445 -0.04200
H 	H 	0.58323 0.51957 0.56667 0.02300
C 	C 	0.54553 0.51767 0.54063 0.00200
H 	H 	0.53043 0.54847 0.54337 -0.00500
Ag	Ag	0.48518 0.51138 0.00099 0.49500
O 	O 	0.36760 0.62310 0.92651 -0.53800
C 	C 	0.42940 0.63700 0.92770 0.34400
O 	O 	0.28690 0.58590 0.89405 -0.54500
C 	C 	0.19870 0.52440 0.91474 -0.43600
H 	H 	0.16520 0.47980 0.91770 0.15900
C 	C 	0.23150 0.53210 0.89743 0.32800
N 	N 	0.46770 0.55660 0.97641 -0.18100
C 	C 	0.42160 0.57890 0.97676 -0.00300
H 	H 	0.39770 0.57540 0.98800 -0.00200
C 	C 	0.41060 0.60650 0.96073 -0.02700
H 	H 	0.37910 0.62180 0.96100 0.04700
C 	C 	0.44570 0.61170 0.94435 -0.09400
C 	C 	0.41080 0.90240 0.94399 -0.02900
H 	H 	0.40730 0.92280 0.93280 0.02400
C 	C 	0.43830 0.94100 0.96002 0.00100
H 	H 	0.45360 0.98780 0.95980 0.02700
N 	N 	0.62030 0.79720 0.85614 -0.18200
C 	C 	0.55330 0.77520 0.85215 0.01100
H 	H 	0.54060 0.78160 0.84000 0.01200
C 	C 	0.50480 0.74390 0.86598 -0.03700
H 	H 	0.45890 0.72880 0.86330 0.07000
C 	C 	0.52330 0.73450 0.88379 -0.07200
C 	C 	0.59030 0.75650 0.88778 -0.03900
H 	H 	0.60300 0.75010 0.90000 0.02800
C 	C 	0.63880 0.78780 0.87396 0.00600
H 	H 	0.68470 0.80290 0.87670 0.00200
Ag	Ag	0.15185 0.84471 0.33432 0.49700
O 	O 	0.03427 0.95643 0.25984 -0.56000
C 	C 	0.09607 0.97033 0.26103 0.46100
O 	O 	0.95357 0.91923 0.22738 -0.50100
C 	C 	0.86537 0.85773 0.24807 -0.40900
H 	H 	0.83187 0.81313 0.25103 0.15700
C 	C 	0.89817 0.86543 0.23076 0.31400
N 	N 	0.13437 0.88993 0.30974 -0.17500
C 	C 	0.08827 0.91223 0.31009 -0.01300
H 	H 	0.06437 0.90873 0.32133 0.00200
C 	C 	0.07727 0.93983 0.29406 0.00100
H 	H 	0.04577 0.95513 0.29433 0.03900
C 	C 	0.11237 0.94503 0.27768 -0.13500
C 	C 	0.07747 0.23573 0.27732 -0.05300
H 	H 	0.07397 0.25613 0.26613 0.00800
C 	C 	0.10497 0.27433 0.29335 -0.00800
H 	H 	0.12027 0.32113 0.29313 0.00100
N 	N 	0.28697 0.13053 0.18947 -0.18600
C 	C 	0.21997 0.10853 0.18548 -0.00800
H 	H 	0.20727 0.11493 0.17333 0.01000
C 	C 	0.17147 0.07723 0.19931 -0.02500
H 	H 	0.12557 0.06213 0.19663 0.05200
C 	C 	0.18997 0.06783 0.21712 -0.11000
C 	C 	0.25697 0.08983 0.22111 -0.02700
H 	H 	0.26967 0.08343 0.23333 0.00700
C 	C 	0.30547 0.12113 0.20729 -0.01400
H 	H 	0.35137 0.13623 0.21003 -0.00900
Ag	Ag	0.81851 0.17805 0.66766 0.49500
O 	O 	0.70093 0.28977 0.59318 -0.53900
C 	C 	0.76273 0.30367 0.59437 0.34100
O 	O 	0.62023 0.25257 0.56072 -0.54900
C 	C 	0.53203 0.19107 0.58141 -0.44400
H 	H 	0.49853 0.14647 0.58437 0.16100
C 	C 	0.56483 0.19877 0.56410 0.34200
N 	N 	0.80103 0.22327 0.64308 -0.18100
C 	C 	0.75493 0.24557 0.64343 -0.00300
H 	H 	0.73103 0.24207 0.65467 -0.00400
C 	C 	0.74393 0.27317 0.62740 -0.02900
H 	H 	0.71243 0.28847 0.62767 0.04600
C 	C 	0.77903 0.27837 0.61102 -0.09300
C 	C 	0.74413 0.56907 0.61066 -0.03400
H 	H 	0.74063 0.58947 0.59947 0.01300
C 	C 	0.77163 0.60767 0.62669 -0.00700
H 	H 	0.78693 0.65447 0.62647 0.00700
N 	N 	0.95363 0.46387 0.52281 -0.19100
C 	C 	0.88663 0.44187 0.51882 0.02400
H 	H 	0.87393 0.44827 0.50667 0.01000
C 	C 	0.83813 0.41057 0.53265 -0.05700
H 	H 	0.79223 0.39547 0.52997 0.07700
C 	C 	0.85663 0.40117 0.55046 -0.04600
C 	C 	0.92363 0.42317 0.55445 -0.09700
H 	H 	0.93633 0.41677 0.56667 0.05200
C 	C 	0.97213 0.45447 0.54063 0.11000
H 	H 	0.01803 0.46957 0.54337 -0.07600
Ag	Ag	0.02620 0.51482 0.00099 0.47200
O 	O 	0.25550 0.63240 0.92651 -0.53900
C 	C 	0.20760 0.57060 0.92770 0.34000
O 	O 	0.29900 0.71310 0.89405 -0.54600
C 	C 	0.32570 0.80130 0.91474 -0.43600
H 	H 	0.31460 0.83480 0.91770 0.16600
C 	C 	0.30060 0.76850 0.89743 0.33000
N 	N 	0.08890 0.53230 0.97641 -0.18700
C 	C 	0.15730 0.57840 0.97676 -0.00700
H 	H 	0.17770 0.60230 0.98800 -0.00400
C 	C 	0.19590 0.58940 0.96073 -0.02900
H 	H 	0.24270 0.62090 0.96100 0.04600
C 	C 	0.16600 0.55430 0.94435 -0.09800
C 	C 	0.49160 0.58920 0.94399 -0.03400
H 	H 	0.51550 0.59270 0.93280 0.01400
C 	C 	0.50270 0.56170 0.96002 -0.00700
H 	H 	0.53420 0.54640 0.95980 0.00800
N 	N 	0.17690 0.37970 0.85614 -0.18900
C 	C 	0.22190 0.44670 0.85215 0.00700
H 	H 	0.24100 0.45940 0.84000 0.00900
C 	C 	0.23910 0.49520 0.86598 -0.03900
H 	H 	0.26990 0.54110 0.86330 0.07000
C 	C 	0.21120 0.47670 0.88379 -0.07500
C 	C 	0.16620 0.40970 0.88778 -0.04500
H 	H 	0.14710 0.39700 0.90000 0.01700
C 	C 	0.14900 0.36120 0.87396 -0.00100
H 	H 	0.11820 0.31530 0.87670 -0.01700
Ag	Ag	0.69287 0.84815 0.33432 0.50300
O 	O 	0.92217 0.96573 0.25984 -0.49100
C 	C 	0.87427 0.90393 0.26103 0.32700
O 	O 	0.96567 0.04643 0.22738 -0.54300
C 	C 	0.99237 0.13463 0.24807 -0.34600
H 	H 	0.98127 0.16813 0.25103 0.14600
C 	C 	0.96727 0.10183 0.23076 0.30500
N 	N 	0.75557 0.86563 0.30974 -0.17900
C 	C 	0.82397 0.91173 0.31009 0.01000
H 	H 	0.84437 0.93563 0.32133 0.01200
C 	C 	0.86257 0.92273 0.29406 -0.03200
H 	H 	0.90937 0.95423 0.29433 0.07200
C 	C 	0.83267 0.88763 0.27768 -0.07500
C 	C 	0.15827 0.92253 0.27732 -0.00400
H 	H 	0.18217 0.92603 0.26613 0.01400
C 	C 	0.16937 0.89503 0.29335 -0.01600
H 	H 	0.20087 0.87973 0.29313 0.01500
N 	N 	0.84357 0.71303 0.18947 -0.18500
C 	C 	0.88857 0.78003 0.18548 0.01800
H 	H 	0.90767 0.79273 0.17333 0.01400
C 	C 	0.90577 0.82853 0.19931 -0.04500
H 	H 	0.93657 0.87443 0.19663 0.08500
C 	C 	0.87787 0.81003 0.21712 -0.05800
C 	C 	0.83287 0.74303 0.22111 -0.04800
H 	H 	0.81377 0.73033 0.23333 0.02900
C 	C 	0.81567 0.69453 0.20729 0.00900
H 	H 	0.78487 0.64863 0.21003 -0.00600
Ag	Ag	0.35953 0.18149 0.66766 0.48800
O 	O 	0.58883 0.29907 0.59318 -0.53900
C 	C 	0.54093 0.23727 0.59437 0.34500
O 	O 	0.63233 0.37977 0.56072 -0.54500
C 	C 	0.65903 0.46797 0.58141 -0.43600
H 	H 	0.64793 0.50147 0.58437 0.16300
C 	C 	0.63393 0.43517 0.56410 0.33000
N 	N 	0.42223 0.19897 0.64308 -0.18400
C 	C 	0.49063 0.24507 0.64343 -0.00600
H 	H 	0.51103 0.26897 0.65467 -0.00400
C 	C 	0.52923 0.25607 0.62740 -0.02800
H 	H 	0.57603 0.28757 0.62767 0.04500
C 	C 	0.49933 0.22097 0.61102 -0.09900
C 	C 	0.82493 0.25587 0.61066 -0.03400
H 	H 	0.84883 0.25937 0.59947 0.01600
C 	C 	0.83603 0.22837 0.62669 -0.00600
H 	H 	0.86753 0.21307 0.62647 0.01300
N 	N 	0.51023 0.04637 0.52281 -0.18000
C 	C 	0.55523 0.11337 0.51882 -0.01100
H 	H 	0.57433 0.12607 0.50667 0.00800
C 	C 	0.57243 0.16187 0.53265 -0.01400
H 	H 	0.60323 0.20777 0.52997 0.06200
C 	C 	0.54453 0.14337 0.55046 -0.11200
C 	C 	0.49953 0.07637 0.55445 0.03100
H 	H 	0.48043 0.06367 0.56667 -0.01500
C 	C 	0.48233 0.02787 0.54063 -0.14100
H 	H 	0.45153 0.98197 0.54337 0.08700
Ga	Ga	0.33333 0.66667 0.40969 2.08400
Ga	Ga	-0.00000 -0.00000 0.74302 2.06300
Ga	Ga	0.66667 0.33333 0.07636 2.08400
Ga	Ga	0.33333 0.66667 0.90969 2.08400
Ga	Ga	-0.00000 -0.00000 0.24302 2.06300
Ga	Ga	0.66667 0.33333 0.57636 2.08400
Ag	Ag	0.99845 0.46166 0.40412 0.52500
O 	O 	0.25570 0.62270 0.33772 -0.53800
O 	O 	0.30310 0.58860 0.30482 -0.53600
C 	C 	0.19640 0.61620 0.33451 0.30200
C 	C 	0.35690 0.53440 0.32047 -0.40200
H 	H 	0.36390 0.49710 0.32000 0.14500
C 	C 	0.31890 0.54330 0.30674 0.30000
N 	N 	0.06280 0.51600 0.38092 -0.17800
C 	C 	0.03640 0.51950 0.36369 -0.10600
H 	H 	0.98930 0.50090 0.36230 0.07600
C 	C 	0.07890 0.55020 0.34853 0.00400
H 	H 	0.06080 0.55260 0.33680 -0.02000
C 	C 	0.14780 0.57750 0.35060 -0.07400
C 	C 	0.39970 0.82580 0.36783 -0.07600
H 	H 	0.37120 0.77870 0.36930 0.08600
C 	C 	0.41150 0.86830 0.38299 0.03500
H 	H 	0.39110 0.85030 0.39480 0.01200
N 	N 	0.16530 0.76820 0.26203 -0.18300
C 	C 	0.12580 0.74410 0.27805 0.01100
H 	H 	0.08620 0.74720 0.27920 -0.01000
C 	C 	0.14420 0.71560 0.29238 -0.06300
H 	H 	0.11720 0.69910 0.30340 0.01400
C 	C 	0.20200 0.71110 0.29071 -0.03800
C 	C 	0.24150 0.73510 0.27469 -0.05300
H 	H 	0.28100 0.73210 0.27360 0.07700
C 	C 	0.22310 0.76370 0.26035 0.02000
H 	H 	0.25010 0.78010 0.24940 0.01000
Ag	Ag	0.66512 0.79499 0.73745 0.50700
O 	O 	0.92237 0.95603 0.67105 -0.48600
O 	O 	0.96977 0.92193 0.63815 -0.51400
C 	C 	0.86307 0.94953 0.66784 0.25500
C 	C 	0.02357 0.86773 0.65380 -0.47100
H 	H 	0.03057 0.83043 0.65333 0.15400
C 	C 	0.98557 0.87663 0.64007 0.36100
N 	N 	0.72947 0.84933 0.71425 -0.18300
C 	C 	0.70307 0.85283 0.69702 0.01500
H 	H 	0.65597 0.83423 0.69563 0.00900
C 	C 	0.74557 0.88353 0.68186 -0.06100
H 	H 	0.72747 0.88593 0.67013 0.02100
C 	C 	0.81447 0.91083 0.68393 -0.01800
C 	C 	0.06637 0.15913 0.70116 -0.04600
H 	H 	0.03787 0.11203 0.70263 0.05900
C 	C 	0.07817 0.20163 0.71632 0.00600
H 	H 	0.05777 0.18363 0.72813 0.00500
N 	N 	0.83197 0.10153 0.59536 -0.18900
C 	C 	0.79247 0.07743 0.61138 0.01200
H 	H 	0.75287 0.08053 0.61253 -0.01400
C 	C 	0.81087 0.04893 0.62571 -0.08600
H 	H 	0.78387 0.03243 0.63673 0.00900
C 	C 	0.86867 0.04443 0.62404 -0.01500
C 	C 	0.90817 0.06843 0.60802 -0.07600
H 	H 	0.94767 0.06543 0.60693 0.09100
C 	C 	0.88977 0.09703 0.59368 0.02300
H 	H 	0.91677 0.11343 0.58273 0.00900
Ag	Ag	0.33178 0.12833 0.07079 0.49400
O 	O 	0.58903 0.28937 0.00439 -0.53600
O 	O 	0.63643 0.25527 0.97149 -0.53700
C 	C 	0.52973 0.28287 0.00118 0.29300
C 	C 	0.69023 0.20107 0.98714 -0.40200
H 	H 	0.69723 0.16377 0.98667 0.14300
C 	C 	0.65223 0.20997 0.97341 0.29900
N 	N 	0.39613 0.18267 0.04759 -0.18500
C 	C 	0.36973 0.18617 0.03036 -0.00100
H 	H 	0.32263 0.16757 0.02897 0.00800
C 	C 	0.41223 0.21687 0.01520 -0.05100
H 	H 	0.39413 0.21927 0.00347 0.01000
C 	C 	0.48113 0.24417 0.01727 -0.04800
C 	C 	0.73303 0.49247 0.03450 -0.05200
H 	H 	0.70453 0.44537 0.03597 0.07800
C 	C 	0.74483 0.53497 0.04966 0.01700
H 	H 	0.72443 0.51697 0.06147 0.01100
N 	N 	0.49863 0.43487 0.92870 -0.18400
C 	C 	0.45913 0.41077 0.94472 0.01200
H 	H 	0.41953 0.41387 0.94587 -0.00500
C 	C 	0.47753 0.38227 0.95905 -0.06400
H 	H 	0.45053 0.36577 0.97007 0.01800
C 	C 	0.53533 0.37777 0.95738 -0.03800
C 	C 	0.57483 0.40177 0.94136 -0.05400
H 	H 	0.61433 0.39877 0.94027 0.07800
C 	C 	0.55643 0.43037 0.92702 0.02000
H 	H 	0.58343 0.44677 0.91607 0.00800
Ag	Ag	0.53834 0.53679 0.40412 0.50400
O 	O 	0.37730 0.63300 0.33772 -0.53500
O 	O 	0.41140 0.71450 0.30482 -0.53500
C 	C 	0.38380 0.58020 0.33451 0.29400
C 	C 	0.46560 0.82250 0.32047 -0.39600
H 	H 	0.50290 0.86680 0.32000 0.14800
C 	C 	0.45670 0.77560 0.30674 0.29900
N 	N 	0.48400 0.54680 0.38092 -0.18200
C 	C 	0.48050 0.51690 0.36369 0.00300
H 	H 	0.49910 0.48840 0.36230 0.00800
C 	C 	0.44980 0.52870 0.34853 -0.05000
H 	H 	0.44740 0.50820 0.33680 0.01100
C 	C 	0.42250 0.57030 0.35060 -0.04600
C 	C 	0.17420 0.57390 0.36783 -0.03500
H 	H 	0.22130 0.59250 0.36930 0.07100
C 	C 	0.13170 0.54320 0.38299 0.00100
H 	H 	0.14970 0.54080 0.39480 0.01000
N 	N 	0.23180 0.39710 0.26203 -0.18500
C 	C 	0.25590 0.38170 0.27805 0.01200
H 	H 	0.25280 0.33900 0.27920 -0.00500
C 	C 	0.28440 0.42860 0.29238 -0.06400
H 	H 	0.30090 0.41810 0.30340 0.01800
C 	C 	0.28890 0.49090 0.29071 -0.03800
C 	C 	0.26490 0.50640 0.27469 -0.05500
H 	H 	0.26790 0.54890 0.27360 0.07800
C 	C 	0.23630 0.45940 0.26035 0.01900
H 	H 	0.21990 0.47000 0.24940 0.00500
Ag	Ag	0.20501 0.87012 0.73745 0.50700
O 	O 	0.04397 0.96633 0.67105 -0.52400
O 	O 	0.07807 0.04783 0.63815 -0.57600
C 	C 	0.05047 0.91353 0.66784 0.31100
C 	C 	0.13227 0.15583 0.65380 -0.42200
H 	H 	0.16957 0.20013 0.65333 0.15200
C 	C 	0.12337 0.10893 0.64007 0.31100
N 	N 	0.15067 0.88013 0.71425 -0.18100
C 	C 	0.14717 0.85023 0.69702 0.00100
H 	H 	0.16577 0.82173 0.69563 0.00800
C 	C 	0.11647 0.86203 0.68186 -0.04700
H 	H 	0.11407 0.84153 0.67013 0.00800
C 	C 	0.08917 0.90363 0.68393 -0.05000
C 	C 	0.84087 0.90723 0.70116 -0.06300
H 	H 	0.88797 0.92583 0.70263 0.09400
C 	C 	0.79837 0.87653 0.71632 0.03100
H 	H 	0.81637 0.87413 0.72813 0.01200
N 	N 	0.89847 0.73043 0.59536 -0.18000
C 	C 	0.92257 0.71503 0.61138 0.01500
H 	H 	0.91947 0.67233 0.61253 0.00300
C 	C 	0.95107 0.76193 0.62571 -0.05200
H 	H 	0.96757 0.75143 0.63673 0.02800
C 	C 	0.95557 0.82423 0.62404 -0.04200
C 	C 	0.93157 0.83973 0.60802 -0.04500
H 	H 	0.93457 0.88223 0.60693 0.08600
C 	C 	0.90297 0.79273 0.59368 0.02400
H 	H 	0.88657 0.80333 0.58273 0.01000
Ag	Ag	0.87167 0.20346 0.07079 0.50900
O 	O 	0.71063 0.29967 0.00439 -0.53500
O 	O 	0.74473 0.38117 0.97149 -0.53500
C 	C 	0.71713 0.24687 0.00118 0.29400
C 	C 	0.79893 0.48917 0.98714 -0.40300
H 	H 	0.83623 0.53347 0.98667 0.14800
C 	C 	0.79003 0.44227 0.97341 0.30200
N 	N 	0.81733 0.21347 0.04759 -0.18200
C 	C 	0.81383 0.18357 0.03036 0.00300
H 	H 	0.83243 0.15507 0.02897 0.00700
C 	C 	0.78313 0.19537 0.01520 -0.05000
H 	H 	0.78073 0.17487 0.00347 0.01000
C 	C 	0.75583 0.23697 0.01727 -0.04500
C 	C 	0.50753 0.24057 0.03450 -0.05300
H 	H 	0.55463 0.25917 0.03597 0.07800
C 	C 	0.46503 0.20987 0.04966 0.01400
H 	H 	0.48303 0.20747 0.06147 0.00900
N 	N 	0.56513 0.06377 0.92870 -0.19100
C 	C 	0.58923 0.04837 0.94472 0.00400
H 	H 	0.58613 0.00567 0.94587 -0.02000
C 	C 	0.61773 0.09527 0.95905 -0.06800
H 	H 	0.63423 0.08477 0.97007 0.01200
C 	C 	0.62223 0.15757 0.95738 -0.04000
C 	C 	0.59823 0.17307 0.94136 -0.05600
H 	H 	0.60123 0.21557 0.94027 0.07800
C 	C 	0.56963 0.12607 0.92702 0.01500
H 	H 	0.55323 0.13667 0.91607 0.00300
Ag	Ag	0.46321 0.00155 0.40412 0.47400
O 	O 	0.36700 0.74430 0.33772 -0.53300
O 	O 	0.28550 0.69690 0.30482 -0.53600
C 	C 	0.41980 0.80360 0.33451 0.28400
C 	C 	0.17750 0.64310 0.32047 -0.40800
H 	H 	0.13320 0.63610 0.32000 0.14400
C 	C 	0.22440 0.68110 0.30674 0.30200
N 	N 	0.45320 0.93720 0.38092 -0.18900
C 	C 	0.48310 0.96360 0.36369 0.14600
H 	H 	0.51160 0.01070 0.36230 -0.08000
C 	C 	0.47130 0.92110 0.34853 -0.12200
H 	H 	0.49180 0.93920 0.33680 0.05300
C 	C 	0.42970 0.85220 0.35060 -0.00900
C 	C 	0.42610 0.60030 0.36783 -0.05200
H 	H 	0.40750 0.62880 0.36930 0.07800
C 	C 	0.45680 0.58850 0.38299 0.01600
H 	H 	0.45920 0.60890 0.39480 0.01200
N 	N 	0.60290 0.83470 0.26203 -0.18200
C 	C 	0.61830 0.87420 0.27805 0.01400
H 	H 	0.66100 0.91380 0.27920 0.00600
C 	C 	0.57140 0.85580 0.29238 -0.06300
H 	H 	0.58190 0.88280 0.30340 0.02500
C 	C 	0.50910 0.79800 0.29071 -0.03700
C 	C 	0.49360 0.75850 0.27469 -0.05500
H 	H 	0.45110 0.71900 0.27360 0.07800
C 	C 	0.54060 0.77690 0.26035 0.02000
H 	H 	0.53000 0.74990 0.24940 0.00700
Ag	Ag	0.12988 0.33488 0.73745 0.49900
O 	O 	0.03367 0.07763 0.67105 -0.57500
O 	O 	0.95217 0.03023 0.63815 -0.50700
C 	C 	0.08647 0.13693 0.66784 0.30400
C 	C 	0.84417 0.97643 0.65380 -0.28000
H 	H 	0.79987 0.96943 0.65333 0.12500
C 	C 	0.89107 0.01443 0.64007 0.20200
N 	N 	0.11987 0.27053 0.71425 -0.18300
C 	C 	0.14977 0.29693 0.69702 -0.00400
H 	H 	0.17827 0.34403 0.69563 0.01000
C 	C 	0.13797 0.25443 0.68186 -0.04500
H 	H 	0.15847 0.27253 0.67013 0.00800
C 	C 	0.09637 0.18553 0.68393 -0.06000
C 	C 	0.09277 0.93363 0.70116 -0.05000
H 	H 	0.07417 0.96213 0.70263 0.08700
C 	C 	0.12347 0.92183 0.71632 0.01700
H 	H 	0.12587 0.94223 0.72813 0.01900
N 	N 	0.26957 0.16803 0.59536 -0.18300
C 	C 	0.28497 0.20753 0.61138 0.00700
H 	H 	0.32767 0.24713 0.61253 -0.00200
C 	C 	0.23807 0.18913 0.62571 -0.05700
H 	H 	0.24857 0.21613 0.63673 0.01600
C 	C 	0.17577 0.13133 0.62404 -0.05200
C 	C 	0.16027 0.09183 0.60802 -0.04800
H 	H 	0.11777 0.05233 0.60693 0.05300
C 	C 	0.20727 0.11023 0.59368 0.00900
H 	H 	0.19667 0.08323 0.58273 -0.00100
Ag	Ag	0.79654 0.66822 0.07079 0.50500
O 	O 	0.70033 0.41097 0.00439 -0.53600
O 	O 	0.61883 0.36357 0.97149 -0.53600
C 	C 	0.75313 0.47027 0.00118 0.29400
C 	C 	0.51083 0.30977 0.98714 -0.40300
H 	H 	0.46653 0.30277 0.98667 0.14500
C 	C 	0.55773 0.34777 0.97341 0.30100
N 	N 	0.78653 0.60387 0.04759 -0.18200
C 	C 	0.81643 0.63027 0.03036 0.00500
H 	H 	0.84493 0.67737 0.02897 0.01000
C 	C 	0.80463 0.58777 0.01520 -0.04900
H 	H 	0.82513 0.60587 0.00347 0.01300
C 	C 	0.76303 0.51887 0.01727 -0.04500
C 	C 	0.75943 0.26697 0.03450 -0.05200
H 	H 	0.74083 0.29547 0.03597 0.07700
C 	C 	0.79013 0.25517 0.04966 0.01700
H 	H 	0.79253 0.27557 0.06147 0.01300
N 	N 	0.93623 0.50137 0.92870 -0.17800
C 	C 	0.95163 0.54087 0.94472 0.01800
H 	H 	0.99433 0.58047 0.94587 0.01000
C 	C 	0.90473 0.52247 0.95905 -0.06000
H 	H 	0.91523 0.54947 0.97007 0.02400
C 	C 	0.84243 0.46467 0.95738 -0.03600
C 	C 	0.82693 0.42517 0.94136 -0.05300
H 	H 	0.78443 0.38567 0.94027 0.07800
C 	C 	0.87393 0.44357 0.92702 0.02300
H 	H 	0.86333 0.41657 0.91607 0.01000
Ag	Ag	0.53834 0.00155 0.90412 0.47500
O 	O 	0.37730 0.74430 0.83772 -0.53300
O 	O 	0.41140 0.69690 0.80482 -0.53500
C 	C 	0.38380 0.80360 0.83451 0.28400
C 	C 	0.46560 0.64310 0.82047 -0.40300
H 	H 	0.50290 0.63610 0.82000 0.14600
C 	C 	0.45670 0.68110 0.80674 0.30100
N 	N 	0.48400 0.93720 0.88092 -0.18900
C 	C 	0.48050 0.96360 0.86369 0.14600
H 	H 	0.49910 0.01070 0.86230 -0.08000
C 	C 	0.44980 0.92110 0.84853 -0.12200
H 	H 	0.44740 0.93920 0.83680 0.05300
C 	C 	0.42250 0.85220 0.85060 -0.00900
C 	C 	0.17420 0.60030 0.86783 -0.03400
H 	H 	0.22130 0.62880 0.86930 0.07100
C 	C 	0.13170 0.58850 0.88299 0.00200
H 	H 	0.14970 0.60890 0.89480 0.01100
N 	N 	0.23180 0.83470 0.76203 -0.18300
C 	C 	0.25590 0.87420 0.77805 0.01300
H 	H 	0.25280 0.91380 0.77920 0.00500
C 	C 	0.28440 0.85580 0.79238 -0.06300
H 	H 	0.30090 0.88280 0.80340 0.02400
C 	C 	0.28890 0.79800 0.79071 -0.03700
C 	C 	0.26490 0.75850 0.77469 -0.05600
H 	H 	0.26790 0.71900 0.77360 0.07800
C 	C 	0.23630 0.77690 0.76035 0.01900
H 	H 	0.21990 0.74990 0.74940 0.00600
Ag	Ag	0.20501 0.33488 0.23745 0.50100
O 	O 	0.04397 0.07763 0.17105 -0.57800
O 	O 	0.07807 0.03023 0.13815 -0.54500
C 	C 	0.05047 0.13693 0.16784 0.32700
C 	C 	0.13227 0.97643 0.15380 -0.28700
H 	H 	0.16957 0.96943 0.15333 0.12900
C 	C 	0.12337 0.01443 0.14007 0.20500
N 	N 	0.15067 0.27053 0.21425 -0.18200
C 	C 	0.14717 0.29693 0.19702 -0.00800
H 	H 	0.16577 0.34403 0.19563 0.00900
C 	C 	0.11647 0.25443 0.18186 -0.04000
H 	H 	0.11407 0.27253 0.17013 0.00300
C 	C 	0.08917 0.18553 0.18393 -0.07000
C 	C 	0.84087 0.93363 0.20116 -0.05800
H 	H 	0.88797 0.96213 0.20263 0.09800
C 	C 	0.79837 0.92183 0.21632 0.02700
H 	H 	0.81637 0.94223 0.22813 0.01900
N 	N 	0.89847 0.16803 0.09536 -0.17900
C 	C 	0.92257 0.20753 0.11138 0.01000
H 	H 	0.91947 0.24713 0.11253 0.00500
C 	C 	0.95107 0.18913 0.12571 -0.04400
H 	H 	0.96757 0.21613 0.13673 0.02500
C 	C 	0.95557 0.13133 0.12404 -0.05900
C 	C 	0.93157 0.09183 0.10802 -0.03600
H 	H 	0.93457 0.05233 0.10693 0.06200
C 	C 	0.90297 0.11023 0.09368 0.01400
H 	H 	0.88657 0.08323 0.08273 0.00300
Ag	Ag	0.87167 0.66822 0.57079 0.51100
O 	O 	0.71063 0.41097 0.50439 -0.53500
O 	O 	0.74473 0.36357 0.47149 -0.53500
C 	C 	0.71713 0.47027 0.50118 0.29400
C 	C 	0.79893 0.30977 0.48714 -0.40300
H 	H 	0.83623 0.30277 0.48667 0.14800
C 	C 	0.79003 0.34777 0.47341 0.30200
N 	N 	0.81733 0.60387 0.54759 -0.18100
C 	C 	0.81383 0.63027 0.53036 0.00500
H 	H 	0.83243 0.67737 0.52897 0.01000
C 	C 	0.78313 0.58777 0.51520 -0.04900
H 	H 	0.78073 0.60587 0.50347 0.01300
C 	C 	0.75583 0.51887 0.51727 -0.04500
C 	C 	0.50753 0.26697 0.53450 -0.05200
H 	H 	0.55463 0.29547 0.53597 0.07800
C 	C 	0.46503 0.25517 0.54966 0.01500
H 	H 	0.48303 0.27557 0.56147 0.01100
N 	N 	0.56513 0.50137 0.42870 -0.18300
C 	C 	0.58923 0.54087 0.44472 0.01200
H 	H 	0.58613 0.58047 0.44587 -0.00200
C 	C 	0.61773 0.52247 0.45905 -0.06300
H 	H 	0.63423 0.54947 0.47007 0.01900
C 	C 	0.62223 0.46467 0.45738 -0.03800
C 	C 	0.59823 0.42517 0.44136 -0.05500
H 	H 	0.60123 0.38567 0.44027 0.07800
C 	C 	0.56963 0.44357 0.42702 0.01900
H 	H 	0.55323 0.41657 0.41607 0.00700
Ag	Ag	0.46321 0.46166 0.90412 0.50300
O 	O 	0.36700 0.62270 0.83772 -0.53600
O 	O 	0.28550 0.58860 0.80482 -0.53600
C 	C 	0.41980 0.61620 0.83451 0.29400
C 	C 	0.17750 0.53440 0.82047 -0.40700
H 	H 	0.13320 0.49710 0.82000 0.14400
C 	C 	0.22440 0.54330 0.80674 0.30200
N 	N 	0.45320 0.51600 0.88092 -0.18300
C 	C 	0.48310 0.51950 0.86369 0.00200
H 	H 	0.51160 0.50090 0.86230 0.00900
C 	C 	0.47130 0.55020 0.84853 -0.05000
H 	H 	0.49180 0.55260 0.83680 0.01100
C 	C 	0.42970 0.57750 0.85060 -0.04600
C 	C 	0.42610 0.82580 0.86783 -0.07600
H 	H 	0.40750 0.77870 0.86930 0.08600
C 	C 	0.45680 0.86830 0.88299 0.03500
H 	H 	0.45920 0.85030 0.89480 0.01200
N 	N 	0.60290 0.76820 0.76203 -0.18200
C 	C 	0.61830 0.74410 0.77805 0.01200
H 	H 	0.66100 0.74720 0.77920 -0.00300
C 	C 	0.57140 0.71560 0.79238 -0.06300
H 	H 	0.58190 0.69910 0.80340 0.01900
C 	C 	0.50910 0.71110 0.79071 -0.03700
C 	C 	0.49360 0.73510 0.77469 -0.05300
H 	H 	0.45110 0.73210 0.77360 0.07700
C 	C 	0.54060 0.76370 0.76035 0.02000
H 	H 	0.53000 0.78010 0.74940 0.01000
Ag	Ag	0.12988 0.79499 0.23745 0.50200
O 	O 	0.03367 0.95603 0.17105 -0.51900
O 	O 	0.95217 0.92193 0.13815 -0.49200
C 	C 	0.08647 0.94953 0.16784 0.26100
C 	C 	0.84417 0.86773 0.15380 -0.38100
H 	H 	0.79987 0.83043 0.15333 0.13900
C 	C 	0.89107 0.87663 0.14007 0.28800
N 	N 	0.11987 0.84933 0.21425 -0.18300
C 	C 	0.14977 0.85283 0.19702 0.01000
H 	H 	0.17827 0.83423 0.19563 0.00900
C 	C 	0.13797 0.88353 0.18186 -0.05800
H 	H 	0.15847 0.88593 0.17013 0.01900
C 	C 	0.09637 0.91083 0.18393 -0.02800
C 	C 	0.09277 0.15913 0.20116 -0.04300
H 	H 	0.07417 0.11203 0.20263 0.06200
C 	C 	0.12347 0.20163 0.21632 0.00300
H 	H 	0.12587 0.18363 0.22813 0.01100
N 	N 	0.26957 0.10153 0.09536 -0.18900
C 	C 	0.28497 0.07743 0.11138 0.00900
H 	H 	0.32767 0.08053 0.11253 -0.01300
C 	C 	0.23807 0.04893 0.12571 -0.08200
H 	H 	0.24857 0.03243 0.13673 0.00600
C 	C 	0.17577 0.04443 0.12404 -0.02600
C 	C 	0.16027 0.06843 0.10802 -0.07100
H 	H 	0.11777 0.06543 0.10693 0.07100
C 	C 	0.20727 0.09703 0.09368 0.01400
H 	H 	0.19667 0.11343 0.08273 0.00300
Ag	Ag	0.79654 0.12833 0.57079 0.49600
O 	O 	0.70033 0.28937 0.50439 -0.53600
O 	O 	0.61883 0.25527 0.47149 -0.53700
C 	C 	0.75313 0.28287 0.50118 0.29400
C 	C 	0.51083 0.20107 0.48714 -0.40200
H 	H 	0.46653 0.16377 0.48667 0.14300
C 	C 	0.55773 0.20997 0.47341 0.29900
N 	N 	0.78653 0.18267 0.54759 -0.18400
C 	C 	0.81643 0.18617 0.53036 0.00100
H 	H 	0.84493 0.16757 0.52897 0.01000
C 	C 	0.80463 0.21687 0.51520 -0.05000
H 	H 	0.82513 0.21927 0.50347 0.01200
C 	C 	0.76303 0.24417 0.51727 -0.04700
C 	C 	0.75943 0.49247 0.53450 -0.05200
H 	H 	0.74083 0.44537 0.53597 0.07700
C 	C 	0.79013 0.53497 0.54966 0.01800
H 	H 	0.79253 0.51697 0.56147 0.01200
N 	N 	0.93623 0.43487 0.42870 -0.17800
C 	C 	0.95163 0.41077 0.44472 0.01800
H 	H 	0.99433 0.41387 0.44587 0.00800
C 	C 	0.90473 0.38227 0.45905 -0.06000
H 	H 	0.91523 0.36577 0.47007 0.02400
C 	C 	0.84243 0.37777 0.45738 -0.03600
C 	C 	0.82693 0.40177 0.44136 -0.05300
H 	H 	0.78443 0.39877 0.44027 0.07800
C 	C 	0.87393 0.43037 0.42702 0.02300
H 	H 	0.86333 0.44677 0.41607 0.01000
Ag	Ag	0.99845 0.53679 0.90412 0.52600
O 	O 	0.25570 0.63300 0.83772 -0.53800
O 	O 	0.30310 0.71450 0.80482 -0.53600
C 	C 	0.19640 0.58020 0.83451 0.30200
C 	C 	0.35690 0.82250 0.82047 -0.39600
H 	H 	0.36390 0.86680 0.82000 0.14800
C 	C 	0.31890 0.77560 0.80674 0.29900
N 	N 	0.06280 0.54680 0.88092 -0.17800
C 	C 	0.03640 0.51690 0.86369 -0.10600
H 	H 	0.98930 0.48840 0.86230 0.07500
C 	C 	0.07890 0.52870 0.84853 0.00400
H 	H 	0.06080 0.50820 0.83680 -0.02000
C 	C 	0.14780 0.57030 0.85060 -0.07300
C 	C 	0.39970 0.57390 0.86783 -0.05300
H 	H 	0.37120 0.59250 0.86930 0.07700
C 	C 	0.41150 0.54320 0.88299 0.01600
H 	H 	0.39110 0.54080 0.89480 0.01100
N 	N 	0.16530 0.39710 0.76203 -0.18500
C 	C 	0.12580 0.38170 0.77805 0.01100
H 	H 	0.08620 0.33900 0.77920 -0.01200
C 	C 	0.14420 0.42860 0.79238 -0.06400
H 	H 	0.11720 0.41810 0.80340 0.01300
C 	C 	0.20200 0.49090 0.79071 -0.03900
C 	C 	0.24150 0.50640 0.77469 -0.05400
H 	H 	0.28100 0.54890 0.77360 0.07800
C 	C 	0.22310 0.45940 0.76035 0.01900
H 	H 	0.25010 0.47000 0.74940 0.00700
Ag	Ag	0.66512 0.87012 0.23745 0.50900
O 	O 	0.92237 0.96633 0.17105 -0.48900
O 	O 	0.96977 0.04783 0.13815 -0.56100
C 	C 	0.86307 0.91353 0.16784 0.28200
C 	C 	0.02357 0.15583 0.15380 -0.50500
H 	H 	0.03057 0.20013 0.15333 0.16400
C 	C 	0.98557 0.10893 0.14007 0.38300
N 	N 	0.72947 0.88013 0.21425 -0.18200
C 	C 	0.70307 0.85023 0.19702 0.01000
H 	H 	0.65597 0.82173 0.19563 0.00800
C 	C 	0.74557 0.86203 0.18186 -0.05500
H 	H 	0.72747 0.84153 0.17013 0.01500
C 	C 	0.81447 0.90363 0.18393 -0.03000
C 	C 	0.06637 0.90723 0.20116 -0.05800
H 	H 	0.03787 0.92583 0.20263 0.07900
C 	C 	0.07817 0.87653 0.21632 0.02400
H 	H 	0.05777 0.87413 0.22813 0.00600
N 	N 	0.83197 0.73043 0.09536 -0.18400
C 	C 	0.79247 0.71503 0.11138 0.01600
H 	H 	0.75287 0.67233 0.11253 -0.00500
C 	C 	0.81087 0.76193 0.12571 -0.06900
H 	H 	0.78387 0.75143 0.13673 0.02100
C 	C 	0.86867 0.82423 0.12404 -0.02400
C 	C 	0.90817 0.83973 0.10802 -0.06100
H 	H 	0.94767 0.88223 0.10693 0.09700
C 	C 	0.88977 0.79273 0.09368 0.02700
H 	H 	0.91677 0.80333 0.08273 0.01300
Ag	Ag	0.33178 0.20346 0.57079 0.50100
O 	O 	0.58903 0.29967 0.50439 -0.53500
O 	O 	0.63643 0.38117 0.47149 -0.53600
C 	C 	0.52973 0.24687 0.50118 0.29300
C 	C 	0.69023 0.48917 0.48714 -0.40200
H 	H 	0.69723 0.53347 0.48667 0.14600
C 	C 	0.65223 0.44227 0.47341 0.30100
N 	N 	0.39613 0.21347 0.54759 -0.18400
C 	C 	0.36973 0.18357 0.53036 0.00000
H 	H 	0.32263 0.15507 0.52897 0.00600
C 	C 	0.41223 0.19537 0.51520 -0.05100
H 	H 	0.39413 0.17487 0.50347 0.00900
C 	C 	0.48113 0.23697 0.51727 -0.04700
C 	C 	0.73303 0.24057 0.53450 -0.05300
H 	H 	0.70453 0.25917 0.53597 0.07800
C 	C 	0.74483 0.20987 0.54966 0.01500
H 	H 	0.72443 0.20747 0.56147 0.00900
N 	N 	0.49863 0.06377 0.42870 -0.19100
C 	C 	0.45913 0.04837 0.44472 0.00400
H 	H 	0.41953 0.00567 0.44587 -0.02100
C 	C 	0.47753 0.09527 0.45905 -0.06800
H 	H 	0.45053 0.08477 0.47007 0.01100
C 	C 	0.53533 0.15757 0.45738 -0.04000
C 	C 	0.57483 0.17307 0.44136 -0.05600
H 	H 	0.61433 0.21557 0.44027 0.07800
C 	C 	0.55643 0.12607 0.42702 0.01500
H 	H 	0.58343 0.13667 0.41607 0.00400
Ga	Ga	0.33333 0.66667 0.32136 2.08500
Ga	Ga	-0.00000 -0.00000 0.65469 2.06300
Ga	Ga	0.66667 0.33333 0.98803 2.08500
Ga	Ga	0.33333 0.66667 0.82136 2.08500
Ga	Ga	-0.00000 -0.00000 0.15469 2.06300
Ga	Ga	0.66667 0.33333 0.48803 2.08500
Ag	Ag	0.97115 0.48730 0.30178 0.51600
O 	O 	0.25780 0.63330 0.24325 -0.50100
O 	O 	0.29230 0.58950 0.21007 -0.52700
C 	C 	0.19420 0.62650 0.23656 0.23300
C 	C 	0.34920 0.53550 0.22059 -0.38400
H 	H 	0.36320 0.50440 0.21720 0.13900
C 	C 	0.30670 0.54110 0.20841 0.29900
N 	N 	0.04030 0.52650 0.27819 -0.18400
C 	C 	0.02910 0.55680 0.26281 -0.08800
H 	H 	0.98680 0.55400 0.26120 0.05900
C 	C 	0.08000 0.59120 0.24977 -0.02000
H 	H 	0.07240 0.61200 0.23930 0.00000
C 	C 	0.14200 0.59530 0.25212 -0.04100
C 	C 	0.41180 0.84690 0.26750 -0.09000
H 	H 	0.37230 0.80460 0.26910 0.08300
C 	C 	0.42830 0.89780 0.28053 0.04000
H 	H 	0.39990 0.89020 0.29110 0.00200
N 	N 	0.19590 0.77320 0.15967 -0.18500
C 	C 	0.14440 0.71600 0.16807 0.00600
H 	H 	0.10030 0.69550 0.16310 -0.01200
C 	C 	0.15750 0.68890 0.18385 -0.05400
H 	H 	0.12240 0.64980 0.18960 0.02000
C 	C 	0.22210 0.71900 0.19122 -0.07100
C 	C 	0.27360 0.77620 0.18281 -0.04000
H 	H 	0.31770 0.79670 0.18790 0.05700
C 	C 	0.26050 0.80330 0.16704 0.00400
H 	H 	0.29570 0.84230 0.16130 0.00200
Ag	Ag	0.63782 0.82063 0.63511 0.49900
O 	O 	0.92447 0.96663 0.57658 -0.44600
O 	O 	0.95897 0.92283 0.54340 -0.50900
C 	C 	0.86087 0.95983 0.56989 0.17000
C 	C 	0.01587 0.86883 0.55392 -0.48100
H 	H 	0.02987 0.83773 0.55053 0.16600
C 	C 	0.97337 0.87443 0.54174 0.39800
N 	N 	0.70697 0.85983 0.61152 -0.18900
C 	C 	0.69577 0.89013 0.59614 0.03600
H 	H 	0.65347 0.88733 0.59453 -0.00700
C 	C 	0.74667 0.92453 0.58310 -0.08900
H 	H 	0.73907 0.94533 0.57263 0.04600
C 	C 	0.80867 0.92863 0.58545 0.02600
C 	C 	0.07847 0.18023 0.60083 -0.06300
H 	H 	0.03897 0.13793 0.60243 0.05600
C 	C 	0.09497 0.23113 0.61386 0.01300
H 	H 	0.06657 0.22353 0.62443 -0.00800
N 	N 	0.86257 0.10653 0.49300 -0.20600
C 	C 	0.81107 0.04933 0.50140 0.09000
H 	H 	0.76697 0.02883 0.49643 -0.04900
C 	C 	0.82417 0.02223 0.51718 -0.24500
H 	H 	0.78907 0.98313 0.52293 0.13400
C 	C 	0.88877 0.05233 0.52455 0.04600
C 	C 	0.94027 0.10953 0.51614 -0.11400
H 	H 	0.98437 0.13003 0.52123 0.08800
C 	C 	0.92717 0.13663 0.50037 0.04200
H 	H 	0.96237 0.17563 0.49463 -0.01200
Ag	Ag	0.30448 0.15397 0.96845 0.48400
O 	O 	0.59113 0.29997 0.90992 -0.50000
O 	O 	0.62563 0.25617 0.87674 -0.52700
C 	C 	0.52753 0.29317 0.90323 0.22300
C 	C 	0.68253 0.20217 0.88726 -0.38300
H 	H 	0.69653 0.17107 0.88387 0.13700
C 	C 	0.64003 0.20777 0.87508 0.29800
N 	N 	0.37363 0.19317 0.94486 -0.19300
C 	C 	0.36243 0.22347 0.92948 0.01500
H 	H 	0.32013 0.22067 0.92787 -0.01900
C 	C 	0.41333 0.25787 0.91644 -0.07700
H 	H 	0.40573 0.27867 0.90597 0.02400
C 	C 	0.47533 0.26197 0.91879 -0.01600
C 	C 	0.74513 0.51357 0.93417 -0.06700
H 	H 	0.70563 0.47127 0.93577 0.07500
C 	C 	0.76163 0.56447 0.94720 0.02200
H 	H 	0.73323 0.55687 0.95777 0.00100
N 	N 	0.52923 0.43987 0.82634 -0.18500
C 	C 	0.47773 0.38267 0.83474 0.00600
H 	H 	0.43363 0.36217 0.82977 -0.00700
C 	C 	0.49083 0.35557 0.85052 -0.05300
H 	H 	0.45573 0.31647 0.85627 0.02200
C 	C 	0.55543 0.38567 0.85789 -0.07000
C 	C 	0.60693 0.44287 0.84948 -0.04200
H 	H 	0.65103 0.46337 0.85457 0.05500
C 	C 	0.59383 0.46997 0.83371 0.00300
H 	H 	0.62903 0.50897 0.82797 -0.00400
Ag	Ag	0.51270 0.48385 0.30178 0.49300
O 	O 	0.36670 0.62450 0.24325 -0.49900
O 	O 	0.41050 0.70280 0.21007 -0.52500
C 	C 	0.37350 0.56770 0.23656 0.22500
C 	C 	0.46450 0.81370 0.22059 -0.37600
H 	H 	0.49560 0.85880 0.21720 0.14000
C 	C 	0.45890 0.76560 0.20841 0.29800
N 	N 	0.47350 0.51380 0.27819 -0.18800
C 	C 	0.44320 0.47230 0.26281 0.01800
H 	H 	0.44600 0.43280 0.26120 -0.01300
C 	C 	0.40880 0.48880 0.24977 -0.07400
H 	H 	0.38800 0.46040 0.23930 0.02700
C 	C 	0.40470 0.54670 0.25212 -0.01500
C 	C 	0.15310 0.56490 0.26750 -0.05000
H 	H 	0.19540 0.56770 0.26910 0.06900
C 	C 	0.10220 0.53050 0.28053 0.00700
H 	H 	0.10980 0.50970 0.29110 -0.00200
N 	N 	0.22680 0.42270 0.15967 -0.18600
C 	C 	0.28400 0.42840 0.16807 0.00700
H 	H 	0.30450 0.40480 0.16310 -0.00400
C 	C 	0.31110 0.46860 0.18385 -0.05300
H 	H 	0.35020 0.47260 0.18960 0.02600
C 	C 	0.28100 0.50310 0.19122 -0.06900
C 	C 	0.22380 0.49740 0.18281 -0.04400
H 	H 	0.20330 0.52100 0.18790 0.05100
C 	C 	0.19670 0.45720 0.16704 0.00300
H 	H 	0.15770 0.45340 0.16130 -0.01200
Ag	Ag	0.17937 0.81718 0.63511 0.49500
O 	O 	0.03337 0.95783 0.57658 -0.49400
O 	O 	0.07717 0.03613 0.54340 -0.56700
C 	C 	0.04017 0.90103 0.56989 0.26200
C 	C 	0.13117 0.14703 0.55392 -0.40400
H 	H 	0.16227 0.19213 0.55053 0.14100
C 	C 	0.12557 0.09893 0.54174 0.30900
N 	N 	0.14017 0.84713 0.61152 -0.18600
C 	C 	0.10987 0.80563 0.59614 0.01100
H 	H 	0.11267 0.76613 0.59453 -0.01400
C 	C 	0.07547 0.82213 0.58310 -0.06600
H 	H 	0.05467 0.79373 0.57263 0.01600
C 	C 	0.07137 0.88003 0.58545 -0.03200
C 	C 	0.81977 0.89823 0.60083 -0.08200
H 	H 	0.86207 0.90103 0.60243 0.08800
C 	C 	0.76887 0.86383 0.61386 0.03700
H 	H 	0.77647 0.84303 0.62443 -0.00300
N 	N 	0.89347 0.75603 0.49300 -0.16700
C 	C 	0.95067 0.76173 0.50140 -0.04500
H 	H 	0.97117 0.73813 0.49643 0.03100
C 	C 	0.97777 0.80193 0.51718 0.08500
H 	H 	0.01687 0.80593 0.52293 -0.04700
C 	C 	0.94767 0.83643 0.52455 -0.13600
C 	C 	0.89047 0.83073 0.51614 0.00700
H 	H 	0.86997 0.85433 0.52123 0.04600
C 	C 	0.86337 0.79053 0.50037 -0.01400
H 	H 	0.82437 0.78673 0.49463 0.00700
Ag	Ag	0.84603 0.15052 0.96845 0.49400
O 	O 	0.70003 0.29117 0.90992 -0.49900
O 	O 	0.74383 0.36947 0.87674 -0.52600
C 	C 	0.70683 0.23437 0.90323 0.22500
C 	C 	0.79783 0.48037 0.88726 -0.38500
H 	H 	0.82893 0.52547 0.88387 0.14200
C 	C 	0.79223 0.43227 0.87508 0.30200
N 	N 	0.80683 0.18047 0.94486 -0.18800
C 	C 	0.77653 0.13897 0.92948 0.01900
H 	H 	0.77933 0.09947 0.92787 -0.01700
C 	C 	0.74213 0.15547 0.91644 -0.07400
H 	H 	0.72133 0.12707 0.90597 0.02300
C 	C 	0.73803 0.21337 0.91879 -0.01400
C 	C 	0.48643 0.23157 0.93417 -0.07000
H 	H 	0.52873 0.23437 0.93577 0.07400
C 	C 	0.43553 0.19717 0.94720 0.01800
H 	H 	0.44313 0.17637 0.95777 -0.00600
N 	N 	0.56013 0.08937 0.82634 -0.19200
C 	C 	0.61733 0.09507 0.83474 0.00300
H 	H 	0.63783 0.07147 0.82977 -0.01600
C 	C 	0.64443 0.13527 0.85052 -0.05600
H 	H 	0.68353 0.13927 0.85627 0.02300
C 	C 	0.61433 0.16977 0.85789 -0.06900
C 	C 	0.55713 0.16407 0.84948 -0.04500
H 	H 	0.53663 0.18767 0.85457 0.05000
C 	C 	0.53003 0.12387 0.83371 0.00000
H 	H 	0.49103 0.12007 0.82797 -0.01600
Ag	Ag	0.51615 0.02885 0.30178 0.46300
O 	O 	0.37550 0.74220 0.24325 -0.49800
O 	O 	0.29720 0.70770 0.21007 -0.52600
C 	C 	0.43230 0.80580 0.23656 0.21500
C 	C 	0.18630 0.65080 0.22059 -0.39000
H 	H 	0.14120 0.63680 0.21720 0.13800
C 	C 	0.23440 0.69330 0.20841 0.30200
N 	N 	0.48620 0.95970 0.27819 -0.19500
C 	C 	0.52770 0.97090 0.26281 0.15900
H 	H 	0.56720 0.01320 0.26120 -0.10500
C 	C 	0.51120 0.92000 0.24977 -0.14600
H 	H 	0.53960 0.92760 0.23930 0.06200
C 	C 	0.45330 0.85800 0.25212 0.02000
C 	C 	0.43510 0.58820 0.26750 -0.06700
H 	H 	0.43230 0.62770 0.26910 0.07500
C 	C 	0.46950 0.57170 0.28053 0.02100
H 	H 	0.49030 0.60010 0.29110 0.00000
N 	N 	0.57730 0.80410 0.15967 -0.18300
C 	C 	0.57160 0.85560 0.16807 0.01000
H 	H 	0.59520 0.89970 0.16310 0.00600
C 	C 	0.53140 0.84250 0.18385 -0.05200
H 	H 	0.52740 0.87760 0.18960 0.03300
C 	C 	0.49690 0.77790 0.19122 -0.06600
C 	C 	0.50260 0.72640 0.18281 -0.04300
H 	H 	0.47900 0.68230 0.18790 0.05400
C 	C 	0.54280 0.73950 0.16704 0.00500
H 	H 	0.54660 0.70430 0.16130 -0.00600
Ag	Ag	0.18282 0.36218 0.63511 0.49000
O 	O 	0.04217 0.07553 0.57658 -0.53800
O 	O 	0.96387 0.04103 0.54340 -0.48900
C 	C 	0.09897 0.13913 0.56989 0.22900
C 	C 	0.85297 0.98413 0.55392 -0.22200
H 	H 	0.80787 0.97013 0.55053 0.09800
C 	C 	0.90107 0.02663 0.54174 0.15300
N 	N 	0.15287 0.29303 0.61152 -0.18900
C 	C 	0.19437 0.30423 0.59614 0.01300
H 	H 	0.23387 0.34653 0.59453 -0.01200
C 	C 	0.17787 0.25333 0.58310 -0.07100
H 	H 	0.20627 0.26093 0.57263 0.02400
C 	C 	0.11997 0.19133 0.58545 -0.02600
C 	C 	0.10177 0.92153 0.60083 -0.06000
H 	H 	0.09897 0.96103 0.60243 0.08800
C 	C 	0.13617 0.90503 0.61386 0.02000
H 	H 	0.15697 0.93343 0.62443 0.01300
N 	N 	0.24397 0.13743 0.49300 -0.18700
C 	C 	0.23827 0.18893 0.50140 -0.00200
H 	H 	0.26187 0.23303 0.49643 -0.00600
C 	C 	0.19807 0.17583 0.51718 -0.04900
H 	H 	0.19407 0.21093 0.52293 0.01800
C 	C 	0.16357 0.11123 0.52455 -0.08700
C 	C 	0.16927 0.05973 0.51614 -0.04000
H 	H 	0.14567 0.01563 0.52123 0.03200
C 	C 	0.20947 0.07283 0.50037 -0.00800
H 	H 	0.21327 0.03763 0.49463 -0.01900
Ag	Ag	0.84948 0.69552 0.96845 0.50100
O 	O 	0.70883 0.40887 0.90992 -0.49900
O 	O 	0.63053 0.37437 0.87674 -0.52600
C 	C 	0.76563 0.47247 0.90323 0.22700
C 	C 	0.51963 0.31747 0.88726 -0.38300
H 	H 	0.47453 0.30347 0.88387 0.13600
C 	C 	0.56773 0.35997 0.87508 0.29900
N 	N 	0.81953 0.62637 0.94486 -0.18600
C 	C 	0.86103 0.63757 0.92948 0.02000
H 	H 	0.90053 0.67987 0.92787 -0.00200
C 	C 	0.84453 0.58667 0.91644 -0.07200
H 	H 	0.87293 0.59427 0.90597 0.03200
C 	C 	0.78663 0.52467 0.91879 -0.01500
C 	C 	0.76843 0.25487 0.93417 -0.06600
H 	H 	0.76563 0.29437 0.93577 0.07600
C 	C 	0.80283 0.23837 0.94720 0.02300
H 	H 	0.82363 0.26677 0.95777 0.00300
N 	N 	0.91063 0.47077 0.82634 -0.18000
C 	C 	0.90493 0.52227 0.83474 0.01100
H 	H 	0.92853 0.56637 0.82977 0.00600
C 	C 	0.86473 0.50917 0.85052 -0.05100
H 	H 	0.86073 0.54427 0.85627 0.03000
C 	C 	0.83023 0.44457 0.85789 -0.06900
C 	C 	0.83593 0.39307 0.84948 -0.04100
H 	H 	0.81233 0.34897 0.85457 0.05500
C 	C 	0.87613 0.40617 0.83371 0.00600
H 	H 	0.87993 0.37097 0.82797 -0.00100
Ag	Ag	0.51270 0.02885 0.80178 0.46300
O 	O 	0.36670 0.74220 0.74325 -0.49800
O 	O 	0.41050 0.70770 0.71007 -0.52500
C 	C 	0.37350 0.80580 0.73656 0.21500
C 	C 	0.46450 0.65080 0.72059 -0.38400
H 	H 	0.49560 0.63680 0.71720 0.13900
C 	C 	0.45890 0.69330 0.70841 0.30100
N 	N 	0.47350 0.95970 0.77819 -0.19500
C 	C 	0.44320 0.97090 0.76281 0.16100
H 	H 	0.44600 0.01320 0.76120 -0.10700
C 	C 	0.40880 0.92000 0.74977 -0.14700
H 	H 	0.38800 0.92760 0.73930 0.06300
C 	C 	0.40470 0.85800 0.75212 0.02100
C 	C 	0.15310 0.58820 0.76750 -0.05000
H 	H 	0.19540 0.62770 0.76910 0.06900
C 	C 	0.10220 0.57170 0.78053 0.00700
H 	H 	0.10980 0.60010 0.79110 -0.00200
N 	N 	0.22680 0.80410 0.65967 -0.18400
C 	C 	0.28400 0.85560 0.66807 0.01000
H 	H 	0.30450 0.89970 0.66310 0.00700
C 	C 	0.31110 0.84250 0.68385 -0.05200
H 	H 	0.35020 0.87760 0.68960 0.03300
C 	C 	0.28100 0.77790 0.69122 -0.06700
C 	C 	0.22380 0.72640 0.68281 -0.04500
H 	H 	0.20330 0.68230 0.68790 0.05200
C 	C 	0.19670 0.73950 0.66704 0.00400
H 	H 	0.15770 0.70430 0.66130 -0.01200
Ag	Ag	0.17937 0.36218 0.13511 0.48900
O 	O 	0.03337 0.07553 0.07658 -0.54500
O 	O 	0.07717 0.04103 0.04340 -0.52700
C 	C 	0.04017 0.13913 0.06989 0.27100
C 	C 	0.13117 0.98413 0.05392 -0.22600
H 	H 	0.16227 0.97013 0.05053 0.09700
C 	C 	0.12557 0.02663 0.04174 0.15000
N 	N 	0.14017 0.29303 0.11152 -0.18800
C 	C 	0.10987 0.30423 0.09614 0.00300
H 	H 	0.11267 0.34653 0.09453 -0.01500
C 	C 	0.07547 0.25333 0.08310 -0.06100
H 	H 	0.05467 0.26093 0.07263 0.01100
C 	C 	0.07137 0.19133 0.08545 -0.04900
C 	C 	0.81977 0.92153 0.10083 -0.07100
H 	H 	0.86207 0.96103 0.10243 0.09600
C 	C 	0.76887 0.90503 0.11386 0.03100
H 	H 	0.77647 0.93343 0.12443 0.01000
N 	N 	0.89347 0.13743 0.99300 -0.16800
C 	C 	0.95067 0.18893 0.00140 -0.06200
H 	H 	0.97117 0.23303 0.99643 0.03200
C 	C 	0.97777 0.17583 0.01718 0.10500
H 	H 	0.01687 0.21093 0.02293 -0.06400
C 	C 	0.94767 0.11123 0.02455 -0.16600
C 	C 	0.89047 0.05973 0.01614 0.01600
H 	H 	0.86997 0.01563 0.02123 0.02100
C 	C 	0.86337 0.07283 0.00037 -0.03000
H 	H 	0.82437 0.03763 0.99463 -0.00500
Ag	Ag	0.84603 0.69552 0.46845 0.50200
O 	O 	0.70003 0.40887 0.40992 -0.49900
O 	O 	0.74383 0.37437 0.37674 -0.52600
C 	C 	0.70683 0.47247 0.40323 0.22700
C 	C 	0.79783 0.31747 0.38726 -0.38400
H 	H 	0.82893 0.30347 0.38387 0.13900
C 	C 	0.79223 0.35997 0.37508 0.30100
N 	N 	0.80683 0.62637 0.44486 -0.18400
C 	C 	0.77653 0.63757 0.42948 0.02100
H 	H 	0.77933 0.67987 0.42787 -0.00500
C 	C 	0.74213 0.58667 0.41644 -0.07100
H 	H 	0.72133 0.59427 0.40597 0.02900
C 	C 	0.73803 0.52467 0.41879 -0.01400
C 	C 	0.48643 0.25487 0.43417 -0.06800
H 	H 	0.52873 0.29437 0.43577 0.07500
C 	C 	0.43553 0.23837 0.44720 0.02000
H 	H 	0.44313 0.26677 0.45777 -0.00100
N 	N 	0.56013 0.47077 0.32634 -0.18500
C 	C 	0.61733 0.52227 0.33474 0.00800
H 	H 	0.63783 0.56637 0.32977 -0.00200
C 	C 	0.64443 0.50917 0.35052 -0.05300
H 	H 	0.68353 0.54427 0.35627 0.02800
C 	C 	0.61433 0.44457 0.35789 -0.06900
C 	C 	0.55713 0.39307 0.34948 -0.04300
H 	H 	0.53663 0.34897 0.35457 0.05200
C 	C 	0.53003 0.40617 0.33371 0.00400
H 	H 	0.49103 0.37097 0.32797 -0.00900
Ag	Ag	0.51615 0.48730 0.80178 0.49300
O 	O 	0.37550 0.63330 0.74325 -0.49900
O 	O 	0.29720 0.58950 0.71007 -0.52700
C 	C 	0.43230 0.62650 0.73656 0.22500
C 	C 	0.18630 0.53550 0.72059 -0.39000
H 	H 	0.14120 0.50440 0.71720 0.13800
C 	C 	0.23440 0.54110 0.70841 0.30100
N 	N 	0.48620 0.52650 0.77819 -0.18900
C 	C 	0.52770 0.55680 0.76281 0.01800
H 	H 	0.56720 0.55400 0.76120 -0.01100
C 	C 	0.51120 0.59120 0.74977 -0.07400
H 	H 	0.53960 0.61200 0.73930 0.02700
C 	C 	0.45330 0.59530 0.75212 -0.01500
C 	C 	0.43510 0.84690 0.76750 -0.09100
H 	H 	0.43230 0.80460 0.76910 0.08400
C 	C 	0.46950 0.89780 0.78053 0.04000
H 	H 	0.49030 0.89020 0.79110 0.00200
N 	N 	0.57730 0.77320 0.65967 -0.18300
C 	C 	0.57160 0.71600 0.66807 0.00700
H 	H 	0.59520 0.69550 0.66310 -0.00400
C 	C 	0.53140 0.68890 0.68385 -0.05300
H 	H 	0.52740 0.64980 0.68960 0.02500
C 	C 	0.49690 0.71900 0.69122 -0.06900
C 	C 	0.50260 0.77620 0.68281 -0.04100
H 	H 	0.47900 0.79670 0.68790 0.05700
C 	C 	0.54280 0.80330 0.66704 0.00500
H 	H 	0.54660 0.84230 0.66130 0.00200
Ag	Ag	0.18282 0.82063 0.13511 0.49600
O 	O 	0.04217 0.96663 0.07658 -0.47700
O 	O 	0.96387 0.92283 0.04340 -0.48100
C 	C 	0.09897 0.95983 0.06989 0.17000
C 	C 	0.85297 0.86883 0.05392 -0.36100
H 	H 	0.80787 0.83773 0.05053 0.13600
C 	C 	0.90107 0.87443 0.04174 0.28900
N 	N 	0.15287 0.85983 0.11152 -0.19000
C 	C 	0.19437 0.89013 0.09614 0.03200
H 	H 	0.23387 0.88733 0.09453 -0.00800
C 	C 	0.17787 0.92453 0.08310 -0.08800
H 	H 	0.20627 0.94533 0.07263 0.04500
C 	C 	0.11997 0.92863 0.08545 0.01900
C 	C 	0.10177 0.18023 0.10083 -0.05400
H 	H 	0.09897 0.13793 0.10243 0.06300
C 	C 	0.13617 0.23113 0.11386 0.00800
H 	H 	0.15697 0.22353 0.12443 0.00200
N 	N 	0.24397 0.10653 0.99300 -0.21000
C 	C 	0.23827 0.04933 0.00140 0.08800
H 	H 	0.26187 0.02883 0.99643 -0.05300
C 	C 	0.19807 0.02223 0.01718 -0.25500
H 	H 	0.19407 0.98313 0.02293 0.13500
C 	C 	0.16357 0.05233 0.02455 0.03800
C 	C 	0.16927 0.10953 0.01614 -0.11600
H 	H 	0.14567 0.13003 0.02123 0.07100
C 	C 	0.20947 0.13663 0.00037 0.03400
H 	H 	0.21327 0.17563 0.99463 -0.02300
Ag	Ag	0.84948 0.15397 0.46845 0.49100
O 	O 	0.70883 0.29997 0.40992 -0.50000
O 	O 	0.63053 0.25617 0.37674 -0.52700
C 	C 	0.76563 0.29317 0.40323 0.22400
C 	C 	0.51963 0.20217 0.38726 -0.38300
H 	H 	0.47453 0.17107 0.38387 0.13400
C 	C 	0.56773 0.20777 0.37508 0.29700
N 	N 	0.81953 0.19317 0.44486 -0.19000
C 	C 	0.86103 0.22347 0.42948 0.01700
H 	H 	0.90053 0.22067 0.42787 -0.00900
C 	C 	0.84453 0.25787 0.41644 -0.07500
H 	H 	0.87293 0.27867 0.40597 0.02900
C 	C 	0.78663 0.26197 0.41879 -0.01500
C 	C 	0.76843 0.51357 0.43417 -0.06500
H 	H 	0.76563 0.47127 0.43577 0.07500
C 	C 	0.80283 0.56447 0.44720 0.02400
H 	H 	0.82363 0.55687 0.45777 0.00400
N 	N 	0.91063 0.43987 0.32634 -0.18000
C 	C 	0.90493 0.38267 0.33474 0.01000
H 	H 	0.92853 0.36217 0.32977 0.00400
C 	C 	0.86473 0.35557 0.35052 -0.05100
H 	H 	0.86073 0.31647 0.35627 0.02700
C 	C 	0.83023 0.38567 0.35789 -0.06900
C 	C 	0.83593 0.44287 0.34948 -0.04100
H 	H 	0.81233 0.46337 0.35457 0.05600
C 	C 	0.87613 0.46997 0.33371 0.00600
H 	H 	0.87993 0.50897 0.32797 0.00100
Ag	Ag	0.97115 0.48385 0.80178 0.51600
O 	O 	0.25780 0.62450 0.74325 -0.50100
O 	O 	0.29230 0.70280 0.71007 -0.52600
C 	C 	0.19420 0.56770 0.73656 0.23300
C 	C 	0.34920 0.81370 0.72059 -0.37600
H 	H 	0.36320 0.85880 0.71720 0.14000
C 	C 	0.30670 0.76560 0.70841 0.29700
N 	N 	0.04030 0.51380 0.77819 -0.18400
C 	C 	0.02910 0.47230 0.76281 -0.09000
H 	H 	0.98680 0.43280 0.76120 0.05900
C 	C 	0.08000 0.48880 0.74977 -0.01900
H 	H 	0.07240 0.46040 0.73930 -0.00100
C 	C 	0.14200 0.54670 0.75212 -0.04200
C 	C 	0.41180 0.56490 0.76750 -0.06800
H 	H 	0.37230 0.56770 0.76910 0.07500
C 	C 	0.42830 0.53050 0.78053 0.02100
H 	H 	0.39990 0.50970 0.79110 -0.00100
N 	N 	0.19590 0.42270 0.65967 -0.18600
C 	C 	0.14440 0.42840 0.66807 0.00500
H 	H 	0.10030 0.40480 0.66310 -0.01200
C 	C 	0.15750 0.46860 0.68385 -0.05400
H 	H 	0.12240 0.47260 0.68960 0.02000
C 	C 	0.22210 0.50310 0.69122 -0.07100
C 	C 	0.27360 0.49740 0.68281 -0.04200
H 	H 	0.31770 0.52100 0.68790 0.05400
C 	C 	0.26050 0.45720 0.66704 0.00300
H 	H 	0.29570 0.45340 0.66130 -0.00600
Ag	Ag	0.63782 0.81718 0.13511 0.49800
O 	O 	0.92447 0.95783 0.07658 -0.45500
O 	O 	0.95897 0.03613 0.04340 -0.55700
C 	C 	0.86087 0.90103 0.06989 0.22100
C 	C 	0.01587 0.14703 0.05392 -0.51900
H 	H 	0.02987 0.19213 0.05053 0.17300
C 	C 	0.97337 0.09893 0.04174 0.42100
N 	N 	0.70697 0.84713 0.11152 -0.18700
C 	C 	0.69577 0.80563 0.09614 0.02400
H 	H 	0.65347 0.76613 0.09453 -0.01100
C 	C 	0.74667 0.82213 0.08310 -0.07700
H 	H 	0.73907 0.79373 0.07263 0.03000
C 	C 	0.80867 0.88003 0.08545 -0.00300
C 	C 	0.07847 0.89823 0.10083 -0.08000
H 	H 	0.03897 0.90103 0.10243 0.07200
C 	C 	0.09497 0.86383 0.11386 0.03100
H 	H 	0.06657 0.84303 0.12443 -0.01100
N 	N 	0.86257 0.75603 0.99300 -0.18300
C 	C 	0.81107 0.76173 0.00140 0.01600
H 	H 	0.76697 0.73813 0.99643 -0.00200
C 	C 	0.82417 0.80193 0.01718 -0.05800
H 	H 	0.78907 0.80593 0.02293 0.03400
C 	C 	0.88877 0.83643 0.02455 -0.05000
C 	C 	0.94027 0.83073 0.01614 -0.04600
H 	H 	0.98437 0.85433 0.02123 0.07300
C 	C 	0.92717 0.79053 0.00037 0.01500
H 	H 	0.96237 0.78673 0.99463 0.00500
Ag	Ag	0.30448 0.15052 0.46845 0.48500
O 	O 	0.59113 0.29117 0.40992 -0.49900
O 	O 	0.62563 0.36947 0.37674 -0.52600
C 	C 	0.52753 0.23437 0.40323 0.22300
C 	C 	0.68253 0.48037 0.38726 -0.38500
H 	H 	0.69653 0.52547 0.38387 0.14100
C 	C 	0.64003 0.43227 0.37508 0.30100
N 	N 	0.37363 0.18047 0.44486 -0.19200
C 	C 	0.36243 0.13897 0.42948 0.01600
H 	H 	0.32013 0.09947 0.42787 -0.02400
C 	C 	0.41333 0.15547 0.41644 -0.07600
H 	H 	0.40573 0.12707 0.40597 0.02100
C 	C 	0.47533 0.21337 0.41879 -0.01500
C 	C 	0.74513 0.23157 0.43417 -0.07000
H 	H 	0.70563 0.23437 0.43577 0.07400
C 	C 	0.76163 0.19717 0.44720 0.01900
H 	H 	0.73323 0.17637 0.45777 -0.00500
N 	N 	0.52923 0.08937 0.32634 -0.19200
C 	C 	0.47773 0.09507 0.33474 0.00200
H 	H 	0.43363 0.07147 0.32977 -0.01800
C 	C 	0.49083 0.13527 0.35052 -0.05600
H 	H 	0.45573 0.13927 0.35627 0.02000
C 	C 	0.55543 0.16977 0.35789 -0.07000
C 	C 	0.60693 0.16407 0.34948 -0.04500
H 	H 	0.65103 0.18767 0.35457 0.05100
C 	C 	0.59383 0.12387 0.33371 0.00000
H 	H 	0.62903 0.12007 0.32797 -0.01400
Ga	Ga	0.33333 0.66667 0.22681 2.08900
Ga	Ga	-0.00000 -0.00000 0.56014 2.06700
Ga	Ga	0.66667 0.33333 0.89348 2.08900
Ga	Ga	0.33333 0.66667 0.72681 2.08900
Ga	Ga	-0.00000 -0.00000 0.06014 2.06700
Ga	Ga	0.66667 0.33333 0.39348 2.08900
