data_crystal

_cell_length_a 22.45620
_cell_length_b 22.45620
_cell_length_c 72.14810
_cell_angle_alpha 90.00000
_cell_angle_beta  90.00000
_cell_angle_gamma 120.00000

_symmetry_space_group_name_	'P 1'
_symmetry_space_group_name_H-M	'P 1'

loop_
_symmetry_equiv_pos_as_xyz
  x,y,z

loop_
_atom_site_label
_atom_site_type_symbol
_atom_site_fract_x
_atom_site_fract_y
_atom_site_fract_z
_atom_site_charge
Ag	Ag	0.36355 0.18762 0.98171 0.48600
O 	O 	0.59043 0.29874 0.90561 -0.63800
C 	C 	0.54360 0.23740 0.90761 0.37100
O 	O 	0.74545 0.36618 0.87498 -0.60700
C 	C 	0.81630 0.34590 0.89580 -0.43900
H 	H 	0.86170 0.35610 0.89880 0.16800
C 	C 	0.80320 0.37110 0.87933 0.32900
C 	C 	0.50110 0.21990 0.92541 -0.07000
C 	C 	0.52680 0.26530 0.93955 -0.05300
H 	H 	0.73760 0.43070 0.93830 0.06000
C 	C 	0.48910 0.24930 0.95617 0.01100
H 	H 	0.76240 0.48920 0.96730 -0.00900
N 	N 	0.42190 0.19970 0.95645 -0.20200
C 	C 	0.75510 0.59850 0.94372 0.05400
H 	H 	0.75580 0.64080 0.94550 -0.01700
C 	C 	0.72900 0.56380 0.92703 -0.07600
H 	H 	0.71870 0.58480 0.91710 0.02800
C 	C 	0.55010 0.14270 0.86505 -0.10300
C 	C 	0.50170 0.07330 0.86869 0.02500
H 	H 	0.48070 0.05920 0.88060 -0.01700
C 	C 	0.48590 0.02710 0.85459 -0.14900
H 	H 	0.45600 0.97990 0.85740 0.09900
N 	N 	0.50900 0.04260 0.83712 -0.18800
C 	C 	0.55350 0.10670 0.83383 0.01500
H 	H 	0.57430 0.11920 0.82200 -0.00500
C 	C 	0.57190 0.15790 0.84720 -0.02700
H 	H 	0.60030 0.20470 0.84380 0.06900
Ag	Ag	0.03022 0.52095 0.31504 0.46600
O 	O 	0.25710 0.63207 0.23894 -0.63700
C 	C 	0.21027 0.57073 0.24094 0.36500
O 	O 	0.41212 0.69951 0.20831 -0.60900
C 	C 	0.48297 0.67923 0.22913 -0.44600
H 	H 	0.52837 0.68943 0.23213 0.17000
C 	C 	0.46987 0.70443 0.21266 0.34300
C 	C 	0.16777 0.55323 0.25874 -0.07000
C 	C 	0.19347 0.59863 0.27288 -0.05500
H 	H 	0.40427 0.76403 0.27163 0.06000
C 	C 	0.15577 0.58263 0.28950 0.01000
H 	H 	0.42907 0.82253 0.30063 -0.00700
N 	N 	0.08857 0.53303 0.28978 -0.20700
C 	C 	0.42177 0.93183 0.27705 0.06100
H 	H 	0.42247 0.97413 0.27883 0.00400
C 	C 	0.39567 0.89713 0.26036 -0.06900
H 	H 	0.38537 0.91813 0.25043 0.04000
C 	C 	0.21677 0.47603 0.19838 -0.05800
C 	C 	0.16837 0.40663 0.20202 -0.07000
H 	H 	0.14737 0.39253 0.21393 0.02300
C 	C 	0.15257 0.36043 0.18792 0.02700
H 	H 	0.12267 0.31323 0.19073 -0.02900
N 	N 	0.17567 0.37593 0.17045 -0.20400
C 	C 	0.22017 0.44003 0.16716 0.03700
H 	H 	0.24097 0.45253 0.15533 -0.00400
C 	C 	0.23857 0.49123 0.18053 -0.06000
H 	H 	0.26697 0.53803 0.17713 0.08000
Ag	Ag	0.69688 0.85429 0.64838 0.50500
O 	O 	0.92376 0.96541 0.57228 -0.58100
C 	C 	0.87693 0.90407 0.57428 0.35300
O 	O 	0.07878 0.03285 0.54165 -0.66900
C 	C 	0.14963 0.01257 0.56247 -0.60500
H 	H 	0.19503 0.02277 0.56547 0.19200
C 	C 	0.13653 0.03777 0.54600 0.38900
C 	C 	0.83443 0.88657 0.59208 -0.04300
C 	C 	0.86013 0.93197 0.60622 -0.05900
H 	H 	0.07093 0.09737 0.60497 0.03900
C 	C 	0.82243 0.91597 0.62284 0.03200
H 	H 	0.09573 0.15587 0.63397 -0.03100
N 	N 	0.75523 0.86637 0.62312 -0.19800
C 	C 	0.08843 0.26517 0.61039 0.05200
H 	H 	0.08913 0.30747 0.61217 -0.02700
C 	C 	0.06233 0.23047 0.59370 -0.09600
H 	H 	0.05203 0.25147 0.58377 0.01900
C 	C 	0.88343 0.80937 0.53172 -0.03700
C 	C 	0.83503 0.73997 0.53536 -0.07300
H 	H 	0.81403 0.72587 0.54727 0.03700
C 	C 	0.81923 0.69377 0.52126 0.03800
H 	H 	0.78933 0.64657 0.52407 -0.01500
N 	N 	0.84233 0.70927 0.50379 -0.20000
C 	C 	0.88683 0.77337 0.50050 0.04900
H 	H 	0.90763 0.78587 0.48867 0.00300
C 	C 	0.90523 0.82457 0.51387 -0.06700
H 	H 	0.93363 0.87137 0.51047 0.09700
Ag	Ag	0.81238 0.17593 0.98171 0.49200
O 	O 	0.70126 0.29169 0.90561 -0.63600
C 	C 	0.76260 0.30620 0.90761 0.36700
O 	O 	0.63382 0.37927 0.87498 -0.61000
C 	C 	0.65410 0.47040 0.89580 -0.44600
H 	H 	0.64390 0.50560 0.89880 0.16600
C 	C 	0.62890 0.43210 0.87933 0.34100
C 	C 	0.78010 0.28120 0.92541 -0.06500
C 	C 	0.73470 0.26150 0.93955 -0.05400
H 	H 	0.56930 0.30690 0.93830 0.05800
C 	C 	0.75070 0.23980 0.95617 0.01400
H 	H 	0.51080 0.27320 0.96730 -0.01300
N 	N 	0.80030 0.22220 0.95645 -0.20000
C 	C 	0.40150 0.15660 0.94372 0.05100
H 	H 	0.35920 0.11500 0.94550 -0.02900
C 	C 	0.43620 0.16520 0.92703 -0.07900
H 	H 	0.41520 0.13390 0.91710 0.02100
C 	C 	0.85730 0.40740 0.86505 -0.02100
C 	C 	0.92670 0.42840 0.86869 -0.13700
H 	H 	0.94080 0.42150 0.88060 0.06700
C 	C 	0.97290 0.45880 0.85459 0.16600
H 	H 	0.02010 0.47610 0.85740 -0.10300
N 	N 	0.95740 0.46640 0.83712 -0.20900
C 	C 	0.89330 0.44680 0.83383 0.05700
H 	H 	0.88080 0.45510 0.82200 -0.00100
C 	C 	0.84210 0.41400 0.84720 -0.08300
H 	H 	0.79530 0.39560 0.84380 0.08800
Ag	Ag	0.47905 0.50926 0.31504 0.49400
O 	O 	0.36793 0.62502 0.23894 -0.63600
C 	C 	0.42927 0.63953 0.24094 0.37000
O 	O 	0.30049 0.71260 0.20831 -0.61100
C 	C 	0.32077 0.80373 0.22913 -0.44700
H 	H 	0.31057 0.83893 0.23213 0.17000
C 	C 	0.29557 0.76543 0.21266 0.34100
C 	C 	0.44677 0.61453 0.25874 -0.06500
C 	C 	0.40137 0.59483 0.27288 -0.05300
H 	H 	0.23597 0.64023 0.27163 0.05800
C 	C 	0.41737 0.57313 0.28950 0.01500
H 	H 	0.17747 0.60653 0.30063 -0.01300
N 	N 	0.46697 0.55553 0.28978 -0.20000
C 	C 	0.06817 0.48993 0.27705 0.04700
H 	H 	0.02587 0.44833 0.27883 -0.03500
C 	C 	0.10287 0.49853 0.26036 -0.08300
H 	H 	0.08187 0.46723 0.25043 0.01700
C 	C 	0.52397 0.74073 0.19838 -0.05500
C 	C 	0.59337 0.76173 0.20202 -0.06200
H 	H 	0.60747 0.75483 0.21393 0.03600
C 	C 	0.63957 0.79213 0.18792 0.03400
H 	H 	0.68677 0.80943 0.19073 -0.00400
N 	N 	0.62407 0.79973 0.17045 -0.19600
C 	C 	0.55997 0.78013 0.16716 0.04200
H 	H 	0.54747 0.78843 0.15533 0.00000
C 	C 	0.50877 0.74733 0.18053 -0.05700
H 	H 	0.46197 0.72893 0.17713 0.08000
Ag	Ag	0.14571 0.84260 0.64838 0.49600
O 	O 	0.03459 0.95836 0.57228 -0.66500
C 	C 	0.09593 0.97287 0.57428 0.50000
O 	O 	0.96715 0.04594 0.54165 -0.60900
C 	C 	0.98743 0.13707 0.56247 -0.34800
H 	H 	0.97723 0.17227 0.56547 0.15000
C 	C 	0.96223 0.09877 0.54600 0.31400
C 	C 	0.11343 0.94787 0.59208 -0.10400
C 	C 	0.06803 0.92817 0.60622 -0.02100
H 	H 	0.90263 0.97357 0.60497 0.09200
C 	C 	0.08403 0.90647 0.62284 0.00300
H 	H 	0.84413 0.93987 0.63397 0.00600
N 	N 	0.13363 0.88887 0.62312 -0.19300
C 	C 	0.73483 0.82327 0.61039 0.06300
H 	H 	0.69253 0.78167 0.61217 -0.01800
C 	C 	0.76953 0.83187 0.59370 -0.08500
H 	H 	0.74853 0.80057 0.58377 0.03300
C 	C 	0.19063 0.07407 0.53172 -0.09700
C 	C 	0.26003 0.09507 0.53536 -0.05100
H 	H 	0.27413 0.08817 0.54727 0.01200
C 	C 	0.30623 0.12547 0.52126 0.01100
H 	H 	0.35343 0.14277 0.52407 -0.01900
N 	N 	0.29073 0.13307 0.50379 -0.19900
C 	C 	0.22663 0.11347 0.50050 0.01600
H 	H 	0.21413 0.12177 0.48867 -0.00200
C 	C 	0.17543 0.08067 0.51387 -0.04100
H 	H 	0.12863 0.06227 0.51047 0.05600
Ag	Ag	0.82407 0.63645 0.98171 0.49900
O 	O 	0.70831 0.40957 0.90561 -0.63500
C 	C 	0.69380 0.45640 0.90761 0.36900
O 	O 	0.62073 0.25455 0.87498 -0.61400
C 	C 	0.52960 0.18370 0.89580 -0.45600
H 	H 	0.49440 0.13830 0.89880 0.16400
C 	C 	0.56790 0.19680 0.87933 0.35600
C 	C 	0.71880 0.49890 0.92541 -0.06600
C 	C 	0.73850 0.47320 0.93955 -0.05200
H 	H 	0.69310 0.26240 0.93830 0.05700
C 	C 	0.76020 0.51090 0.95617 0.01700
H 	H 	0.72680 0.23760 0.96730 -0.01400
N 	N 	0.77780 0.57810 0.95645 -0.19800
C 	C 	0.84340 0.24490 0.94372 0.05500
H 	H 	0.88500 0.24420 0.94550 -0.00800
C 	C 	0.83480 0.27100 0.92703 -0.07500
H 	H 	0.86610 0.28130 0.91710 0.03400
C 	C 	0.59260 0.44990 0.86505 -0.05700
C 	C 	0.57160 0.49830 0.86869 -0.06600
H 	H 	0.57850 0.51930 0.88060 0.03100
C 	C 	0.54120 0.51410 0.85459 0.03000
H 	H 	0.52390 0.54400 0.85740 -0.01500
N 	N 	0.53360 0.49100 0.83712 -0.20000
C 	C 	0.55320 0.44650 0.83383 0.03900
H 	H 	0.54490 0.42570 0.82200 -0.00300
C 	C 	0.58600 0.42810 0.84720 -0.05900
H 	H 	0.60440 0.39970 0.84380 0.08000
Ag	Ag	0.49074 0.96978 0.31504 0.53000
O 	O 	0.37498 0.74290 0.23894 -0.63400
C 	C 	0.36047 0.78973 0.24094 0.37200
O 	O 	0.28740 0.58788 0.20831 -0.60900
C 	C 	0.19627 0.51703 0.22913 -0.44600
H 	H 	0.16107 0.47163 0.23213 0.16100
C 	C 	0.23457 0.53013 0.21266 0.33900
C 	C 	0.38547 0.83223 0.25874 -0.06400
C 	C 	0.40517 0.80653 0.27288 -0.04900
H 	H 	0.35977 0.59573 0.27163 0.05800
C 	C 	0.42687 0.84423 0.28950 0.02000
H 	H 	0.39347 0.57093 0.30063 -0.01200
N 	N 	0.44447 0.91143 0.28978 -0.19000
C 	C 	0.51007 0.57823 0.27705 0.05500
H 	H 	0.55167 0.57753 0.27883 -0.01500
C 	C 	0.50147 0.60433 0.26036 -0.07600
H 	H 	0.53277 0.61463 0.25043 0.03000
C 	C 	0.25927 0.78323 0.19838 -0.05800
C 	C 	0.23827 0.83163 0.20202 -0.06600
H 	H 	0.24517 0.85263 0.21393 0.03500
C 	C 	0.20787 0.84743 0.18792 0.03100
H 	H 	0.19057 0.87733 0.19073 -0.01000
N 	N 	0.20027 0.82433 0.17045 -0.20000
C 	C 	0.21987 0.77983 0.16716 0.03800
H 	H 	0.21157 0.75903 0.15533 -0.00500
C 	C 	0.25267 0.76143 0.18053 -0.05900
H 	H 	0.27107 0.73303 0.17713 0.08000
Ag	Ag	0.15740 0.30312 0.64838 0.48300
O 	O 	0.04164 0.07624 0.57228 -0.65700
C 	C 	0.02713 0.12307 0.57428 0.27800
O 	O 	0.95406 0.92122 0.54165 -0.55900
C 	C 	0.86293 0.85037 0.56247 -0.41800
H 	H 	0.82773 0.80497 0.56547 0.16000
C 	C 	0.90123 0.86347 0.54600 0.32600
C 	C 	0.05213 0.16557 0.59208 -0.05900
C 	C 	0.07183 0.13987 0.60622 -0.07100
H 	H 	0.02643 0.92907 0.60497 0.04300
C 	C 	0.09353 0.17757 0.62284 0.00800
H 	H 	0.06013 0.90427 0.63397 -0.00700
N 	N 	0.11113 0.24477 0.62312 -0.20600
C 	C 	0.17673 0.91157 0.61039 0.04400
H 	H 	0.21833 0.91087 0.61217 -0.00400
C 	C 	0.16813 0.93767 0.59370 -0.04300
H 	H 	0.19943 0.94797 0.58377 0.03400
C 	C 	0.92593 0.11657 0.53172 -0.04700
C 	C 	0.90493 0.16497 0.53536 -0.07300
H 	H 	0.91183 0.18597 0.54727 0.03700
C 	C 	0.87453 0.18077 0.52126 0.03400
H 	H 	0.85723 0.21067 0.52407 -0.01500
N 	N 	0.86693 0.15767 0.50379 -0.20200
C 	C 	0.88653 0.11317 0.50050 0.04400
H 	H 	0.87823 0.09237 0.48867 -0.01200
C 	C 	0.91933 0.09477 0.51387 -0.06700
H 	H 	0.93773 0.06637 0.51047 0.07800
Ag	Ag	0.81238 0.63645 0.48171 0.49900
O 	O 	0.70126 0.40957 0.40561 -0.63500
C 	C 	0.76260 0.45640 0.40761 0.36700
O 	O 	0.63382 0.25455 0.37498 -0.61400
C 	C 	0.65410 0.18370 0.39580 -0.45600
H 	H 	0.64390 0.13830 0.39880 0.16400
C 	C 	0.62890 0.19680 0.37933 0.35500
C 	C 	0.78010 0.49890 0.42541 -0.06400
C 	C 	0.73470 0.47320 0.43955 -0.05300
H 	H 	0.56930 0.26240 0.43830 0.05600
C 	C 	0.75070 0.51090 0.45617 0.01700
H 	H 	0.51080 0.23760 0.46730 -0.01500
N 	N 	0.80030 0.57810 0.45645 -0.19800
C 	C 	0.40150 0.24490 0.44372 0.05300
H 	H 	0.35920 0.24420 0.44550 -0.01700
C 	C 	0.43620 0.27100 0.42703 -0.07700
H 	H 	0.41520 0.28130 0.41710 0.02800
C 	C 	0.85730 0.44990 0.36505 -0.02200
C 	C 	0.92670 0.49830 0.36869 -0.13600
H 	H 	0.94080 0.51930 0.38060 0.06700
C 	C 	0.97290 0.51410 0.35459 0.16500
H 	H 	0.02010 0.54400 0.35740 -0.10100
N 	N 	0.95740 0.49100 0.33712 -0.20900
C 	C 	0.89330 0.44650 0.33383 0.05700
H 	H 	0.88080 0.42570 0.32200 -0.00100
C 	C 	0.84210 0.42810 0.34720 -0.08300
H 	H 	0.79530 0.39970 0.34380 0.08800
Ag	Ag	0.47905 0.96978 0.81504 0.53000
O 	O 	0.36793 0.74290 0.73894 -0.63400
C 	C 	0.42927 0.78973 0.74094 0.37300
O 	O 	0.30049 0.58788 0.70831 -0.61000
C 	C 	0.32077 0.51703 0.72913 -0.44700
H 	H 	0.31057 0.47163 0.73213 0.16300
C 	C 	0.29557 0.53013 0.71266 0.33900
C 	C 	0.44677 0.83223 0.75874 -0.06300
C 	C 	0.40137 0.80653 0.77288 -0.04900
H 	H 	0.23597 0.59573 0.77163 0.05700
C 	C 	0.41737 0.84423 0.78950 0.02100
H 	H 	0.17747 0.57093 0.80063 -0.01400
N 	N 	0.46697 0.91143 0.78978 -0.19000
C 	C 	0.06817 0.57823 0.77705 0.04800
H 	H 	0.02587 0.57753 0.77883 -0.03300
C 	C 	0.10287 0.60433 0.76036 -0.08200
H 	H 	0.08187 0.61463 0.75043 0.02000
C 	C 	0.52397 0.78323 0.69838 -0.05600
C 	C 	0.59337 0.83163 0.70202 -0.06300
H 	H 	0.60747 0.85263 0.71393 0.03900
C 	C 	0.63957 0.84743 0.68792 0.03400
H 	H 	0.68677 0.87733 0.69073 -0.00200
N 	N 	0.62407 0.82433 0.67045 -0.19600
C 	C 	0.55997 0.77983 0.66716 0.04000
H 	H 	0.54747 0.75903 0.65533 -0.00200
C 	C 	0.50877 0.76143 0.68053 -0.05800
H 	H 	0.46197 0.73303 0.67713 0.08000
Ag	Ag	0.14571 0.30312 0.14838 0.48300
O 	O 	0.03459 0.07624 0.07228 -0.68900
C 	C 	0.09593 0.12307 0.07428 0.38200
O 	O 	0.96715 0.92122 0.04165 -0.55500
C 	C 	0.98743 0.85037 0.06247 -0.32900
H 	H 	0.97723 0.80497 0.06547 0.14600
C 	C 	0.96223 0.86347 0.04600 0.30200
C 	C 	0.11343 0.16557 0.09208 -0.09100
C 	C 	0.06803 0.13987 0.10622 -0.04700
H 	H 	0.90263 0.92907 0.10497 0.07200
C 	C 	0.08403 0.17757 0.12284 -0.00300
H 	H 	0.84413 0.90427 0.13397 0.00700
N 	N 	0.13363 0.24477 0.12312 -0.20100
C 	C 	0.73483 0.91157 0.11039 0.05300
H 	H 	0.69253 0.91087 0.11217 -0.00500
C 	C 	0.76953 0.93767 0.09370 -0.05200
H 	H 	0.74853 0.94797 0.08377 0.03800
C 	C 	0.19063 0.11657 0.03172 -0.08000
C 	C 	0.26003 0.16497 0.03536 -0.06000
H 	H 	0.27413 0.18597 0.04727 0.02200
C 	C 	0.30623 0.18077 0.02126 0.01900
H 	H 	0.35343 0.21067 0.02407 -0.01700
N 	N 	0.29073 0.15767 0.00379 -0.20100
C 	C 	0.22663 0.11317 0.00050 0.02500
H 	H 	0.21413 0.09237 0.98867 -0.01200
C 	C 	0.17543 0.09477 0.01387 -0.05200
H 	H 	0.12863 0.06637 0.01047 0.05700
Ag	Ag	0.82407 0.18762 0.48171 0.49200
O 	O 	0.70831 0.29874 0.40561 -0.63600
C 	C 	0.69380 0.23740 0.40761 0.37100
O 	O 	0.62073 0.36618 0.37498 -0.61000
C 	C 	0.52960 0.34590 0.39580 -0.44600
H 	H 	0.49440 0.35610 0.39880 0.16600
C 	C 	0.56790 0.37110 0.37933 0.34100
C 	C 	0.71880 0.21990 0.42541 -0.07000
C 	C 	0.73850 0.26530 0.43955 -0.05100
H 	H 	0.69310 0.43070 0.43830 0.05900
C 	C 	0.76020 0.24930 0.45617 0.01400
H 	H 	0.72680 0.48920 0.46730 -0.01000
N 	N 	0.77780 0.19970 0.45645 -0.20100
C 	C 	0.84340 0.59850 0.44372 0.05500
H 	H 	0.88500 0.64080 0.44550 -0.00900
C 	C 	0.83480 0.56380 0.42703 -0.07500
H 	H 	0.86610 0.58480 0.41710 0.03300
C 	C 	0.59260 0.14270 0.36505 -0.10300
C 	C 	0.57160 0.07330 0.36869 0.02400
H 	H 	0.57850 0.05920 0.38060 -0.01700
C 	C 	0.54120 0.02710 0.35459 -0.14700
H 	H 	0.52390 0.97990 0.35740 0.09800
N 	N 	0.53360 0.04260 0.33712 -0.18800
C 	C 	0.55320 0.10670 0.33383 0.01500
H 	H 	0.54490 0.11920 0.32200 -0.00500
C 	C 	0.58600 0.15790 0.34720 -0.02700
H 	H 	0.60440 0.20470 0.34380 0.06900
Ag	Ag	0.49074 0.52095 0.81504 0.49400
O 	O 	0.37498 0.63207 0.73894 -0.63500
C 	C 	0.36047 0.57073 0.74094 0.36800
O 	O 	0.28740 0.69951 0.70831 -0.60900
C 	C 	0.19627 0.67923 0.72913 -0.44600
H 	H 	0.16107 0.68943 0.73213 0.16500
C 	C 	0.23457 0.70443 0.71266 0.34100
C 	C 	0.38547 0.55323 0.75874 -0.06800
C 	C 	0.40517 0.59863 0.77288 -0.05200
H 	H 	0.35977 0.76403 0.77163 0.06000
C 	C 	0.42687 0.58263 0.78950 0.01400
H 	H 	0.39347 0.82253 0.80063 -0.00700
N 	N 	0.44447 0.53303 0.78978 -0.19900
C 	C 	0.51007 0.93183 0.77705 0.06200
H 	H 	0.55167 0.97413 0.77883 0.00500
C 	C 	0.50147 0.89713 0.76036 -0.06800
H 	H 	0.53277 0.91813 0.75043 0.04200
C 	C 	0.25927 0.47603 0.69838 -0.05900
C 	C 	0.23827 0.40663 0.70202 -0.07100
H 	H 	0.24517 0.39253 0.71393 0.02500
C 	C 	0.20787 0.36043 0.68792 0.02700
H 	H 	0.19057 0.31323 0.69073 -0.02700
N 	N 	0.20027 0.37593 0.67045 -0.20400
C 	C 	0.21987 0.44003 0.66716 0.03600
H 	H 	0.21157 0.45253 0.65533 -0.00500
C 	C 	0.25267 0.49123 0.68053 -0.06000
H 	H 	0.27107 0.53803 0.67713 0.08000
Ag	Ag	0.15740 0.85429 0.14838 0.49600
O 	O 	0.04164 0.96541 0.07228 -0.59400
C 	C 	0.02713 0.90407 0.07428 0.27200
O 	O 	0.95406 0.03285 0.04165 -0.61800
C 	C 	0.86293 0.01257 0.06247 -0.56800
H 	H 	0.82773 0.02277 0.06547 0.18500
C 	C 	0.90123 0.03777 0.04600 0.37300
C 	C 	0.05213 0.88657 0.09208 -0.03300
C 	C 	0.07183 0.93197 0.10622 -0.07700
H 	H 	0.02643 0.09737 0.10497 0.02300
C 	C 	0.09353 0.91597 0.12284 0.02800
H 	H 	0.06013 0.15587 0.13397 -0.03000
N 	N 	0.11113 0.86637 0.12312 -0.20400
C 	C 	0.17673 0.26517 0.11039 0.04300
H 	H 	0.21833 0.30747 0.11217 -0.01700
C 	C 	0.16813 0.23047 0.09370 -0.06800
H 	H 	0.19943 0.25147 0.08377 0.02300
C 	C 	0.92593 0.80937 0.03172 -0.02600
C 	C 	0.90493 0.73997 0.03536 -0.07900
H 	H 	0.91183 0.72587 0.04727 0.04400
C 	C 	0.87453 0.69377 0.02126 0.04400
H 	H 	0.85723 0.64657 0.02407 -0.01400
N 	N 	0.86693 0.70927 0.00379 -0.20100
C 	C 	0.88653 0.77337 0.00050 0.05500
H 	H 	0.87823 0.78587 0.98867 -0.00400
C 	C 	0.91933 0.82457 0.01387 -0.07400
H 	H 	0.93773 0.87137 0.01047 0.09800
Ag	Ag	0.36355 0.17593 0.48171 0.48600
O 	O 	0.59043 0.29169 0.40561 -0.63700
C 	C 	0.54360 0.30620 0.40761 0.36800
O 	O 	0.74545 0.37927 0.37498 -0.60700
C 	C 	0.81630 0.47040 0.39580 -0.43900
H 	H 	0.86170 0.50560 0.39880 0.16800
C 	C 	0.80320 0.43210 0.37933 0.32900
C 	C 	0.50110 0.28120 0.42541 -0.06800
C 	C 	0.52680 0.26150 0.43955 -0.05400
H 	H 	0.73760 0.30690 0.43830 0.05900
C 	C 	0.48910 0.23980 0.45617 0.01100
H 	H 	0.76240 0.27320 0.46730 -0.01000
N 	N 	0.42190 0.22220 0.45645 -0.20200
C 	C 	0.75510 0.15660 0.44372 0.05100
H 	H 	0.75580 0.11500 0.44550 -0.02900
C 	C 	0.72900 0.16520 0.42703 -0.07900
H 	H 	0.71870 0.13390 0.41710 0.02100
C 	C 	0.55010 0.40740 0.36505 -0.05700
C 	C 	0.50170 0.42840 0.36869 -0.06700
H 	H 	0.48070 0.42150 0.38060 0.03000
C 	C 	0.48590 0.45880 0.35459 0.03000
H 	H 	0.45600 0.47610 0.35740 -0.01600
N 	N 	0.50900 0.46640 0.33712 -0.20000
C 	C 	0.55350 0.44680 0.33383 0.03900
H 	H 	0.57430 0.45510 0.32200 -0.00200
C 	C 	0.57190 0.41400 0.34720 -0.05900
H 	H 	0.60030 0.39560 0.34380 0.08000
Ag	Ag	0.03022 0.50926 0.81504 0.46600
O 	O 	0.25710 0.62502 0.73894 -0.63700
C 	C 	0.21027 0.63953 0.74094 0.36700
O 	O 	0.41212 0.71260 0.70831 -0.61000
C 	C 	0.48297 0.80373 0.72913 -0.44700
H 	H 	0.52837 0.83893 0.73213 0.17300
C 	C 	0.46987 0.76543 0.71266 0.34300
C 	C 	0.16777 0.61453 0.75874 -0.06800
C 	C 	0.19347 0.59483 0.77288 -0.05500
H 	H 	0.40427 0.64023 0.77163 0.05900
C 	C 	0.15577 0.57313 0.78950 0.01000
H 	H 	0.42907 0.60653 0.80063 -0.01000
N 	N 	0.08857 0.55553 0.78978 -0.20700
C 	C 	0.42177 0.48993 0.77705 0.05200
H 	H 	0.42247 0.44833 0.77883 -0.01900
C 	C 	0.39567 0.49853 0.76036 -0.07700
H 	H 	0.38537 0.46723 0.75043 0.02600
C 	C 	0.21677 0.74073 0.69838 -0.05500
C 	C 	0.16837 0.76173 0.70202 -0.06500
H 	H 	0.14737 0.75483 0.71393 0.03000
C 	C 	0.15257 0.79213 0.68792 0.03100
H 	H 	0.12267 0.80943 0.69073 -0.01500
N 	N 	0.17567 0.79973 0.67045 -0.19900
C 	C 	0.22017 0.78013 0.66716 0.04000
H 	H 	0.24097 0.78843 0.65533 -0.00000
C 	C 	0.23857 0.74733 0.68053 -0.05800
H 	H 	0.26697 0.72893 0.67713 0.08000
Ag	Ag	0.69688 0.84260 0.14838 0.50500
O 	O 	0.92376 0.95836 0.07228 -0.62000
C 	C 	0.87693 0.97287 0.07428 0.47700
O 	O 	0.07878 0.04594 0.04165 -0.66300
C 	C 	0.14963 0.13707 0.06247 -0.47500
H 	H 	0.19503 0.17227 0.06547 0.17100
C 	C 	0.13653 0.09877 0.04600 0.35400
C 	C 	0.83443 0.94787 0.09208 -0.08200
C 	C 	0.86013 0.92817 0.10622 -0.02900
H 	H 	0.07093 0.97357 0.10497 0.08000
C 	C 	0.82243 0.90647 0.12284 0.01800
H 	H 	0.09573 0.93987 0.13397 -0.00900
N 	N 	0.75523 0.88887 0.12312 -0.19300
C 	C 	0.08843 0.82327 0.11039 0.06300
H 	H 	0.08913 0.78167 0.11217 -0.02700
C 	C 	0.06233 0.83187 0.09370 -0.10400
H 	H 	0.05203 0.80057 0.08377 0.02500
C 	C 	0.88343 0.07407 0.03172 -0.07500
C 	C 	0.83503 0.09507 0.03536 -0.05800
H 	H 	0.81403 0.08817 0.04727 0.02000
C 	C 	0.81923 0.12547 0.02126 0.02100
H 	H 	0.78933 0.14277 0.02407 -0.01800
N 	N 	0.84233 0.13307 0.00379 -0.19900
C 	C 	0.88683 0.11347 0.00050 0.02900
H 	H 	0.90763 0.12177 0.98867 0.00500
C 	C 	0.90523 0.08067 0.01387 -0.04900
H 	H 	0.93363 0.06227 0.01047 0.07600
Al	Al	0.66667 0.33333 0.89006 2.39800
Al	Al	0.33333 0.66667 0.22339 2.39800
Al	Al	0.00000 0.00000 0.55673 2.39000
Al	Al	0.66667 0.33333 0.39006 2.39800
Al	Al	0.33333 0.66667 0.72339 2.39800
Al	Al	0.00000 0.00000 0.05673 2.39000
Ag	Ag	0.32817 0.19064 0.88518 0.50100
O 	O 	0.58990 0.29730 0.81825 -0.61600
C 	C 	0.53040 0.24320 0.81631 0.33800
O 	O 	0.74340 0.36760 0.78707 -0.60600
C 	C 	0.80390 0.31750 0.80161 -0.43100
H 	H 	0.84190 0.31010 0.80060 0.15500
C 	C 	0.79530 0.35760 0.78874 0.33900
C 	C 	0.48080 0.22790 0.83173 -0.06600
C 	C 	0.50530 0.26030 0.84844 -0.05700
H 	H 	0.73710 0.44680 0.85030 0.08300
C 	C 	0.45900 0.24810 0.86258 0.04000
H 	H 	0.79700 0.52430 0.87390 0.00200
N 	N 	0.39370 0.20440 0.86111 -0.19200
C 	C 	0.80240 0.63010 0.84469 0.02400
H 	H 	0.82210 0.67840 0.84330 0.00600
C 	C 	0.76870 0.59070 0.83039 -0.05400
H 	H 	0.75940 0.60920 0.81970 0.01500
C 	C 	0.54410 0.15580 0.77323 -0.06900
C 	C 	0.48730 0.09070 0.77312 -0.05600
H 	H 	0.46090 0.07310 0.78410 -0.00200
C 	C 	0.46790 0.05000 0.75712 0.00700
H 	H 	0.42400 0.00950 0.75660 -0.02700
N 	N 	0.51070 0.06760 0.74241 -0.20200
C 	C 	0.56310 0.12790 0.74166 0.03800
H 	H 	0.58990 0.14120 0.73070 -0.00500
C 	C 	0.58400 0.17750 0.75667 -0.05300
H 	H 	0.62260 0.22240 0.75550 0.07600
Ag	Ag	0.99484 0.52397 0.21851 0.53000
O 	O 	0.25657 0.63063 0.15158 -0.62000
C 	C 	0.19707 0.57653 0.14964 0.35100
O 	O 	0.41007 0.70093 0.12040 -0.60500
C 	C 	0.47057 0.65083 0.13494 -0.43100
H 	H 	0.50857 0.64343 0.13393 0.15300
C 	C 	0.46197 0.69093 0.12207 0.33800
C 	C 	0.14747 0.56123 0.16506 -0.10500
C 	C 	0.17197 0.59363 0.18177 -0.03000
H 	H 	0.40377 0.78013 0.18363 0.09500
C 	C 	0.12567 0.58143 0.19591 0.02000
H 	H 	0.46367 0.85763 0.20723 0.00100
N 	N 	0.06037 0.53773 0.19444 -0.17900
C 	C 	0.46907 0.96343 0.17802 0.21300
H 	H 	0.48877 0.01173 0.17663 -0.10900
C 	C 	0.43537 0.92403 0.16372 -0.16200
H 	H 	0.42607 0.94253 0.15303 0.07100
C 	C 	0.21077 0.48913 0.10656 -0.06700
C 	C 	0.15397 0.42403 0.10645 -0.05200
H 	H 	0.12757 0.40643 0.11743 0.00500
C 	C 	0.13457 0.38333 0.09045 0.01600
H 	H 	0.09067 0.34283 0.08993 -0.01800
N 	N 	0.17737 0.40093 0.07574 -0.19600
C 	C 	0.22977 0.46123 0.07499 0.04200
H 	H 	0.25657 0.47453 0.06403 -0.00100
C 	C 	0.25067 0.51083 0.09000 -0.05000
H 	H 	0.28927 0.55573 0.08883 0.07600
Ag	Ag	0.66150 0.85731 0.55185 0.51100
O 	O 	0.92323 0.96397 0.48492 -0.56100
C 	C 	0.86373 0.90987 0.48298 0.32400
O 	O 	0.07673 0.03427 0.45374 -0.62200
C 	C 	0.13723 0.98417 0.46828 -0.28900
H 	H 	0.17523 0.97677 0.46727 0.12900
C 	C 	0.12863 0.02427 0.45541 0.21700
C 	C 	0.81413 0.89457 0.49840 -0.04400
C 	C 	0.83863 0.92697 0.51511 -0.06500
H 	H 	0.07043 0.11347 0.51697 0.06200
C 	C 	0.79233 0.91477 0.52925 0.05500
H 	H 	0.13033 0.19097 0.54057 0.00100
N 	N 	0.72703 0.87107 0.52778 -0.19000
C 	C 	0.13573 0.29677 0.51136 0.00500
H 	H 	0.15543 0.34507 0.50997 0.00600
C 	C 	0.10203 0.25737 0.49706 -0.03900
H 	H 	0.09273 0.27587 0.48637 0.00000
C 	C 	0.87743 0.82247 0.43990 -0.04800
C 	C 	0.82063 0.75737 0.43979 -0.05900
H 	H 	0.79423 0.73977 0.45077 0.01400
C 	C 	0.80123 0.71667 0.42379 0.02200
H 	H 	0.75733 0.67617 0.42327 -0.01000
N 	N 	0.84403 0.73427 0.40908 -0.19500
C 	C 	0.89643 0.79457 0.40833 0.05200
H 	H 	0.92323 0.80787 0.39737 0.00500
C 	C 	0.91733 0.84417 0.42334 -0.05800
H 	H 	0.95593 0.88907 0.42217 0.10100
Ag	Ag	0.80936 0.13753 0.88518 0.49700
O 	O 	0.70270 0.29260 0.81825 -0.61700
C 	C 	0.75680 0.28720 0.81631 0.33800
O 	O 	0.63240 0.37580 0.78707 -0.60600
C 	C 	0.68250 0.48640 0.80161 -0.43100
H 	H 	0.68990 0.53180 0.80060 0.15300
C 	C 	0.64240 0.43770 0.78874 0.33800
C 	C 	0.77210 0.25290 0.83173 -0.06600
C 	C 	0.73970 0.24500 0.84844 -0.05800
H 	H 	0.55320 0.29030 0.85030 0.08300
C 	C 	0.75190 0.21090 0.86258 0.04000
H 	H 	0.47570 0.27270 0.87390 -0.00000
N 	N 	0.79560 0.18930 0.86111 -0.19200
C 	C 	0.36990 0.17230 0.84469 0.01700
H 	H 	0.32160 0.14370 0.84330 0.00200
C 	C 	0.40930 0.17800 0.83039 -0.05500
H 	H 	0.39080 0.15020 0.81970 0.00900
C 	C 	0.84420 0.38830 0.77323 -0.06300
C 	C 	0.90930 0.39660 0.77312 -0.04700
H 	H 	0.92690 0.38780 0.78410 0.01900
C 	C 	0.95000 0.41790 0.75712 0.02400
H 	H 	0.99050 0.41450 0.75660 0.00500
N 	N 	0.93240 0.44310 0.74241 -0.18800
C 	C 	0.87210 0.43520 0.74166 0.04600
H 	H 	0.85880 0.44870 0.73070 0.00200
C 	C 	0.82250 0.40650 0.75667 -0.04800
H 	H 	0.77760 0.40020 0.75550 0.07600
Ag	Ag	0.47603 0.47086 0.21851 0.50400
O 	O 	0.36937 0.62593 0.15158 -0.61600
C 	C 	0.42347 0.62053 0.14964 0.33900
O 	O 	0.29907 0.70913 0.12040 -0.60600
C 	C 	0.34917 0.81973 0.13494 -0.42100
H 	H 	0.35657 0.86513 0.13393 0.15400
C 	C 	0.30907 0.77103 0.12207 0.33400
C 	C 	0.43877 0.58623 0.16506 -0.06500
C 	C 	0.40637 0.57833 0.18177 -0.05700
H 	H 	0.21987 0.62363 0.18363 0.07400
C 	C 	0.41857 0.54423 0.19591 0.04100
H 	H 	0.14237 0.60603 0.20723 -0.00100
N 	N 	0.46227 0.52263 0.19444 -0.19100
C 	C 	0.03657 0.50563 0.17802 -0.12500
H 	H 	0.98827 0.47703 0.17663 0.09100
C 	C 	0.07597 0.51133 0.16372 0.02600
H 	H 	0.05747 0.48353 0.15303 -0.03100
C 	C 	0.51087 0.72163 0.10656 -0.06500
C 	C 	0.57597 0.72993 0.10645 -0.05000
H 	H 	0.59357 0.72113 0.11743 0.01100
C 	C 	0.61667 0.75123 0.09045 0.01700
H 	H 	0.65717 0.74783 0.08993 -0.00700
N 	N 	0.59907 0.77643 0.07574 -0.19200
C 	C 	0.53877 0.76853 0.07499 0.04300
H 	H 	0.52547 0.78203 0.06403 0.00200
C 	C 	0.48917 0.73983 0.09000 -0.04900
H 	H 	0.44427 0.73353 0.08883 0.07500
Ag	Ag	0.14269 0.80420 0.55185 0.50400
O 	O 	0.03603 0.95927 0.48492 -0.59800
C 	C 	0.09013 0.95387 0.48298 0.29900
O 	O 	0.96573 0.04247 0.45374 -0.64000
C 	C 	0.01583 0.15307 0.46828 -0.56100
H 	H 	0.02323 0.19847 0.46727 0.17700
C 	C 	0.97573 0.10437 0.45541 0.44400
C 	C 	0.10543 0.91957 0.49840 -0.03900
C 	C 	0.07303 0.91167 0.51511 -0.06800
H 	H 	0.88653 0.95697 0.51697 0.10800
C 	C 	0.08523 0.87757 0.52925 0.05300
H 	H 	0.80903 0.93937 0.54057 0.00900
N 	N 	0.12893 0.85597 0.52778 -0.19200
C 	C 	0.70323 0.83897 0.51136 0.03100
H 	H 	0.65493 0.81037 0.50997 0.00300
C 	C 	0.74263 0.84467 0.49706 -0.06300
H 	H 	0.72413 0.81687 0.48637 0.01800
C 	C 	0.17753 0.05497 0.43990 -0.04100
C 	C 	0.24263 0.06327 0.43979 -0.08100
H 	H 	0.26023 0.05447 0.45077 0.00200
C 	C 	0.28333 0.08457 0.42379 0.01700
H 	H 	0.32383 0.08117 0.42327 -0.02200
N 	N 	0.26573 0.10977 0.40908 -0.20100
C 	C 	0.20543 0.10187 0.40833 0.03800
H 	H 	0.19213 0.11537 0.39737 -0.00900
C 	C 	0.15583 0.07317 0.42334 -0.07600
H 	H 	0.11093 0.06687 0.42217 0.06700
Ag	Ag	0.86247 0.67183 0.88518 0.51200
O 	O 	0.70740 0.41010 0.81825 -0.61500
C 	C 	0.71280 0.46960 0.81631 0.34000
O 	O 	0.62420 0.25660 0.78707 -0.60700
C 	C 	0.51360 0.19610 0.80161 -0.43100
H 	H 	0.46820 0.15810 0.80060 0.14900
C 	C 	0.56230 0.20470 0.78874 0.33500
C 	C 	0.74710 0.51920 0.83173 -0.06300
C 	C 	0.75500 0.49470 0.84844 -0.05600
H 	H 	0.70970 0.26290 0.85030 0.08300
C 	C 	0.78910 0.54100 0.86258 0.04300
H 	H 	0.72730 0.20300 0.87390 -0.00300
N 	N 	0.81070 0.60630 0.86111 -0.18800
C 	C 	0.82770 0.19760 0.84469 0.02100
H 	H 	0.85630 0.17790 0.84330 0.00500
C 	C 	0.82200 0.23130 0.83039 -0.05600
H 	H 	0.84980 0.24060 0.81970 0.01600
C 	C 	0.61170 0.45590 0.77323 -0.06600
C 	C 	0.60340 0.51270 0.77312 -0.05100
H 	H 	0.61220 0.53910 0.78410 0.01100
C 	C 	0.58210 0.53210 0.75712 0.01600
H 	H 	0.58550 0.57600 0.75660 -0.00600
N 	N 	0.55690 0.48930 0.74241 -0.19400
C 	C 	0.56480 0.43690 0.74166 0.04200
H 	H 	0.55130 0.41010 0.73070 -0.00200
C 	C 	0.59350 0.41600 0.75667 -0.05100
H 	H 	0.59980 0.37740 0.75550 0.07600
Ag	Ag	0.52914 0.00516 0.21851 0.47100
O 	O 	0.37407 0.74343 0.15158 -0.61100
C 	C 	0.37947 0.80293 0.14964 0.32300
O 	O 	0.29087 0.58993 0.12040 -0.60700
C 	C 	0.18027 0.52943 0.13494 -0.43800
H 	H 	0.13487 0.49143 0.13393 0.15000
C 	C 	0.22897 0.53803 0.12207 0.34000
C 	C 	0.41377 0.85253 0.16506 -0.01300
C 	C 	0.42167 0.82803 0.18177 -0.09200
H 	H 	0.37637 0.59623 0.18363 0.08300
C 	C 	0.45577 0.87433 0.19591 0.06900
H 	H 	0.39397 0.53633 0.20723 -0.00100
N 	N 	0.47737 0.93963 0.19444 -0.20500
C 	C 	0.49437 0.53093 0.17802 0.02100
H 	H 	0.52297 0.51123 0.17663 0.00500
C 	C 	0.48867 0.56463 0.16372 -0.05500
H 	H 	0.51647 0.57393 0.15303 0.01400
C 	C 	0.27837 0.78923 0.10656 -0.06500
C 	C 	0.27007 0.84603 0.10645 -0.05000
H 	H 	0.27887 0.87243 0.11743 0.01600
C 	C 	0.24877 0.86543 0.09045 0.01700
H 	H 	0.25217 0.90933 0.08993 0.00300
N 	N 	0.22357 0.82263 0.07574 -0.19400
C 	C 	0.23147 0.77023 0.07499 0.04200
H 	H 	0.21797 0.74343 0.06403 -0.00300
C 	C 	0.26017 0.74933 0.09000 -0.05300
H 	H 	0.26647 0.71073 0.08883 0.07700
Ag	Ag	0.19580 0.33850 0.55185 0.50100
O 	O 	0.04073 0.07677 0.48492 -0.67300
C 	C 	0.04613 0.13627 0.48298 0.38200
O 	O 	0.95753 0.92327 0.45374 -0.55400
C 	C 	0.84693 0.86277 0.46828 -0.40500
H 	H 	0.80153 0.82477 0.46727 0.14400
C 	C 	0.89563 0.87137 0.45541 0.32200
C 	C 	0.08043 0.18587 0.49840 -0.10000
C 	C 	0.08833 0.16137 0.51511 -0.04100
H 	H 	0.04303 0.92957 0.51697 0.08800
C 	C 	0.12243 0.20767 0.52925 0.02300
H 	H 	0.06063 0.86967 0.54057 -0.00900
N 	N 	0.14403 0.27297 0.52778 -0.18800
C 	C 	0.16103 0.86427 0.51136 0.03300
H 	H 	0.18963 0.84457 0.50997 0.00400
C 	C 	0.15533 0.89797 0.49706 -0.06700
H 	H 	0.18313 0.90727 0.48637 0.02600
C 	C 	0.94503 0.12257 0.43990 -0.10200
C 	C 	0.93673 0.17937 0.43979 -0.02000
H 	H 	0.94553 0.20577 0.45077 0.01400
C 	C 	0.91543 0.19877 0.42379 0.01100
H 	H 	0.91883 0.24267 0.42327 0.00400
N 	N 	0.89023 0.15597 0.40908 -0.18800
C 	C 	0.89813 0.10357 0.40833 0.03500
H 	H 	0.88463 0.07677 0.39737 -0.00500
C 	C 	0.92683 0.08267 0.42334 -0.02500
H 	H 	0.93313 0.04407 0.42217 0.05500
Ag	Ag	0.80936 0.67183 0.38518 0.50700
O 	O 	0.70270 0.41010 0.31825 -0.61600
C 	C 	0.75680 0.46960 0.31631 0.33900
O 	O 	0.63240 0.25660 0.28707 -0.60700
C 	C 	0.68250 0.19610 0.30161 -0.43100
H 	H 	0.68990 0.15810 0.30060 0.14900
C 	C 	0.64240 0.20470 0.28874 0.33600
C 	C 	0.77210 0.51920 0.33173 -0.06400
C 	C 	0.73970 0.49470 0.34844 -0.05700
H 	H 	0.55320 0.26290 0.35030 0.08300
C 	C 	0.75190 0.54100 0.36258 0.04300
H 	H 	0.47570 0.20300 0.37390 -0.00300
N 	N 	0.79560 0.60630 0.36111 -0.18900
C 	C 	0.36990 0.19760 0.34469 0.01800
H 	H 	0.32160 0.17790 0.34330 0.00300
C 	C 	0.40930 0.23130 0.33039 -0.05600
H 	H 	0.39080 0.24060 0.31970 0.01200
C 	C 	0.84420 0.45590 0.27323 -0.06300
C 	C 	0.90930 0.51270 0.27312 -0.04700
H 	H 	0.92690 0.53910 0.28410 0.02000
C 	C 	0.95000 0.53210 0.25712 0.02400
H 	H 	0.99050 0.57600 0.25660 0.00700
N 	N 	0.93240 0.48930 0.24241 -0.18800
C 	C 	0.87210 0.43690 0.24166 0.04500
H 	H 	0.85880 0.41010 0.23070 0.00200
C 	C 	0.82250 0.41600 0.25667 -0.04900
H 	H 	0.77760 0.37740 0.25550 0.07600
Ag	Ag	0.47603 0.00516 0.71851 0.47000
O 	O 	0.36937 0.74343 0.65158 -0.61100
C 	C 	0.42347 0.80293 0.64964 0.32300
O 	O 	0.29907 0.58993 0.62040 -0.60700
C 	C 	0.34917 0.52943 0.63494 -0.43100
H 	H 	0.35657 0.49143 0.63393 0.15200
C 	C 	0.30907 0.53803 0.62207 0.33700
C 	C 	0.43877 0.85253 0.66506 -0.01300
C 	C 	0.40637 0.82803 0.68177 -0.09200
H 	H 	0.21987 0.59623 0.68363 0.07400
C 	C 	0.41857 0.87433 0.69591 0.06900
H 	H 	0.14237 0.53633 0.70723 -0.00200
N 	N 	0.46227 0.93963 0.69444 -0.20400
C 	C 	0.03657 0.53093 0.67802 -0.12400
H 	H 	0.98827 0.51123 0.67663 0.09100
C 	C 	0.07597 0.56463 0.66372 0.02600
H 	H 	0.05747 0.57393 0.65303 -0.03000
C 	C 	0.51087 0.78923 0.60656 -0.06400
C 	C 	0.57597 0.84603 0.60645 -0.05000
H 	H 	0.59357 0.87243 0.61743 0.01700
C 	C 	0.61667 0.86543 0.59045 0.01700
H 	H 	0.65717 0.90933 0.58993 0.00300
N 	N 	0.59907 0.82263 0.57574 -0.19300
C 	C 	0.53877 0.77023 0.57499 0.04300
H 	H 	0.52547 0.74343 0.56403 -0.00100
C 	C 	0.48917 0.74933 0.59000 -0.05100
H 	H 	0.44427 0.71073 0.58883 0.07600
Ag	Ag	0.14269 0.33850 0.05185 0.49900
O 	O 	0.03603 0.07677 0.98492 -0.66900
C 	C 	0.09013 0.13627 0.98298 0.35400
O 	O 	0.96573 0.92327 0.95374 -0.58100
C 	C 	0.01583 0.86277 0.96828 -0.51900
H 	H 	0.02323 0.82477 0.96727 0.16500
C 	C 	0.97573 0.87137 0.95541 0.41600
C 	C 	0.10543 0.18587 0.99840 -0.08400
C 	C 	0.07303 0.16137 0.01511 -0.04800
H 	H 	0.88653 0.92957 0.01697 0.10600
C 	C 	0.08523 0.20767 0.02925 0.03000
H 	H 	0.80903 0.86967 0.04057 -0.00200
N 	N 	0.12893 0.27297 0.02778 -0.19000
C 	C 	0.70323 0.86427 0.01136 0.04000
H 	H 	0.65493 0.84457 0.00997 0.00300
C 	C 	0.74263 0.89797 0.99706 -0.07200
H 	H 	0.72413 0.90727 0.98637 0.02900
C 	C 	0.17753 0.12257 0.93990 -0.08600
C 	C 	0.24263 0.17937 0.93979 -0.04300
H 	H 	0.26023 0.20577 0.95077 0.00600
C 	C 	0.28333 0.19877 0.92379 0.01000
H 	H 	0.32383 0.24267 0.92327 -0.00600
N 	N 	0.26573 0.15597 0.90908 -0.19400
C 	C 	0.20543 0.10357 0.90833 0.03000
H 	H 	0.19213 0.07677 0.89737 -0.01100
C 	C 	0.15583 0.08267 0.92334 -0.04400
H 	H 	0.11093 0.04407 0.92217 0.04500
Ag	Ag	0.86247 0.19064 0.38518 0.51000
O 	O 	0.70740 0.29730 0.31825 -0.61500
C 	C 	0.71280 0.24320 0.31631 0.33900
O 	O 	0.62420 0.36760 0.28707 -0.60600
C 	C 	0.51360 0.31750 0.30161 -0.43100
H 	H 	0.46820 0.31010 0.30060 0.15200
C 	C 	0.56230 0.35760 0.28874 0.33700
C 	C 	0.74710 0.22790 0.33173 -0.06500
C 	C 	0.75500 0.26030 0.34844 -0.05600
H 	H 	0.70970 0.44680 0.35030 0.08300
C 	C 	0.78910 0.24810 0.36258 0.04200
H 	H 	0.72730 0.52430 0.37390 -0.00000
N 	N 	0.81070 0.20440 0.36111 -0.18900
C 	C 	0.82770 0.63010 0.34469 0.02400
H 	H 	0.85630 0.67840 0.34330 0.00600
C 	C 	0.82200 0.59070 0.33039 -0.05500
H 	H 	0.84980 0.60920 0.31970 0.01700
C 	C 	0.61170 0.15580 0.27323 -0.06900
C 	C 	0.60340 0.09070 0.27312 -0.05600
H 	H 	0.61220 0.07310 0.28410 -0.00100
C 	C 	0.58210 0.05000 0.25712 0.00700
H 	H 	0.58550 0.00950 0.25660 -0.02500
N 	N 	0.55690 0.06760 0.24241 -0.20200
C 	C 	0.56480 0.12790 0.24166 0.03800
H 	H 	0.55130 0.14120 0.23070 -0.00600
C 	C 	0.59350 0.17750 0.25667 -0.05300
H 	H 	0.59980 0.22240 0.25550 0.07600
Ag	Ag	0.52914 0.52397 0.71851 0.50500
O 	O 	0.37407 0.63063 0.65158 -0.61600
C 	C 	0.37947 0.57653 0.64964 0.33900
O 	O 	0.29087 0.70093 0.62040 -0.60600
C 	C 	0.18027 0.65083 0.63494 -0.43900
H 	H 	0.13487 0.64343 0.63393 0.15100
C 	C 	0.22897 0.69093 0.62207 0.34000
C 	C 	0.41377 0.56123 0.66506 -0.06500
C 	C 	0.42167 0.59363 0.68177 -0.05700
H 	H 	0.37637 0.78013 0.68363 0.09500
C 	C 	0.45577 0.58143 0.69591 0.04200
H 	H 	0.39397 0.85763 0.70723 0.00100
N 	N 	0.47737 0.53773 0.69444 -0.19000
C 	C 	0.49437 0.96343 0.67802 0.21300
H 	H 	0.52297 0.01173 0.67663 -0.10800
C 	C 	0.48867 0.92403 0.66372 -0.16100
H 	H 	0.51647 0.94253 0.65303 0.07100
C 	C 	0.27837 0.48913 0.60656 -0.06600
C 	C 	0.27007 0.42403 0.60645 -0.05200
H 	H 	0.27887 0.40643 0.61743 0.00900
C 	C 	0.24877 0.38333 0.59045 0.01600
H 	H 	0.25217 0.34283 0.58993 -0.01000
N 	N 	0.22357 0.40093 0.57574 -0.19600
C 	C 	0.23147 0.46123 0.57499 0.04100
H 	H 	0.21797 0.47453 0.56403 -0.00300
C 	C 	0.26017 0.51083 0.59000 -0.05200
H 	H 	0.26647 0.55573 0.58883 0.07600
Ag	Ag	0.19580 0.85731 0.05185 0.50700
O 	O 	0.04073 0.96397 0.98492 -0.60600
C 	C 	0.04613 0.90987 0.98298 0.36100
O 	O 	0.95753 0.03427 0.95374 -0.57400
C 	C 	0.84693 0.98417 0.96828 -0.28000
H 	H 	0.80153 0.97677 0.96727 0.12500
C 	C 	0.89563 0.02427 0.95541 0.21300
C 	C 	0.08043 0.89457 0.99840 -0.07400
C 	C 	0.08833 0.92697 0.01511 -0.05200
H 	H 	0.04303 0.11347 0.01697 0.06000
C 	C 	0.12243 0.91477 0.02925 0.04000
H 	H 	0.06063 0.19097 0.04057 -0.00800
N 	N 	0.14403 0.87107 0.02778 -0.18900
C 	C 	0.16103 0.29677 0.01136 0.01200
H 	H 	0.18963 0.34507 0.00997 0.00600
C 	C 	0.15533 0.25737 0.99706 -0.04700
H 	H 	0.18313 0.27587 0.98637 0.00900
C 	C 	0.94503 0.82247 0.93990 -0.07900
C 	C 	0.93673 0.75737 0.93979 -0.03200
H 	H 	0.94553 0.73977 0.95077 0.01800
C 	C 	0.91543 0.71667 0.92379 0.01800
H 	H 	0.91883 0.67617 0.92327 0.00200
N 	N 	0.89023 0.73427 0.90908 -0.19000
C 	C 	0.89813 0.79457 0.90833 0.04700
H 	H 	0.88463 0.80787 0.89737 0.00300
C 	C 	0.92683 0.84417 0.92334 -0.03600
H 	H 	0.93313 0.88907 0.92217 0.08600
Ag	Ag	0.32817 0.13753 0.38518 0.49300
O 	O 	0.58990 0.29260 0.31825 -0.61600
C 	C 	0.53040 0.28720 0.31631 0.33800
O 	O 	0.74340 0.37580 0.28707 -0.60500
C 	C 	0.80390 0.48640 0.30161 -0.43100
H 	H 	0.84190 0.53180 0.30060 0.15500
C 	C 	0.79530 0.43770 0.28874 0.33900
C 	C 	0.48080 0.25290 0.33173 -0.06700
C 	C 	0.50530 0.24500 0.34844 -0.05800
H 	H 	0.73710 0.29030 0.35030 0.08300
C 	C 	0.45900 0.21090 0.36258 0.03900
H 	H 	0.79700 0.27270 0.37390 0.00200
N 	N 	0.39370 0.18930 0.36111 -0.19300
C 	C 	0.80240 0.17230 0.34469 0.02000
H 	H 	0.82210 0.14370 0.34330 0.00300
C 	C 	0.76870 0.17800 0.33039 -0.05400
H 	H 	0.75940 0.15020 0.31970 0.01000
C 	C 	0.54410 0.38830 0.27323 -0.06600
C 	C 	0.48730 0.39660 0.27312 -0.05100
H 	H 	0.46090 0.38780 0.28410 0.01000
C 	C 	0.46790 0.41790 0.25712 0.01700
H 	H 	0.42400 0.41450 0.25660 -0.01000
N 	N 	0.51070 0.44310 0.24241 -0.19400
C 	C 	0.56310 0.43520 0.24166 0.04300
H 	H 	0.58990 0.44870 0.23070 -0.00000
C 	C 	0.58400 0.40650 0.25667 -0.05000
H 	H 	0.62260 0.40020 0.25550 0.07600
Ag	Ag	0.99484 0.47086 0.71851 0.53000
O 	O 	0.25657 0.62593 0.65158 -0.62000
C 	C 	0.19707 0.62053 0.64964 0.35100
O 	O 	0.41007 0.70913 0.62040 -0.60500
C 	C 	0.47057 0.81973 0.63494 -0.42100
H 	H 	0.50857 0.86513 0.63393 0.15500
C 	C 	0.46197 0.77103 0.62207 0.33500
C 	C 	0.14747 0.58623 0.66506 -0.10500
C 	C 	0.17197 0.57833 0.68177 -0.03000
H 	H 	0.40377 0.62363 0.68363 0.08300
C 	C 	0.12567 0.54423 0.69591 0.02000
H 	H 	0.46367 0.60603 0.70723 0.00000
N 	N 	0.06037 0.52263 0.69444 -0.18000
C 	C 	0.46907 0.50563 0.67802 0.02100
H 	H 	0.48877 0.47703 0.67663 0.00400
C 	C 	0.43537 0.51133 0.66372 -0.05500
H 	H 	0.42607 0.48353 0.65303 0.01300
C 	C 	0.21077 0.72163 0.60656 -0.06600
C 	C 	0.15397 0.72993 0.60645 -0.05100
H 	H 	0.12757 0.72113 0.61743 0.00600
C 	C 	0.13457 0.75123 0.59045 0.01700
H 	H 	0.09067 0.74783 0.58993 -0.01600
N 	N 	0.17737 0.77643 0.57574 -0.19400
C 	C 	0.22977 0.76853 0.57499 0.04300
H 	H 	0.25657 0.78203 0.56403 0.00200
C 	C 	0.25067 0.73983 0.59000 -0.04800
H 	H 	0.28927 0.73353 0.58883 0.07500
Ag	Ag	0.66150 0.80420 0.05185 0.50900
O 	O 	0.92323 0.95927 0.98492 -0.55700
C 	C 	0.86373 0.95387 0.98298 0.29000
O 	O 	0.07673 0.04247 0.95374 -0.66000
C 	C 	0.13723 0.15307 0.96828 -0.45700
H 	H 	0.17523 0.19847 0.96727 0.16000
C 	C 	0.12863 0.10437 0.95541 0.35300
C 	C 	0.81413 0.91957 0.99840 -0.02600
C 	C 	0.83863 0.91167 0.01511 -0.07400
H 	H 	0.07043 0.95697 0.01697 0.09200
C 	C 	0.79233 0.87757 0.02925 0.06200
H 	H 	0.13033 0.93937 0.04057 0.01100
N 	N 	0.72703 0.85597 0.02778 -0.19200
C 	C 	0.13573 0.83897 0.01136 0.01700
H 	H 	0.15543 0.81037 0.00997 0.00400
C 	C 	0.10203 0.84467 0.99706 -0.05000
H 	H 	0.09273 0.81687 0.98637 0.00700
C 	C 	0.87743 0.05497 0.93990 -0.02700
C 	C 	0.82063 0.06327 0.93979 -0.08600
H 	H 	0.79423 0.05447 0.95077 0.00500
C 	C 	0.80123 0.08457 0.92379 0.02200
H 	H 	0.75733 0.08117 0.92327 -0.02300
N 	N 	0.84403 0.10977 0.90908 -0.20100
C 	C 	0.89643 0.10187 0.90833 0.04800
H 	H 	0.92323 0.11537 0.89737 -0.00000
C 	C 	0.91733 0.07317 0.92334 -0.08000
H 	H 	0.95593 0.06687 0.92217 0.09300
Al	Al	0.66667 0.33333 0.80277 2.39800
Al	Al	0.33333 0.66667 0.13610 2.39800
Al	Al	-0.00000 -0.00000 0.46944 2.38900
Al	Al	0.66667 0.33333 0.30277 2.39800
Al	Al	0.33333 0.66667 0.63610 2.39800
Al	Al	-0.00000 -0.00000 0.96944 2.38900
Ag	Ag	0.30263 0.13712 0.78310 0.48200
O 	O 	0.58809 0.28491 0.72293 -0.61600
C 	C 	0.53090 0.23100 0.71874 0.33000
O 	O 	0.74311 0.37810 0.69197 -0.60500
C 	C 	0.80590 0.32400 0.70199 -0.41600
H 	H 	0.83990 0.31240 0.69890 0.15200
C 	C 	0.79190 0.36600 0.68968 0.34100
C 	C 	0.47380 0.20810 0.73257 -0.06600
C 	C 	0.48870 0.24480 0.74957 -0.04600
H 	H 	0.74840 0.46640 0.75200 0.06900
C 	C 	0.43970 0.22660 0.76203 0.01600
H 	H 	0.80160 0.54990 0.77330 0.01000
N 	N 	0.37370 0.17240 0.75933 -0.19300
C 	C 	0.77490 0.63950 0.74440 0.02700
H 	H 	0.77990 0.68370 0.74270 -0.00700
C 	C 	0.74240 0.58870 0.73105 -0.04800
H 	H 	0.72520 0.59930 0.72030 0.02200
C 	C 	0.56340 0.16480 0.67369 -0.08800
C 	C 	0.49830 0.12830 0.66447 -0.05300
H 	H 	0.45790 0.12210 0.67050 0.01400
C 	C 	0.49460 0.10330 0.64755 0.01100
H 	H 	0.45630 0.09430 0.64000 -0.02100
N 	N 	0.54300 0.08990 0.64047 -0.20200
C 	C 	0.60410 0.12240 0.64940 0.00700
H 	H 	0.64140 0.11870 0.64450 -0.01700
C 	C 	0.61480 0.16100 0.66548 -0.03600
H 	H 	0.65960 0.18510 0.67070 0.04800
Ag	Ag	0.96930 0.47045 0.11643 0.52000
O 	O 	0.25476 0.61824 0.05626 -0.62100
C 	C 	0.19757 0.56433 0.05207 0.34700
O 	O 	0.40978 0.71143 0.02530 -0.60500
C 	C 	0.47257 0.65733 0.03532 -0.41600
H 	H 	0.50657 0.64573 0.03223 0.15000
C 	C 	0.45857 0.69933 0.02301 0.34100
C 	C 	0.14047 0.54143 0.06590 -0.11100
C 	C 	0.15537 0.57813 0.08290 -0.01500
H 	H 	0.41507 0.79973 0.08533 0.08300
C 	C 	0.10637 0.55993 0.09536 -0.00800
H 	H 	0.46827 0.88323 0.10663 0.00500
N 	N 	0.04037 0.50573 0.09266 -0.17600
C 	C 	0.44157 0.97283 0.07773 0.21400
H 	H 	0.44657 0.01703 0.07603 -0.13700
C 	C 	0.40907 0.92203 0.06438 -0.15900
H 	H 	0.39187 0.93263 0.05363 0.06900
C 	C 	0.23007 0.49813 0.00702 -0.08800
C 	C 	0.16497 0.46163 0.99780 -0.05200
H 	H 	0.12457 0.45543 0.00383 0.01700
C 	C 	0.16127 0.43663 0.98088 0.01600
H 	H 	0.12297 0.42763 0.97333 -0.01600
N 	N 	0.20967 0.42323 0.97380 -0.19500
C 	C 	0.27077 0.45573 0.98273 0.01000
H 	H 	0.30807 0.45203 0.97783 -0.00800
C 	C 	0.28147 0.49433 0.99881 -0.03400
H 	H 	0.32627 0.51843 0.00403 0.05000
Ag	Ag	0.63596 0.80379 0.44977 0.49900
O 	O 	0.92142 0.95158 0.38960 -0.56400
C 	C 	0.86423 0.89767 0.38541 0.31900
O 	O 	0.07644 0.04477 0.35864 -0.62400
C 	C 	0.13923 0.99067 0.36866 -0.29400
H 	H 	0.17323 0.97907 0.36557 0.13200
C 	C 	0.12523 0.03267 0.35635 0.23000
C 	C 	0.80713 0.87477 0.39924 -0.04200
C 	C 	0.82203 0.91147 0.41624 -0.05600
H 	H 	0.08173 0.13307 0.41867 0.05200
C 	C 	0.77303 0.89327 0.42870 0.03200
H 	H 	0.13493 0.21657 0.43997 0.00900
N 	N 	0.70703 0.83907 0.42600 -0.18900
C 	C 	0.10823 0.30617 0.41107 0.00600
H 	H 	0.11323 0.35037 0.40937 -0.02000
C 	C 	0.07573 0.25537 0.39772 -0.03500
H 	H 	0.05853 0.26597 0.38697 0.00000
C 	C 	0.89673 0.83147 0.34036 -0.06400
C 	C 	0.83163 0.79497 0.33114 -0.05500
H 	H 	0.79123 0.78877 0.33717 0.03200
C 	C 	0.82793 0.76997 0.31422 0.02900
H 	H 	0.78963 0.76097 0.30667 -0.00200
N 	N 	0.87633 0.75657 0.30714 -0.19100
C 	C 	0.93743 0.78907 0.31607 0.02500
H 	H 	0.97473 0.78537 0.31117 0.00600
C 	C 	0.94813 0.82767 0.33215 -0.04000
H 	H 	0.99293 0.85177 0.33737 0.07600
Ag	Ag	0.86288 0.16551 0.78310 0.49200
O 	O 	0.71509 0.30318 0.72293 -0.61700
C 	C 	0.76900 0.29990 0.71874 0.33100
O 	O 	0.62190 0.36501 0.69197 -0.60600
C 	C 	0.67600 0.48190 0.70199 -0.41600
H 	H 	0.68760 0.52750 0.69890 0.15300
C 	C 	0.63400 0.42590 0.68968 0.34100
C 	C 	0.79190 0.26570 0.73257 -0.06600
C 	C 	0.75520 0.24390 0.74957 -0.04800
H 	H 	0.53360 0.28200 0.75200 0.06800
C 	C 	0.77340 0.21310 0.76203 0.01500
H 	H 	0.45010 0.25170 0.77330 0.00500
N 	N 	0.82760 0.20130 0.75933 -0.19100
C 	C 	0.36050 0.13540 0.74440 0.02200
H 	H 	0.31630 0.09620 0.74270 -0.03200
C 	C 	0.41130 0.15370 0.73105 -0.05400
H 	H 	0.40070 0.12590 0.72030 0.01000
C 	C 	0.83520 0.39860 0.67369 -0.08400
C 	C 	0.87170 0.37000 0.66447 -0.05100
H 	H 	0.87790 0.33580 0.67050 0.02800
C 	C 	0.89670 0.39130 0.64755 0.02300
H 	H 	0.90570 0.36200 0.64000 -0.00100
N 	N 	0.91010 0.45310 0.64047 -0.18700
C 	C 	0.87760 0.48170 0.64940 0.01300
H 	H 	0.88130 0.52270 0.64450 0.00100
C 	C 	0.83900 0.45380 0.66548 -0.03400
H 	H 	0.81490 0.47450 0.67070 0.05400
Ag	Ag	0.52955 0.49884 0.11643 0.49300
O 	O 	0.38176 0.63651 0.05626 -0.61600
C 	C 	0.43567 0.63323 0.05207 0.33200
O 	O 	0.28857 0.69834 0.02530 -0.60500
C 	C 	0.34267 0.81523 0.03532 -0.40400
H 	H 	0.35427 0.86083 0.03223 0.15100
C 	C 	0.30067 0.75923 0.02301 0.33600
C 	C 	0.45857 0.59903 0.06590 -0.06500
C 	C 	0.42187 0.57723 0.08290 -0.04600
H 	H 	0.20027 0.61533 0.08533 0.05800
C 	C 	0.44007 0.54643 0.09536 0.01700
H 	H 	0.11677 0.58503 0.10663 0.00700
N 	N 	0.49427 0.53463 0.09266 -0.19000
C 	C 	0.02717 0.46873 0.07773 -0.12000
H 	H 	0.98297 0.42953 0.07603 0.07400
C 	C 	0.07797 0.48703 0.06438 0.03100
H 	H 	0.06737 0.45923 0.05363 -0.02000
C 	C 	0.50187 0.73193 0.00702 -0.08500
C 	C 	0.53837 0.70333 0.99780 -0.05100
H 	H 	0.54457 0.66913 0.00383 0.02400
C 	C 	0.56337 0.72463 0.98088 0.01800
H 	H 	0.57237 0.69533 0.97333 -0.00700
N 	N 	0.57677 0.78643 0.97380 -0.19100
C 	C 	0.54427 0.81503 0.98273 0.01200
H 	H 	0.54797 0.85603 0.97783 0.00200
C 	C 	0.50567 0.78713 0.99881 -0.03300
H 	H 	0.48157 0.80783 0.00403 0.05500
Ag	Ag	0.19621 0.83218 0.44977 0.49600
O 	O 	0.04842 0.96985 0.38960 -0.59700
C 	C 	0.10233 0.96657 0.38541 0.30000
O 	O 	0.95523 0.03168 0.35864 -0.63800
C 	C 	0.00933 0.14857 0.36866 -0.53200
H 	H 	0.02093 0.19417 0.36557 0.16800
C 	C 	0.96733 0.09257 0.35635 0.43600
C 	C 	0.12523 0.93237 0.39924 -0.04100
C 	C 	0.08853 0.91057 0.41624 -0.05200
H 	H 	0.86693 0.94867 0.41867 0.09500
C 	C 	0.10673 0.87977 0.42870 0.02700
H 	H 	0.78343 0.91837 0.43997 0.01500
N 	N 	0.16093 0.86797 0.42600 -0.19200
C 	C 	0.69383 0.80207 0.41107 0.03500
H 	H 	0.64963 0.76287 0.40937 -0.01600
C 	C 	0.74463 0.82037 0.39772 -0.06100
H 	H 	0.73403 0.79257 0.38697 0.02500
C 	C 	0.16853 0.06527 0.34036 -0.06000
C 	C 	0.20503 0.03667 0.33114 -0.08400
H 	H 	0.21123 0.00247 0.33717 0.00600
C 	C 	0.23003 0.05797 0.31422 0.02200
H 	H 	0.23903 0.02867 0.30667 -0.03200
N 	N 	0.24343 0.11977 0.30714 -0.20300
C 	C 	0.21093 0.14837 0.31607 0.01300
H 	H 	0.21463 0.18937 0.31117 -0.01800
C 	C 	0.17233 0.12047 0.33215 -0.06200
H 	H 	0.14823 0.14117 0.33737 0.05000
Ag	Ag	0.83449 0.69737 0.78310 0.50400
O 	O 	0.69682 0.41191 0.72293 -0.61600
C 	C 	0.70010 0.46910 0.71874 0.33300
O 	O 	0.63499 0.25689 0.69197 -0.60600
C 	C 	0.51810 0.19410 0.70199 -0.41500
H 	H 	0.47250 0.16010 0.69890 0.14500
C 	C 	0.57410 0.20810 0.68968 0.33800
C 	C 	0.73430 0.52620 0.73257 -0.06300
C 	C 	0.75610 0.51130 0.74957 -0.04300
H 	H 	0.71800 0.25160 0.75200 0.06800
C 	C 	0.78690 0.56030 0.76203 0.02000
H 	H 	0.74830 0.19840 0.77330 0.00200
N 	N 	0.79870 0.62630 0.75933 -0.18500
C 	C 	0.86460 0.22510 0.74440 0.02300
H 	H 	0.90380 0.22010 0.74270 -0.01300
C 	C 	0.84630 0.25760 0.73105 -0.05200
H 	H 	0.87410 0.27480 0.72030 0.02200
C 	C 	0.60140 0.43660 0.67369 -0.08500
C 	C 	0.63000 0.50170 0.66447 -0.05100
H 	H 	0.66420 0.54210 0.67050 0.02700
C 	C 	0.60870 0.50540 0.64755 0.01900
H 	H 	0.63800 0.54370 0.64000 -0.00500
N 	N 	0.54690 0.45700 0.64047 -0.19400
C 	C 	0.51830 0.39590 0.64940 0.01100
H 	H 	0.47730 0.35860 0.64450 -0.01200
C 	C 	0.54620 0.38520 0.66548 -0.03600
H 	H 	0.52550 0.34040 0.67070 0.04900
Ag	Ag	0.50116 0.03070 0.11643 0.45700
O 	O 	0.36349 0.74524 0.05626 -0.61100
C 	C 	0.36677 0.80243 0.05207 0.31100
O 	O 	0.30166 0.59022 0.02530 -0.60700
C 	C 	0.18477 0.52743 0.03532 -0.42500
H 	H 	0.13917 0.49343 0.03223 0.15000
C 	C 	0.24077 0.54143 0.02301 0.34200
C 	C 	0.40097 0.85953 0.06590 -0.00500
C 	C 	0.42277 0.84463 0.08290 -0.08600
H 	H 	0.38467 0.58493 0.08533 0.06800
C 	C 	0.45357 0.89363 0.09536 0.05100
H 	H 	0.41497 0.53173 0.10663 0.00500
N 	N 	0.46537 0.95963 0.09266 -0.20700
C 	C 	0.53127 0.55843 0.07773 0.02400
H 	H 	0.57047 0.55343 0.07603 -0.01600
C 	C 	0.51297 0.59093 0.06438 -0.05100
H 	H 	0.54077 0.60813 0.05363 0.01900
C 	C 	0.26807 0.76993 0.00702 -0.08200
C 	C 	0.29667 0.83503 0.99780 -0.05100
H 	H 	0.33087 0.87543 0.00383 0.03400
C 	C 	0.27537 0.83873 0.98088 0.02200
H 	H 	0.30467 0.87703 0.97333 0.00400
N 	N 	0.21357 0.79033 0.97380 -0.19300
C 	C 	0.18497 0.72923 0.98273 0.01200
H 	H 	0.14397 0.69193 0.97783 -0.01600
C 	C 	0.21287 0.71853 0.99881 -0.03900
H 	H 	0.19217 0.67373 0.00403 0.04800
Ag	Ag	0.16782 0.36404 0.44977 0.48800
O 	O 	0.03015 0.07858 0.38960 -0.67300
C 	C 	0.03343 0.13577 0.38541 0.36700
O 	O 	0.96832 0.92356 0.35864 -0.55200
C 	C 	0.85143 0.86077 0.36866 -0.38800
H 	H 	0.80583 0.82677 0.36557 0.14600
C 	C 	0.90743 0.87477 0.35635 0.32900
C 	C 	0.06763 0.19287 0.39924 -0.10000
C 	C 	0.08943 0.17797 0.41624 -0.03200
H 	H 	0.05133 0.91827 0.41867 0.06600
C 	C 	0.12023 0.22697 0.42870 -0.00000
H 	H 	0.08163 0.86507 0.43997 -0.00500
N 	N 	0.13203 0.29297 0.42600 -0.18800
C 	C 	0.19793 0.89177 0.41107 0.03900
H 	H 	0.23713 0.88677 0.40937 -0.01100
C 	C 	0.17963 0.92427 0.39772 -0.06100
H 	H 	0.20743 0.94147 0.38697 0.03600
C 	C 	0.93473 0.10327 0.34036 -0.12400
C 	C 	0.96333 0.16837 0.33114 -0.02200
H 	H 	0.99753 0.20877 0.33717 0.03300
C 	C 	0.94203 0.17207 0.31422 0.00700
H 	H 	0.97133 0.21037 0.30667 0.00800
N 	N 	0.88023 0.12367 0.30714 -0.18800
C 	C 	0.85163 0.06257 0.31607 -0.00400
H 	H 	0.81063 0.02527 0.31117 -0.01600
C 	C 	0.87953 0.05187 0.33215 -0.01000
H 	H 	0.85883 0.00707 0.33737 0.02500
Ag	Ag	0.86288 0.69737 0.28310 0.50400
O 	O 	0.71509 0.41191 0.22293 -0.61700
C 	C 	0.76900 0.46910 0.21874 0.33300
O 	O 	0.62190 0.25689 0.19197 -0.60700
C 	C 	0.67600 0.19410 0.20199 -0.41600
H 	H 	0.68760 0.16010 0.19890 0.14700
C 	C 	0.63400 0.20810 0.18968 0.33800
C 	C 	0.79190 0.52620 0.23257 -0.06400
C 	C 	0.75520 0.51130 0.24957 -0.04500
H 	H 	0.53360 0.25160 0.25200 0.06800
C 	C 	0.77340 0.56030 0.26203 0.01900
H 	H 	0.45010 0.19840 0.27330 0.00100
N 	N 	0.82760 0.62630 0.25933 -0.18600
C 	C 	0.36050 0.22510 0.24440 0.02000
H 	H 	0.31630 0.22010 0.24270 -0.02600
C 	C 	0.41130 0.25760 0.23105 -0.05500
H 	H 	0.40070 0.27480 0.22030 0.01500
C 	C 	0.83520 0.43660 0.17369 -0.08400
C 	C 	0.87170 0.50170 0.16447 -0.05000
H 	H 	0.87790 0.54210 0.17050 0.03200
C 	C 	0.89670 0.50540 0.14755 0.02400
H 	H 	0.90570 0.54370 0.14000 0.00200
N 	N 	0.91010 0.45700 0.14047 -0.18700
C 	C 	0.87760 0.39590 0.14940 0.01400
H 	H 	0.88130 0.35860 0.14450 -0.00200
C 	C 	0.83900 0.38520 0.16548 -0.03500
H 	H 	0.81490 0.34040 0.17070 0.05300
Ag	Ag	0.52955 0.03070 0.61643 0.45700
O 	O 	0.38176 0.74524 0.55626 -0.61100
C 	C 	0.43567 0.80243 0.55207 0.31200
O 	O 	0.28857 0.59022 0.52530 -0.60700
C 	C 	0.34267 0.52743 0.53532 -0.41600
H 	H 	0.35427 0.49343 0.53223 0.15000
C 	C 	0.30067 0.54143 0.52301 0.33900
C 	C 	0.45857 0.85953 0.56590 -0.00600
C 	C 	0.42187 0.84463 0.58290 -0.08500
H 	H 	0.20027 0.58493 0.58533 0.05800
C 	C 	0.44007 0.89363 0.59536 0.05000
H 	H 	0.11677 0.53173 0.60663 0.00600
N 	N 	0.49427 0.95963 0.59266 -0.20700
C 	C 	0.02717 0.55843 0.57773 -0.11800
H 	H 	0.98297 0.55343 0.57603 0.07300
C 	C 	0.07797 0.59093 0.56438 0.02900
H 	H 	0.06737 0.60813 0.55363 -0.01900
C 	C 	0.50187 0.76993 0.50702 -0.08200
C 	C 	0.53837 0.83503 0.49780 -0.05100
H 	H 	0.54457 0.87543 0.50383 0.03300
C 	C 	0.56337 0.83873 0.48088 0.02200
H 	H 	0.57237 0.87703 0.47333 0.00400
N 	N 	0.57677 0.79033 0.47380 -0.19100
C 	C 	0.54427 0.72923 0.48273 0.01200
H 	H 	0.54797 0.69193 0.47783 -0.00800
C 	C 	0.50567 0.71853 0.49881 -0.03700
H 	H 	0.48157 0.67373 0.50403 0.05100
Ag	Ag	0.19621 0.36404 0.94977 0.48900
O 	O 	0.04842 0.07858 0.88960 -0.66700
C 	C 	0.10233 0.13577 0.88541 0.34500
O 	O 	0.95523 0.92356 0.85864 -0.57800
C 	C 	0.00933 0.86077 0.86866 -0.49000
H 	H 	0.02093 0.82677 0.86557 0.16100
C 	C 	0.96733 0.87477 0.85635 0.41300
C 	C 	0.12523 0.19287 0.89924 -0.08600
C 	C 	0.08853 0.17797 0.91624 -0.03500
H 	H 	0.86693 0.91827 0.91867 0.08600
C 	C 	0.10673 0.22697 0.92870 0.00400
H 	H 	0.78343 0.86507 0.93997 0.00300
N 	N 	0.16093 0.29297 0.92600 -0.19000
C 	C 	0.69383 0.89177 0.91107 0.04600
H 	H 	0.64963 0.88677 0.90937 -0.01100
C 	C 	0.74463 0.92427 0.89772 -0.06800
H 	H 	0.73403 0.94147 0.88697 0.04100
C 	C 	0.16853 0.10327 0.84036 -0.10800
C 	C 	0.20503 0.16837 0.83114 -0.04700
H 	H 	0.21123 0.20877 0.83717 0.01700
C 	C 	0.23003 0.17207 0.81422 0.00800
H 	H 	0.23903 0.21037 0.80667 -0.01300
N 	N 	0.24343 0.12367 0.80714 -0.19600
C 	C 	0.21093 0.06257 0.81607 -0.00500
H 	H 	0.21463 0.02527 0.81117 -0.02500
C 	C 	0.17233 0.05187 0.83215 -0.03000
H 	H 	0.14823 0.00707 0.83737 0.02200
Ag	Ag	0.83449 0.13712 0.28310 0.49200
O 	O 	0.69682 0.28491 0.22293 -0.61600
C 	C 	0.70010 0.23100 0.21874 0.33200
O 	O 	0.63499 0.37810 0.19197 -0.60500
C 	C 	0.51810 0.32400 0.20199 -0.41600
H 	H 	0.47250 0.31240 0.19890 0.14700
C 	C 	0.57410 0.36600 0.18968 0.33900
C 	C 	0.73430 0.20810 0.23257 -0.06400
C 	C 	0.75610 0.24480 0.24957 -0.04400
H 	H 	0.71800 0.46640 0.25200 0.06800
C 	C 	0.78690 0.22660 0.26203 0.01900
H 	H 	0.74830 0.54990 0.27330 0.00600
N 	N 	0.79870 0.17240 0.25933 -0.18900
C 	C 	0.86460 0.63950 0.24440 0.02700
H 	H 	0.90380 0.68370 0.24270 -0.00300
C 	C 	0.84630 0.58870 0.23105 -0.04900
H 	H 	0.87410 0.59930 0.22030 0.02500
C 	C 	0.60140 0.16480 0.17369 -0.08700
C 	C 	0.63000 0.12830 0.16447 -0.05300
H 	H 	0.66420 0.12210 0.17050 0.01800
C 	C 	0.60870 0.10330 0.14755 0.01100
H 	H 	0.63800 0.09430 0.14000 -0.01700
N 	N 	0.54690 0.08990 0.14047 -0.20200
C 	C 	0.51830 0.12240 0.14940 0.00700
H 	H 	0.47730 0.11870 0.14450 -0.02000
C 	C 	0.54620 0.16100 0.16548 -0.03700
H 	H 	0.52550 0.18510 0.17070 0.04600
Ag	Ag	0.50116 0.47045 0.61643 0.49300
O 	O 	0.36349 0.61824 0.55626 -0.61600
C 	C 	0.36677 0.56433 0.55207 0.33100
O 	O 	0.30166 0.71143 0.52530 -0.60600
C 	C 	0.18477 0.65733 0.53532 -0.42500
H 	H 	0.13917 0.64573 0.53223 0.15000
C 	C 	0.24077 0.69933 0.52301 0.34300
C 	C 	0.40097 0.54143 0.56590 -0.06500
C 	C 	0.42277 0.57813 0.58290 -0.04600
H 	H 	0.38467 0.79973 0.58533 0.08200
C 	C 	0.45357 0.55993 0.59536 0.01700
H 	H 	0.41497 0.88323 0.60663 0.00400
N 	N 	0.46537 0.50573 0.59266 -0.19000
C 	C 	0.53127 0.97283 0.57773 0.21100
H 	H 	0.57047 0.01703 0.57603 -0.13400
C 	C 	0.51297 0.92203 0.56438 -0.15700
H 	H 	0.54077 0.93263 0.55363 0.06800
C 	C 	0.26807 0.49813 0.50702 -0.08600
C 	C 	0.29667 0.46163 0.49780 -0.05200
H 	H 	0.33087 0.45543 0.50383 0.02400
C 	C 	0.27537 0.43663 0.48088 0.01800
H 	H 	0.30467 0.42763 0.47333 -0.00800
N 	N 	0.21357 0.42323 0.47380 -0.19500
C 	C 	0.18497 0.45573 0.48273 0.01000
H 	H 	0.14397 0.45203 0.47783 -0.01600
C 	C 	0.21287 0.49433 0.49881 -0.03800
H 	H 	0.19217 0.51843 0.50403 0.04700
Ag	Ag	0.16782 0.80379 0.94977 0.49400
O 	O 	0.03015 0.95158 0.88960 -0.60900
C 	C 	0.03343 0.89767 0.88541 0.34900
O 	O 	0.96832 0.04477 0.85864 -0.57500
C 	C 	0.85143 0.99067 0.86866 -0.28200
H 	H 	0.80583 0.97907 0.86557 0.13000
C 	C 	0.90743 0.03267 0.85635 0.22800
C 	C 	0.06763 0.87477 0.89924 -0.07200
C 	C 	0.08943 0.91147 0.91624 -0.04400
H 	H 	0.05133 0.13307 0.91867 0.04400
C 	C 	0.12023 0.89327 0.92870 0.01800
H 	H 	0.08163 0.21657 0.93997 -0.00200
N 	N 	0.13203 0.83907 0.92600 -0.18700
C 	C 	0.19793 0.30617 0.91107 0.01500
H 	H 	0.23713 0.35037 0.90937 -0.01600
C 	C 	0.17963 0.25537 0.89772 -0.04200
H 	H 	0.20743 0.26597 0.88697 0.01200
C 	C 	0.93473 0.83147 0.84036 -0.09600
C 	C 	0.96333 0.79497 0.83114 -0.02900
H 	H 	0.99753 0.78877 0.83717 0.04100
C 	C 	0.94203 0.76997 0.81422 0.01900
H 	H 	0.97133 0.76097 0.80667 0.01300
N 	N 	0.88023 0.75657 0.80714 -0.18600
C 	C 	0.85163 0.78907 0.81607 0.01300
H 	H 	0.81063 0.78537 0.81117 0.00100
C 	C 	0.87953 0.82767 0.83215 -0.01800
H 	H 	0.85883 0.85177 0.83737 0.05600
Ag	Ag	0.30263 0.16551 0.28310 0.48200
O 	O 	0.58809 0.30318 0.22293 -0.61700
C 	C 	0.53090 0.29990 0.21874 0.33000
O 	O 	0.74311 0.36501 0.19197 -0.60600
C 	C 	0.80590 0.48190 0.20199 -0.41600
H 	H 	0.83990 0.52750 0.19890 0.15500
C 	C 	0.79190 0.42590 0.18968 0.34200
C 	C 	0.47380 0.26570 0.23257 -0.06700
C 	C 	0.48870 0.24390 0.24957 -0.04800
H 	H 	0.74840 0.28200 0.25200 0.06900
C 	C 	0.43970 0.21310 0.26203 0.01400
H 	H 	0.80160 0.25170 0.27330 0.00900
N 	N 	0.37370 0.20130 0.25933 -0.19500
C 	C 	0.77490 0.13540 0.24440 0.02500
H 	H 	0.77990 0.09620 0.24270 -0.02300
C 	C 	0.74240 0.15370 0.23105 -0.05100
H 	H 	0.72520 0.12590 0.22030 0.01400
C 	C 	0.56340 0.39860 0.17369 -0.08600
C 	C 	0.49830 0.37000 0.16447 -0.05200
H 	H 	0.45790 0.33580 0.17050 0.02000
C 	C 	0.49460 0.39130 0.14755 0.01800
H 	H 	0.45630 0.36200 0.14000 -0.01100
N 	N 	0.54300 0.45310 0.14047 -0.19300
C 	C 	0.60410 0.48170 0.14940 0.01000
H 	H 	0.64140 0.52270 0.14450 -0.00600
C 	C 	0.61480 0.45380 0.16548 -0.03500
H 	H 	0.65960 0.47450 0.17070 0.05200
Ag	Ag	0.96930 0.49884 0.61643 0.52000
O 	O 	0.25476 0.63651 0.55626 -0.62100
C 	C 	0.19757 0.63323 0.55207 0.34700
O 	O 	0.40978 0.69834 0.52530 -0.60400
C 	C 	0.47257 0.81523 0.53532 -0.40400
H 	H 	0.50657 0.86083 0.53223 0.15100
C 	C 	0.45857 0.75923 0.52301 0.33700
C 	C 	0.14047 0.59903 0.56590 -0.11000
C 	C 	0.15537 0.57723 0.58290 -0.01500
H 	H 	0.41507 0.61533 0.58533 0.06800
C 	C 	0.10637 0.54643 0.59536 -0.00800
H 	H 	0.46827 0.58503 0.60663 0.00600
N 	N 	0.04037 0.53463 0.59266 -0.17600
C 	C 	0.44157 0.46873 0.57773 0.02500
H 	H 	0.44657 0.42953 0.57603 -0.01800
C 	C 	0.40907 0.48703 0.56438 -0.05100
H 	H 	0.39187 0.45923 0.55363 0.01800
C 	C 	0.23007 0.73193 0.50702 -0.08700
C 	C 	0.16497 0.70333 0.49780 -0.05100
H 	H 	0.12457 0.66913 0.50383 0.01700
C 	C 	0.16127 0.72463 0.48088 0.01600
H 	H 	0.12297 0.69533 0.47333 -0.01600
N 	N 	0.20967 0.78643 0.47380 -0.19300
C 	C 	0.27077 0.81503 0.48273 0.01100
H 	H 	0.30807 0.85603 0.47783 0.00300
C 	C 	0.28147 0.78713 0.49881 -0.03100
H 	H 	0.32627 0.80783 0.50403 0.05500
Ag	Ag	0.63596 0.83218 0.94977 0.50100
O 	O 	0.92142 0.96985 0.88960 -0.55800
C 	C 	0.86423 0.96657 0.88541 0.29200
O 	O 	0.07644 0.03168 0.85864 -0.66100
C 	C 	0.13923 0.14857 0.86866 -0.44300
H 	H 	0.17323 0.19417 0.86557 0.15500
C 	C 	0.12523 0.09257 0.85635 0.35200
C 	C 	0.80713 0.93237 0.89924 -0.02600
C 	C 	0.82203 0.91057 0.91624 -0.06000
H 	H 	0.08173 0.94867 0.91867 0.08400
C 	C 	0.77303 0.87977 0.92870 0.03700
H 	H 	0.13493 0.91837 0.93997 0.01900
N 	N 	0.70703 0.86797 0.92600 -0.19100
C 	C 	0.10823 0.80207 0.91107 0.01900
H 	H 	0.11323 0.76287 0.90937 -0.02000
C 	C 	0.07573 0.82037 0.89772 -0.04800
H 	H 	0.05853 0.79257 0.88697 0.00900
C 	C 	0.89673 0.06527 0.84036 -0.04300
C 	C 	0.83163 0.03667 0.83114 -0.08600
H 	H 	0.79123 0.00247 0.83717 0.01300
C 	C 	0.82793 0.05797 0.81422 0.03100
H 	H 	0.78963 0.02867 0.80667 -0.02700
N 	N 	0.87633 0.11977 0.80714 -0.20000
C 	C 	0.93743 0.14837 0.81607 0.02600
H 	H 	0.97473 0.18937 0.81117 -0.00300
C 	C 	0.94813 0.12047 0.83215 -0.06500
H 	H 	0.99293 0.14117 0.83737 0.07400
Al	Al	0.66667 0.33333 0.70812 2.39700
Al	Al	0.33333 0.66667 0.04145 2.39700
Al	Al	-0.00000 0.00000 0.37479 2.38800
Al	Al	0.66667 0.33333 0.20812 2.39700
Al	Al	0.33333 0.66667 0.54145 2.39700
Al	Al	-0.00000 -0.00000 0.87479 2.38800
