data_crystal

_cell_length_a 14.58300
_cell_length_b 23.24100
_cell_length_c 15.63380
_cell_angle_alpha 90.00000
_cell_angle_beta  106.99000
_cell_angle_gamma 90.00000

_symmetry_space_group_name_	'P 1'
_symmetry_space_group_name_H-M	'P 1'

loop_
_symmetry_equiv_pos_as_xyz
  x,y,z

loop_
_atom_site_label
_atom_site_type_symbol
_atom_site_fract_x
_atom_site_fract_y
_atom_site_fract_z
_atom_site_charge
Cd	Cd	0.23637 0.43763 0.58375 1.23700
Cd	Cd	0.25806 0.30106 0.69640 1.21800
C 	C 	0.15620 0.53600 0.13220 0.21100
C 	C 	0.23710 0.50890 0.18690 -0.24400
H 	H 	0.29000 0.50200 0.16650 0.12100
C 	C 	0.23800 0.49210 0.27270 0.15100
H 	H 	0.29020 0.47130 0.30730 -0.00200
C 	C 	0.16650 0.50480 0.30710 -0.20700
C 	C 	0.08700 0.53330 0.25210 0.15200
H 	H 	0.03590 0.54250 0.27380 -0.01400
C 	C 	0.08340 0.54780 0.16630 -0.26300
H 	H 	0.02920 0.56640 0.13060 0.12000
C 	C 	0.16850 0.48790 0.39980 0.40600
C 	C 	0.18570 0.50760 0.99120 0.25200
C 	C 	0.22680 0.52430 0.92570 -0.27900
H 	H 	0.23590 0.56320 0.91690 0.13400
C 	C 	0.25390 0.48470 0.87440 0.17400
H 	H 	0.28100 0.49690 0.83060 -0.01500
C 	C 	0.24170 0.42630 0.88600 -0.21600
C 	C 	0.20180 0.41090 0.94920 0.19600
H 	H 	0.19450 0.37190 0.95860 -0.01500
C 	C 	0.17050 0.45000 0.00180 -0.32000
H 	H 	0.14010 0.43760 0.04310 0.14200
C 	C 	0.26690 0.38270 0.82500 0.36100
C 	C 	0.87510 0.72080 0.88080 0.33200
C 	C 	0.95300 0.67740 0.92020 -0.13500
C 	C 	0.96090 0.62730 0.87580 0.14800
H 	H 	0.91990 0.62110 0.81870 0.00000
C 	C 	0.02830 0.58640 0.91440 -0.27900
H 	H 	0.03240 0.55290 0.88310 0.12800
C 	C 	0.08940 0.59440 0.99850 0.23400
C 	C 	0.08590 0.64620 0.03950 -0.26100
H 	H 	0.13090 0.65370 0.09420 0.12000
C 	C 	0.02020 0.68620 0.00360 0.09300
H 	H 	0.01900 0.72040 0.03430 0.00100
C 	C 	0.84290 0.29340 0.66340 0.14500
C 	C 	0.82440 0.31370 0.57740 -0.16900
H 	H 	0.76400 0.30910 0.53670 0.09600
C 	C 	0.89640 0.34100 0.55210 0.07400
H 	H 	0.88390 0.35520 0.49420 0.02200
C 	C 	0.98680 0.34750 0.61170 -0.10500
C 	C 	0.00190 0.32660 0.69670 0.00600
H 	H 	0.06210 0.33090 0.73780 0.03100
C 	C 	0.93140 0.29950 0.72320 -0.12900
H 	H 	0.94380 0.28550 0.78120 0.09100
C 	C 	0.06090 0.37861 0.58270 0.37200
C 	C 	0.78270 0.21160 0.73080 0.18200
C 	C 	0.85270 0.17330 0.71960 -0.21300
H 	H 	0.89070 0.18340 0.68340 0.12000
C 	C 	0.86520 0.12050 0.76210 0.12400
H 	H 	0.91430 0.09640 0.75750 0.00500
C 	C 	0.80650 0.10370 0.81070 -0.17600
C 	C 	0.73900 0.14110 0.82410 0.12100
H 	H 	0.70040 0.12950 0.85890 0.00400
C 	C 	0.72750 0.19470 0.78730 -0.21400
H 	H 	0.68350 0.22010 0.79940 0.10600
C 	C 	0.81680 0.04440 0.85110 0.37500
C 	C 	0.67630 0.29150 0.66690 0.20600
C 	C 	0.59290 0.25930 0.63180 -0.23900
H 	H 	0.59710 0.22030 0.61990 0.11400
C 	C 	0.50310 0.28560 0.61440 0.13800
H 	H 	0.44750 0.26380 0.59380 -0.02600
C 	C 	0.49710 0.34310 0.62790 -0.22000
C 	C 	0.57970 0.37540 0.66070 0.15400
H 	H 	0.57570 0.41460 0.67110 -0.00400
C 	C 	0.66800 0.34920 0.67780 -0.24900
H 	H 	0.72320 0.37140 0.69720 0.12700
C 	C 	0.40140 0.37060 0.61030 0.40800
N 	N 	0.15370 0.55012 0.04320 -0.22800
N 	N 	0.76670 0.26527 0.68920 -0.19700
O 	O 	0.11090 0.51543 0.43320 -0.45500
O 	O 	0.22370 0.44960 0.43880 -0.42400
O 	O 	0.31280 0.39780 0.77390 -0.40000
O 	O 	0.23770 0.33120 0.82830 -0.39600
O 	O 	0.85010 0.75425 0.93230 -0.35400
O 	O 	0.83700 0.72015 0.79860 -0.38200
O 	O 	0.04030 0.40536 0.51240 -0.47000
O 	O 	0.14690 0.37612 0.63470 -0.52000
O 	O 	0.89120 0.01696 0.86420 -0.45100
O 	O 	0.74050 0.02532 0.86670 -0.41900
O 	O 	0.32780 0.34112 0.59540 -0.49900
O 	O 	0.39680 0.42356 0.61130 -0.40000
Cd	Cd	0.76363 0.93763 0.91625 1.24100
Cd	Cd	0.74194 0.80106 0.80360 1.21900
C 	C 	0.84380 0.03600 0.36780 0.25400
C 	C 	0.76290 0.00890 0.31310 -0.32200
H 	H 	0.71000 0.00200 0.33350 0.14400
C 	C 	0.76200 0.99210 0.22730 0.25400
H 	H 	0.70980 0.97130 0.19270 -0.03500
C 	C 	0.83350 0.00480 0.19290 -0.29100
C 	C 	0.91300 0.03330 0.24790 0.21600
H 	H 	0.96410 0.04250 0.22620 -0.02500
C 	C 	0.91660 0.04780 0.33370 -0.31500
H 	H 	0.97080 0.06640 0.36940 0.15200
C 	C 	0.83150 0.98790 0.10020 0.46100
C 	C 	0.81430 0.00760 0.50880 0.18100
C 	C 	0.77320 0.02430 0.57430 -0.24700
H 	H 	0.76410 0.06320 0.58310 0.12100
C 	C 	0.74610 0.98470 0.62560 0.15100
H 	H 	0.71900 0.99690 0.66940 -0.00200
C 	C 	0.75830 0.92630 0.61400 -0.17400
C 	C 	0.79820 0.91090 0.55080 0.12300
H 	H 	0.80550 0.87190 0.54140 0.01100
C 	C 	0.82950 0.95000 0.49820 -0.21000
H 	H 	0.85990 0.93760 0.45690 0.11800
C 	C 	0.73310 0.88270 0.67500 0.34800
C 	C 	0.12490 0.22080 0.61920 0.33700
C 	C 	0.04700 0.17740 0.57980 -0.17700
C 	C 	0.03910 0.12730 0.62420 0.06600
H 	H 	0.08010 0.12110 0.68130 0.01800
C 	C 	0.97170 0.08640 0.58560 -0.18200
H 	H 	0.96760 0.05290 0.61690 0.10600
C 	C 	0.91060 0.09440 0.50150 0.18600
C 	C 	0.91410 0.14620 0.46050 -0.24200
H 	H 	0.86910 0.15370 0.40580 0.11900
C 	C 	0.97980 0.18620 0.49640 0.15800
H 	H 	0.98100 0.22040 0.46570 -0.00100
C 	C 	0.15710 0.79340 0.83660 0.29700
C 	C 	0.17560 0.81370 0.92260 -0.35800
H 	H 	0.23600 0.80910 0.96330 0.16400
C 	C 	0.10360 0.84100 0.94790 0.30300
H 	H 	0.11610 0.85520 0.00580 -0.07400
C 	C 	0.01320 0.84750 0.88830 -0.37700
C 	C 	0.99810 0.82660 0.80330 0.34200
H 	H 	0.93790 0.83090 0.76220 -0.07400
C 	C 	0.06860 0.79950 0.77680 -0.40100
H 	H 	0.05620 0.78550 0.71880 0.17400
C 	C 	0.93910 0.87861 0.91730 0.50100
C 	C 	0.21730 0.71160 0.76920 0.18700
C 	C 	0.14730 0.67330 0.78040 -0.22300
H 	H 	0.10930 0.68340 0.81660 0.11600
C 	C 	0.13480 0.62050 0.73790 0.12800
H 	H 	0.08570 0.59640 0.74250 -0.00500
C 	C 	0.19350 0.60370 0.68930 -0.18200
C 	C 	0.26100 0.64110 0.67590 0.12800
H 	H 	0.29960 0.62950 0.64110 0.00000
C 	C 	0.27250 0.69470 0.71270 -0.22100
H 	H 	0.31650 0.72010 0.70060 0.10700
C 	C 	0.18320 0.54440 0.64890 0.37800
C 	C 	0.32370 0.79150 0.83310 0.21000
C 	C 	0.40710 0.75930 0.86820 -0.24100
H 	H 	0.40290 0.72030 0.88010 0.11700
C 	C 	0.49690 0.78560 0.88560 0.14000
H 	H 	0.55250 0.76380 0.90620 -0.02400
C 	C 	0.50290 0.84310 0.87210 -0.21800
C 	C 	0.42030 0.87540 0.83930 0.15600
H 	H 	0.42430 0.91460 0.82890 -0.00100
C 	C 	0.33200 0.84920 0.82220 -0.25200
H 	H 	0.27680 0.87140 0.80280 0.12800
C 	C 	0.59860 0.87060 0.88970 0.40800
N 	N 	0.84630 0.05012 0.45680 -0.20700
N 	N 	0.23330 0.76527 0.81080 -0.22100
O 	O 	0.88910 0.01543 0.06680 -0.46900
O 	O 	0.77630 0.94960 0.06120 -0.43700
O 	O 	0.68720 0.89780 0.72610 -0.39400
O 	O 	0.76230 0.83120 0.67170 -0.38700
O 	O 	0.14990 0.25425 0.56770 -0.36900
O 	O 	0.16300 0.22015 0.70140 -0.38900
O 	O 	0.95970 0.90536 0.98760 -0.47500
O 	O 	0.85310 0.87612 0.86530 -0.54400
O 	O 	0.10880 0.51696 0.63580 -0.46200
O 	O 	0.25950 0.52532 0.63330 -0.41500
O 	O 	0.67220 0.84112 0.90460 -0.49400
O 	O 	0.60320 0.92356 0.88870 -0.39300
Cd	Cd	0.76363 0.56237 0.41625 1.23600
Cd	Cd	0.74194 0.69894 0.30360 1.21900
C 	C 	0.84380 0.46400 0.86780 0.21000
C 	C 	0.76290 0.49110 0.81310 -0.23900
H 	H 	0.71000 0.49800 0.83350 0.12200
C 	C 	0.76200 0.50790 0.72730 0.14600
H 	H 	0.70980 0.52870 0.69270 -0.00100
C 	C 	0.83350 0.49520 0.69290 -0.19900
C 	C 	0.91300 0.46670 0.74790 0.15000
H 	H 	0.96410 0.45750 0.72620 -0.00000
C 	C 	0.91660 0.45220 0.83370 -0.25500
H 	H 	0.97080 0.43360 0.86940 0.13400
C 	C 	0.83150 0.51210 0.60020 0.40500
C 	C 	0.81430 0.49240 0.00880 0.13300
C 	C 	0.77320 0.47570 0.07430 -0.17800
H 	H 	0.76410 0.43680 0.08310 0.09700
C 	C 	0.74610 0.51530 0.12560 0.08200
H 	H 	0.71900 0.50310 0.16940 0.01600
C 	C 	0.75830 0.57370 0.11400 -0.13100
C 	C 	0.79820 0.58910 0.05080 0.05900
H 	H 	0.80550 0.62810 0.04140 0.02800
C 	C 	0.82950 0.55000 0.99820 -0.14800
H 	H 	0.85990 0.56240 0.95690 0.09600
C 	C 	0.73310 0.61730 0.17500 0.33100
C 	C 	0.12490 0.27920 0.11920 0.33900
C 	C 	0.04700 0.32260 0.07980 -0.18500
C 	C 	0.03910 0.37270 0.12420 0.06200
H 	H 	0.08010 0.37890 0.18130 0.02000
C 	C 	0.97170 0.41360 0.08560 -0.17100
H 	H 	0.96760 0.44710 0.11690 0.10400
C 	C 	0.91060 0.40560 0.00150 0.15800
C 	C 	0.91410 0.35380 0.96050 -0.21700
H 	H 	0.86910 0.34630 0.90580 0.11200
C 	C 	0.97980 0.31380 0.99640 0.16200
H 	H 	0.98100 0.27960 0.96570 0.00100
C 	C 	0.15710 0.70660 0.33660 0.29000
C 	C 	0.17560 0.68630 0.42260 -0.34200
H 	H 	0.23600 0.69090 0.46330 0.15400
C 	C 	0.10360 0.65900 0.44790 0.27000
H 	H 	0.11610 0.64480 0.50580 -0.05300
C 	C 	0.01320 0.65250 0.38830 -0.37400
C 	C 	0.99810 0.67340 0.30330 0.34700
H 	H 	0.93790 0.66910 0.26220 -0.07600
C 	C 	0.06860 0.70050 0.27680 -0.40200
H 	H 	0.05620 0.71450 0.21880 0.17300
C 	C 	0.93910 0.62139 0.41730 0.50300
C 	C 	0.21730 0.78840 0.26920 0.18500
C 	C 	0.14730 0.82670 0.28040 -0.22100
H 	H 	0.10930 0.81660 0.31660 0.11400
C 	C 	0.13480 0.87950 0.23790 0.12500
H 	H 	0.08570 0.90360 0.24250 -0.00300
C 	C 	0.19350 0.89630 0.18930 -0.17800
C 	C 	0.26100 0.85890 0.17590 0.12500
H 	H 	0.29960 0.87050 0.14110 -0.00000
C 	C 	0.27250 0.80530 0.21270 -0.21900
H 	H 	0.31650 0.77990 0.20060 0.10500
C 	C 	0.18320 0.95560 0.14890 0.37500
C 	C 	0.32370 0.70850 0.33310 0.21000
C 	C 	0.40710 0.74070 0.36820 -0.24400
H 	H 	0.40290 0.77970 0.38010 0.11600
C 	C 	0.49690 0.71440 0.38560 0.14100
H 	H 	0.55250 0.73620 0.40620 -0.02600
C 	C 	0.50290 0.65690 0.37210 -0.22300
C 	C 	0.42030 0.62460 0.33930 0.15800
H 	H 	0.42430 0.58540 0.32890 -0.00600
C 	C 	0.33200 0.65080 0.32220 -0.25600
H 	H 	0.27680 0.62860 0.30280 0.12800
C 	C 	0.59860 0.62940 0.38970 0.40900
N 	N 	0.84630 0.44988 0.95680 -0.18000
N 	N 	0.23330 0.73473 0.31080 -0.22100
O 	O 	0.88910 0.48457 0.56680 -0.44300
O 	O 	0.77630 0.55040 0.56120 -0.42100
O 	O 	0.68720 0.60220 0.22610 -0.39300
O 	O 	0.76230 0.66880 0.17170 -0.38500
O 	O 	0.14990 0.24575 0.06770 -0.37400
O 	O 	0.16300 0.27985 0.20140 -0.39100
O 	O 	0.95970 0.59464 0.48760 -0.48300
O 	O 	0.85310 0.62388 0.36530 -0.54600
O 	O 	0.10880 0.98304 0.13580 -0.45200
O 	O 	0.25950 0.97468 0.13330 -0.40900
O 	O 	0.67220 0.65888 0.40460 -0.49700
O 	O 	0.60320 0.57644 0.38870 -0.40100
Cd	Cd	0.23637 0.06237 0.08375 1.22900
Cd	Cd	0.25806 0.19894 0.19640 1.21700
C 	C 	0.15620 0.96400 0.63220 0.15400
C 	C 	0.23710 0.99110 0.68690 -0.13900
H 	H 	0.29000 0.99800 0.66650 0.09200
C 	C 	0.23800 0.00790 0.77270 0.01100
H 	H 	0.29020 0.02870 0.80730 0.04100
C 	C 	0.16650 0.99520 0.80710 -0.09000
C 	C 	0.08700 0.96670 0.75210 0.06600
H 	H 	0.03590 0.95750 0.77380 0.01800
C 	C 	0.08340 0.95220 0.66630 -0.18600
H 	H 	0.02920 0.93360 0.63060 0.09800
C 	C 	0.16850 0.01210 0.89980 0.33100
C 	C 	0.18570 0.99240 0.49120 0.19800
C 	C 	0.22680 0.97570 0.42570 -0.19400
H 	H 	0.23590 0.93680 0.41690 0.10600
C 	C 	0.25390 0.01530 0.37440 0.08800
H 	H 	0.28100 0.00310 0.33060 0.00700
C 	C 	0.24170 0.07370 0.38600 -0.16500
C 	C 	0.20180 0.08910 0.44920 0.12100
H 	H 	0.19450 0.12810 0.45860 0.00500
C 	C 	0.17050 0.05000 0.50180 -0.25100
H 	H 	0.14010 0.06240 0.54310 0.11700
C 	C 	0.26690 0.11730 0.32500 0.34100
C 	C 	0.87510 0.77920 0.38080 0.33300
C 	C 	0.95300 0.82260 0.42020 -0.14000
C 	C 	0.96090 0.87270 0.37580 0.13700
H 	H 	0.91990 0.87890 0.31870 0.00400
C 	C 	0.02830 0.91360 0.41440 -0.25900
H 	H 	0.03240 0.94710 0.38310 0.12400
C 	C 	0.08940 0.90560 0.49850 0.19800
C 	C 	0.08590 0.85380 0.53950 -0.22700
H 	H 	0.13090 0.84630 0.59420 0.11100
C 	C 	0.02020 0.81380 0.50360 0.09400
H 	H 	0.01900 0.77960 0.53430 0.00500
C 	C 	0.84290 0.20660 0.16340 0.12000
C 	C 	0.82440 0.18630 0.07740 -0.13200
H 	H 	0.76400 0.19090 0.03670 0.07900
C 	C 	0.89640 0.15900 0.05210 0.01700
H 	H 	0.88390 0.14480 0.99420 0.05100
C 	C 	0.98680 0.15250 0.11170 -0.06800
C 	C 	0.00190 0.17340 0.19670 -0.03300
H 	H 	0.06210 0.16910 0.23780 0.04200
C 	C 	0.93140 0.20050 0.22320 -0.09600
H 	H 	0.94380 0.21450 0.28120 0.07900
C 	C 	0.06090 0.12139 0.08270 0.35600
C 	C 	0.78270 0.28840 0.23080 0.17900
C 	C 	0.85270 0.32670 0.21960 -0.21100
H 	H 	0.89070 0.31660 0.18340 0.11900
C 	C 	0.86520 0.37950 0.26210 0.12100
H 	H 	0.91430 0.40360 0.25750 0.00700
C 	C 	0.80650 0.39630 0.31070 -0.17300
C 	C 	0.73900 0.35890 0.32410 0.11900
H 	H 	0.70040 0.37050 0.35890 0.00300
C 	C 	0.72750 0.30530 0.28730 -0.21200
H 	H 	0.68350 0.27990 0.29940 0.10400
C 	C 	0.81680 0.45560 0.35110 0.37200
C 	C 	0.67630 0.20850 0.16690 0.20600
C 	C 	0.59290 0.24070 0.13180 -0.24100
H 	H 	0.59710 0.27970 0.11990 0.11300
C 	C 	0.50310 0.21440 0.11440 0.14000
H 	H 	0.44750 0.23620 0.09380 -0.02800
C 	C 	0.49710 0.15690 0.12790 -0.22500
C 	C 	0.57970 0.12460 0.16070 0.15600
H 	H 	0.57570 0.08540 0.17110 -0.00900
C 	C 	0.66800 0.15080 0.17780 -0.25200
H 	H 	0.72320 0.12860 0.19720 0.12700
C 	C 	0.40140 0.12940 0.11030 0.41000
N 	N 	0.15370 0.94988 0.54320 -0.19400
N 	N 	0.76670 0.23473 0.18920 -0.19300
O 	O 	0.11090 0.98457 0.93320 -0.41800
O 	O 	0.22370 0.05040 0.93880 -0.40200
O 	O 	0.31280 0.10220 0.27390 -0.39900
O 	O 	0.23770 0.16880 0.32830 -0.39500
O 	O 	0.85010 0.74575 0.43230 -0.35700
O 	O 	0.83700 0.77985 0.29860 -0.38300
O 	O 	0.04030 0.09464 0.01240 -0.47600
O 	O 	0.14690 0.12388 0.13470 -0.52000
O 	O 	0.89120 0.48304 0.36420 -0.44700
O 	O 	0.74050 0.47468 0.36670 -0.41500
O 	O 	0.32780 0.15888 0.09540 -0.50300
O 	O 	0.39680 0.07644 0.11130 -0.40900
Cd	Cd	0.00000 0.50000 0.50000 1.24000
Cd	Cd	-0.00000 0.00000 -0.00000 1.22800
