data_crystal

_cell_length_a 39.73790
_cell_length_b 39.73790
_cell_length_c 39.73790
_cell_angle_alpha 90.00000
_cell_angle_beta  90.00000
_cell_angle_gamma 90.00000

_symmetry_space_group_name_	'P 1'
_symmetry_space_group_name_H-M	'P 1'

loop_
_symmetry_equiv_pos_as_xyz
  x,y,z

loop_
_atom_site_label
_atom_site_type_symbol
_atom_site_fract_x
_atom_site_fract_y
_atom_site_fract_z
_atom_site_charge
Mo	Mo	0.18296 0.34713 0.08830 1.04700
Mo	Mo	0.10589 0.30151 0.00839 1.04400
Mo	Mo	0.10009 0.38248 0.98586 1.02900
P 	P 	0.17679 0.34931 0.00647 0.51100
O 	O 	0.21256 0.34413 0.99358 -0.47800
O 	O 	0.17824 0.36603 0.04196 -0.45700
O 	O 	0.16684 0.39777 0.09640 -0.40000
O 	O 	0.16871 0.45859 0.10991 -0.44600
O 	O 	0.15905 0.31536 0.00808 -0.43800
O 	O 	0.10228 0.34893 0.02011 -0.62000
O 	O 	0.15751 0.37500 0.98452 -0.45200
O 	O 	0.19371 0.34951 0.13508 -0.62300
Mo	Mo	0.68296 0.84713 0.58830 1.04900
Mo	Mo	0.60589 0.80151 0.50839 1.04700
Mo	Mo	0.60009 0.88248 0.48586 1.03000
P 	P 	0.67679 0.84931 0.50647 0.51800
O 	O 	0.71256 0.84413 0.49358 -0.48100
O 	O 	0.67824 0.86603 0.54196 -0.45600
O 	O 	0.66684 0.89777 0.59640 -0.39800
O 	O 	0.66871 0.95859 0.60991 -0.44400
O 	O 	0.65905 0.81536 0.50808 -0.43600
O 	O 	0.60228 0.84893 0.52011 -0.61700
O 	O 	0.65751 0.87500 0.48452 -0.45500
O 	O 	0.69371 0.84951 0.63508 -0.62300
Mo	Mo	0.31704 0.65287 0.58830 1.04900
Mo	Mo	0.39411 0.69849 0.50839 1.04700
Mo	Mo	0.39991 0.61752 0.48586 1.02900
P 	P 	0.32321 0.65069 0.50647 0.51800
O 	O 	0.28744 0.65587 0.49358 -0.48100
O 	O 	0.32176 0.63397 0.54196 -0.45600
O 	O 	0.33316 0.60223 0.59640 -0.39900
O 	O 	0.33129 0.54141 0.60991 -0.44500
O 	O 	0.34095 0.68464 0.50808 -0.43600
O 	O 	0.39772 0.65107 0.52011 -0.61800
O 	O 	0.34249 0.62500 0.48452 -0.45500
O 	O 	0.30629 0.65049 0.63508 -0.62300
Mo	Mo	0.81704 0.15287 0.08830 1.04900
Mo	Mo	0.89411 0.19849 0.00839 1.04500
Mo	Mo	0.89991 0.11752 0.98586 1.03100
P 	P 	0.82321 0.15069 0.00647 0.51200
O 	O 	0.78744 0.15587 0.99358 -0.47700
O 	O 	0.82176 0.13397 0.04196 -0.45600
O 	O 	0.83316 0.10223 0.09640 -0.39900
O 	O 	0.83129 0.04141 0.10991 -0.44700
O 	O 	0.84095 0.18464 0.00808 -0.43700
O 	O 	0.89772 0.15107 0.02011 -0.61900
O 	O 	0.84249 0.12500 0.98452 -0.45200
O 	O 	0.80629 0.15049 0.13508 -0.62300
Mo	Mo	0.81704 0.84713 0.41170 1.04900
Mo	Mo	0.89411 0.80151 0.49161 1.04800
Mo	Mo	0.89991 0.88248 0.51414 1.03000
P 	P 	0.82321 0.84931 0.49353 0.51800
O 	O 	0.78744 0.84413 0.50642 -0.48100
O 	O 	0.82176 0.86603 0.45804 -0.45600
O 	O 	0.83316 0.89777 0.40360 -0.39800
O 	O 	0.83129 0.95859 0.39009 -0.44400
O 	O 	0.84095 0.81536 0.49192 -0.43600
O 	O 	0.89772 0.84893 0.47989 -0.61700
O 	O 	0.84249 0.87500 0.51548 -0.45500
O 	O 	0.80629 0.84951 0.36492 -0.62300
Mo	Mo	0.31704 0.34713 0.91170 1.04900
Mo	Mo	0.39411 0.30151 0.99161 1.04900
Mo	Mo	0.39991 0.38248 0.01414 1.02800
P 	P 	0.32321 0.34931 0.99353 0.52300
O 	O 	0.28744 0.34413 0.00642 -0.48500
O 	O 	0.32176 0.36603 0.95804 -0.45600
O 	O 	0.33316 0.39777 0.90360 -0.39800
O 	O 	0.33129 0.45859 0.89009 -0.44500
O 	O 	0.34095 0.31536 0.99192 -0.43400
O 	O 	0.39772 0.34893 0.97989 -0.61500
O 	O 	0.34249 0.37500 0.01548 -0.45800
O 	O 	0.30629 0.34951 0.86492 -0.62300
Mo	Mo	0.68296 0.15287 0.91170 1.04900
Mo	Mo	0.60589 0.19849 0.99161 1.04900
Mo	Mo	0.60009 0.11752 0.01414 1.02700
P 	P 	0.67679 0.15069 0.99353 0.52300
O 	O 	0.71256 0.15587 0.00642 -0.48500
O 	O 	0.67824 0.13397 0.95804 -0.45600
O 	O 	0.66684 0.10223 0.90360 -0.39800
O 	O 	0.66871 0.04141 0.89009 -0.44600
O 	O 	0.65905 0.18464 0.99192 -0.43400
O 	O 	0.60228 0.15107 0.97989 -0.61500
O 	O 	0.65751 0.12500 0.01548 -0.45800
O 	O 	0.69371 0.15049 0.86492 -0.62300
Mo	Mo	0.18296 0.65287 0.41170 1.04900
Mo	Mo	0.10589 0.69849 0.49161 1.04700
Mo	Mo	0.10009 0.61752 0.51414 1.02900
P 	P 	0.17679 0.65069 0.49353 0.51800
O 	O 	0.21256 0.65587 0.50642 -0.48100
O 	O 	0.17824 0.63397 0.45804 -0.45600
O 	O 	0.16684 0.60223 0.40360 -0.39900
O 	O 	0.16871 0.54141 0.39009 -0.44500
O 	O 	0.15905 0.68464 0.49192 -0.43600
O 	O 	0.10228 0.65107 0.47989 -0.61800
O 	O 	0.15751 0.62500 0.51548 -0.45500
O 	O 	0.19371 0.65049 0.36492 -0.62300
Mo	Mo	0.08830 0.18296 0.34713 1.04800
Mo	Mo	0.00839 0.10589 0.30151 1.04500
Mo	Mo	0.98586 0.10009 0.38248 1.03000
P 	P 	0.00647 0.17679 0.34931 0.51200
O 	O 	0.99358 0.21256 0.34413 -0.47700
O 	O 	0.04196 0.17824 0.36603 -0.45600
O 	O 	0.09640 0.16684 0.39777 -0.39900
O 	O 	0.10991 0.16871 0.45859 -0.44500
O 	O 	0.00808 0.15905 0.31536 -0.43700
O 	O 	0.02011 0.10228 0.34893 -0.62000
O 	O 	0.98452 0.15751 0.37500 -0.45200
O 	O 	0.13508 0.19371 0.34951 -0.62300
Mo	Mo	0.58830 0.68296 0.84713 1.04900
Mo	Mo	0.50839 0.60589 0.80151 1.04700
Mo	Mo	0.48586 0.60009 0.88248 1.03000
P 	P 	0.50647 0.67679 0.84931 0.51800
O 	O 	0.49358 0.71256 0.84413 -0.48100
O 	O 	0.54196 0.67824 0.86603 -0.45600
O 	O 	0.59640 0.66684 0.89777 -0.39800
O 	O 	0.60991 0.66871 0.95859 -0.44400
O 	O 	0.50808 0.65905 0.81536 -0.43600
O 	O 	0.52011 0.60228 0.84893 -0.61700
O 	O 	0.48452 0.65751 0.87500 -0.45500
O 	O 	0.63508 0.69371 0.84951 -0.62300
Mo	Mo	0.58830 0.31704 0.65287 1.04900
Mo	Mo	0.50839 0.39411 0.69849 1.04700
Mo	Mo	0.48586 0.39991 0.61752 1.02900
P 	P 	0.50647 0.32321 0.65069 0.51800
O 	O 	0.49358 0.28744 0.65587 -0.48100
O 	O 	0.54196 0.32176 0.63397 -0.45600
O 	O 	0.59640 0.33316 0.60223 -0.39900
O 	O 	0.60991 0.33129 0.54141 -0.44500
O 	O 	0.50808 0.34095 0.68464 -0.43600
O 	O 	0.52011 0.39772 0.65107 -0.61800
O 	O 	0.48452 0.34249 0.62500 -0.45500
O 	O 	0.63508 0.30629 0.65049 -0.62300
Mo	Mo	0.08830 0.81704 0.15287 1.04900
Mo	Mo	0.00839 0.89411 0.19849 1.04500
Mo	Mo	0.98586 0.89991 0.11752 1.03100
P 	P 	0.00647 0.82321 0.15069 0.51200
O 	O 	0.99358 0.78744 0.15587 -0.47700
O 	O 	0.04196 0.82176 0.13397 -0.45600
O 	O 	0.09640 0.83316 0.10223 -0.39900
O 	O 	0.10991 0.83129 0.04141 -0.44700
O 	O 	0.00808 0.84095 0.18464 -0.43700
O 	O 	0.02011 0.89772 0.15107 -0.61900
O 	O 	0.98452 0.84249 0.12500 -0.45200
O 	O 	0.13508 0.80629 0.15049 -0.62300
Mo	Mo	0.41170 0.81704 0.84713 1.04900
Mo	Mo	0.49161 0.89411 0.80151 1.04800
Mo	Mo	0.51414 0.89991 0.88248 1.03000
P 	P 	0.49353 0.82321 0.84931 0.51800
O 	O 	0.50642 0.78744 0.84413 -0.48100
O 	O 	0.45804 0.82176 0.86603 -0.45600
O 	O 	0.40360 0.83316 0.89777 -0.39800
O 	O 	0.39009 0.83129 0.95859 -0.44400
O 	O 	0.49192 0.84095 0.81536 -0.43600
O 	O 	0.47989 0.89772 0.84893 -0.61700
O 	O 	0.51548 0.84249 0.87500 -0.45500
O 	O 	0.36492 0.80629 0.84951 -0.62300
Mo	Mo	0.91170 0.31704 0.34713 1.04900
Mo	Mo	0.99161 0.39411 0.30151 1.04900
Mo	Mo	0.01414 0.39991 0.38248 1.02800
P 	P 	0.99353 0.32321 0.34931 0.52300
O 	O 	0.00642 0.28744 0.34413 -0.48500
O 	O 	0.95804 0.32176 0.36603 -0.45600
O 	O 	0.90360 0.33316 0.39777 -0.39800
O 	O 	0.89009 0.33129 0.45859 -0.44500
O 	O 	0.99192 0.34095 0.31536 -0.43400
O 	O 	0.97989 0.39772 0.34893 -0.61500
O 	O 	0.01548 0.34249 0.37500 -0.45800
O 	O 	0.86492 0.30629 0.34951 -0.62300
Mo	Mo	0.91170 0.68296 0.15287 1.04900
Mo	Mo	0.99161 0.60589 0.19849 1.04900
Mo	Mo	0.01414 0.60009 0.11752 1.02700
P 	P 	0.99353 0.67679 0.15069 0.52300
O 	O 	0.00642 0.71256 0.15587 -0.48500
O 	O 	0.95804 0.67824 0.13397 -0.45600
O 	O 	0.90360 0.66684 0.10223 -0.39800
O 	O 	0.89009 0.66871 0.04141 -0.44600
O 	O 	0.99192 0.65905 0.18464 -0.43400
O 	O 	0.97989 0.60228 0.15107 -0.61500
O 	O 	0.01548 0.65751 0.12500 -0.45800
O 	O 	0.86492 0.69371 0.15049 -0.62300
Mo	Mo	0.41170 0.18296 0.65287 1.04900
Mo	Mo	0.49161 0.10589 0.69849 1.04700
Mo	Mo	0.51414 0.10009 0.61752 1.02900
P 	P 	0.49353 0.17679 0.65069 0.51800
O 	O 	0.50642 0.21256 0.65587 -0.48100
O 	O 	0.45804 0.17824 0.63397 -0.45600
O 	O 	0.40360 0.16684 0.60223 -0.39900
O 	O 	0.39009 0.16871 0.54141 -0.44500
O 	O 	0.49192 0.15905 0.68464 -0.43600
O 	O 	0.47989 0.10228 0.65107 -0.61800
O 	O 	0.51548 0.15751 0.62500 -0.45500
O 	O 	0.36492 0.19371 0.65049 -0.62300
Mo	Mo	0.34713 0.08830 0.18296 1.04800
Mo	Mo	0.30151 0.00839 0.10589 1.04500
Mo	Mo	0.38248 0.98586 0.10009 1.03000
P 	P 	0.34931 0.00647 0.17679 0.51200
O 	O 	0.34413 0.99358 0.21256 -0.47700
O 	O 	0.36603 0.04196 0.17824 -0.45600
O 	O 	0.39777 0.09640 0.16684 -0.39900
O 	O 	0.45859 0.10991 0.16871 -0.44500
O 	O 	0.31536 0.00808 0.15905 -0.43700
O 	O 	0.34893 0.02011 0.10228 -0.62000
O 	O 	0.37500 0.98452 0.15751 -0.45200
O 	O 	0.34951 0.13508 0.19371 -0.62300
Mo	Mo	0.84713 0.58830 0.68296 1.04900
Mo	Mo	0.80151 0.50839 0.60589 1.04700
Mo	Mo	0.88248 0.48586 0.60009 1.03000
P 	P 	0.84931 0.50647 0.67679 0.51800
O 	O 	0.84413 0.49358 0.71256 -0.48100
O 	O 	0.86603 0.54196 0.67824 -0.45600
O 	O 	0.89777 0.59640 0.66684 -0.39800
O 	O 	0.95859 0.60991 0.66871 -0.44400
O 	O 	0.81536 0.50808 0.65905 -0.43600
O 	O 	0.84893 0.52011 0.60228 -0.61700
O 	O 	0.87500 0.48452 0.65751 -0.45500
O 	O 	0.84951 0.63508 0.69371 -0.62300
Mo	Mo	0.65287 0.58830 0.31704 1.04900
Mo	Mo	0.69849 0.50839 0.39411 1.04700
Mo	Mo	0.61752 0.48586 0.39991 1.02900
P 	P 	0.65069 0.50647 0.32321 0.51800
O 	O 	0.65587 0.49358 0.28744 -0.48100
O 	O 	0.63397 0.54196 0.32176 -0.45600
O 	O 	0.60223 0.59640 0.33316 -0.39900
O 	O 	0.54141 0.60991 0.33129 -0.44500
O 	O 	0.68464 0.50808 0.34095 -0.43600
O 	O 	0.65107 0.52011 0.39772 -0.61800
O 	O 	0.62500 0.48452 0.34249 -0.45500
O 	O 	0.65049 0.63508 0.30629 -0.62300
Mo	Mo	0.15287 0.08830 0.81704 1.04900
Mo	Mo	0.19849 0.00839 0.89411 1.04500
Mo	Mo	0.11752 0.98586 0.89991 1.03100
P 	P 	0.15069 0.00647 0.82321 0.51200
O 	O 	0.15587 0.99358 0.78744 -0.47700
O 	O 	0.13397 0.04196 0.82176 -0.45600
O 	O 	0.10223 0.09640 0.83316 -0.39900
O 	O 	0.04141 0.10991 0.83129 -0.44700
O 	O 	0.18464 0.00808 0.84095 -0.43700
O 	O 	0.15107 0.02011 0.89772 -0.61900
O 	O 	0.12500 0.98452 0.84249 -0.45200
O 	O 	0.15049 0.13508 0.80629 -0.62300
Mo	Mo	0.84713 0.41170 0.81704 1.04900
Mo	Mo	0.80151 0.49161 0.89411 1.04800
Mo	Mo	0.88248 0.51414 0.89991 1.03000
P 	P 	0.84931 0.49353 0.82321 0.51800
O 	O 	0.84413 0.50642 0.78744 -0.48100
O 	O 	0.86603 0.45804 0.82176 -0.45600
O 	O 	0.89777 0.40360 0.83316 -0.39800
O 	O 	0.95859 0.39009 0.83129 -0.44400
O 	O 	0.81536 0.49192 0.84095 -0.43600
O 	O 	0.84893 0.47989 0.89772 -0.61700
O 	O 	0.87500 0.51548 0.84249 -0.45500
O 	O 	0.84951 0.36492 0.80629 -0.62300
Mo	Mo	0.34713 0.91170 0.31704 1.04900
Mo	Mo	0.30151 0.99161 0.39411 1.04900
Mo	Mo	0.38248 0.01414 0.39991 1.02800
P 	P 	0.34931 0.99353 0.32321 0.52300
O 	O 	0.34413 0.00642 0.28744 -0.48500
O 	O 	0.36603 0.95804 0.32176 -0.45600
O 	O 	0.39777 0.90360 0.33316 -0.39800
O 	O 	0.45859 0.89009 0.33129 -0.44500
O 	O 	0.31536 0.99192 0.34095 -0.43400
O 	O 	0.34893 0.97989 0.39772 -0.61500
O 	O 	0.37500 0.01548 0.34249 -0.45800
O 	O 	0.34951 0.86492 0.30629 -0.62300
Mo	Mo	0.15287 0.91170 0.68296 1.04900
Mo	Mo	0.19849 0.99161 0.60589 1.04900
Mo	Mo	0.11752 0.01414 0.60009 1.02700
P 	P 	0.15069 0.99353 0.67679 0.52300
O 	O 	0.15587 0.00642 0.71256 -0.48500
O 	O 	0.13397 0.95804 0.67824 -0.45600
O 	O 	0.10223 0.90360 0.66684 -0.39800
O 	O 	0.04141 0.89009 0.66871 -0.44600
O 	O 	0.18464 0.99192 0.65905 -0.43400
O 	O 	0.15107 0.97989 0.60228 -0.61500
O 	O 	0.12500 0.01548 0.65751 -0.45800
O 	O 	0.15049 0.86492 0.69371 -0.62300
Mo	Mo	0.65287 0.41170 0.18296 1.04900
Mo	Mo	0.69849 0.49161 0.10589 1.04700
Mo	Mo	0.61752 0.51414 0.10009 1.02900
P 	P 	0.65069 0.49353 0.17679 0.51800
O 	O 	0.65587 0.50642 0.21256 -0.48100
O 	O 	0.63397 0.45804 0.17824 -0.45600
O 	O 	0.60223 0.40360 0.16684 -0.39900
O 	O 	0.54141 0.39009 0.16871 -0.44500
O 	O 	0.68464 0.49192 0.15905 -0.43600
O 	O 	0.65107 0.47989 0.10228 -0.61800
O 	O 	0.62500 0.51548 0.15751 -0.45500
O 	O 	0.65049 0.36492 0.19371 -0.62300
Mo	Mo	0.09713 0.43296 0.16170 1.04800
Mo	Mo	0.05151 0.35589 0.24161 1.04700
Mo	Mo	0.13248 0.35009 0.26414 1.02900
P 	P 	0.09931 0.42679 0.24353 0.51800
O 	O 	0.09413 0.46256 0.25642 -0.48200
O 	O 	0.11603 0.42824 0.20804 -0.45600
O 	O 	0.14777 0.41684 0.15360 -0.39900
O 	O 	0.20859 0.41871 0.14009 -0.44500
O 	O 	0.06536 0.40905 0.24192 -0.43600
O 	O 	0.09893 0.35228 0.22989 -0.61800
O 	O 	0.12500 0.40751 0.26548 -0.45500
O 	O 	0.09951 0.44371 0.11492 -0.62400
Mo	Mo	0.59713 0.93296 0.66170 1.04900
Mo	Mo	0.55151 0.85589 0.74161 1.04700
Mo	Mo	0.63248 0.85009 0.76414 1.02900
P 	P 	0.59931 0.92679 0.74353 0.51700
O 	O 	0.59413 0.96256 0.75642 -0.48000
O 	O 	0.61603 0.92824 0.70804 -0.45600
O 	O 	0.64777 0.91684 0.65360 -0.39800
O 	O 	0.70859 0.91871 0.64009 -0.44500
O 	O 	0.56536 0.90905 0.74192 -0.43500
O 	O 	0.59893 0.85228 0.72989 -0.61700
O 	O 	0.62500 0.90751 0.76548 -0.45500
O 	O 	0.59951 0.94371 0.61492 -0.62200
Mo	Mo	0.40287 0.56704 0.66170 1.04900
Mo	Mo	0.44849 0.64411 0.74161 1.04700
Mo	Mo	0.36752 0.64991 0.76414 1.02900
P 	P 	0.40069 0.57321 0.74353 0.51800
O 	O 	0.40587 0.53744 0.75642 -0.48100
O 	O 	0.38397 0.57176 0.70804 -0.45600
O 	O 	0.35223 0.58316 0.65360 -0.39900
O 	O 	0.29141 0.58129 0.64009 -0.44500
O 	O 	0.43464 0.59095 0.74192 -0.43600
O 	O 	0.40107 0.64772 0.72989 -0.61800
O 	O 	0.37500 0.59249 0.76548 -0.45500
O 	O 	0.40049 0.55629 0.61492 -0.62300
Mo	Mo	0.90287 0.06704 0.16170 1.04900
Mo	Mo	0.94849 0.14411 0.24161 1.04700
Mo	Mo	0.86752 0.14991 0.26414 1.02900
P 	P 	0.90069 0.07321 0.24353 0.51800
O 	O 	0.90587 0.03744 0.25642 -0.48200
O 	O 	0.88397 0.07176 0.20804 -0.45600
O 	O 	0.85223 0.08316 0.15360 -0.39900
O 	O 	0.79141 0.08129 0.14009 -0.44500
O 	O 	0.93464 0.09095 0.24192 -0.43600
O 	O 	0.90107 0.14772 0.22989 -0.61700
O 	O 	0.87500 0.09249 0.26548 -0.45500
O 	O 	0.90049 0.05629 0.11492 -0.62300
Mo	Mo	0.59713 0.06704 0.83830 1.04900
Mo	Mo	0.55151 0.14411 0.75839 1.04700
Mo	Mo	0.63248 0.14991 0.73586 1.02900
P 	P 	0.59931 0.07321 0.75647 0.51800
O 	O 	0.59413 0.03744 0.74358 -0.48200
O 	O 	0.61603 0.07176 0.79196 -0.45600
O 	O 	0.64777 0.08316 0.84640 -0.39900
O 	O 	0.70859 0.08129 0.85991 -0.44500
O 	O 	0.56536 0.09095 0.75808 -0.43600
O 	O 	0.59893 0.14772 0.77011 -0.61700
O 	O 	0.62500 0.09249 0.73452 -0.45500
O 	O 	0.59951 0.05629 0.88508 -0.62300
Mo	Mo	0.09713 0.56704 0.33830 1.04800
Mo	Mo	0.05151 0.64411 0.25839 1.04700
Mo	Mo	0.13248 0.64991 0.23586 1.02900
P 	P 	0.09931 0.57321 0.25647 0.51800
O 	O 	0.09413 0.53744 0.24358 -0.48200
O 	O 	0.11603 0.57176 0.29196 -0.45600
O 	O 	0.14777 0.58316 0.34640 -0.39900
O 	O 	0.20859 0.58129 0.35991 -0.44500
O 	O 	0.06536 0.59095 0.25808 -0.43600
O 	O 	0.09893 0.64772 0.27011 -0.61800
O 	O 	0.12500 0.59249 0.23452 -0.45500
O 	O 	0.09951 0.55629 0.38508 -0.62300
Mo	Mo	0.90287 0.93296 0.33830 1.04900
Mo	Mo	0.94849 0.85589 0.25839 1.04800
Mo	Mo	0.86752 0.85009 0.23586 1.02900
P 	P 	0.90069 0.92679 0.25647 0.51700
O 	O 	0.90587 0.96256 0.24358 -0.47900
O 	O 	0.88397 0.92824 0.29196 -0.45500
O 	O 	0.85223 0.91684 0.34640 -0.39800
O 	O 	0.79141 0.91871 0.35991 -0.44500
O 	O 	0.93464 0.90905 0.25808 -0.43500
O 	O 	0.90107 0.85228 0.27011 -0.61700
O 	O 	0.87500 0.90751 0.23452 -0.45500
O 	O 	0.90049 0.94371 0.38508 -0.62200
Mo	Mo	0.40287 0.43296 0.83830 1.04900
Mo	Mo	0.44849 0.35589 0.75839 1.04700
Mo	Mo	0.36752 0.35009 0.73586 1.02900
P 	P 	0.40069 0.42679 0.75647 0.51800
O 	O 	0.40587 0.46256 0.74358 -0.48100
O 	O 	0.38397 0.42824 0.79196 -0.45600
O 	O 	0.35223 0.41684 0.84640 -0.39900
O 	O 	0.29141 0.41871 0.85991 -0.44500
O 	O 	0.43464 0.40905 0.75808 -0.43600
O 	O 	0.40107 0.35228 0.77011 -0.61700
O 	O 	0.37500 0.40751 0.73452 -0.45500
O 	O 	0.40049 0.44371 0.88508 -0.62200
Mo	Mo	0.93296 0.33830 0.90287 1.04900
Mo	Mo	0.85589 0.25839 0.94849 1.04800
Mo	Mo	0.85009 0.23586 0.86752 1.02900
P 	P 	0.92679 0.25647 0.90069 0.51700
O 	O 	0.96256 0.24358 0.90587 -0.47900
O 	O 	0.92824 0.29196 0.88397 -0.45500
O 	O 	0.91684 0.34640 0.85223 -0.39800
O 	O 	0.91871 0.35991 0.79141 -0.44500
O 	O 	0.90905 0.25808 0.93464 -0.43500
O 	O 	0.85228 0.27011 0.90107 -0.61700
O 	O 	0.90751 0.23452 0.87500 -0.45500
O 	O 	0.94371 0.38508 0.90049 -0.62200
Mo	Mo	0.43296 0.83830 0.40287 1.04900
Mo	Mo	0.35589 0.75839 0.44849 1.04700
Mo	Mo	0.35009 0.73586 0.36752 1.02900
P 	P 	0.42679 0.75647 0.40069 0.51800
O 	O 	0.46256 0.74358 0.40587 -0.48100
O 	O 	0.42824 0.79196 0.38397 -0.45600
O 	O 	0.41684 0.84640 0.35223 -0.39900
O 	O 	0.41871 0.85991 0.29141 -0.44500
O 	O 	0.40905 0.75808 0.43464 -0.43600
O 	O 	0.35228 0.77011 0.40107 -0.61700
O 	O 	0.40751 0.73452 0.37500 -0.45500
O 	O 	0.44371 0.88508 0.40049 -0.62200
Mo	Mo	0.06704 0.83830 0.59713 1.04900
Mo	Mo	0.14411 0.75839 0.55151 1.04700
Mo	Mo	0.14991 0.73586 0.63248 1.02900
P 	P 	0.07321 0.75647 0.59931 0.51800
O 	O 	0.03744 0.74358 0.59413 -0.48200
O 	O 	0.07176 0.79196 0.61603 -0.45600
O 	O 	0.08316 0.84640 0.64777 -0.39900
O 	O 	0.08129 0.85991 0.70859 -0.44500
O 	O 	0.09095 0.75808 0.56536 -0.43600
O 	O 	0.14772 0.77011 0.59893 -0.61700
O 	O 	0.09249 0.73452 0.62500 -0.45500
O 	O 	0.05629 0.88508 0.59951 -0.62300
Mo	Mo	0.56704 0.33830 0.09713 1.04800
Mo	Mo	0.64411 0.25839 0.05151 1.04700
Mo	Mo	0.64991 0.23586 0.13248 1.02900
P 	P 	0.57321 0.25647 0.09931 0.51800
O 	O 	0.53744 0.24358 0.09413 -0.48200
O 	O 	0.57176 0.29196 0.11603 -0.45600
O 	O 	0.58316 0.34640 0.14777 -0.39900
O 	O 	0.58129 0.35991 0.20859 -0.44500
O 	O 	0.59095 0.25808 0.06536 -0.43600
O 	O 	0.64772 0.27011 0.09893 -0.61800
O 	O 	0.59249 0.23452 0.12500 -0.45500
O 	O 	0.55629 0.38508 0.09951 -0.62300
Mo	Mo	0.56704 0.66170 0.40287 1.04900
Mo	Mo	0.64411 0.74161 0.44849 1.04700
Mo	Mo	0.64991 0.76414 0.36752 1.02900
P 	P 	0.57321 0.74353 0.40069 0.51800
O 	O 	0.53744 0.75642 0.40587 -0.48100
O 	O 	0.57176 0.70804 0.38397 -0.45600
O 	O 	0.58316 0.65360 0.35223 -0.39900
O 	O 	0.58129 0.64009 0.29141 -0.44500
O 	O 	0.59095 0.74192 0.43464 -0.43600
O 	O 	0.64772 0.72989 0.40107 -0.61800
O 	O 	0.59249 0.76548 0.37500 -0.45500
O 	O 	0.55629 0.61492 0.40049 -0.62300
Mo	Mo	0.06704 0.16170 0.90287 1.04900
Mo	Mo	0.14411 0.24161 0.94849 1.04700
Mo	Mo	0.14991 0.26414 0.86752 1.02900
P 	P 	0.07321 0.24353 0.90069 0.51800
O 	O 	0.03744 0.25642 0.90587 -0.48200
O 	O 	0.07176 0.20804 0.88397 -0.45600
O 	O 	0.08316 0.15360 0.85223 -0.39900
O 	O 	0.08129 0.14009 0.79141 -0.44500
O 	O 	0.09095 0.24192 0.93464 -0.43600
O 	O 	0.14772 0.22989 0.90107 -0.61700
O 	O 	0.09249 0.26548 0.87500 -0.45500
O 	O 	0.05629 0.11492 0.90049 -0.62300
Mo	Mo	0.43296 0.16170 0.09713 1.04800
Mo	Mo	0.35589 0.24161 0.05151 1.04700
Mo	Mo	0.35009 0.26414 0.13248 1.02900
P 	P 	0.42679 0.24353 0.09931 0.51800
O 	O 	0.46256 0.25642 0.09413 -0.48200
O 	O 	0.42824 0.20804 0.11603 -0.45600
O 	O 	0.41684 0.15360 0.14777 -0.39900
O 	O 	0.41871 0.14009 0.20859 -0.44500
O 	O 	0.40905 0.24192 0.06536 -0.43600
O 	O 	0.35228 0.22989 0.09893 -0.61800
O 	O 	0.40751 0.26548 0.12500 -0.45500
O 	O 	0.44371 0.11492 0.09951 -0.62400
Mo	Mo	0.93296 0.66170 0.59713 1.04900
Mo	Mo	0.85589 0.74161 0.55151 1.04700
Mo	Mo	0.85009 0.76414 0.63248 1.02900
P 	P 	0.92679 0.74353 0.59931 0.51700
O 	O 	0.96256 0.75642 0.59413 -0.48000
O 	O 	0.92824 0.70804 0.61603 -0.45600
O 	O 	0.91684 0.65360 0.64777 -0.39800
O 	O 	0.91871 0.64009 0.70859 -0.44500
O 	O 	0.90905 0.74192 0.56536 -0.43500
O 	O 	0.85228 0.72989 0.59893 -0.61700
O 	O 	0.90751 0.76548 0.62500 -0.45500
O 	O 	0.94371 0.61492 0.59951 -0.62200
Mo	Mo	0.83830 0.59713 0.06704 1.04900
Mo	Mo	0.75839 0.55151 0.14411 1.04700
Mo	Mo	0.73586 0.63248 0.14991 1.02900
P 	P 	0.75647 0.59931 0.07321 0.51800
O 	O 	0.74358 0.59413 0.03744 -0.48200
O 	O 	0.79196 0.61603 0.07176 -0.45600
O 	O 	0.84640 0.64777 0.08316 -0.39900
O 	O 	0.85991 0.70859 0.08129 -0.44500
O 	O 	0.75808 0.56536 0.09095 -0.43600
O 	O 	0.77011 0.59893 0.14772 -0.61700
O 	O 	0.73452 0.62500 0.09249 -0.45500
O 	O 	0.88508 0.59951 0.05629 -0.62300
Mo	Mo	0.33830 0.09713 0.56704 1.04800
Mo	Mo	0.25839 0.05151 0.64411 1.04700
Mo	Mo	0.23586 0.13248 0.64991 1.02900
P 	P 	0.25647 0.09931 0.57321 0.51800
O 	O 	0.24358 0.09413 0.53744 -0.48200
O 	O 	0.29196 0.11603 0.57176 -0.45600
O 	O 	0.34640 0.14777 0.58316 -0.39900
O 	O 	0.35991 0.20859 0.58129 -0.44500
O 	O 	0.25808 0.06536 0.59095 -0.43600
O 	O 	0.27011 0.09893 0.64772 -0.61800
O 	O 	0.23452 0.12500 0.59249 -0.45500
O 	O 	0.38508 0.09951 0.55629 -0.62300
Mo	Mo	0.33830 0.90287 0.93296 1.04900
Mo	Mo	0.25839 0.94849 0.85589 1.04800
Mo	Mo	0.23586 0.86752 0.85009 1.02900
P 	P 	0.25647 0.90069 0.92679 0.51700
O 	O 	0.24358 0.90587 0.96256 -0.47900
O 	O 	0.29196 0.88397 0.92824 -0.45500
O 	O 	0.34640 0.85223 0.91684 -0.39800
O 	O 	0.35991 0.79141 0.91871 -0.44500
O 	O 	0.25808 0.93464 0.90905 -0.43500
O 	O 	0.27011 0.90107 0.85228 -0.61700
O 	O 	0.23452 0.87500 0.90751 -0.45500
O 	O 	0.38508 0.90049 0.94371 -0.62200
Mo	Mo	0.83830 0.40287 0.43296 1.04900
Mo	Mo	0.75839 0.44849 0.35589 1.04700
Mo	Mo	0.73586 0.36752 0.35009 1.02900
P 	P 	0.75647 0.40069 0.42679 0.51800
O 	O 	0.74358 0.40587 0.46256 -0.48100
O 	O 	0.79196 0.38397 0.42824 -0.45600
O 	O 	0.84640 0.35223 0.41684 -0.39900
O 	O 	0.85991 0.29141 0.41871 -0.44500
O 	O 	0.75808 0.43464 0.40905 -0.43600
O 	O 	0.77011 0.40107 0.35228 -0.61700
O 	O 	0.73452 0.37500 0.40751 -0.45500
O 	O 	0.88508 0.40049 0.44371 -0.62200
Mo	Mo	0.16170 0.09713 0.43296 1.04800
Mo	Mo	0.24161 0.05151 0.35589 1.04700
Mo	Mo	0.26414 0.13248 0.35009 1.02900
P 	P 	0.24353 0.09931 0.42679 0.51800
O 	O 	0.25642 0.09413 0.46256 -0.48200
O 	O 	0.20804 0.11603 0.42824 -0.45600
O 	O 	0.15360 0.14777 0.41684 -0.39900
O 	O 	0.14009 0.20859 0.41871 -0.44500
O 	O 	0.24192 0.06536 0.40905 -0.43600
O 	O 	0.22989 0.09893 0.35228 -0.61800
O 	O 	0.26548 0.12500 0.40751 -0.45500
O 	O 	0.11492 0.09951 0.44371 -0.62400
Mo	Mo	0.66170 0.59713 0.93296 1.04900
Mo	Mo	0.74161 0.55151 0.85589 1.04700
Mo	Mo	0.76414 0.63248 0.85009 1.02900
P 	P 	0.74353 0.59931 0.92679 0.51700
O 	O 	0.75642 0.59413 0.96256 -0.48000
O 	O 	0.70804 0.61603 0.92824 -0.45600
O 	O 	0.65360 0.64777 0.91684 -0.39800
O 	O 	0.64009 0.70859 0.91871 -0.44500
O 	O 	0.74192 0.56536 0.90905 -0.43500
O 	O 	0.72989 0.59893 0.85228 -0.61700
O 	O 	0.76548 0.62500 0.90751 -0.45500
O 	O 	0.61492 0.59951 0.94371 -0.62200
Mo	Mo	0.66170 0.40287 0.56704 1.04900
Mo	Mo	0.74161 0.44849 0.64411 1.04700
Mo	Mo	0.76414 0.36752 0.64991 1.02900
P 	P 	0.74353 0.40069 0.57321 0.51800
O 	O 	0.75642 0.40587 0.53744 -0.48100
O 	O 	0.70804 0.38397 0.57176 -0.45600
O 	O 	0.65360 0.35223 0.58316 -0.39900
O 	O 	0.64009 0.29141 0.58129 -0.44500
O 	O 	0.74192 0.43464 0.59095 -0.43600
O 	O 	0.72989 0.40107 0.64772 -0.61800
O 	O 	0.76548 0.37500 0.59249 -0.45500
O 	O 	0.61492 0.40049 0.55629 -0.62300
Mo	Mo	0.16170 0.90287 0.06704 1.04900
Mo	Mo	0.24161 0.94849 0.14411 1.04700
Mo	Mo	0.26414 0.86752 0.14991 1.02900
P 	P 	0.24353 0.90069 0.07321 0.51800
O 	O 	0.25642 0.90587 0.03744 -0.48200
O 	O 	0.20804 0.88397 0.07176 -0.45600
O 	O 	0.15360 0.85223 0.08316 -0.39900
O 	O 	0.14009 0.79141 0.08129 -0.44500
O 	O 	0.24192 0.93464 0.09095 -0.43600
O 	O 	0.22989 0.90107 0.14772 -0.61700
O 	O 	0.26548 0.87500 0.09249 -0.45500
O 	O 	0.11492 0.90049 0.05629 -0.62300
Mo	Mo	0.81704 0.65287 0.91170 1.04900
Mo	Mo	0.89411 0.69849 0.99161 1.05000
Mo	Mo	0.89991 0.61752 0.01414 1.02800
P 	P 	0.82321 0.65069 0.99353 0.52300
O 	O 	0.78744 0.65587 0.00642 -0.48500
O 	O 	0.82176 0.63397 0.95804 -0.45600
O 	O 	0.83316 0.60223 0.90360 -0.39800
O 	O 	0.83129 0.54141 0.89009 -0.44500
O 	O 	0.84095 0.68464 0.99192 -0.43400
O 	O 	0.89772 0.65107 0.97989 -0.61500
O 	O 	0.84249 0.62500 0.01548 -0.45800
O 	O 	0.80629 0.65049 0.86492 -0.62200
Mo	Mo	0.31704 0.15287 0.41170 1.04900
Mo	Mo	0.39411 0.19849 0.49161 1.04700
Mo	Mo	0.39991 0.11752 0.51414 1.02900
P 	P 	0.32321 0.15069 0.49353 0.51800
O 	O 	0.28744 0.15587 0.50642 -0.48100
O 	O 	0.32176 0.13397 0.45804 -0.45600
O 	O 	0.33316 0.10223 0.40360 -0.39900
O 	O 	0.33129 0.04141 0.39009 -0.44600
O 	O 	0.34095 0.18464 0.49192 -0.43600
O 	O 	0.39772 0.15107 0.47989 -0.61800
O 	O 	0.34249 0.12500 0.51548 -0.45500
O 	O 	0.30629 0.15049 0.36492 -0.62300
Mo	Mo	0.68296 0.34713 0.41170 1.04900
Mo	Mo	0.60589 0.30151 0.49161 1.04700
Mo	Mo	0.60009 0.38248 0.51414 1.02900
P 	P 	0.67679 0.34931 0.49353 0.51800
O 	O 	0.71256 0.34413 0.50642 -0.48100
O 	O 	0.67824 0.36603 0.45804 -0.45600
O 	O 	0.66684 0.39777 0.40360 -0.39900
O 	O 	0.66871 0.45859 0.39009 -0.44500
O 	O 	0.65905 0.31536 0.49192 -0.43600
O 	O 	0.60228 0.34893 0.47989 -0.61800
O 	O 	0.65751 0.37500 0.51548 -0.45500
O 	O 	0.69371 0.34951 0.36492 -0.62300
Mo	Mo	0.18296 0.84713 0.91170 1.04900
Mo	Mo	0.10589 0.80151 0.99161 1.04900
Mo	Mo	0.10009 0.88248 0.01414 1.02800
P 	P 	0.17679 0.84931 0.99353 0.52300
O 	O 	0.21256 0.84413 0.00642 -0.48500
O 	O 	0.17824 0.86603 0.95804 -0.45600
O 	O 	0.16684 0.89777 0.90360 -0.39800
O 	O 	0.16871 0.95859 0.89009 -0.44400
O 	O 	0.15905 0.81536 0.99192 -0.43400
O 	O 	0.10228 0.84893 0.97989 -0.61600
O 	O 	0.15751 0.87500 0.01548 -0.45800
O 	O 	0.19371 0.84951 0.86492 -0.62300
Mo	Mo	0.18296 0.15287 0.58830 1.04900
Mo	Mo	0.10589 0.19849 0.50839 1.04700
Mo	Mo	0.10009 0.11752 0.48586 1.02900
P 	P 	0.17679 0.15069 0.50647 0.51800
O 	O 	0.21256 0.15587 0.49358 -0.48100
O 	O 	0.17824 0.13397 0.54196 -0.45600
O 	O 	0.16684 0.10223 0.59640 -0.39900
O 	O 	0.16871 0.04141 0.60991 -0.44700
O 	O 	0.15905 0.18464 0.50808 -0.43600
O 	O 	0.10228 0.15107 0.52011 -0.61800
O 	O 	0.15751 0.12500 0.48452 -0.45500
O 	O 	0.19371 0.15049 0.63508 -0.62300
Mo	Mo	0.68296 0.65287 0.08830 1.04800
Mo	Mo	0.60589 0.69849 0.00839 1.04500
Mo	Mo	0.60009 0.61752 0.98586 1.03100
P 	P 	0.67679 0.65069 0.00647 0.51200
O 	O 	0.71256 0.65587 0.99358 -0.47700
O 	O 	0.67824 0.63397 0.04196 -0.45600
O 	O 	0.66684 0.60223 0.09640 -0.39900
O 	O 	0.66871 0.54141 0.10991 -0.44500
O 	O 	0.65905 0.68464 0.00808 -0.43700
O 	O 	0.60228 0.65107 0.02011 -0.62000
O 	O 	0.65751 0.62500 0.98452 -0.45100
O 	O 	0.69371 0.65049 0.13508 -0.62300
Mo	Mo	0.31704 0.84713 0.08830 1.04800
Mo	Mo	0.39411 0.80151 0.00839 1.04500
Mo	Mo	0.39991 0.88248 0.98586 1.03100
P 	P 	0.32321 0.84931 0.00647 0.51200
O 	O 	0.28744 0.84413 0.99358 -0.47700
O 	O 	0.32176 0.86603 0.04196 -0.45600
O 	O 	0.33316 0.89777 0.09640 -0.39900
O 	O 	0.33129 0.95859 0.10991 -0.44400
O 	O 	0.34095 0.81536 0.00808 -0.43700
O 	O 	0.39772 0.84893 0.02011 -0.62000
O 	O 	0.34249 0.87500 0.98452 -0.45100
O 	O 	0.30629 0.84951 0.13508 -0.62300
Mo	Mo	0.81704 0.34713 0.58830 1.04900
Mo	Mo	0.89411 0.30151 0.50839 1.04700
Mo	Mo	0.89991 0.38248 0.48586 1.03000
P 	P 	0.82321 0.34931 0.50647 0.51800
O 	O 	0.78744 0.34413 0.49358 -0.48100
O 	O 	0.82176 0.36603 0.54196 -0.45600
O 	O 	0.83316 0.39777 0.59640 -0.39800
O 	O 	0.83129 0.45859 0.60991 -0.44500
O 	O 	0.84095 0.31536 0.50808 -0.43600
O 	O 	0.89772 0.34893 0.52011 -0.61700
O 	O 	0.84249 0.37500 0.48452 -0.45500
O 	O 	0.80629 0.34951 0.63508 -0.62300
Mo	Mo	0.91170 0.81704 0.65287 1.04900
Mo	Mo	0.99161 0.89411 0.69849 1.05000
Mo	Mo	0.01414 0.89991 0.61752 1.02800
P 	P 	0.99353 0.82321 0.65069 0.52300
O 	O 	0.00642 0.78744 0.65587 -0.48500
O 	O 	0.95804 0.82176 0.63397 -0.45600
O 	O 	0.90360 0.83316 0.60223 -0.39800
O 	O 	0.89009 0.83129 0.54141 -0.44500
O 	O 	0.99192 0.84095 0.68464 -0.43400
O 	O 	0.97989 0.89772 0.65107 -0.61500
O 	O 	0.01548 0.84249 0.62500 -0.45800
O 	O 	0.86492 0.80629 0.65049 -0.62200
Mo	Mo	0.41170 0.31704 0.15287 1.04900
Mo	Mo	0.49161 0.39411 0.19849 1.04700
Mo	Mo	0.51414 0.39991 0.11752 1.02900
P 	P 	0.49353 0.32321 0.15069 0.51800
O 	O 	0.50642 0.28744 0.15587 -0.48100
O 	O 	0.45804 0.32176 0.13397 -0.45600
O 	O 	0.40360 0.33316 0.10223 -0.39900
O 	O 	0.39009 0.33129 0.04141 -0.44600
O 	O 	0.49192 0.34095 0.18464 -0.43600
O 	O 	0.47989 0.39772 0.15107 -0.61800
O 	O 	0.51548 0.34249 0.12500 -0.45500
O 	O 	0.36492 0.30629 0.15049 -0.62300
Mo	Mo	0.41170 0.68296 0.34713 1.04900
Mo	Mo	0.49161 0.60589 0.30151 1.04700
Mo	Mo	0.51414 0.60009 0.38248 1.02900
P 	P 	0.49353 0.67679 0.34931 0.51800
O 	O 	0.50642 0.71256 0.34413 -0.48100
O 	O 	0.45804 0.67824 0.36603 -0.45600
O 	O 	0.40360 0.66684 0.39777 -0.39900
O 	O 	0.39009 0.66871 0.45859 -0.44500
O 	O 	0.49192 0.65905 0.31536 -0.43600
O 	O 	0.47989 0.60228 0.34893 -0.61800
O 	O 	0.51548 0.65751 0.37500 -0.45500
O 	O 	0.36492 0.69371 0.34951 -0.62300
Mo	Mo	0.91170 0.18296 0.84713 1.04900
Mo	Mo	0.99161 0.10589 0.80151 1.04900
Mo	Mo	0.01414 0.10009 0.88248 1.02800
P 	P 	0.99353 0.17679 0.84931 0.52300
O 	O 	0.00642 0.21256 0.84413 -0.48500
O 	O 	0.95804 0.17824 0.86603 -0.45600
O 	O 	0.90360 0.16684 0.89777 -0.39800
O 	O 	0.89009 0.16871 0.95859 -0.44400
O 	O 	0.99192 0.15905 0.81536 -0.43400
O 	O 	0.97989 0.10228 0.84893 -0.61600
O 	O 	0.01548 0.15751 0.87500 -0.45800
O 	O 	0.86492 0.19371 0.84951 -0.62300
Mo	Mo	0.58830 0.18296 0.15287 1.04900
Mo	Mo	0.50839 0.10589 0.19849 1.04700
Mo	Mo	0.48586 0.10009 0.11752 1.02900
P 	P 	0.50647 0.17679 0.15069 0.51800
O 	O 	0.49358 0.21256 0.15587 -0.48100
O 	O 	0.54196 0.17824 0.13397 -0.45600
O 	O 	0.59640 0.16684 0.10223 -0.39900
O 	O 	0.60991 0.16871 0.04141 -0.44700
O 	O 	0.50808 0.15905 0.18464 -0.43600
O 	O 	0.52011 0.10228 0.15107 -0.61800
O 	O 	0.48452 0.15751 0.12500 -0.45500
O 	O 	0.63508 0.19371 0.15049 -0.62300
Mo	Mo	0.08830 0.68296 0.65287 1.04800
Mo	Mo	0.00839 0.60589 0.69849 1.04500
Mo	Mo	0.98586 0.60009 0.61752 1.03100
P 	P 	0.00647 0.67679 0.65069 0.51200
O 	O 	0.99358 0.71256 0.65587 -0.47700
O 	O 	0.04196 0.67824 0.63397 -0.45600
O 	O 	0.09640 0.66684 0.60223 -0.39900
O 	O 	0.10991 0.66871 0.54141 -0.44500
O 	O 	0.00808 0.65905 0.68464 -0.43700
O 	O 	0.02011 0.60228 0.65107 -0.62000
O 	O 	0.98452 0.65751 0.62500 -0.45100
O 	O 	0.13508 0.69371 0.65049 -0.62300
Mo	Mo	0.08830 0.31704 0.84713 1.04800
Mo	Mo	0.00839 0.39411 0.80151 1.04500
Mo	Mo	0.98586 0.39991 0.88248 1.03100
P 	P 	0.00647 0.32321 0.84931 0.51200
O 	O 	0.99358 0.28744 0.84413 -0.47700
O 	O 	0.04196 0.32176 0.86603 -0.45600
O 	O 	0.09640 0.33316 0.89777 -0.39900
O 	O 	0.10991 0.33129 0.95859 -0.44400
O 	O 	0.00808 0.34095 0.81536 -0.43700
O 	O 	0.02011 0.39772 0.84893 -0.62000
O 	O 	0.98452 0.34249 0.87500 -0.45100
O 	O 	0.13508 0.30629 0.84951 -0.62300
Mo	Mo	0.58830 0.81704 0.34713 1.04900
Mo	Mo	0.50839 0.89411 0.30151 1.04700
Mo	Mo	0.48586 0.89991 0.38248 1.03000
P 	P 	0.50647 0.82321 0.34931 0.51800
O 	O 	0.49358 0.78744 0.34413 -0.48100
O 	O 	0.54196 0.82176 0.36603 -0.45600
O 	O 	0.59640 0.83316 0.39777 -0.39800
O 	O 	0.60991 0.83129 0.45859 -0.44500
O 	O 	0.50808 0.84095 0.31536 -0.43600
O 	O 	0.52011 0.89772 0.34893 -0.61700
O 	O 	0.48452 0.84249 0.37500 -0.45500
O 	O 	0.63508 0.80629 0.34951 -0.62300
Mo	Mo	0.65287 0.91170 0.81704 1.04900
Mo	Mo	0.69849 0.99161 0.89411 1.05000
Mo	Mo	0.61752 0.01414 0.89991 1.02800
P 	P 	0.65069 0.99353 0.82321 0.52300
O 	O 	0.65587 0.00642 0.78744 -0.48500
O 	O 	0.63397 0.95804 0.82176 -0.45600
O 	O 	0.60223 0.90360 0.83316 -0.39800
O 	O 	0.54141 0.89009 0.83129 -0.44500
O 	O 	0.68464 0.99192 0.84095 -0.43400
O 	O 	0.65107 0.97989 0.89772 -0.61500
O 	O 	0.62500 0.01548 0.84249 -0.45800
O 	O 	0.65049 0.86492 0.80629 -0.62200
Mo	Mo	0.15287 0.41170 0.31704 1.04900
Mo	Mo	0.19849 0.49161 0.39411 1.04700
Mo	Mo	0.11752 0.51414 0.39991 1.02900
P 	P 	0.15069 0.49353 0.32321 0.51800
O 	O 	0.15587 0.50642 0.28744 -0.48100
O 	O 	0.13397 0.45804 0.32176 -0.45600
O 	O 	0.10223 0.40360 0.33316 -0.39900
O 	O 	0.04141 0.39009 0.33129 -0.44600
O 	O 	0.18464 0.49192 0.34095 -0.43600
O 	O 	0.15107 0.47989 0.39772 -0.61800
O 	O 	0.12500 0.51548 0.34249 -0.45500
O 	O 	0.15049 0.36492 0.30629 -0.62300
Mo	Mo	0.34713 0.41170 0.68296 1.04900
Mo	Mo	0.30151 0.49161 0.60589 1.04700
Mo	Mo	0.38248 0.51414 0.60009 1.02900
P 	P 	0.34931 0.49353 0.67679 0.51800
O 	O 	0.34413 0.50642 0.71256 -0.48100
O 	O 	0.36603 0.45804 0.67824 -0.45600
O 	O 	0.39777 0.40360 0.66684 -0.39900
O 	O 	0.45859 0.39009 0.66871 -0.44500
O 	O 	0.31536 0.49192 0.65905 -0.43600
O 	O 	0.34893 0.47989 0.60228 -0.61800
O 	O 	0.37500 0.51548 0.65751 -0.45500
O 	O 	0.34951 0.36492 0.69371 -0.62300
Mo	Mo	0.84713 0.91170 0.18296 1.04900
Mo	Mo	0.80151 0.99161 0.10589 1.04900
Mo	Mo	0.88248 0.01414 0.10009 1.02800
P 	P 	0.84931 0.99353 0.17679 0.52300
O 	O 	0.84413 0.00642 0.21256 -0.48500
O 	O 	0.86603 0.95804 0.17824 -0.45600
O 	O 	0.89777 0.90360 0.16684 -0.39800
O 	O 	0.95859 0.89009 0.16871 -0.44400
O 	O 	0.81536 0.99192 0.15905 -0.43400
O 	O 	0.84893 0.97989 0.10228 -0.61600
O 	O 	0.87500 0.01548 0.15751 -0.45800
O 	O 	0.84951 0.86492 0.19371 -0.62300
Mo	Mo	0.15287 0.58830 0.18296 1.04900
Mo	Mo	0.19849 0.50839 0.10589 1.04700
Mo	Mo	0.11752 0.48586 0.10009 1.02900
P 	P 	0.15069 0.50647 0.17679 0.51800
O 	O 	0.15587 0.49358 0.21256 -0.48100
O 	O 	0.13397 0.54196 0.17824 -0.45600
O 	O 	0.10223 0.59640 0.16684 -0.39900
O 	O 	0.04141 0.60991 0.16871 -0.44700
O 	O 	0.18464 0.50808 0.15905 -0.43600
O 	O 	0.15107 0.52011 0.10228 -0.61800
O 	O 	0.12500 0.48452 0.15751 -0.45500
O 	O 	0.15049 0.63508 0.19371 -0.62300
Mo	Mo	0.65287 0.08830 0.68296 1.04800
Mo	Mo	0.69849 0.00839 0.60589 1.04500
Mo	Mo	0.61752 0.98586 0.60009 1.03100
P 	P 	0.65069 0.00647 0.67679 0.51200
O 	O 	0.65587 0.99358 0.71256 -0.47700
O 	O 	0.63397 0.04196 0.67824 -0.45600
O 	O 	0.60223 0.09640 0.66684 -0.39900
O 	O 	0.54141 0.10991 0.66871 -0.44500
O 	O 	0.68464 0.00808 0.65905 -0.43700
O 	O 	0.65107 0.02011 0.60228 -0.62000
O 	O 	0.62500 0.98452 0.65751 -0.45100
O 	O 	0.65049 0.13508 0.69371 -0.62300
Mo	Mo	0.84713 0.08830 0.31704 1.04800
Mo	Mo	0.80151 0.00839 0.39411 1.04500
Mo	Mo	0.88248 0.98586 0.39991 1.03100
P 	P 	0.84931 0.00647 0.32321 0.51200
O 	O 	0.84413 0.99358 0.28744 -0.47700
O 	O 	0.86603 0.04196 0.32176 -0.45600
O 	O 	0.89777 0.09640 0.33316 -0.39900
O 	O 	0.95859 0.10991 0.33129 -0.44400
O 	O 	0.81536 0.00808 0.34095 -0.43700
O 	O 	0.84893 0.02011 0.39772 -0.62000
O 	O 	0.87500 0.98452 0.34249 -0.45100
O 	O 	0.84951 0.13508 0.30629 -0.62300
Mo	Mo	0.34713 0.58830 0.81704 1.04900
Mo	Mo	0.30151 0.50839 0.89411 1.04700
Mo	Mo	0.38248 0.48586 0.89991 1.03000
P 	P 	0.34931 0.50647 0.82321 0.51800
O 	O 	0.34413 0.49358 0.78744 -0.48100
O 	O 	0.36603 0.54196 0.82176 -0.45600
O 	O 	0.39777 0.59640 0.83316 -0.39800
O 	O 	0.45859 0.60991 0.83129 -0.44500
O 	O 	0.31536 0.50808 0.84095 -0.43600
O 	O 	0.34893 0.52011 0.89772 -0.61700
O 	O 	0.37500 0.48452 0.84249 -0.45500
O 	O 	0.34951 0.63508 0.80629 -0.62300
Mo	Mo	0.90287 0.56704 0.83830 1.04900
Mo	Mo	0.94849 0.64411 0.75839 1.04800
Mo	Mo	0.86752 0.64991 0.73586 1.02900
P 	P 	0.90069 0.57321 0.75647 0.51800
O 	O 	0.90587 0.53744 0.74358 -0.48100
O 	O 	0.88397 0.57176 0.79196 -0.45600
O 	O 	0.85223 0.58316 0.84640 -0.39800
O 	O 	0.79141 0.58129 0.85991 -0.44500
O 	O 	0.93464 0.59095 0.75808 -0.43500
O 	O 	0.90107 0.64772 0.77011 -0.61700
O 	O 	0.87500 0.59249 0.73452 -0.45500
O 	O 	0.90049 0.55629 0.88508 -0.62200
Mo	Mo	0.40287 0.06704 0.33830 1.04800
Mo	Mo	0.44849 0.14411 0.25839 1.04700
Mo	Mo	0.36752 0.14991 0.23586 1.02900
P 	P 	0.40069 0.07321 0.25647 0.51800
O 	O 	0.40587 0.03744 0.24358 -0.48300
O 	O 	0.38397 0.07176 0.29196 -0.45600
O 	O 	0.35223 0.08316 0.34640 -0.39900
O 	O 	0.29141 0.08129 0.35991 -0.44500
O 	O 	0.43464 0.09095 0.25808 -0.43600
O 	O 	0.40107 0.14772 0.27011 -0.61800
O 	O 	0.37500 0.09249 0.23452 -0.45500
O 	O 	0.40049 0.05629 0.38508 -0.62300
Mo	Mo	0.59713 0.43296 0.33830 1.04900
Mo	Mo	0.55151 0.35589 0.25839 1.04700
Mo	Mo	0.63248 0.35009 0.23586 1.02900
P 	P 	0.59931 0.42679 0.25647 0.51800
O 	O 	0.59413 0.46256 0.24358 -0.48100
O 	O 	0.61603 0.42824 0.29196 -0.45600
O 	O 	0.64777 0.41684 0.34640 -0.39900
O 	O 	0.70859 0.41871 0.35991 -0.44500
O 	O 	0.56536 0.40905 0.25808 -0.43600
O 	O 	0.59893 0.35228 0.27011 -0.61800
O 	O 	0.62500 0.40751 0.23452 -0.45500
O 	O 	0.59951 0.44371 0.38508 -0.62300
Mo	Mo	0.09713 0.93296 0.83830 1.04900
Mo	Mo	0.05151 0.85589 0.75839 1.04700
Mo	Mo	0.13248 0.85009 0.73586 1.02900
P 	P 	0.09931 0.92679 0.75647 0.51700
O 	O 	0.09413 0.96256 0.74358 -0.48000
O 	O 	0.11603 0.92824 0.79196 -0.45600
O 	O 	0.14777 0.91684 0.84640 -0.39800
O 	O 	0.20859 0.91871 0.85991 -0.44500
O 	O 	0.06536 0.90905 0.75808 -0.43600
O 	O 	0.09893 0.85228 0.77011 -0.61800
O 	O 	0.12500 0.90751 0.73452 -0.45500
O 	O 	0.09951 0.94371 0.88508 -0.62200
Mo	Mo	0.40287 0.93296 0.16170 1.04900
Mo	Mo	0.44849 0.85589 0.24161 1.04700
Mo	Mo	0.36752 0.85009 0.26414 1.02900
P 	P 	0.40069 0.92679 0.24353 0.51700
O 	O 	0.40587 0.96256 0.25642 -0.48000
O 	O 	0.38397 0.92824 0.20804 -0.45600
O 	O 	0.35223 0.91684 0.15360 -0.39800
O 	O 	0.29141 0.91871 0.14009 -0.44500
O 	O 	0.43464 0.90905 0.24192 -0.43500
O 	O 	0.40107 0.85228 0.22989 -0.61800
O 	O 	0.37500 0.90751 0.26548 -0.45500
O 	O 	0.40049 0.94371 0.11492 -0.62300
Mo	Mo	0.90287 0.43296 0.66170 1.04900
Mo	Mo	0.94849 0.35589 0.74161 1.04800
Mo	Mo	0.86752 0.35009 0.76414 1.02900
P 	P 	0.90069 0.42679 0.74353 0.51800
O 	O 	0.90587 0.46256 0.75642 -0.48100
O 	O 	0.88397 0.42824 0.70804 -0.45600
O 	O 	0.85223 0.41684 0.65360 -0.39900
O 	O 	0.79141 0.41871 0.64009 -0.44500
O 	O 	0.93464 0.40905 0.74192 -0.43500
O 	O 	0.90107 0.35228 0.72989 -0.61700
O 	O 	0.87500 0.40751 0.76548 -0.45500
O 	O 	0.90049 0.44371 0.61492 -0.62200
Mo	Mo	0.09713 0.06704 0.66170 1.04800
Mo	Mo	0.05151 0.14411 0.74161 1.04700
Mo	Mo	0.13248 0.14991 0.76414 1.02900
P 	P 	0.09931 0.07321 0.74353 0.51800
O 	O 	0.09413 0.03744 0.75642 -0.48300
O 	O 	0.11603 0.07176 0.70804 -0.45600
O 	O 	0.14777 0.08316 0.65360 -0.39900
O 	O 	0.20859 0.08129 0.64009 -0.44500
O 	O 	0.06536 0.09095 0.74192 -0.43700
O 	O 	0.09893 0.14772 0.72989 -0.61800
O 	O 	0.12500 0.09249 0.76548 -0.45500
O 	O 	0.09951 0.05629 0.61492 -0.62400
Mo	Mo	0.59713 0.56704 0.16170 1.04900
Mo	Mo	0.55151 0.64411 0.24161 1.04700
Mo	Mo	0.63248 0.64991 0.26414 1.02900
P 	P 	0.59931 0.57321 0.24353 0.51800
O 	O 	0.59413 0.53744 0.25642 -0.48100
O 	O 	0.61603 0.57176 0.20804 -0.45600
O 	O 	0.64777 0.58316 0.15360 -0.39900
O 	O 	0.70859 0.58129 0.14009 -0.44500
O 	O 	0.56536 0.59095 0.24192 -0.43600
O 	O 	0.59893 0.64772 0.22989 -0.61800
O 	O 	0.62500 0.59249 0.26548 -0.45500
O 	O 	0.59951 0.55629 0.11492 -0.62300
Mo	Mo	0.06704 0.66170 0.09713 1.04800
Mo	Mo	0.14411 0.74161 0.05151 1.04700
Mo	Mo	0.14991 0.76414 0.13248 1.02900
P 	P 	0.07321 0.74353 0.09931 0.51800
O 	O 	0.03744 0.75642 0.09413 -0.48300
O 	O 	0.07176 0.70804 0.11603 -0.45600
O 	O 	0.08316 0.65360 0.14777 -0.39900
O 	O 	0.08129 0.64009 0.20859 -0.44500
O 	O 	0.09095 0.74192 0.06536 -0.43700
O 	O 	0.14772 0.72989 0.09893 -0.61800
O 	O 	0.09249 0.76548 0.12500 -0.45500
O 	O 	0.05629 0.61492 0.09951 -0.62400
Mo	Mo	0.56704 0.16170 0.59713 1.04900
Mo	Mo	0.64411 0.24161 0.55151 1.04700
Mo	Mo	0.64991 0.26414 0.63248 1.02900
P 	P 	0.57321 0.24353 0.59931 0.51800
O 	O 	0.53744 0.25642 0.59413 -0.48100
O 	O 	0.57176 0.20804 0.61603 -0.45600
O 	O 	0.58316 0.15360 0.64777 -0.39900
O 	O 	0.58129 0.14009 0.70859 -0.44500
O 	O 	0.59095 0.24192 0.56536 -0.43600
O 	O 	0.64772 0.22989 0.59893 -0.61800
O 	O 	0.59249 0.26548 0.62500 -0.45500
O 	O 	0.55629 0.11492 0.59951 -0.62300
Mo	Mo	0.93296 0.16170 0.40287 1.04900
Mo	Mo	0.85589 0.24161 0.44849 1.04700
Mo	Mo	0.85009 0.26414 0.36752 1.02900
P 	P 	0.92679 0.24353 0.40069 0.51700
O 	O 	0.96256 0.25642 0.40587 -0.48000
O 	O 	0.92824 0.20804 0.38397 -0.45600
O 	O 	0.91684 0.15360 0.35223 -0.39800
O 	O 	0.91871 0.14009 0.29141 -0.44500
O 	O 	0.90905 0.24192 0.43464 -0.43500
O 	O 	0.85228 0.22989 0.40107 -0.61800
O 	O 	0.90751 0.26548 0.37500 -0.45500
O 	O 	0.94371 0.11492 0.40049 -0.62300
Mo	Mo	0.43296 0.66170 0.90287 1.04900
Mo	Mo	0.35589 0.74161 0.94849 1.04800
Mo	Mo	0.35009 0.76414 0.86752 1.02900
P 	P 	0.42679 0.74353 0.90069 0.51800
O 	O 	0.46256 0.75642 0.90587 -0.48100
O 	O 	0.42824 0.70804 0.88397 -0.45600
O 	O 	0.41684 0.65360 0.85223 -0.39900
O 	O 	0.41871 0.64009 0.79141 -0.44500
O 	O 	0.40905 0.74192 0.93464 -0.43500
O 	O 	0.35228 0.72989 0.90107 -0.61700
O 	O 	0.40751 0.76548 0.87500 -0.45500
O 	O 	0.44371 0.61492 0.90049 -0.62200
Mo	Mo	0.43296 0.33830 0.59713 1.04900
Mo	Mo	0.35589 0.25839 0.55151 1.04700
Mo	Mo	0.35009 0.23586 0.63248 1.02900
P 	P 	0.42679 0.25647 0.59931 0.51800
O 	O 	0.46256 0.24358 0.59413 -0.48100
O 	O 	0.42824 0.29196 0.61603 -0.45600
O 	O 	0.41684 0.34640 0.64777 -0.39900
O 	O 	0.41871 0.35991 0.70859 -0.44500
O 	O 	0.40905 0.25808 0.56536 -0.43600
O 	O 	0.35228 0.27011 0.59893 -0.61800
O 	O 	0.40751 0.23452 0.62500 -0.45500
O 	O 	0.44371 0.38508 0.59951 -0.62300
Mo	Mo	0.93296 0.83830 0.09713 1.04900
Mo	Mo	0.85589 0.75839 0.05151 1.04700
Mo	Mo	0.85009 0.73586 0.13248 1.02900
P 	P 	0.92679 0.75647 0.09931 0.51700
O 	O 	0.96256 0.74358 0.09413 -0.48000
O 	O 	0.92824 0.79196 0.11603 -0.45600
O 	O 	0.91684 0.84640 0.14777 -0.39800
O 	O 	0.91871 0.85991 0.20859 -0.44500
O 	O 	0.90905 0.75808 0.06536 -0.43600
O 	O 	0.85228 0.77011 0.09893 -0.61800
O 	O 	0.90751 0.73452 0.12500 -0.45500
O 	O 	0.94371 0.88508 0.09951 -0.62200
Mo	Mo	0.56704 0.83830 0.90287 1.04900
Mo	Mo	0.64411 0.75839 0.94849 1.04800
Mo	Mo	0.64991 0.73586 0.86752 1.02900
P 	P 	0.57321 0.75647 0.90069 0.51800
O 	O 	0.53744 0.74358 0.90587 -0.48100
O 	O 	0.57176 0.79196 0.88397 -0.45600
O 	O 	0.58316 0.84640 0.85223 -0.39800
O 	O 	0.58129 0.85991 0.79141 -0.44500
O 	O 	0.59095 0.75808 0.93464 -0.43500
O 	O 	0.64772 0.77011 0.90107 -0.61700
O 	O 	0.59249 0.73452 0.87500 -0.45500
O 	O 	0.55629 0.88508 0.90049 -0.62200
Mo	Mo	0.06704 0.33830 0.40287 1.04800
Mo	Mo	0.14411 0.25839 0.44849 1.04700
Mo	Mo	0.14991 0.23586 0.36752 1.02900
P 	P 	0.07321 0.25647 0.40069 0.51800
O 	O 	0.03744 0.24358 0.40587 -0.48300
O 	O 	0.07176 0.29196 0.38397 -0.45600
O 	O 	0.08316 0.34640 0.35223 -0.39900
O 	O 	0.08129 0.35991 0.29141 -0.44500
O 	O 	0.09095 0.25808 0.43464 -0.43600
O 	O 	0.14772 0.27011 0.40107 -0.61800
O 	O 	0.09249 0.23452 0.37500 -0.45500
O 	O 	0.05629 0.38508 0.40049 -0.62300
Mo	Mo	0.16170 0.40287 0.93296 1.04900
Mo	Mo	0.24161 0.44849 0.85589 1.04700
Mo	Mo	0.26414 0.36752 0.85009 1.02900
P 	P 	0.24353 0.40069 0.92679 0.51700
O 	O 	0.25642 0.40587 0.96256 -0.48000
O 	O 	0.20804 0.38397 0.92824 -0.45600
O 	O 	0.15360 0.35223 0.91684 -0.39800
O 	O 	0.14009 0.29141 0.91871 -0.44500
O 	O 	0.24192 0.43464 0.90905 -0.43500
O 	O 	0.22989 0.40107 0.85228 -0.61800
O 	O 	0.26548 0.37500 0.90751 -0.45500
O 	O 	0.11492 0.40049 0.94371 -0.62300
Mo	Mo	0.66170 0.90287 0.43296 1.04900
Mo	Mo	0.74161 0.94849 0.35589 1.04800
Mo	Mo	0.76414 0.86752 0.35009 1.02900
P 	P 	0.74353 0.90069 0.42679 0.51800
O 	O 	0.75642 0.90587 0.46256 -0.48100
O 	O 	0.70804 0.88397 0.42824 -0.45600
O 	O 	0.65360 0.85223 0.41684 -0.39900
O 	O 	0.64009 0.79141 0.41871 -0.44500
O 	O 	0.74192 0.93464 0.40905 -0.43500
O 	O 	0.72989 0.90107 0.35228 -0.61700
O 	O 	0.76548 0.87500 0.40751 -0.45500
O 	O 	0.61492 0.90049 0.44371 -0.62200
Mo	Mo	0.66170 0.09713 0.06704 1.04800
Mo	Mo	0.74161 0.05151 0.14411 1.04700
Mo	Mo	0.76414 0.13248 0.14991 1.02900
P 	P 	0.74353 0.09931 0.07321 0.51800
O 	O 	0.75642 0.09413 0.03744 -0.48300
O 	O 	0.70804 0.11603 0.07176 -0.45600
O 	O 	0.65360 0.14777 0.08316 -0.39900
O 	O 	0.64009 0.20859 0.08129 -0.44500
O 	O 	0.74192 0.06536 0.09095 -0.43700
O 	O 	0.72989 0.09893 0.14772 -0.61800
O 	O 	0.76548 0.12500 0.09249 -0.45500
O 	O 	0.61492 0.09951 0.05629 -0.62400
Mo	Mo	0.16170 0.59713 0.56704 1.04900
Mo	Mo	0.24161 0.55151 0.64411 1.04700
Mo	Mo	0.26414 0.63248 0.64991 1.02900
P 	P 	0.24353 0.59931 0.57321 0.51800
O 	O 	0.25642 0.59413 0.53744 -0.48100
O 	O 	0.20804 0.61603 0.57176 -0.45600
O 	O 	0.15360 0.64777 0.58316 -0.39900
O 	O 	0.14009 0.70859 0.58129 -0.44500
O 	O 	0.24192 0.56536 0.59095 -0.43600
O 	O 	0.22989 0.59893 0.64772 -0.61800
O 	O 	0.26548 0.62500 0.59249 -0.45500
O 	O 	0.11492 0.59951 0.55629 -0.62300
Mo	Mo	0.83830 0.90287 0.56704 1.04900
Mo	Mo	0.75839 0.94849 0.64411 1.04800
Mo	Mo	0.73586 0.86752 0.64991 1.02900
P 	P 	0.75647 0.90069 0.57321 0.51800
O 	O 	0.74358 0.90587 0.53744 -0.48100
O 	O 	0.79196 0.88397 0.57176 -0.45600
O 	O 	0.84640 0.85223 0.58316 -0.39800
O 	O 	0.85991 0.79141 0.58129 -0.44500
O 	O 	0.75808 0.93464 0.59095 -0.43500
O 	O 	0.77011 0.90107 0.64772 -0.61700
O 	O 	0.73452 0.87500 0.59249 -0.45500
O 	O 	0.88508 0.90049 0.55629 -0.62200
Mo	Mo	0.33830 0.40287 0.06704 1.04800
Mo	Mo	0.25839 0.44849 0.14411 1.04700
Mo	Mo	0.23586 0.36752 0.14991 1.02900
P 	P 	0.25647 0.40069 0.07321 0.51800
O 	O 	0.24358 0.40587 0.03744 -0.48300
O 	O 	0.29196 0.38397 0.07176 -0.45600
O 	O 	0.34640 0.35223 0.08316 -0.39900
O 	O 	0.35991 0.29141 0.08129 -0.44500
O 	O 	0.25808 0.43464 0.09095 -0.43600
O 	O 	0.27011 0.40107 0.14772 -0.61800
O 	O 	0.23452 0.37500 0.09249 -0.45500
O 	O 	0.38508 0.40049 0.05629 -0.62300
Mo	Mo	0.33830 0.59713 0.43296 1.04900
Mo	Mo	0.25839 0.55151 0.35589 1.04700
Mo	Mo	0.23586 0.63248 0.35009 1.02900
P 	P 	0.25647 0.59931 0.42679 0.51800
O 	O 	0.24358 0.59413 0.46256 -0.48100
O 	O 	0.29196 0.61603 0.42824 -0.45600
O 	O 	0.34640 0.64777 0.41684 -0.39900
O 	O 	0.35991 0.70859 0.41871 -0.44500
O 	O 	0.25808 0.56536 0.40905 -0.43600
O 	O 	0.27011 0.59893 0.35228 -0.61800
O 	O 	0.23452 0.62500 0.40751 -0.45500
O 	O 	0.38508 0.59951 0.44371 -0.62300
Mo	Mo	0.83830 0.09713 0.93296 1.04900
Mo	Mo	0.75839 0.05151 0.85589 1.04700
Mo	Mo	0.73586 0.13248 0.85009 1.02900
P 	P 	0.75647 0.09931 0.92679 0.51700
O 	O 	0.74358 0.09413 0.96256 -0.48000
O 	O 	0.79196 0.11603 0.92824 -0.45600
O 	O 	0.84640 0.14777 0.91684 -0.39800
O 	O 	0.85991 0.20859 0.91871 -0.44500
O 	O 	0.75808 0.06536 0.90905 -0.43600
O 	O 	0.77011 0.09893 0.85228 -0.61800
O 	O 	0.73452 0.12500 0.90751 -0.45500
O 	O 	0.88508 0.09951 0.94371 -0.62200
Zn	Zn	0.25000 0.37500 -0.00000 1.22500
Zn	Zn	0.25000 0.62500 0.50000 1.22600
Zn	Zn	0.75000 0.87500 0.50000 1.22600
Zn	Zn	0.75000 0.12500 -0.00000 1.22500
Zn	Zn	-0.00000 0.25000 0.37500 1.22500
Zn	Zn	0.50000 0.25000 0.62500 1.22600
Zn	Zn	0.50000 0.75000 0.87500 1.22600
Zn	Zn	0.00000 0.75000 0.12500 1.22500
Zn	Zn	0.37500 0.00000 0.25000 1.22500
Zn	Zn	0.62500 0.50000 0.25000 1.22600
Zn	Zn	0.87500 0.50000 0.75000 1.22600
Zn	Zn	0.12500 0.00000 0.75000 1.22500
Zn	Zn	0.12500 0.50000 0.25000 1.22600
Zn	Zn	0.37500 0.50000 0.75000 1.22600
Zn	Zn	0.62500 0.00000 0.75000 1.22500
Zn	Zn	0.87500 0.00000 0.25000 1.22500
Zn	Zn	0.00000 0.25000 0.87500 1.22500
Zn	Zn	-0.00000 0.75000 0.62500 1.22500
Zn	Zn	0.50000 0.75000 0.37500 1.22600
Zn	Zn	0.50000 0.25000 0.12500 1.22600
Zn	Zn	0.75000 0.62500 -0.00000 1.22500
Zn	Zn	0.25000 0.87500 -0.00000 1.22500
Zn	Zn	0.25000 0.12500 0.50000 1.22600
Zn	Zn	0.75000 0.37500 0.50000 1.22600
P 	P 	0.17302 0.42302 0.12500 0.53500
P 	P 	0.67302 0.92302 0.62500 0.53500
P 	P 	0.32698 0.57698 0.62500 0.53500
P 	P 	0.82698 0.07698 0.12500 0.53500
P 	P 	0.82698 0.92302 0.37500 0.53500
P 	P 	0.32698 0.42302 0.87500 0.53500
P 	P 	0.67302 0.07698 0.87500 0.53500
P 	P 	0.17302 0.57698 0.37500 0.53500
P 	P 	0.12500 0.17302 0.42302 0.53500
P 	P 	0.62500 0.67302 0.92302 0.53500
P 	P 	0.62500 0.32698 0.57698 0.53500
P 	P 	0.12500 0.82698 0.07698 0.53500
P 	P 	0.37500 0.82698 0.92302 0.53500
P 	P 	0.87500 0.32698 0.42302 0.53500
P 	P 	0.87500 0.67302 0.07698 0.53500
P 	P 	0.37500 0.17302 0.57698 0.53500
P 	P 	0.42302 0.12500 0.17302 0.53500
P 	P 	0.92302 0.62500 0.67302 0.53500
P 	P 	0.57698 0.62500 0.32698 0.53500
P 	P 	0.07698 0.12500 0.82698 0.53500
P 	P 	0.92302 0.37500 0.82698 0.53500
P 	P 	0.42302 0.87500 0.32698 0.53500
P 	P 	0.07698 0.87500 0.67302 0.53500
P 	P 	0.57698 0.37500 0.17302 0.53500
P 	P 	0.82698 0.57698 0.87500 0.53500
P 	P 	0.32698 0.07698 0.37500 0.53500
P 	P 	0.67302 0.42302 0.37500 0.53500
P 	P 	0.17302 0.92302 0.87500 0.53500
P 	P 	0.17302 0.07698 0.62500 0.53500
P 	P 	0.67302 0.57698 0.12500 0.53500
P 	P 	0.32698 0.92302 0.12500 0.53500
P 	P 	0.82698 0.42302 0.62500 0.53500
P 	P 	0.87500 0.82698 0.57698 0.53500
P 	P 	0.37500 0.32698 0.07698 0.53500
P 	P 	0.37500 0.67302 0.42302 0.53500
P 	P 	0.87500 0.17302 0.92302 0.53500
P 	P 	0.62500 0.17302 0.07698 0.53500
P 	P 	0.12500 0.67302 0.57698 0.53500
P 	P 	0.12500 0.32698 0.92302 0.53500
P 	P 	0.62500 0.82698 0.42302 0.53500
P 	P 	0.57698 0.87500 0.82698 0.53500
P 	P 	0.07698 0.37500 0.32698 0.53500
P 	P 	0.42302 0.37500 0.67302 0.53500
P 	P 	0.92302 0.87500 0.17302 0.53500
P 	P 	0.07698 0.62500 0.17302 0.53500
P 	P 	0.57698 0.12500 0.67302 0.53500
P 	P 	0.92302 0.12500 0.32698 0.53500
P 	P 	0.42302 0.62500 0.82698 0.53500
O 	O 	0.12500 0.26498 0.98502 -0.60800
O 	O 	0.62500 0.76498 0.48502 -0.61000
O 	O 	0.37500 0.73502 0.48502 -0.60900
O 	O 	0.87500 0.76498 0.51498 -0.60900
O 	O 	0.62500 0.23502 0.01498 -0.61200
O 	O 	0.98502 0.12500 0.26498 -0.60800
O 	O 	0.48502 0.62500 0.76498 -0.61000
O 	O 	0.48502 0.37500 0.73502 -0.60900
O 	O 	0.51498 0.87500 0.76498 -0.60900
O 	O 	0.01498 0.62500 0.23502 -0.61200
O 	O 	0.26498 0.98502 0.12500 -0.60800
O 	O 	0.76498 0.48502 0.62500 -0.61000
O 	O 	0.73502 0.48502 0.37500 -0.60900
O 	O 	0.76498 0.51498 0.87500 -0.60900
O 	O 	0.23502 0.01498 0.62500 -0.61200
O 	O 	0.01498 0.37500 0.26498 -0.61200
O 	O 	0.51498 0.12500 0.73502 -0.61000
O 	O 	0.98502 0.87500 0.23502 -0.60700
O 	O 	0.87500 0.23502 0.98502 -0.60700
O 	O 	0.12500 0.73502 0.51498 -0.61000
O 	O 	0.37500 0.26498 0.01498 -0.61200
O 	O 	0.73502 0.51498 0.12500 -0.61000
O 	O 	0.23502 0.98502 0.87500 -0.60700
O 	O 	0.26498 0.01498 0.37500 -0.61200
O 	O 	0.87500 0.73502 0.01498 -0.61100
O 	O 	0.37500 0.23502 0.51498 -0.61000
O 	O 	0.62500 0.26498 0.51498 -0.61000
O 	O 	0.12500 0.23502 0.48502 -0.61000
O 	O 	0.37500 0.76498 0.98502 -0.60700
O 	O 	0.01498 0.87500 0.73502 -0.61100
O 	O 	0.51498 0.37500 0.23502 -0.61000
O 	O 	0.51498 0.62500 0.26498 -0.61000
O 	O 	0.48502 0.12500 0.23502 -0.61000
O 	O 	0.98502 0.37500 0.76498 -0.60700
O 	O 	0.73502 0.01498 0.87500 -0.61100
O 	O 	0.23502 0.51498 0.37500 -0.61000
O 	O 	0.26498 0.51498 0.62500 -0.61000
O 	O 	0.23502 0.48502 0.12500 -0.61000
O 	O 	0.76498 0.98502 0.37500 -0.60700
O 	O 	0.98502 0.62500 0.73502 -0.60700
O 	O 	0.48502 0.87500 0.26498 -0.60900
O 	O 	0.01498 0.12500 0.76498 -0.61200
O 	O 	0.12500 0.76498 0.01498 -0.61200
O 	O 	0.87500 0.26498 0.48502 -0.60900
O 	O 	0.62500 0.73502 0.98502 -0.60700
O 	O 	0.26498 0.48502 0.87500 -0.60900
O 	O 	0.76498 0.01498 0.12500 -0.61200
O 	O 	0.73502 0.98502 0.62500 -0.60700
