data_crystal

_cell_length_a 31.42060
_cell_length_b 31.42060
_cell_length_c 44.82390
_cell_angle_alpha 90.00000
_cell_angle_beta  90.00000
_cell_angle_gamma 90.00000

_symmetry_space_group_name_	'P 1'
_symmetry_space_group_name_H-M	'P 1'

loop_
_symmetry_equiv_pos_as_xyz
  x,y,z

loop_
_atom_site_label
_atom_site_type_symbol
_atom_site_fract_x
_atom_site_fract_y
_atom_site_fract_z
_atom_site_charge
Zn	Zn	0.64012 0.69410 0.33238 1.22600
Zn	Zn	0.60506 0.64592 0.37391 1.22800
O 	O 	0.69169 0.68691 0.35659 -0.46400
O 	O 	0.66146 0.64857 0.39262 -0.45100
O 	O 	0.75040 0.58274 0.46913 -0.48000
O 	O 	0.82081 0.59269 0.46870 -0.48200
O 	O 	0.57581 0.60782 0.40788 -0.45700
H 	H 	0.55390 0.59710 0.40130 0.25400
O 	O 	0.66700 0.73413 0.29861 -0.45700
H 	H 	0.68610 0.72130 0.29000 0.25700
C 	C 	0.77921 0.62783 0.43242 -0.05000
C 	C 	0.78363 0.59873 0.45912 0.37900
C 	C 	0.73899 0.63524 0.42038 -0.00500
H 	H 	0.71490 0.62390 0.42940 0.07200
C 	C 	0.73546 0.65987 0.39467 -0.04500
C 	C 	0.69262 0.66594 0.38002 0.37000
C 	C 	0.77134 0.67662 0.38117 -0.07600
H 	H 	0.76880 0.69270 0.36380 0.09400
C 	C 	0.81521 0.64481 0.41927 -0.07600
H 	H 	0.84190 0.63980 0.42750 0.07900
C 	C 	0.81113 0.66936 0.39365 0.10600
N 	N 	0.84733 0.68514 0.37878 -0.09300
N 	N 	0.84469 0.70970 0.35576 -0.03800
N 	N 	0.88363 0.71940 0.34668 -0.07100
C 	C 	0.88851 0.67289 0.38096 0.01000
H 	H 	0.89920 0.65220 0.39380 0.03500
C 	C 	0.91147 0.69610 0.36124 0.03000
C 	C 	0.97132 0.71597 0.32942 -0.13800
H 	H 	0.95300 0.73320 0.31850 0.09700
C 	C 	0.95624 0.69277 0.35361 0.08500
C 	C 	0.98384 0.66765 0.37022 -0.13800
H 	H 	0.97370 0.65250 0.38650 0.09400
C 	C 	0.01397 0.71323 0.32169 0.08500
C 	C 	0.04179 0.68934 0.33885 -0.13700
H 	H 	0.07070 0.68950 0.33450 0.09700
C 	C 	0.05420 0.63866 0.38012 0.03600
C 	C 	0.02651 0.66518 0.36251 0.08300
C 	C 	0.00969 0.75734 0.27428 0.01000
H 	H 	0.98030 0.75950 0.27220 0.03900
C 	C 	0.03067 0.73680 0.29655 0.03500
N 	N 	0.03879 0.77382 0.25592 -0.09200
N 	N 	0.07002 0.74010 0.29022 -0.07300
N 	N 	0.07559 0.76140 0.26462 -0.03800
C 	C 	0.09714 0.63338 0.37799 0.00800
H 	H 	0.11510 0.64700 0.36460 0.04000
N 	N 	0.10877 0.60479 0.39884 -0.09100
N 	N 	0.07649 0.59720 0.41507 -0.04000
N 	N 	0.04251 0.61460 0.40156 -0.07600
C 	C 	0.98970 0.82410 0.18948 -0.04600
C 	C 	0.99344 0.80153 0.21617 -0.07800
H 	H 	0.96960 0.78950 0.22510 0.08700
C 	C 	0.06912 0.81517 0.21613 -0.07600
H 	H 	0.09560 0.81210 0.22510 0.09400
C 	C 	0.03336 0.79748 0.22906 0.10700
C 	C 	0.19347 0.54412 0.43627 -0.05000
C 	C 	0.15344 0.55880 0.42832 -0.07200
H 	H 	0.12920 0.54870 0.43790 0.08900
C 	C 	0.15011 0.58880 0.40580 0.10500
C 	C 	0.22940 0.55858 0.42165 -0.00500
H 	H 	0.25620 0.54900 0.42740 0.07200
C 	C 	0.02546 0.84244 0.17642 -0.00500
H 	H 	0.02280 0.85790 0.15890 0.07000
C 	C 	0.94743 0.82713 0.17433 0.36300
C 	C 	0.22526 0.58749 0.39841 -0.04000
C 	C 	0.06496 0.83762 0.18954 -0.04500
C 	C 	0.10427 0.85463 0.17443 0.36700
C 	C 	0.18556 0.60246 0.39017 -0.07900
H 	H 	0.18270 0.62140 0.37440 0.08800
C 	C 	0.19743 0.51089 0.46024 0.37700
C 	C 	0.26429 0.60150 0.38166 0.35800
O 	O 	0.13949 0.84703 0.18676 -0.46200
O 	O 	0.91690 0.80669 0.18552 -0.44900
O 	O 	0.94541 0.84979 0.15122 -0.46500
O 	O 	0.16422 0.49400 0.46958 -0.47700
O 	O 	0.09850 0.87430 0.15062 -0.46000
O 	O 	0.23481 0.50335 0.46921 -0.47400
O 	O 	0.29957 0.59051 0.39209 -0.45400
O 	O 	0.25844 0.62279 0.35816 -0.44300
Zn	Zn	0.14012 0.19410 0.83238 1.22700
Zn	Zn	0.10506 0.14592 0.87391 1.22900
O 	O 	0.19169 0.18691 0.85659 -0.46300
O 	O 	0.16146 0.14857 0.89262 -0.44900
O 	O 	0.25040 0.08274 0.96913 -0.47600
O 	O 	0.32081 0.09269 0.96870 -0.47900
O 	O 	0.07581 0.10782 0.90788 -0.45600
H 	H 	0.05390 0.09710 0.90130 0.25500
O 	O 	0.16700 0.23413 0.79861 -0.45600
H 	H 	0.18610 0.22130 0.79000 0.25800
C 	C 	0.27921 0.12783 0.93242 -0.04800
C 	C 	0.28363 0.09873 0.95912 0.37900
C 	C 	0.23899 0.13524 0.92038 -0.00500
H 	H 	0.21490 0.12390 0.92940 0.07300
C 	C 	0.23546 0.15987 0.89467 -0.04400
C 	C 	0.19262 0.16594 0.88002 0.37100
C 	C 	0.27134 0.17662 0.88117 -0.07500
H 	H 	0.26880 0.19270 0.86380 0.09500
C 	C 	0.31521 0.14481 0.91927 -0.07500
H 	H 	0.34190 0.13980 0.92750 0.08100
C 	C 	0.31113 0.16936 0.89365 0.10600
N 	N 	0.34733 0.18514 0.87878 -0.09300
N 	N 	0.34469 0.20970 0.85576 -0.03800
N 	N 	0.38363 0.21940 0.84668 -0.07100
C 	C 	0.38851 0.17289 0.88096 0.01100
H 	H 	0.39920 0.15220 0.89380 0.03600
C 	C 	0.41147 0.19610 0.86124 0.03100
C 	C 	0.47132 0.21597 0.82942 -0.13800
H 	H 	0.45300 0.23320 0.81850 0.09700
C 	C 	0.45624 0.19277 0.85361 0.08500
C 	C 	0.48384 0.16765 0.87022 -0.13800
H 	H 	0.47370 0.15250 0.88650 0.09400
C 	C 	0.51397 0.21323 0.82169 0.08500
C 	C 	0.54179 0.18934 0.83885 -0.13700
H 	H 	0.57070 0.18950 0.83450 0.09700
C 	C 	0.55420 0.13866 0.88012 0.03600
C 	C 	0.52651 0.16518 0.86251 0.08300
C 	C 	0.50969 0.25734 0.77428 0.01000
H 	H 	0.48030 0.25950 0.77220 0.03900
C 	C 	0.53067 0.23680 0.79655 0.03500
N 	N 	0.53879 0.27382 0.75592 -0.09200
N 	N 	0.57002 0.24010 0.79022 -0.07300
N 	N 	0.57559 0.26140 0.76462 -0.03800
C 	C 	0.59714 0.13338 0.87799 0.00800
H 	H 	0.61510 0.14700 0.86460 0.04000
N 	N 	0.60877 0.10479 0.89884 -0.09100
N 	N 	0.57649 0.09720 0.91507 -0.04000
N 	N 	0.54251 0.11460 0.90156 -0.07600
C 	C 	0.48970 0.32410 0.68948 -0.04600
C 	C 	0.49344 0.30153 0.71617 -0.07800
H 	H 	0.46960 0.28950 0.72510 0.08700
C 	C 	0.56912 0.31517 0.71613 -0.07600
H 	H 	0.59560 0.31210 0.72510 0.09400
C 	C 	0.53336 0.29748 0.72906 0.10700
C 	C 	0.69347 0.04412 0.93627 -0.04900
C 	C 	0.65344 0.05880 0.92832 -0.07200
H 	H 	0.62920 0.04870 0.93790 0.09000
C 	C 	0.65011 0.08880 0.90580 0.10600
C 	C 	0.72940 0.05858 0.92165 -0.00500
H 	H 	0.75620 0.04900 0.92740 0.07200
C 	C 	0.52546 0.34244 0.67642 -0.00500
H 	H 	0.52280 0.35790 0.65890 0.07000
C 	C 	0.44743 0.32713 0.67433 0.36300
C 	C 	0.72526 0.08749 0.89841 -0.03900
C 	C 	0.56496 0.33762 0.68954 -0.04500
C 	C 	0.60427 0.35463 0.67443 0.36700
C 	C 	0.68556 0.10246 0.89017 -0.08000
H 	H 	0.68270 0.12140 0.87440 0.08800
C 	C 	0.69743 0.01089 0.96024 0.37600
C 	C 	0.76429 0.10150 0.88166 0.35800
O 	O 	0.63949 0.34703 0.68676 -0.46200
O 	O 	0.41690 0.30669 0.68552 -0.44900
O 	O 	0.44541 0.34979 0.65122 -0.46500
O 	O 	0.66422 0.99400 0.96958 -0.47400
O 	O 	0.59850 0.37430 0.65062 -0.46000
O 	O 	0.73481 0.00335 0.96921 -0.47100
O 	O 	0.79957 0.09051 0.89209 -0.45400
O 	O 	0.75844 0.12279 0.85816 -0.44300
Zn	Zn	0.35988 0.30590 0.33238 1.22700
Zn	Zn	0.39494 0.35408 0.37391 1.22900
O 	O 	0.30831 0.31309 0.35659 -0.46300
O 	O 	0.33854 0.35143 0.39262 -0.45000
O 	O 	0.24960 0.41726 0.46913 -0.47900
O 	O 	0.17919 0.40731 0.46870 -0.48100
O 	O 	0.42419 0.39218 0.40788 -0.45600
H 	H 	0.44610 0.40290 0.40130 0.25500
O 	O 	0.33300 0.26587 0.29861 -0.45600
H 	H 	0.31390 0.27870 0.29000 0.25800
C 	C 	0.22079 0.37217 0.43242 -0.04900
C 	C 	0.21637 0.40127 0.45912 0.38000
C 	C 	0.26101 0.36476 0.42038 -0.00400
H 	H 	0.28510 0.37610 0.42940 0.07300
C 	C 	0.26454 0.34013 0.39467 -0.04400
C 	C 	0.30738 0.33406 0.38002 0.37100
C 	C 	0.22866 0.32338 0.38117 -0.07500
H 	H 	0.23120 0.30730 0.36380 0.09500
C 	C 	0.18479 0.35519 0.41927 -0.07500
H 	H 	0.15810 0.36020 0.42750 0.08000
C 	C 	0.18887 0.33064 0.39365 0.10600
N 	N 	0.15267 0.31486 0.37878 -0.09300
N 	N 	0.15531 0.29030 0.35576 -0.03800
N 	N 	0.11637 0.28060 0.34668 -0.07100
C 	C 	0.11149 0.32711 0.38096 0.01000
H 	H 	0.10080 0.34780 0.39380 0.03500
C 	C 	0.08853 0.30390 0.36124 0.03000
C 	C 	0.02868 0.28403 0.32942 -0.13800
H 	H 	0.04700 0.26680 0.31850 0.09700
C 	C 	0.04376 0.30723 0.35361 0.08500
C 	C 	0.01616 0.33235 0.37022 -0.13800
H 	H 	0.02630 0.34750 0.38650 0.09400
C 	C 	0.98603 0.28677 0.32169 0.08500
C 	C 	0.95821 0.31066 0.33885 -0.13700
H 	H 	0.92930 0.31050 0.33450 0.09700
C 	C 	0.94580 0.36134 0.38012 0.03600
C 	C 	0.97349 0.33482 0.36251 0.08300
C 	C 	0.99031 0.24266 0.27428 0.01000
H 	H 	0.01970 0.24050 0.27220 0.03900
C 	C 	0.96933 0.26320 0.29655 0.03500
N 	N 	0.96121 0.22618 0.25592 -0.09200
N 	N 	0.92998 0.25990 0.29022 -0.07300
N 	N 	0.92441 0.23860 0.26462 -0.03800
C 	C 	0.90286 0.36662 0.37799 0.00800
H 	H 	0.88490 0.35300 0.36460 0.04000
N 	N 	0.89123 0.39521 0.39884 -0.09100
N 	N 	0.92351 0.40280 0.41507 -0.04000
N 	N 	0.95749 0.38540 0.40156 -0.07600
C 	C 	0.01030 0.17590 0.18948 -0.04600
C 	C 	0.00656 0.19847 0.21617 -0.07800
H 	H 	0.03040 0.21050 0.22510 0.08700
C 	C 	0.93088 0.18483 0.21613 -0.07600
H 	H 	0.90440 0.18790 0.22510 0.09400
C 	C 	0.96664 0.20252 0.22906 0.10700
C 	C 	0.80653 0.45588 0.43627 -0.05000
C 	C 	0.84656 0.44120 0.42832 -0.07200
H 	H 	0.87080 0.45130 0.43790 0.08900
C 	C 	0.84989 0.41120 0.40580 0.10500
C 	C 	0.77060 0.44142 0.42165 -0.00500
H 	H 	0.74380 0.45100 0.42740 0.07200
C 	C 	0.97454 0.15756 0.17642 -0.00500
H 	H 	0.97720 0.14210 0.15890 0.07000
C 	C 	0.05257 0.17287 0.17433 0.36300
C 	C 	0.77474 0.41251 0.39841 -0.04000
C 	C 	0.93504 0.16238 0.18954 -0.04500
C 	C 	0.89573 0.14537 0.17443 0.36700
C 	C 	0.81444 0.39754 0.39017 -0.07900
H 	H 	0.81730 0.37860 0.37440 0.08800
C 	C 	0.80257 0.48911 0.46024 0.37700
C 	C 	0.73571 0.39850 0.38166 0.35800
O 	O 	0.86051 0.15297 0.18676 -0.46200
O 	O 	0.08310 0.19331 0.18552 -0.44900
O 	O 	0.05459 0.15021 0.15122 -0.46500
O 	O 	0.83578 0.50600 0.46958 -0.47700
O 	O 	0.90150 0.12570 0.15062 -0.46000
O 	O 	0.76519 0.49665 0.46921 -0.47400
O 	O 	0.70043 0.40949 0.39209 -0.45400
O 	O 	0.74156 0.37721 0.35816 -0.44300
Zn	Zn	0.85988 0.80590 0.83238 1.22700
Zn	Zn	0.89494 0.85408 0.87391 1.22900
O 	O 	0.80831 0.81309 0.85659 -0.46300
O 	O 	0.83854 0.85143 0.89262 -0.44900
O 	O 	0.74960 0.91726 0.96913 -0.47600
O 	O 	0.67919 0.90731 0.96870 -0.47900
O 	O 	0.92419 0.89218 0.90788 -0.45600
H 	H 	0.94610 0.90290 0.90130 0.25500
O 	O 	0.83300 0.76587 0.79861 -0.45600
H 	H 	0.81390 0.77870 0.79000 0.25800
C 	C 	0.72079 0.87217 0.93242 -0.04800
C 	C 	0.71637 0.90127 0.95912 0.37900
C 	C 	0.76101 0.86476 0.92038 -0.00500
H 	H 	0.78510 0.87610 0.92940 0.07300
C 	C 	0.76454 0.84013 0.89467 -0.04400
C 	C 	0.80738 0.83406 0.88002 0.37100
C 	C 	0.72866 0.82338 0.88117 -0.07500
H 	H 	0.73120 0.80730 0.86380 0.09500
C 	C 	0.68479 0.85519 0.91927 -0.07500
H 	H 	0.65810 0.86020 0.92750 0.08100
C 	C 	0.68887 0.83064 0.89365 0.10600
N 	N 	0.65267 0.81486 0.87878 -0.09300
N 	N 	0.65531 0.79030 0.85576 -0.03800
N 	N 	0.61637 0.78060 0.84668 -0.07100
C 	C 	0.61149 0.82711 0.88096 0.01100
H 	H 	0.60080 0.84780 0.89380 0.03600
C 	C 	0.58853 0.80390 0.86124 0.03100
C 	C 	0.52868 0.78403 0.82942 -0.13800
H 	H 	0.54700 0.76680 0.81850 0.09700
C 	C 	0.54376 0.80723 0.85361 0.08500
C 	C 	0.51616 0.83235 0.87022 -0.13800
H 	H 	0.52630 0.84750 0.88650 0.09400
C 	C 	0.48603 0.78677 0.82169 0.08500
C 	C 	0.45821 0.81066 0.83885 -0.13700
H 	H 	0.42930 0.81050 0.83450 0.09700
C 	C 	0.44580 0.86134 0.88012 0.03600
C 	C 	0.47349 0.83482 0.86251 0.08300
C 	C 	0.49031 0.74266 0.77428 0.01000
H 	H 	0.51970 0.74050 0.77220 0.03900
C 	C 	0.46933 0.76320 0.79655 0.03500
N 	N 	0.46121 0.72618 0.75592 -0.09200
N 	N 	0.42998 0.75990 0.79022 -0.07300
N 	N 	0.42441 0.73860 0.76462 -0.03800
C 	C 	0.40286 0.86662 0.87799 0.00800
H 	H 	0.38490 0.85300 0.86460 0.04000
N 	N 	0.39123 0.89521 0.89884 -0.09100
N 	N 	0.42351 0.90280 0.91507 -0.04000
N 	N 	0.45749 0.88540 0.90156 -0.07600
C 	C 	0.51030 0.67590 0.68948 -0.04600
C 	C 	0.50656 0.69847 0.71617 -0.07800
H 	H 	0.53040 0.71050 0.72510 0.08700
C 	C 	0.43088 0.68483 0.71613 -0.07600
H 	H 	0.40440 0.68790 0.72510 0.09400
C 	C 	0.46664 0.70252 0.72906 0.10700
C 	C 	0.30653 0.95588 0.93627 -0.04900
C 	C 	0.34656 0.94120 0.92832 -0.07200
H 	H 	0.37080 0.95130 0.93790 0.09000
C 	C 	0.34989 0.91120 0.90580 0.10600
C 	C 	0.27060 0.94142 0.92165 -0.00500
H 	H 	0.24380 0.95100 0.92740 0.07200
C 	C 	0.47454 0.65756 0.67642 -0.00500
H 	H 	0.47720 0.64210 0.65890 0.07000
C 	C 	0.55257 0.67287 0.67433 0.36300
C 	C 	0.27474 0.91251 0.89841 -0.03900
C 	C 	0.43504 0.66238 0.68954 -0.04500
C 	C 	0.39573 0.64537 0.67443 0.36700
C 	C 	0.31444 0.89754 0.89017 -0.08000
H 	H 	0.31730 0.87860 0.87440 0.08800
C 	C 	0.30257 0.98911 0.96024 0.37600
C 	C 	0.23571 0.89850 0.88166 0.35800
O 	O 	0.36051 0.65297 0.68676 -0.46200
O 	O 	0.58310 0.69331 0.68552 -0.44900
O 	O 	0.55459 0.65021 0.65122 -0.46500
O 	O 	0.33578 0.00600 0.96958 -0.47400
O 	O 	0.40150 0.62570 0.65062 -0.46000
O 	O 	0.26519 0.99665 0.96921 -0.47100
O 	O 	0.20043 0.90949 0.89209 -0.45400
O 	O 	0.24156 0.87721 0.85816 -0.44300
Zn	Zn	0.30590 0.64012 0.33238 1.22700
Zn	Zn	0.35408 0.60506 0.37391 1.22900
O 	O 	0.31309 0.69169 0.35659 -0.46300
O 	O 	0.35143 0.66146 0.39262 -0.45000
O 	O 	0.41726 0.75040 0.46913 -0.47900
O 	O 	0.40731 0.82081 0.46870 -0.48100
O 	O 	0.39218 0.57581 0.40788 -0.45600
H 	H 	0.40290 0.55390 0.40130 0.25500
O 	O 	0.26587 0.66700 0.29861 -0.45600
H 	H 	0.27870 0.68610 0.29000 0.25800
C 	C 	0.37217 0.77921 0.43242 -0.04900
C 	C 	0.40127 0.78363 0.45912 0.38000
C 	C 	0.36476 0.73899 0.42038 -0.00400
H 	H 	0.37610 0.71490 0.42940 0.07300
C 	C 	0.34013 0.73546 0.39467 -0.04400
C 	C 	0.33406 0.69262 0.38002 0.37100
C 	C 	0.32338 0.77134 0.38117 -0.07500
H 	H 	0.30730 0.76880 0.36380 0.09500
C 	C 	0.35519 0.81521 0.41927 -0.07500
H 	H 	0.36020 0.84190 0.42750 0.08000
C 	C 	0.33064 0.81113 0.39365 0.10600
N 	N 	0.31486 0.84733 0.37878 -0.09300
N 	N 	0.29030 0.84469 0.35576 -0.03800
N 	N 	0.28060 0.88363 0.34668 -0.07100
C 	C 	0.32711 0.88851 0.38096 0.01000
H 	H 	0.34780 0.89920 0.39380 0.03500
C 	C 	0.30390 0.91147 0.36124 0.03000
C 	C 	0.28403 0.97132 0.32942 -0.13800
H 	H 	0.26680 0.95300 0.31850 0.09700
C 	C 	0.30723 0.95624 0.35361 0.08500
C 	C 	0.33235 0.98384 0.37022 -0.13800
H 	H 	0.34750 0.97370 0.38650 0.09400
C 	C 	0.28677 0.01397 0.32169 0.08500
C 	C 	0.31066 0.04179 0.33885 -0.13700
H 	H 	0.31050 0.07070 0.33450 0.09700
C 	C 	0.36134 0.05420 0.38012 0.03600
C 	C 	0.33482 0.02651 0.36251 0.08300
C 	C 	0.24266 0.00969 0.27428 0.01000
H 	H 	0.24050 0.98030 0.27220 0.03900
C 	C 	0.26320 0.03067 0.29655 0.03500
N 	N 	0.22618 0.03879 0.25592 -0.09200
N 	N 	0.25990 0.07002 0.29022 -0.07300
N 	N 	0.23860 0.07559 0.26462 -0.03800
C 	C 	0.36662 0.09714 0.37799 0.00800
H 	H 	0.35300 0.11510 0.36460 0.04000
N 	N 	0.39521 0.10877 0.39884 -0.09100
N 	N 	0.40280 0.07649 0.41507 -0.04000
N 	N 	0.38540 0.04251 0.40156 -0.07600
C 	C 	0.17590 0.98970 0.18948 -0.04600
C 	C 	0.19847 0.99344 0.21617 -0.07800
H 	H 	0.21050 0.96960 0.22510 0.08700
C 	C 	0.18483 0.06912 0.21613 -0.07600
H 	H 	0.18790 0.09560 0.22510 0.09400
C 	C 	0.20252 0.03336 0.22906 0.10700
C 	C 	0.45588 0.19347 0.43627 -0.05000
C 	C 	0.44120 0.15344 0.42832 -0.07200
H 	H 	0.45130 0.12920 0.43790 0.08900
C 	C 	0.41120 0.15011 0.40580 0.10500
C 	C 	0.44142 0.22940 0.42165 -0.00500
H 	H 	0.45100 0.25620 0.42740 0.07200
C 	C 	0.15756 0.02546 0.17642 -0.00500
H 	H 	0.14210 0.02280 0.15890 0.07000
C 	C 	0.17287 0.94743 0.17433 0.36300
C 	C 	0.41251 0.22526 0.39841 -0.04000
C 	C 	0.16238 0.06496 0.18954 -0.04500
C 	C 	0.14537 0.10427 0.17443 0.36700
C 	C 	0.39754 0.18556 0.39017 -0.07900
H 	H 	0.37860 0.18270 0.37440 0.08800
C 	C 	0.48911 0.19743 0.46024 0.37700
C 	C 	0.39850 0.26429 0.38166 0.35800
O 	O 	0.15297 0.13949 0.18676 -0.46200
O 	O 	0.19331 0.91690 0.18552 -0.44900
O 	O 	0.15021 0.94541 0.15122 -0.46500
O 	O 	0.50600 0.16422 0.46958 -0.47700
O 	O 	0.12570 0.09850 0.15062 -0.46000
O 	O 	0.49665 0.23481 0.46921 -0.47400
O 	O 	0.40949 0.29957 0.39209 -0.45400
O 	O 	0.37721 0.25844 0.35816 -0.44300
Zn	Zn	0.80590 0.14012 0.83238 1.22700
Zn	Zn	0.85408 0.10506 0.87391 1.22900
O 	O 	0.81309 0.19169 0.85659 -0.46300
O 	O 	0.85143 0.16146 0.89262 -0.44900
O 	O 	0.91726 0.25040 0.96913 -0.47600
O 	O 	0.90731 0.32081 0.96870 -0.47900
O 	O 	0.89218 0.07581 0.90788 -0.45600
H 	H 	0.90290 0.05390 0.90130 0.25500
O 	O 	0.76587 0.16700 0.79861 -0.45600
H 	H 	0.77870 0.18610 0.79000 0.25800
C 	C 	0.87217 0.27921 0.93242 -0.04800
C 	C 	0.90127 0.28363 0.95912 0.37900
C 	C 	0.86476 0.23899 0.92038 -0.00500
H 	H 	0.87610 0.21490 0.92940 0.07300
C 	C 	0.84013 0.23546 0.89467 -0.04400
C 	C 	0.83406 0.19262 0.88002 0.37100
C 	C 	0.82338 0.27134 0.88117 -0.07500
H 	H 	0.80730 0.26880 0.86380 0.09500
C 	C 	0.85519 0.31521 0.91927 -0.07500
H 	H 	0.86020 0.34190 0.92750 0.08100
C 	C 	0.83064 0.31113 0.89365 0.10600
N 	N 	0.81486 0.34733 0.87878 -0.09300
N 	N 	0.79030 0.34469 0.85576 -0.03800
N 	N 	0.78060 0.38363 0.84668 -0.07100
C 	C 	0.82711 0.38851 0.88096 0.01100
H 	H 	0.84780 0.39920 0.89380 0.03600
C 	C 	0.80390 0.41147 0.86124 0.03100
C 	C 	0.78403 0.47132 0.82942 -0.13800
H 	H 	0.76680 0.45300 0.81850 0.09700
C 	C 	0.80723 0.45624 0.85361 0.08500
C 	C 	0.83235 0.48384 0.87022 -0.13800
H 	H 	0.84750 0.47370 0.88650 0.09400
C 	C 	0.78677 0.51397 0.82169 0.08500
C 	C 	0.81066 0.54179 0.83885 -0.13700
H 	H 	0.81050 0.57070 0.83450 0.09700
C 	C 	0.86134 0.55420 0.88012 0.03600
C 	C 	0.83482 0.52651 0.86251 0.08300
C 	C 	0.74266 0.50969 0.77428 0.01000
H 	H 	0.74050 0.48030 0.77220 0.03900
C 	C 	0.76320 0.53067 0.79655 0.03500
N 	N 	0.72618 0.53879 0.75592 -0.09200
N 	N 	0.75990 0.57002 0.79022 -0.07300
N 	N 	0.73860 0.57559 0.76462 -0.03800
C 	C 	0.86662 0.59714 0.87799 0.00800
H 	H 	0.85300 0.61510 0.86460 0.04000
N 	N 	0.89521 0.60877 0.89884 -0.09100
N 	N 	0.90280 0.57649 0.91507 -0.04000
N 	N 	0.88540 0.54251 0.90156 -0.07600
C 	C 	0.67590 0.48970 0.68948 -0.04600
C 	C 	0.69847 0.49344 0.71617 -0.07800
H 	H 	0.71050 0.46960 0.72510 0.08700
C 	C 	0.68483 0.56912 0.71613 -0.07600
H 	H 	0.68790 0.59560 0.72510 0.09400
C 	C 	0.70252 0.53336 0.72906 0.10700
C 	C 	0.95588 0.69347 0.93627 -0.04900
C 	C 	0.94120 0.65344 0.92832 -0.07200
H 	H 	0.95130 0.62920 0.93790 0.09000
C 	C 	0.91120 0.65011 0.90580 0.10600
C 	C 	0.94142 0.72940 0.92165 -0.00500
H 	H 	0.95100 0.75620 0.92740 0.07200
C 	C 	0.65756 0.52546 0.67642 -0.00500
H 	H 	0.64210 0.52280 0.65890 0.07000
C 	C 	0.67287 0.44743 0.67433 0.36300
C 	C 	0.91251 0.72526 0.89841 -0.03900
C 	C 	0.66238 0.56496 0.68954 -0.04500
C 	C 	0.64537 0.60427 0.67443 0.36700
C 	C 	0.89754 0.68556 0.89017 -0.08000
H 	H 	0.87860 0.68270 0.87440 0.08800
C 	C 	0.98911 0.69743 0.96024 0.37600
C 	C 	0.89850 0.76429 0.88166 0.35800
O 	O 	0.65297 0.63949 0.68676 -0.46200
O 	O 	0.69331 0.41690 0.68552 -0.44900
O 	O 	0.65021 0.44541 0.65122 -0.46500
O 	O 	0.00600 0.66422 0.96958 -0.47400
O 	O 	0.62570 0.59850 0.65062 -0.46000
O 	O 	0.99665 0.73481 0.96921 -0.47100
O 	O 	0.90949 0.79957 0.89209 -0.45400
O 	O 	0.87721 0.75844 0.85816 -0.44300
Zn	Zn	0.69410 0.35988 0.33238 1.22700
Zn	Zn	0.64592 0.39494 0.37391 1.22900
O 	O 	0.68691 0.30831 0.35659 -0.46300
O 	O 	0.64857 0.33854 0.39262 -0.45000
O 	O 	0.58274 0.24960 0.46913 -0.47900
O 	O 	0.59269 0.17919 0.46870 -0.48100
O 	O 	0.60782 0.42419 0.40788 -0.45600
H 	H 	0.59710 0.44610 0.40130 0.25500
O 	O 	0.73413 0.33300 0.29861 -0.45600
H 	H 	0.72130 0.31390 0.29000 0.25800
C 	C 	0.62783 0.22079 0.43242 -0.04900
C 	C 	0.59873 0.21637 0.45912 0.38000
C 	C 	0.63524 0.26101 0.42038 -0.00400
H 	H 	0.62390 0.28510 0.42940 0.07300
C 	C 	0.65987 0.26454 0.39467 -0.04400
C 	C 	0.66594 0.30738 0.38002 0.37100
C 	C 	0.67662 0.22866 0.38117 -0.07500
H 	H 	0.69270 0.23120 0.36380 0.09500
C 	C 	0.64481 0.18479 0.41927 -0.07500
H 	H 	0.63980 0.15810 0.42750 0.08000
C 	C 	0.66936 0.18887 0.39365 0.10600
N 	N 	0.68514 0.15267 0.37878 -0.09300
N 	N 	0.70970 0.15531 0.35576 -0.03800
N 	N 	0.71940 0.11637 0.34668 -0.07100
C 	C 	0.67289 0.11149 0.38096 0.01000
H 	H 	0.65220 0.10080 0.39380 0.03500
C 	C 	0.69610 0.08853 0.36124 0.03000
C 	C 	0.71597 0.02868 0.32942 -0.13800
H 	H 	0.73320 0.04700 0.31850 0.09700
C 	C 	0.69277 0.04376 0.35361 0.08500
C 	C 	0.66765 0.01616 0.37022 -0.13800
H 	H 	0.65250 0.02630 0.38650 0.09400
C 	C 	0.71323 0.98603 0.32169 0.08500
C 	C 	0.68934 0.95821 0.33885 -0.13700
H 	H 	0.68950 0.92930 0.33450 0.09700
C 	C 	0.63866 0.94580 0.38012 0.03600
C 	C 	0.66518 0.97349 0.36251 0.08300
C 	C 	0.75734 0.99031 0.27428 0.01000
H 	H 	0.75950 0.01970 0.27220 0.03900
C 	C 	0.73680 0.96933 0.29655 0.03500
N 	N 	0.77382 0.96121 0.25592 -0.09200
N 	N 	0.74010 0.92998 0.29022 -0.07300
N 	N 	0.76140 0.92441 0.26462 -0.03800
C 	C 	0.63338 0.90286 0.37799 0.00800
H 	H 	0.64700 0.88490 0.36460 0.04000
N 	N 	0.60479 0.89123 0.39884 -0.09100
N 	N 	0.59720 0.92351 0.41507 -0.04000
N 	N 	0.61460 0.95749 0.40156 -0.07600
C 	C 	0.82410 0.01030 0.18948 -0.04600
C 	C 	0.80153 0.00656 0.21617 -0.07800
H 	H 	0.78950 0.03040 0.22510 0.08700
C 	C 	0.81517 0.93088 0.21613 -0.07600
H 	H 	0.81210 0.90440 0.22510 0.09400
C 	C 	0.79748 0.96664 0.22906 0.10700
C 	C 	0.54412 0.80653 0.43627 -0.05000
C 	C 	0.55880 0.84656 0.42832 -0.07200
H 	H 	0.54870 0.87080 0.43790 0.08900
C 	C 	0.58880 0.84989 0.40580 0.10500
C 	C 	0.55858 0.77060 0.42165 -0.00500
H 	H 	0.54900 0.74380 0.42740 0.07200
C 	C 	0.84244 0.97454 0.17642 -0.00500
H 	H 	0.85790 0.97720 0.15890 0.07000
C 	C 	0.82713 0.05257 0.17433 0.36300
C 	C 	0.58749 0.77474 0.39841 -0.04000
C 	C 	0.83762 0.93504 0.18954 -0.04500
C 	C 	0.85463 0.89573 0.17443 0.36700
C 	C 	0.60246 0.81444 0.39017 -0.07900
H 	H 	0.62140 0.81730 0.37440 0.08800
C 	C 	0.51089 0.80257 0.46024 0.37700
C 	C 	0.60150 0.73571 0.38166 0.35800
O 	O 	0.84703 0.86051 0.18676 -0.46200
O 	O 	0.80669 0.08310 0.18552 -0.44900
O 	O 	0.84979 0.05459 0.15122 -0.46500
O 	O 	0.49400 0.83578 0.46958 -0.47700
O 	O 	0.87430 0.90150 0.15062 -0.46000
O 	O 	0.50335 0.76519 0.46921 -0.47400
O 	O 	0.59051 0.70043 0.39209 -0.45400
O 	O 	0.62279 0.74156 0.35816 -0.44300
Zn	Zn	0.19410 0.85988 0.83238 1.22700
Zn	Zn	0.14592 0.89494 0.87391 1.22900
O 	O 	0.18691 0.80831 0.85659 -0.46300
O 	O 	0.14857 0.83854 0.89262 -0.44900
O 	O 	0.08274 0.74960 0.96913 -0.47600
O 	O 	0.09269 0.67919 0.96870 -0.47900
O 	O 	0.10782 0.92419 0.90788 -0.45600
H 	H 	0.09710 0.94610 0.90130 0.25500
O 	O 	0.23413 0.83300 0.79861 -0.45600
H 	H 	0.22130 0.81390 0.79000 0.25800
C 	C 	0.12783 0.72079 0.93242 -0.04800
C 	C 	0.09873 0.71637 0.95912 0.37900
C 	C 	0.13524 0.76101 0.92038 -0.00500
H 	H 	0.12390 0.78510 0.92940 0.07300
C 	C 	0.15987 0.76454 0.89467 -0.04400
C 	C 	0.16594 0.80738 0.88002 0.37100
C 	C 	0.17662 0.72866 0.88117 -0.07500
H 	H 	0.19270 0.73120 0.86380 0.09500
C 	C 	0.14481 0.68479 0.91927 -0.07500
H 	H 	0.13980 0.65810 0.92750 0.08100
C 	C 	0.16936 0.68887 0.89365 0.10600
N 	N 	0.18514 0.65267 0.87878 -0.09300
N 	N 	0.20970 0.65531 0.85576 -0.03800
N 	N 	0.21940 0.61637 0.84668 -0.07100
C 	C 	0.17289 0.61149 0.88096 0.01100
H 	H 	0.15220 0.60080 0.89380 0.03600
C 	C 	0.19610 0.58853 0.86124 0.03100
C 	C 	0.21597 0.52868 0.82942 -0.13800
H 	H 	0.23320 0.54700 0.81850 0.09700
C 	C 	0.19277 0.54376 0.85361 0.08500
C 	C 	0.16765 0.51616 0.87022 -0.13800
H 	H 	0.15250 0.52630 0.88650 0.09400
C 	C 	0.21323 0.48603 0.82169 0.08500
C 	C 	0.18934 0.45821 0.83885 -0.13700
H 	H 	0.18950 0.42930 0.83450 0.09700
C 	C 	0.13866 0.44580 0.88012 0.03600
C 	C 	0.16518 0.47349 0.86251 0.08300
C 	C 	0.25734 0.49031 0.77428 0.01000
H 	H 	0.25950 0.51970 0.77220 0.03900
C 	C 	0.23680 0.46933 0.79655 0.03500
N 	N 	0.27382 0.46121 0.75592 -0.09200
N 	N 	0.24010 0.42998 0.79022 -0.07300
N 	N 	0.26140 0.42441 0.76462 -0.03800
C 	C 	0.13338 0.40286 0.87799 0.00800
H 	H 	0.14700 0.38490 0.86460 0.04000
N 	N 	0.10479 0.39123 0.89884 -0.09100
N 	N 	0.09720 0.42351 0.91507 -0.04000
N 	N 	0.11460 0.45749 0.90156 -0.07600
C 	C 	0.32410 0.51030 0.68948 -0.04600
C 	C 	0.30153 0.50656 0.71617 -0.07800
H 	H 	0.28950 0.53040 0.72510 0.08700
C 	C 	0.31517 0.43088 0.71613 -0.07600
H 	H 	0.31210 0.40440 0.72510 0.09400
C 	C 	0.29748 0.46664 0.72906 0.10700
C 	C 	0.04412 0.30653 0.93627 -0.04900
C 	C 	0.05880 0.34656 0.92832 -0.07200
H 	H 	0.04870 0.37080 0.93790 0.09000
C 	C 	0.08880 0.34989 0.90580 0.10600
C 	C 	0.05858 0.27060 0.92165 -0.00500
H 	H 	0.04900 0.24380 0.92740 0.07200
C 	C 	0.34244 0.47454 0.67642 -0.00500
H 	H 	0.35790 0.47720 0.65890 0.07000
C 	C 	0.32713 0.55257 0.67433 0.36300
C 	C 	0.08749 0.27474 0.89841 -0.03900
C 	C 	0.33762 0.43504 0.68954 -0.04500
C 	C 	0.35463 0.39573 0.67443 0.36700
C 	C 	0.10246 0.31444 0.89017 -0.08000
H 	H 	0.12140 0.31730 0.87440 0.08800
C 	C 	0.01089 0.30257 0.96024 0.37600
C 	C 	0.10150 0.23571 0.88166 0.35800
O 	O 	0.34703 0.36051 0.68676 -0.46200
O 	O 	0.30669 0.58310 0.68552 -0.44900
O 	O 	0.34979 0.55459 0.65122 -0.46500
O 	O 	0.99400 0.33578 0.96958 -0.47400
O 	O 	0.37430 0.40150 0.65062 -0.46000
O 	O 	0.00335 0.26519 0.96921 -0.47100
O 	O 	0.09051 0.20043 0.89209 -0.45400
O 	O 	0.12279 0.24156 0.85816 -0.44300
Zn	Zn	0.35988 0.30590 0.66762 1.22700
Zn	Zn	0.39494 0.35408 0.62609 1.22900
O 	O 	0.30831 0.31309 0.64341 -0.46300
O 	O 	0.33854 0.35143 0.60738 -0.45000
O 	O 	0.24960 0.41726 0.53087 -0.47900
O 	O 	0.17919 0.40731 0.53130 -0.48100
O 	O 	0.42419 0.39218 0.59212 -0.45600
H 	H 	0.44610 0.40290 0.59870 0.25500
O 	O 	0.33300 0.26587 0.70139 -0.45600
H 	H 	0.31390 0.27870 0.71000 0.25800
C 	C 	0.22079 0.37217 0.56758 -0.04900
C 	C 	0.21637 0.40127 0.54088 0.38000
C 	C 	0.26101 0.36476 0.57962 -0.00400
H 	H 	0.28510 0.37610 0.57060 0.07300
C 	C 	0.26454 0.34013 0.60533 -0.04400
C 	C 	0.30738 0.33406 0.61998 0.37100
C 	C 	0.22866 0.32338 0.61883 -0.07500
H 	H 	0.23120 0.30730 0.63620 0.09500
C 	C 	0.18479 0.35519 0.58073 -0.07500
H 	H 	0.15810 0.36020 0.57250 0.08000
C 	C 	0.18887 0.33064 0.60635 0.10600
N 	N 	0.15267 0.31486 0.62122 -0.09300
N 	N 	0.15531 0.29030 0.64424 -0.03800
N 	N 	0.11637 0.28060 0.65332 -0.07100
C 	C 	0.11149 0.32711 0.61904 0.01000
H 	H 	0.10080 0.34780 0.60620 0.03500
C 	C 	0.08853 0.30390 0.63876 0.03000
C 	C 	0.02868 0.28403 0.67058 -0.13800
H 	H 	0.04700 0.26680 0.68150 0.09600
C 	C 	0.04376 0.30723 0.64639 0.08500
C 	C 	0.01616 0.33235 0.62978 -0.13800
H 	H 	0.02630 0.34750 0.61350 0.09400
C 	C 	0.98603 0.28677 0.67831 0.08500
C 	C 	0.95821 0.31066 0.66115 -0.13700
H 	H 	0.92930 0.31050 0.66550 0.09600
C 	C 	0.94580 0.36134 0.61988 0.03600
C 	C 	0.97349 0.33482 0.63749 0.08300
C 	C 	0.99031 0.24266 0.72572 0.01000
H 	H 	0.01970 0.24050 0.72780 0.03900
C 	C 	0.96933 0.26320 0.70345 0.03500
N 	N 	0.96121 0.22618 0.74408 -0.09200
N 	N 	0.92998 0.25990 0.70978 -0.07400
N 	N 	0.92441 0.23860 0.73538 -0.03800
C 	C 	0.90286 0.36662 0.62201 0.00800
H 	H 	0.88490 0.35300 0.63540 0.04000
N 	N 	0.89123 0.39521 0.60116 -0.09100
N 	N 	0.92351 0.40280 0.58493 -0.04000
N 	N 	0.95749 0.38540 0.59844 -0.07600
C 	C 	0.01030 0.17590 0.81052 -0.04600
C 	C 	0.00656 0.19847 0.78383 -0.07800
H 	H 	0.03040 0.21050 0.77490 0.08700
C 	C 	0.93088 0.18483 0.78387 -0.07600
H 	H 	0.90440 0.18790 0.77490 0.09400
C 	C 	0.96664 0.20252 0.77094 0.10700
C 	C 	0.80653 0.45588 0.56373 -0.05000
C 	C 	0.84656 0.44120 0.57168 -0.07200
H 	H 	0.87080 0.45130 0.56210 0.08900
C 	C 	0.84989 0.41120 0.59420 0.10500
C 	C 	0.77060 0.44142 0.57835 -0.00500
H 	H 	0.74380 0.45100 0.57260 0.07200
C 	C 	0.97454 0.15756 0.82358 -0.00500
H 	H 	0.97720 0.14210 0.84110 0.07000
C 	C 	0.05257 0.17287 0.82567 0.36300
C 	C 	0.77474 0.41251 0.60159 -0.04000
C 	C 	0.93504 0.16238 0.81046 -0.04500
C 	C 	0.89573 0.14537 0.82557 0.36600
C 	C 	0.81444 0.39754 0.60983 -0.07900
H 	H 	0.81730 0.37860 0.62560 0.08800
C 	C 	0.80257 0.48911 0.53976 0.37700
C 	C 	0.73571 0.39850 0.61834 0.35800
O 	O 	0.86051 0.15297 0.81324 -0.46200
O 	O 	0.08310 0.19331 0.81448 -0.44900
O 	O 	0.05459 0.15021 0.84878 -0.46500
O 	O 	0.83578 0.50600 0.53042 -0.47700
O 	O 	0.90150 0.12570 0.84938 -0.46000
O 	O 	0.76519 0.49665 0.53079 -0.47400
O 	O 	0.70043 0.40949 0.60791 -0.45400
O 	O 	0.74156 0.37721 0.64184 -0.44300
Zn	Zn	0.85988 0.80590 0.16762 1.22700
Zn	Zn	0.89494 0.85408 0.12609 1.22900
O 	O 	0.80831 0.81309 0.14341 -0.46300
O 	O 	0.83854 0.85143 0.10738 -0.45000
O 	O 	0.74960 0.91726 0.03087 -0.48000
O 	O 	0.67919 0.90731 0.03130 -0.48300
O 	O 	0.92419 0.89218 0.09212 -0.45700
H 	H 	0.94610 0.90290 0.09870 0.25500
O 	O 	0.83300 0.76587 0.20139 -0.45600
H 	H 	0.81390 0.77870 0.21000 0.25800
C 	C 	0.72079 0.87217 0.06758 -0.05000
C 	C 	0.71637 0.90127 0.04088 0.38000
C 	C 	0.76101 0.86476 0.07962 -0.00400
H 	H 	0.78510 0.87610 0.07060 0.07200
C 	C 	0.76454 0.84013 0.10533 -0.04500
C 	C 	0.80738 0.83406 0.11998 0.37100
C 	C 	0.72866 0.82338 0.11883 -0.07400
H 	H 	0.73120 0.80730 0.13620 0.09400
C 	C 	0.68479 0.85519 0.08073 -0.07500
H 	H 	0.65810 0.86020 0.07250 0.07900
C 	C 	0.68887 0.83064 0.10635 0.10500
N 	N 	0.65267 0.81486 0.12122 -0.09300
N 	N 	0.65531 0.79030 0.14424 -0.03800
N 	N 	0.61637 0.78060 0.15332 -0.07200
C 	C 	0.61149 0.82711 0.11904 0.01000
H 	H 	0.60080 0.84780 0.10620 0.03500
C 	C 	0.58853 0.80390 0.13876 0.03000
C 	C 	0.52868 0.78403 0.17058 -0.13800
H 	H 	0.54700 0.76680 0.18150 0.09600
C 	C 	0.54376 0.80723 0.14639 0.08500
C 	C 	0.51616 0.83235 0.12978 -0.13800
H 	H 	0.52630 0.84750 0.11350 0.09300
C 	C 	0.48603 0.78677 0.17831 0.08500
C 	C 	0.45821 0.81066 0.16115 -0.13700
H 	H 	0.42930 0.81050 0.16550 0.09600
C 	C 	0.44580 0.86134 0.11988 0.03600
C 	C 	0.47349 0.83482 0.13749 0.08300
C 	C 	0.49031 0.74266 0.22572 0.01000
H 	H 	0.51970 0.74050 0.22780 0.03900
C 	C 	0.46933 0.76320 0.20345 0.03500
N 	N 	0.46121 0.72618 0.24408 -0.09200
N 	N 	0.42998 0.75990 0.20978 -0.07400
N 	N 	0.42441 0.73860 0.23538 -0.03800
C 	C 	0.40286 0.86662 0.12201 0.00800
H 	H 	0.38490 0.85300 0.13540 0.04000
N 	N 	0.39123 0.89521 0.10116 -0.09100
N 	N 	0.42351 0.90280 0.08493 -0.04100
N 	N 	0.45749 0.88540 0.09844 -0.07700
C 	C 	0.51030 0.67590 0.31052 -0.04600
C 	C 	0.50656 0.69847 0.28383 -0.07800
H 	H 	0.53040 0.71050 0.27490 0.08700
C 	C 	0.43088 0.68483 0.28387 -0.07600
H 	H 	0.40440 0.68790 0.27490 0.09400
C 	C 	0.46664 0.70252 0.27094 0.10700
C 	C 	0.30653 0.95588 0.06373 -0.05100
C 	C 	0.34656 0.94120 0.07168 -0.07100
H 	H 	0.37080 0.95130 0.06210 0.08900
C 	C 	0.34989 0.91120 0.09420 0.10500
C 	C 	0.27060 0.94142 0.07835 -0.00500
H 	H 	0.24380 0.95100 0.07260 0.07100
C 	C 	0.47454 0.65756 0.32358 -0.00500
H 	H 	0.47720 0.64210 0.34110 0.07000
C 	C 	0.55257 0.67287 0.32567 0.36300
C 	C 	0.27474 0.91251 0.10159 -0.04000
C 	C 	0.43504 0.66238 0.31046 -0.04500
C 	C 	0.39573 0.64537 0.32557 0.36700
C 	C 	0.31444 0.89754 0.10983 -0.07900
H 	H 	0.31730 0.87860 0.12560 0.08800
C 	C 	0.30257 0.98911 0.03976 0.37700
C 	C 	0.23571 0.89850 0.11834 0.35800
O 	O 	0.36051 0.65297 0.31324 -0.46200
O 	O 	0.58310 0.69331 0.31448 -0.44900
O 	O 	0.55459 0.65021 0.34878 -0.46500
O 	O 	0.33578 0.00600 0.03042 -0.47800
O 	O 	0.40150 0.62570 0.34938 -0.46000
O 	O 	0.26519 0.99665 0.03079 -0.47500
O 	O 	0.20043 0.90949 0.10791 -0.45400
O 	O 	0.24156 0.87721 0.14184 -0.44300
Zn	Zn	0.64012 0.69410 0.66762 1.22700
Zn	Zn	0.60506 0.64592 0.62609 1.22900
O 	O 	0.69169 0.68691 0.64341 -0.46300
O 	O 	0.66146 0.64857 0.60738 -0.45000
O 	O 	0.75040 0.58274 0.53087 -0.47900
O 	O 	0.82081 0.59269 0.53130 -0.48100
O 	O 	0.57581 0.60782 0.59212 -0.45600
H 	H 	0.55390 0.59710 0.59870 0.25500
O 	O 	0.66700 0.73413 0.70139 -0.45600
H 	H 	0.68610 0.72130 0.71000 0.25800
C 	C 	0.77921 0.62783 0.56758 -0.04900
C 	C 	0.78363 0.59873 0.54088 0.38000
C 	C 	0.73899 0.63524 0.57962 -0.00400
H 	H 	0.71490 0.62390 0.57060 0.07300
C 	C 	0.73546 0.65987 0.60533 -0.04400
C 	C 	0.69262 0.66594 0.61998 0.37100
C 	C 	0.77134 0.67662 0.61883 -0.07500
H 	H 	0.76880 0.69270 0.63620 0.09500
C 	C 	0.81521 0.64481 0.58073 -0.07500
H 	H 	0.84190 0.63980 0.57250 0.08000
C 	C 	0.81113 0.66936 0.60635 0.10600
N 	N 	0.84733 0.68514 0.62122 -0.09300
N 	N 	0.84469 0.70970 0.64424 -0.03800
N 	N 	0.88363 0.71940 0.65332 -0.07100
C 	C 	0.88851 0.67289 0.61904 0.01000
H 	H 	0.89920 0.65220 0.60620 0.03500
C 	C 	0.91147 0.69610 0.63876 0.03000
C 	C 	0.97132 0.71597 0.67058 -0.13800
H 	H 	0.95300 0.73320 0.68150 0.09600
C 	C 	0.95624 0.69277 0.64639 0.08500
C 	C 	0.98384 0.66765 0.62978 -0.13800
H 	H 	0.97370 0.65250 0.61350 0.09400
C 	C 	0.01397 0.71323 0.67831 0.08500
C 	C 	0.04179 0.68934 0.66115 -0.13700
H 	H 	0.07070 0.68950 0.66550 0.09600
C 	C 	0.05420 0.63866 0.61988 0.03600
C 	C 	0.02651 0.66518 0.63749 0.08300
C 	C 	0.00969 0.75734 0.72572 0.01000
H 	H 	0.98030 0.75950 0.72780 0.03900
C 	C 	0.03067 0.73680 0.70345 0.03500
N 	N 	0.03879 0.77382 0.74408 -0.09200
N 	N 	0.07002 0.74010 0.70978 -0.07400
N 	N 	0.07559 0.76140 0.73538 -0.03800
C 	C 	0.09714 0.63338 0.62201 0.00800
H 	H 	0.11510 0.64700 0.63540 0.04000
N 	N 	0.10877 0.60479 0.60116 -0.09100
N 	N 	0.07649 0.59720 0.58493 -0.04000
N 	N 	0.04251 0.61460 0.59844 -0.07600
C 	C 	0.98970 0.82410 0.81052 -0.04600
C 	C 	0.99344 0.80153 0.78383 -0.07800
H 	H 	0.96960 0.78950 0.77490 0.08700
C 	C 	0.06912 0.81517 0.78387 -0.07600
H 	H 	0.09560 0.81210 0.77490 0.09400
C 	C 	0.03336 0.79748 0.77094 0.10700
C 	C 	0.19347 0.54412 0.56373 -0.05000
C 	C 	0.15344 0.55880 0.57168 -0.07200
H 	H 	0.12920 0.54870 0.56210 0.08900
C 	C 	0.15011 0.58880 0.59420 0.10500
C 	C 	0.22940 0.55858 0.57835 -0.00500
H 	H 	0.25620 0.54900 0.57260 0.07200
C 	C 	0.02546 0.84244 0.82358 -0.00500
H 	H 	0.02280 0.85790 0.84110 0.07000
C 	C 	0.94743 0.82713 0.82567 0.36300
C 	C 	0.22526 0.58749 0.60159 -0.04000
C 	C 	0.06496 0.83762 0.81046 -0.04500
C 	C 	0.10427 0.85463 0.82557 0.36600
C 	C 	0.18556 0.60246 0.60983 -0.07900
H 	H 	0.18270 0.62140 0.62560 0.08800
C 	C 	0.19743 0.51089 0.53976 0.37700
C 	C 	0.26429 0.60150 0.61834 0.35800
O 	O 	0.13949 0.84703 0.81324 -0.46200
O 	O 	0.91690 0.80669 0.81448 -0.44900
O 	O 	0.94541 0.84979 0.84878 -0.46500
O 	O 	0.16422 0.49400 0.53042 -0.47700
O 	O 	0.09850 0.87430 0.84938 -0.46000
O 	O 	0.23481 0.50335 0.53079 -0.47400
O 	O 	0.29957 0.59051 0.60791 -0.45400
O 	O 	0.25844 0.62279 0.64184 -0.44300
Zn	Zn	0.14012 0.19410 0.16762 1.22700
Zn	Zn	0.10506 0.14592 0.12609 1.22900
O 	O 	0.19169 0.18691 0.14341 -0.46300
O 	O 	0.16146 0.14857 0.10738 -0.45000
O 	O 	0.25040 0.08274 0.03087 -0.48000
O 	O 	0.32081 0.09269 0.03130 -0.48300
O 	O 	0.07581 0.10782 0.09212 -0.45700
H 	H 	0.05390 0.09710 0.09870 0.25500
O 	O 	0.16700 0.23413 0.20139 -0.45600
H 	H 	0.18610 0.22130 0.21000 0.25800
C 	C 	0.27921 0.12783 0.06758 -0.05000
C 	C 	0.28363 0.09873 0.04088 0.38000
C 	C 	0.23899 0.13524 0.07962 -0.00400
H 	H 	0.21490 0.12390 0.07060 0.07200
C 	C 	0.23546 0.15987 0.10533 -0.04500
C 	C 	0.19262 0.16594 0.11998 0.37100
C 	C 	0.27134 0.17662 0.11883 -0.07400
H 	H 	0.26880 0.19270 0.13620 0.09400
C 	C 	0.31521 0.14481 0.08073 -0.07500
H 	H 	0.34190 0.13980 0.07250 0.07900
C 	C 	0.31113 0.16936 0.10635 0.10500
N 	N 	0.34733 0.18514 0.12122 -0.09300
N 	N 	0.34469 0.20970 0.14424 -0.03800
N 	N 	0.38363 0.21940 0.15332 -0.07200
C 	C 	0.38851 0.17289 0.11904 0.01000
H 	H 	0.39920 0.15220 0.10620 0.03500
C 	C 	0.41147 0.19610 0.13876 0.03000
C 	C 	0.47132 0.21597 0.17058 -0.13800
H 	H 	0.45300 0.23320 0.18150 0.09600
C 	C 	0.45624 0.19277 0.14639 0.08500
C 	C 	0.48384 0.16765 0.12978 -0.13800
H 	H 	0.47370 0.15250 0.11350 0.09300
C 	C 	0.51397 0.21323 0.17831 0.08500
C 	C 	0.54179 0.18934 0.16115 -0.13700
H 	H 	0.57070 0.18950 0.16550 0.09600
C 	C 	0.55420 0.13866 0.11988 0.03600
C 	C 	0.52651 0.16518 0.13749 0.08300
C 	C 	0.50969 0.25734 0.22572 0.01000
H 	H 	0.48030 0.25950 0.22780 0.03900
C 	C 	0.53067 0.23680 0.20345 0.03500
N 	N 	0.53879 0.27382 0.24408 -0.09200
N 	N 	0.57002 0.24010 0.20978 -0.07400
N 	N 	0.57559 0.26140 0.23538 -0.03800
C 	C 	0.59714 0.13338 0.12201 0.00800
H 	H 	0.61510 0.14700 0.13540 0.04000
N 	N 	0.60877 0.10479 0.10116 -0.09100
N 	N 	0.57649 0.09720 0.08493 -0.04100
N 	N 	0.54251 0.11460 0.09844 -0.07700
C 	C 	0.48970 0.32410 0.31052 -0.04600
C 	C 	0.49344 0.30153 0.28383 -0.07800
H 	H 	0.46960 0.28950 0.27490 0.08700
C 	C 	0.56912 0.31517 0.28387 -0.07600
H 	H 	0.59560 0.31210 0.27490 0.09400
C 	C 	0.53336 0.29748 0.27094 0.10700
C 	C 	0.69347 0.04412 0.06373 -0.05100
C 	C 	0.65344 0.05880 0.07168 -0.07100
H 	H 	0.62920 0.04870 0.06210 0.08900
C 	C 	0.65011 0.08880 0.09420 0.10500
C 	C 	0.72940 0.05858 0.07835 -0.00500
H 	H 	0.75620 0.04900 0.07260 0.07100
C 	C 	0.52546 0.34244 0.32358 -0.00500
H 	H 	0.52280 0.35790 0.34110 0.07000
C 	C 	0.44743 0.32713 0.32567 0.36300
C 	C 	0.72526 0.08749 0.10159 -0.04000
C 	C 	0.56496 0.33762 0.31046 -0.04500
C 	C 	0.60427 0.35463 0.32557 0.36700
C 	C 	0.68556 0.10246 0.10983 -0.07900
H 	H 	0.68270 0.12140 0.12560 0.08800
C 	C 	0.69743 0.01089 0.03976 0.37700
C 	C 	0.76429 0.10150 0.11834 0.35800
O 	O 	0.63949 0.34703 0.31324 -0.46200
O 	O 	0.41690 0.30669 0.31448 -0.44900
O 	O 	0.44541 0.34979 0.34878 -0.46500
O 	O 	0.66422 0.99400 0.03042 -0.47800
O 	O 	0.59850 0.37430 0.34938 -0.46000
O 	O 	0.73481 0.00335 0.03079 -0.47500
O 	O 	0.79957 0.09051 0.10791 -0.45400
O 	O 	0.75844 0.12279 0.14184 -0.44300
Zn	Zn	0.69410 0.35988 0.66762 1.22700
Zn	Zn	0.64592 0.39494 0.62609 1.22900
O 	O 	0.68691 0.30831 0.64341 -0.46300
O 	O 	0.64857 0.33854 0.60738 -0.45000
O 	O 	0.58274 0.24960 0.53087 -0.47900
O 	O 	0.59269 0.17919 0.53130 -0.48100
O 	O 	0.60782 0.42419 0.59212 -0.45600
H 	H 	0.59710 0.44610 0.59870 0.25500
O 	O 	0.73413 0.33300 0.70139 -0.45600
H 	H 	0.72130 0.31390 0.71000 0.25800
C 	C 	0.62783 0.22079 0.56758 -0.04900
C 	C 	0.59873 0.21637 0.54088 0.38000
C 	C 	0.63524 0.26101 0.57962 -0.00400
H 	H 	0.62390 0.28510 0.57060 0.07300
C 	C 	0.65987 0.26454 0.60533 -0.04400
C 	C 	0.66594 0.30738 0.61998 0.37100
C 	C 	0.67662 0.22866 0.61883 -0.07500
H 	H 	0.69270 0.23120 0.63620 0.09500
C 	C 	0.64481 0.18479 0.58073 -0.07500
H 	H 	0.63980 0.15810 0.57250 0.08000
C 	C 	0.66936 0.18887 0.60635 0.10600
N 	N 	0.68514 0.15267 0.62122 -0.09300
N 	N 	0.70970 0.15531 0.64424 -0.03800
N 	N 	0.71940 0.11637 0.65332 -0.07100
C 	C 	0.67289 0.11149 0.61904 0.01000
H 	H 	0.65220 0.10080 0.60620 0.03500
C 	C 	0.69610 0.08853 0.63876 0.03000
C 	C 	0.71597 0.02868 0.67058 -0.13800
H 	H 	0.73320 0.04700 0.68150 0.09600
C 	C 	0.69277 0.04376 0.64639 0.08500
C 	C 	0.66765 0.01616 0.62978 -0.13800
H 	H 	0.65250 0.02630 0.61350 0.09400
C 	C 	0.71323 0.98603 0.67831 0.08500
C 	C 	0.68934 0.95821 0.66115 -0.13700
H 	H 	0.68950 0.92930 0.66550 0.09600
C 	C 	0.63866 0.94580 0.61988 0.03600
C 	C 	0.66518 0.97349 0.63749 0.08300
C 	C 	0.75734 0.99031 0.72572 0.01000
H 	H 	0.75950 0.01970 0.72780 0.03900
C 	C 	0.73680 0.96933 0.70345 0.03500
N 	N 	0.77382 0.96121 0.74408 -0.09200
N 	N 	0.74010 0.92998 0.70978 -0.07400
N 	N 	0.76140 0.92441 0.73538 -0.03800
C 	C 	0.63338 0.90286 0.62201 0.00800
H 	H 	0.64700 0.88490 0.63540 0.04000
N 	N 	0.60479 0.89123 0.60116 -0.09100
N 	N 	0.59720 0.92351 0.58493 -0.04000
N 	N 	0.61460 0.95749 0.59844 -0.07600
C 	C 	0.82410 0.01030 0.81052 -0.04600
C 	C 	0.80153 0.00656 0.78383 -0.07800
H 	H 	0.78950 0.03040 0.77490 0.08700
C 	C 	0.81517 0.93088 0.78387 -0.07600
H 	H 	0.81210 0.90440 0.77490 0.09400
C 	C 	0.79748 0.96664 0.77094 0.10700
C 	C 	0.54412 0.80653 0.56373 -0.05000
C 	C 	0.55880 0.84656 0.57168 -0.07200
H 	H 	0.54870 0.87080 0.56210 0.08900
C 	C 	0.58880 0.84989 0.59420 0.10500
C 	C 	0.55858 0.77060 0.57835 -0.00500
H 	H 	0.54900 0.74380 0.57260 0.07200
C 	C 	0.84244 0.97454 0.82358 -0.00500
H 	H 	0.85790 0.97720 0.84110 0.07000
C 	C 	0.82713 0.05257 0.82567 0.36300
C 	C 	0.58749 0.77474 0.60159 -0.04000
C 	C 	0.83762 0.93504 0.81046 -0.04500
C 	C 	0.85463 0.89573 0.82557 0.36600
C 	C 	0.60246 0.81444 0.60983 -0.07900
H 	H 	0.62140 0.81730 0.62560 0.08800
C 	C 	0.51089 0.80257 0.53976 0.37700
C 	C 	0.60150 0.73571 0.61834 0.35800
O 	O 	0.84703 0.86051 0.81324 -0.46200
O 	O 	0.80669 0.08310 0.81448 -0.44900
O 	O 	0.84979 0.05459 0.84878 -0.46500
O 	O 	0.49400 0.83578 0.53042 -0.47700
O 	O 	0.87430 0.90150 0.84938 -0.46000
O 	O 	0.50335 0.76519 0.53079 -0.47400
O 	O 	0.59051 0.70043 0.60791 -0.45400
O 	O 	0.62279 0.74156 0.64184 -0.44300
Zn	Zn	0.19410 0.85988 0.16762 1.22700
Zn	Zn	0.14592 0.89494 0.12609 1.22900
O 	O 	0.18691 0.80831 0.14341 -0.46300
O 	O 	0.14857 0.83854 0.10738 -0.45000
O 	O 	0.08274 0.74960 0.03087 -0.48000
O 	O 	0.09269 0.67919 0.03130 -0.48300
O 	O 	0.10782 0.92419 0.09212 -0.45700
H 	H 	0.09710 0.94610 0.09870 0.25500
O 	O 	0.23413 0.83300 0.20139 -0.45600
H 	H 	0.22130 0.81390 0.21000 0.25800
C 	C 	0.12783 0.72079 0.06758 -0.05000
C 	C 	0.09873 0.71637 0.04088 0.38000
C 	C 	0.13524 0.76101 0.07962 -0.00400
H 	H 	0.12390 0.78510 0.07060 0.07200
C 	C 	0.15987 0.76454 0.10533 -0.04500
C 	C 	0.16594 0.80738 0.11998 0.37100
C 	C 	0.17662 0.72866 0.11883 -0.07400
H 	H 	0.19270 0.73120 0.13620 0.09400
C 	C 	0.14481 0.68479 0.08073 -0.07500
H 	H 	0.13980 0.65810 0.07250 0.07900
C 	C 	0.16936 0.68887 0.10635 0.10500
N 	N 	0.18514 0.65267 0.12122 -0.09300
N 	N 	0.20970 0.65531 0.14424 -0.03800
N 	N 	0.21940 0.61637 0.15332 -0.07200
C 	C 	0.17289 0.61149 0.11904 0.01000
H 	H 	0.15220 0.60080 0.10620 0.03500
C 	C 	0.19610 0.58853 0.13876 0.03000
C 	C 	0.21597 0.52868 0.17058 -0.13800
H 	H 	0.23320 0.54700 0.18150 0.09600
C 	C 	0.19277 0.54376 0.14639 0.08500
C 	C 	0.16765 0.51616 0.12978 -0.13800
H 	H 	0.15250 0.52630 0.11350 0.09300
C 	C 	0.21323 0.48603 0.17831 0.08500
C 	C 	0.18934 0.45821 0.16115 -0.13700
H 	H 	0.18950 0.42930 0.16550 0.09600
C 	C 	0.13866 0.44580 0.11988 0.03600
C 	C 	0.16518 0.47349 0.13749 0.08300
C 	C 	0.25734 0.49031 0.22572 0.01000
H 	H 	0.25950 0.51970 0.22780 0.03900
C 	C 	0.23680 0.46933 0.20345 0.03500
N 	N 	0.27382 0.46121 0.24408 -0.09200
N 	N 	0.24010 0.42998 0.20978 -0.07400
N 	N 	0.26140 0.42441 0.23538 -0.03800
C 	C 	0.13338 0.40286 0.12201 0.00800
H 	H 	0.14700 0.38490 0.13540 0.04000
N 	N 	0.10479 0.39123 0.10116 -0.09100
N 	N 	0.09720 0.42351 0.08493 -0.04100
N 	N 	0.11460 0.45749 0.09844 -0.07700
C 	C 	0.32410 0.51030 0.31052 -0.04600
C 	C 	0.30153 0.50656 0.28383 -0.07800
H 	H 	0.28950 0.53040 0.27490 0.08700
C 	C 	0.31517 0.43088 0.28387 -0.07600
H 	H 	0.31210 0.40440 0.27490 0.09400
C 	C 	0.29748 0.46664 0.27094 0.10700
C 	C 	0.04412 0.30653 0.06373 -0.05100
C 	C 	0.05880 0.34656 0.07168 -0.07100
H 	H 	0.04870 0.37080 0.06210 0.08900
C 	C 	0.08880 0.34989 0.09420 0.10500
C 	C 	0.05858 0.27060 0.07835 -0.00500
H 	H 	0.04900 0.24380 0.07260 0.07100
C 	C 	0.34244 0.47454 0.32358 -0.00500
H 	H 	0.35790 0.47720 0.34110 0.07000
C 	C 	0.32713 0.55257 0.32567 0.36300
C 	C 	0.08749 0.27474 0.10159 -0.04000
C 	C 	0.33762 0.43504 0.31046 -0.04500
C 	C 	0.35463 0.39573 0.32557 0.36700
C 	C 	0.10246 0.31444 0.10983 -0.07900
H 	H 	0.12140 0.31730 0.12560 0.08800
C 	C 	0.01089 0.30257 0.03976 0.37700
C 	C 	0.10150 0.23571 0.11834 0.35800
O 	O 	0.34703 0.36051 0.31324 -0.46200
O 	O 	0.30669 0.58310 0.31448 -0.44900
O 	O 	0.34979 0.55459 0.34878 -0.46500
O 	O 	0.99400 0.33578 0.03042 -0.47800
O 	O 	0.37430 0.40150 0.34938 -0.46000
O 	O 	0.00335 0.26519 0.03079 -0.47500
O 	O 	0.09051 0.20043 0.10791 -0.45400
O 	O 	0.12279 0.24156 0.14184 -0.44300
Zn	Zn	0.30590 0.64012 0.66762 1.22700
Zn	Zn	0.35408 0.60506 0.62609 1.22900
O 	O 	0.31309 0.69169 0.64341 -0.46300
O 	O 	0.35143 0.66146 0.60738 -0.45000
O 	O 	0.41726 0.75040 0.53087 -0.47900
O 	O 	0.40731 0.82081 0.53130 -0.48100
O 	O 	0.39218 0.57581 0.59212 -0.45600
H 	H 	0.40290 0.55390 0.59870 0.25500
O 	O 	0.26587 0.66700 0.70139 -0.45600
H 	H 	0.27870 0.68610 0.71000 0.25800
C 	C 	0.37217 0.77921 0.56758 -0.04900
C 	C 	0.40127 0.78363 0.54088 0.38000
C 	C 	0.36476 0.73899 0.57962 -0.00400
H 	H 	0.37610 0.71490 0.57060 0.07300
C 	C 	0.34013 0.73546 0.60533 -0.04400
C 	C 	0.33406 0.69262 0.61998 0.37100
C 	C 	0.32338 0.77134 0.61883 -0.07500
H 	H 	0.30730 0.76880 0.63620 0.09500
C 	C 	0.35519 0.81521 0.58073 -0.07500
H 	H 	0.36020 0.84190 0.57250 0.08000
C 	C 	0.33064 0.81113 0.60635 0.10600
N 	N 	0.31486 0.84733 0.62122 -0.09300
N 	N 	0.29030 0.84469 0.64424 -0.03800
N 	N 	0.28060 0.88363 0.65332 -0.07100
C 	C 	0.32711 0.88851 0.61904 0.01000
H 	H 	0.34780 0.89920 0.60620 0.03500
C 	C 	0.30390 0.91147 0.63876 0.03000
C 	C 	0.28403 0.97132 0.67058 -0.13800
H 	H 	0.26680 0.95300 0.68150 0.09600
C 	C 	0.30723 0.95624 0.64639 0.08500
C 	C 	0.33235 0.98384 0.62978 -0.13800
H 	H 	0.34750 0.97370 0.61350 0.09400
C 	C 	0.28677 0.01397 0.67831 0.08500
C 	C 	0.31066 0.04179 0.66115 -0.13700
H 	H 	0.31050 0.07070 0.66550 0.09600
C 	C 	0.36134 0.05420 0.61988 0.03600
C 	C 	0.33482 0.02651 0.63749 0.08300
C 	C 	0.24266 0.00969 0.72572 0.01000
H 	H 	0.24050 0.98030 0.72780 0.03900
C 	C 	0.26320 0.03067 0.70345 0.03500
N 	N 	0.22618 0.03879 0.74408 -0.09200
N 	N 	0.25990 0.07002 0.70978 -0.07400
N 	N 	0.23860 0.07559 0.73538 -0.03800
C 	C 	0.36662 0.09714 0.62201 0.00800
H 	H 	0.35300 0.11510 0.63540 0.04000
N 	N 	0.39521 0.10877 0.60116 -0.09100
N 	N 	0.40280 0.07649 0.58493 -0.04000
N 	N 	0.38540 0.04251 0.59844 -0.07600
C 	C 	0.17590 0.98970 0.81052 -0.04600
C 	C 	0.19847 0.99344 0.78383 -0.07800
H 	H 	0.21050 0.96960 0.77490 0.08700
C 	C 	0.18483 0.06912 0.78387 -0.07600
H 	H 	0.18790 0.09560 0.77490 0.09400
C 	C 	0.20252 0.03336 0.77094 0.10700
C 	C 	0.45588 0.19347 0.56373 -0.05000
C 	C 	0.44120 0.15344 0.57168 -0.07200
H 	H 	0.45130 0.12920 0.56210 0.08900
C 	C 	0.41120 0.15011 0.59420 0.10500
C 	C 	0.44142 0.22940 0.57835 -0.00500
H 	H 	0.45100 0.25620 0.57260 0.07200
C 	C 	0.15756 0.02546 0.82358 -0.00500
H 	H 	0.14210 0.02280 0.84110 0.07000
C 	C 	0.17287 0.94743 0.82567 0.36300
C 	C 	0.41251 0.22526 0.60159 -0.04000
C 	C 	0.16238 0.06496 0.81046 -0.04500
C 	C 	0.14537 0.10427 0.82557 0.36600
C 	C 	0.39754 0.18556 0.60983 -0.07900
H 	H 	0.37860 0.18270 0.62560 0.08800
C 	C 	0.48911 0.19743 0.53976 0.37700
C 	C 	0.39850 0.26429 0.61834 0.35800
O 	O 	0.15297 0.13949 0.81324 -0.46200
O 	O 	0.19331 0.91690 0.81448 -0.44900
O 	O 	0.15021 0.94541 0.84878 -0.46500
O 	O 	0.50600 0.16422 0.53042 -0.47700
O 	O 	0.12570 0.09850 0.84938 -0.46000
O 	O 	0.49665 0.23481 0.53079 -0.47400
O 	O 	0.40949 0.29957 0.60791 -0.45400
O 	O 	0.37721 0.25844 0.64184 -0.44300
Zn	Zn	0.80590 0.14012 0.16762 1.22700
Zn	Zn	0.85408 0.10506 0.12609 1.22900
O 	O 	0.81309 0.19169 0.14341 -0.46300
O 	O 	0.85143 0.16146 0.10738 -0.45000
O 	O 	0.91726 0.25040 0.03087 -0.48000
O 	O 	0.90731 0.32081 0.03130 -0.48300
O 	O 	0.89218 0.07581 0.09212 -0.45700
H 	H 	0.90290 0.05390 0.09870 0.25500
O 	O 	0.76587 0.16700 0.20139 -0.45600
H 	H 	0.77870 0.18610 0.21000 0.25800
C 	C 	0.87217 0.27921 0.06758 -0.05000
C 	C 	0.90127 0.28363 0.04088 0.38000
C 	C 	0.86476 0.23899 0.07962 -0.00400
H 	H 	0.87610 0.21490 0.07060 0.07200
C 	C 	0.84013 0.23546 0.10533 -0.04500
C 	C 	0.83406 0.19262 0.11998 0.37100
C 	C 	0.82338 0.27134 0.11883 -0.07400
H 	H 	0.80730 0.26880 0.13620 0.09400
C 	C 	0.85519 0.31521 0.08073 -0.07500
H 	H 	0.86020 0.34190 0.07250 0.07900
C 	C 	0.83064 0.31113 0.10635 0.10500
N 	N 	0.81486 0.34733 0.12122 -0.09300
N 	N 	0.79030 0.34469 0.14424 -0.03800
N 	N 	0.78060 0.38363 0.15332 -0.07200
C 	C 	0.82711 0.38851 0.11904 0.01000
H 	H 	0.84780 0.39920 0.10620 0.03500
C 	C 	0.80390 0.41147 0.13876 0.03000
C 	C 	0.78403 0.47132 0.17058 -0.13800
H 	H 	0.76680 0.45300 0.18150 0.09600
C 	C 	0.80723 0.45624 0.14639 0.08500
C 	C 	0.83235 0.48384 0.12978 -0.13800
H 	H 	0.84750 0.47370 0.11350 0.09300
C 	C 	0.78677 0.51397 0.17831 0.08500
C 	C 	0.81066 0.54179 0.16115 -0.13700
H 	H 	0.81050 0.57070 0.16550 0.09600
C 	C 	0.86134 0.55420 0.11988 0.03600
C 	C 	0.83482 0.52651 0.13749 0.08300
C 	C 	0.74266 0.50969 0.22572 0.01000
H 	H 	0.74050 0.48030 0.22780 0.03900
C 	C 	0.76320 0.53067 0.20345 0.03500
N 	N 	0.72618 0.53879 0.24408 -0.09200
N 	N 	0.75990 0.57002 0.20978 -0.07400
N 	N 	0.73860 0.57559 0.23538 -0.03800
C 	C 	0.86662 0.59714 0.12201 0.00800
H 	H 	0.85300 0.61510 0.13540 0.04000
N 	N 	0.89521 0.60877 0.10116 -0.09100
N 	N 	0.90280 0.57649 0.08493 -0.04100
N 	N 	0.88540 0.54251 0.09844 -0.07700
C 	C 	0.67590 0.48970 0.31052 -0.04600
C 	C 	0.69847 0.49344 0.28383 -0.07800
H 	H 	0.71050 0.46960 0.27490 0.08700
C 	C 	0.68483 0.56912 0.28387 -0.07600
H 	H 	0.68790 0.59560 0.27490 0.09400
C 	C 	0.70252 0.53336 0.27094 0.10700
C 	C 	0.95588 0.69347 0.06373 -0.05100
C 	C 	0.94120 0.65344 0.07168 -0.07100
H 	H 	0.95130 0.62920 0.06210 0.08900
C 	C 	0.91120 0.65011 0.09420 0.10500
C 	C 	0.94142 0.72940 0.07835 -0.00500
H 	H 	0.95100 0.75620 0.07260 0.07100
C 	C 	0.65756 0.52546 0.32358 -0.00500
H 	H 	0.64210 0.52280 0.34110 0.07000
C 	C 	0.67287 0.44743 0.32567 0.36300
C 	C 	0.91251 0.72526 0.10159 -0.04000
C 	C 	0.66238 0.56496 0.31046 -0.04500
C 	C 	0.64537 0.60427 0.32557 0.36700
C 	C 	0.89754 0.68556 0.10983 -0.07900
H 	H 	0.87860 0.68270 0.12560 0.08800
C 	C 	0.98911 0.69743 0.03976 0.37700
C 	C 	0.89850 0.76429 0.11834 0.35800
O 	O 	0.65297 0.63949 0.31324 -0.46200
O 	O 	0.69331 0.41690 0.31448 -0.44900
O 	O 	0.65021 0.44541 0.34878 -0.46500
O 	O 	0.00600 0.66422 0.03042 -0.47800
O 	O 	0.62570 0.59850 0.34938 -0.46000
O 	O 	0.99665 0.73481 0.03079 -0.47500
O 	O 	0.90949 0.79957 0.10791 -0.45400
O 	O 	0.87721 0.75844 0.14184 -0.44300
Zn	Zn	0.75137 0.53888 0.50000 1.20700
Zn	Zn	0.83453 0.55112 0.50000 1.20400
Zn	Zn	0.25137 0.03888 -0.00000 1.20600
Zn	Zn	0.33453 0.05112 -0.00000 1.20200
Zn	Zn	0.24863 0.46112 0.50000 1.20700
Zn	Zn	0.16547 0.44888 0.50000 1.20400
Zn	Zn	0.74863 0.96112 -0.00000 1.20600
Zn	Zn	0.66547 0.94888 -0.00000 1.20200
Zn	Zn	0.46112 0.75137 0.50000 1.20700
Zn	Zn	0.44888 0.83453 0.50000 1.20400
Zn	Zn	0.96112 0.25137 -0.00000 1.20600
Zn	Zn	0.94888 0.33453 -0.00000 1.20200
Zn	Zn	0.53888 0.24863 0.50000 1.20700
Zn	Zn	0.55112 0.16547 0.50000 1.20400
Zn	Zn	0.03888 0.74863 -0.00000 1.20600
Zn	Zn	0.05112 0.66547 -0.00000 1.20200
