data_crystal

_cell_length_a 38.16820
_cell_length_b 38.16820
_cell_length_c 55.09170
_cell_angle_alpha 90.00000
_cell_angle_beta  90.00000
_cell_angle_gamma 90.00000

_symmetry_space_group_name_	'P 1'
_symmetry_space_group_name_H-M	'P 1'

loop_
_symmetry_equiv_pos_as_xyz
  x,y,z

loop_
_atom_site_label
_atom_site_type_symbol
_atom_site_fract_x
_atom_site_fract_y
_atom_site_fract_z
_atom_site_charge
C 	C 	0.35535 0.25372 0.06578 -0.07500
H 	H 	0.35650 0.23150 0.05880 0.07600
C 	C 	0.33255 0.29230 0.09638 -0.07600
H 	H 	0.31850 0.29570 0.11000 0.09100
C 	C 	0.30849 0.14293 0.12177 -0.06000
C 	C 	0.33719 0.12137 0.11709 -0.02400
H 	H 	0.35740 0.13000 0.10980 0.04000
C 	C 	0.28230 0.12997 0.13526 -0.02000
H 	H 	0.26370 0.14420 0.13980 0.04900
C 	C 	0.33433 0.08638 0.12379 -0.06600
H 	H 	0.35140 0.07100 0.11810 0.05200
C 	C 	0.28320 0.09432 0.14261 -0.06900
H 	H 	0.26440 0.08550 0.15140 0.05600
C 	C 	0.30917 0.07339 0.13763 0.01300
C 	C 	0.30961 0.03657 0.14630 0.07700
C 	C 	0.28982 0.02688 0.16661 -0.14900
H 	H 	0.27620 0.04340 0.17470 0.08500
C 	C 	0.33198 0.01184 0.13550 -0.14600
H 	H 	0.34620 0.01860 0.12260 0.08200
Zn	Zn	0.42579 0.62831 0.10213 1.22800
Zn	Zn	0.40114 0.67051 0.13618 1.22800
O 	O 	0.38111 0.70423 0.16402 -0.46300
H 	H 	0.36250 0.69640 0.16900 0.25800
O 	O 	0.44667 0.59448 0.07431 -0.45600
H 	H 	0.46690 0.60020 0.07130 0.25800
O 	O 	0.41891 0.70752 0.11529 -0.45100
O 	O 	0.51902 0.71797 0.02533 -0.48400
O 	O 	0.44189 0.67165 0.08757 -0.46800
O 	O 	0.53259 0.77520 0.02494 -0.48500
C 	C 	0.47453 0.72703 0.06377 -0.00500
H 	H 	0.48020 0.70430 0.05910 0.06800
C 	C 	0.43689 0.70137 0.09640 0.36200
N 	N 	0.44657 0.82891 0.08339 -0.09300
C 	C 	0.48943 0.75523 0.05182 -0.04900
C 	C 	0.51661 0.74912 0.03203 0.38600
C 	C 	0.48053 0.78902 0.05819 -0.07300
H 	H 	0.49020 0.80800 0.05000 0.08800
C 	C 	0.45124 0.73263 0.08264 -0.04400
C 	C 	0.37376 0.89175 0.12182 -0.09300
H 	H 	0.37030 0.86800 0.12480 0.06800
N 	N 	0.44963 0.88421 0.08400 -0.07700
C 	C 	0.23031 0.96396 0.23693 0.07000
C 	C 	0.44196 0.76637 0.08934 -0.07800
H 	H 	0.42610 0.77020 0.10190 0.08500
C 	C 	0.45680 0.79420 0.07700 0.10300
C 	C 	0.26911 0.98216 0.19609 -0.04600
C 	C 	0.33314 0.97705 0.14380 0.09900
C 	C 	0.31223 0.96795 0.16281 -0.16300
H 	H 	0.31230 0.94480 0.16810 0.09100
C 	C 	0.24007 0.99520 0.23351 -0.11200
H 	H 	0.23430 0.01210 0.24500 0.07500
C 	C 	0.42039 0.84022 0.09707 0.00400
H 	H 	0.40350 0.82650 0.10470 0.03800
C 	C 	0.29079 0.99202 0.17461 0.10100
C 	C 	0.39905 0.90109 0.10887 0.05200
C 	C 	0.38650 0.96028 0.12064 -0.01200
H 	H 	0.39260 0.98390 0.12040 0.03700
C 	C 	0.35657 0.95112 0.13190 -0.03300
C 	C 	0.25790 0.94936 0.19952 0.00600
H 	H 	0.26430 0.93210 0.18850 0.03100
C 	C 	0.42288 0.87541 0.09779 0.04000
C 	C 	0.25917 0.00534 0.21312 0.00900
H 	H 	0.26520 0.02880 0.21120 0.03100
C 	C 	0.23710 0.94039 0.21879 -0.10100
H 	H 	0.22750 0.91800 0.21960 0.08100
C 	C 	0.34952 0.91696 0.13242 -0.01200
H 	H 	0.32890 0.90910 0.13960 0.03700
C 	C 	0.40930 0.93625 0.10917 -0.08300
H 	H 	0.43020 0.94350 0.10210 0.07300
N 	N 	0.46468 0.85635 0.07577 -0.04300
C 	C 	0.37259 0.28198 0.05513 -0.05400
C 	C 	0.36936 0.31518 0.06465 -0.00400
H 	H 	0.38030 0.33410 0.05720 0.07200
C 	C 	0.34956 0.32004 0.08561 -0.04000
C 	C 	0.39636 0.27558 0.03345 0.39000
N 	N 	0.32025 0.22946 0.09859 -0.08900
C 	C 	0.33675 0.25906 0.08649 0.09900
C 	C 	0.33156 0.19674 0.09874 -0.01400
H 	H 	0.35110 0.18780 0.09080 0.04100
C 	C 	0.30809 0.17874 0.11313 0.06600
N 	N 	0.28430 0.20308 0.12126 -0.07900
N 	N 	0.17948 0.95083 0.29107 -0.09400
C 	C 	0.19734 0.97234 0.27727 0.01300
H 	H 	0.20060 0.99620 0.28000 0.03500
C 	C 	0.20991 0.95392 0.25873 0.02800
N 	N 	0.17940 0.91982 0.28106 -0.04100
N 	N 	0.19750 0.92097 0.26134 -0.07300
O 	O 	0.41181 0.30137 0.02522 -0.48400
O 	O 	0.39820 0.24480 0.02554 -0.48900
C 	C 	0.16205 0.98873 0.32419 -0.08100
H 	H 	0.17390 0.00710 0.31670 0.08600
C 	C 	0.14513 0.92802 0.32451 -0.07600
H 	H 	0.14590 0.90600 0.31730 0.09200
C 	C 	0.16155 0.95647 0.31381 0.10600
C 	C 	0.12722 0.96589 0.35688 -0.00600
H 	H 	0.11530 0.96930 0.37140 0.07400
C 	C 	0.12754 0.93336 0.34631 -0.04500
C 	C 	0.14474 0.99416 0.34599 -0.04400
C 	C 	0.34799 0.35593 0.09792 0.36900
C 	C 	0.14644 0.02881 0.35877 0.36500
C 	C 	0.11136 0.90216 0.35879 0.37400
N 	N 	0.29249 0.23370 0.11258 -0.04100
O 	O 	0.12775 0.03245 0.37742 -0.46200
O 	O 	0.36489 0.37959 0.08690 -0.44800
O 	O 	0.33110 0.35781 0.11665 -0.46800
O 	O 	0.09520 0.90925 0.37801 -0.45000
O 	O 	0.16514 0.05202 0.34938 -0.45100
O 	O 	0.11384 0.87357 0.34859 -0.47100
H 	H 	0.29690 0.13490 0.10690 0.05700
C 	C 	0.85535 0.75372 0.56578 -0.07400
H 	H 	0.85650 0.73150 0.55880 0.07700
C 	C 	0.83255 0.79230 0.59638 -0.07500
H 	H 	0.81850 0.79570 0.61000 0.09200
C 	C 	0.80849 0.64293 0.62177 -0.05900
C 	C 	0.83719 0.62137 0.61709 -0.02300
H 	H 	0.85740 0.63000 0.60980 0.04100
C 	C 	0.78230 0.62997 0.63526 -0.01900
H 	H 	0.76370 0.64420 0.63980 0.05000
C 	C 	0.83433 0.58638 0.62379 -0.06500
H 	H 	0.85140 0.57100 0.61810 0.05300
C 	C 	0.78320 0.59432 0.64261 -0.06800
H 	H 	0.76440 0.58550 0.65140 0.05700
C 	C 	0.80917 0.57339 0.63763 0.01300
C 	C 	0.80961 0.53657 0.64630 0.07700
C 	C 	0.78982 0.52688 0.66661 -0.14900
H 	H 	0.77620 0.54340 0.67470 0.08500
C 	C 	0.83198 0.51184 0.63550 -0.14600
H 	H 	0.84620 0.51860 0.62260 0.08200
Zn	Zn	0.92579 0.12831 0.60213 1.22800
Zn	Zn	0.90114 0.17051 0.63618 1.22800
O 	O 	0.88111 0.20423 0.66402 -0.46300
H 	H 	0.86250 0.19640 0.66900 0.25800
O 	O 	0.94667 0.09448 0.57431 -0.45600
H 	H 	0.96690 0.10020 0.57130 0.25800
O 	O 	0.91891 0.20752 0.61529 -0.45100
O 	O 	0.01902 0.21797 0.52533 -0.48300
O 	O 	0.94189 0.17165 0.58757 -0.46800
O 	O 	0.03259 0.27520 0.52494 -0.48500
C 	C 	0.97453 0.22703 0.56377 -0.00500
H 	H 	0.98020 0.20430 0.55910 0.06800
C 	C 	0.93689 0.20137 0.59640 0.36200
N 	N 	0.94657 0.32891 0.58339 -0.09300
C 	C 	0.98943 0.25523 0.55182 -0.04900
C 	C 	0.01661 0.24912 0.53203 0.38600
C 	C 	0.98053 0.28902 0.55819 -0.07300
H 	H 	0.99020 0.30800 0.55000 0.08800
C 	C 	0.95124 0.23263 0.58264 -0.04400
C 	C 	0.87376 0.39175 0.62182 -0.09300
H 	H 	0.87030 0.36800 0.62480 0.06800
N 	N 	0.94963 0.38421 0.58400 -0.07700
C 	C 	0.73031 0.46396 0.73693 0.07000
C 	C 	0.94196 0.26637 0.58934 -0.07800
H 	H 	0.92610 0.27020 0.60190 0.08500
C 	C 	0.95680 0.29420 0.57700 0.10300
C 	C 	0.76911 0.48216 0.69609 -0.04600
C 	C 	0.83314 0.47705 0.64380 0.09900
C 	C 	0.81223 0.46795 0.66281 -0.16300
H 	H 	0.81230 0.44480 0.66810 0.09100
C 	C 	0.74007 0.49520 0.73351 -0.11200
H 	H 	0.73430 0.51210 0.74500 0.07500
C 	C 	0.92039 0.34022 0.59707 0.00400
H 	H 	0.90350 0.32650 0.60470 0.03800
C 	C 	0.79079 0.49202 0.67461 0.10100
C 	C 	0.89905 0.40109 0.60887 0.05200
C 	C 	0.88650 0.46028 0.62064 -0.01200
H 	H 	0.89260 0.48390 0.62040 0.03700
C 	C 	0.85657 0.45112 0.63190 -0.03300
C 	C 	0.75790 0.44936 0.69952 0.00600
H 	H 	0.76430 0.43210 0.68850 0.03100
C 	C 	0.92288 0.37541 0.59779 0.04000
C 	C 	0.75917 0.50534 0.71312 0.00900
H 	H 	0.76520 0.52880 0.71120 0.03100
C 	C 	0.73710 0.44039 0.71879 -0.10100
H 	H 	0.72750 0.41800 0.71960 0.08100
C 	C 	0.84952 0.41696 0.63242 -0.01200
H 	H 	0.82890 0.40910 0.63960 0.03700
C 	C 	0.90930 0.43625 0.60917 -0.08300
H 	H 	0.93020 0.44350 0.60210 0.07300
N 	N 	0.96468 0.35635 0.57577 -0.04300
C 	C 	0.87259 0.78198 0.55513 -0.05400
C 	C 	0.86936 0.81518 0.56465 -0.00400
H 	H 	0.88030 0.83410 0.55720 0.07200
C 	C 	0.84956 0.82004 0.58561 -0.04000
C 	C 	0.89636 0.77558 0.53345 0.39000
N 	N 	0.82025 0.72946 0.59859 -0.08900
C 	C 	0.83675 0.75906 0.58649 0.09900
C 	C 	0.83156 0.69674 0.59874 -0.01400
H 	H 	0.85110 0.68780 0.59080 0.04100
C 	C 	0.80809 0.67874 0.61313 0.06600
N 	N 	0.78430 0.70308 0.62126 -0.07900
N 	N 	0.67948 0.45083 0.79107 -0.09400
C 	C 	0.69734 0.47234 0.77727 0.01300
H 	H 	0.70060 0.49620 0.78000 0.03500
C 	C 	0.70991 0.45392 0.75873 0.02800
N 	N 	0.67940 0.41982 0.78106 -0.04100
N 	N 	0.69750 0.42097 0.76134 -0.07300
O 	O 	0.91181 0.80137 0.52522 -0.48400
O 	O 	0.89820 0.74480 0.52554 -0.48900
C 	C 	0.66205 0.48873 0.82419 -0.08100
H 	H 	0.67390 0.50710 0.81670 0.08600
C 	C 	0.64513 0.42802 0.82451 -0.07600
H 	H 	0.64590 0.40600 0.81730 0.09200
C 	C 	0.66155 0.45647 0.81381 0.10600
C 	C 	0.62722 0.46589 0.85688 -0.00600
H 	H 	0.61530 0.46930 0.87140 0.07400
C 	C 	0.62754 0.43336 0.84631 -0.04500
C 	C 	0.64474 0.49416 0.84599 -0.04400
C 	C 	0.84799 0.85593 0.59792 0.36900
C 	C 	0.64644 0.52881 0.85877 0.36500
C 	C 	0.61136 0.40216 0.85879 0.37400
N 	N 	0.79249 0.73370 0.61258 -0.04100
O 	O 	0.62775 0.53245 0.87742 -0.46200
O 	O 	0.86489 0.87959 0.58690 -0.44800
O 	O 	0.83110 0.85781 0.61665 -0.46800
O 	O 	0.59520 0.40925 0.87801 -0.45000
O 	O 	0.66514 0.55202 0.84938 -0.45100
O 	O 	0.61384 0.37357 0.84859 -0.47100
H 	H 	0.79690 0.63490 0.60690 0.05700
C 	C 	0.64465 0.74628 0.06578 -0.07400
H 	H 	0.64350 0.76850 0.05880 0.07700
C 	C 	0.66745 0.70770 0.09638 -0.07500
H 	H 	0.68150 0.70430 0.11000 0.09200
C 	C 	0.69151 0.85707 0.12177 -0.05900
C 	C 	0.66281 0.87863 0.11709 -0.02300
H 	H 	0.64260 0.87000 0.10980 0.04100
C 	C 	0.71770 0.87003 0.13526 -0.01900
H 	H 	0.73630 0.85580 0.13980 0.05000
C 	C 	0.66567 0.91362 0.12379 -0.06500
H 	H 	0.64860 0.92900 0.11810 0.05300
C 	C 	0.71680 0.90568 0.14261 -0.06800
H 	H 	0.73560 0.91450 0.15140 0.05600
C 	C 	0.69083 0.92661 0.13763 0.01300
C 	C 	0.69039 0.96343 0.14630 0.07700
C 	C 	0.71018 0.97312 0.16661 -0.14900
H 	H 	0.72380 0.95660 0.17470 0.08500
C 	C 	0.66802 0.98816 0.13550 -0.14600
H 	H 	0.65380 0.98140 0.12260 0.08200
Zn	Zn	0.57421 0.37169 0.10213 1.22800
Zn	Zn	0.59886 0.32949 0.13618 1.22800
O 	O 	0.61889 0.29577 0.16402 -0.46300
H 	H 	0.63750 0.30360 0.16900 0.25800
O 	O 	0.55333 0.40552 0.07431 -0.45600
H 	H 	0.53310 0.39980 0.07130 0.25800
O 	O 	0.58109 0.29248 0.11529 -0.45100
O 	O 	0.48098 0.28203 0.02533 -0.48400
O 	O 	0.55811 0.32835 0.08757 -0.46800
O 	O 	0.46741 0.22480 0.02494 -0.48500
C 	C 	0.52547 0.27297 0.06377 -0.00500
H 	H 	0.51980 0.29570 0.05910 0.06800
C 	C 	0.56311 0.29863 0.09640 0.36200
N 	N 	0.55343 0.17109 0.08339 -0.09300
C 	C 	0.51057 0.24477 0.05182 -0.04900
C 	C 	0.48339 0.25088 0.03203 0.38600
C 	C 	0.51947 0.21098 0.05819 -0.07300
H 	H 	0.50980 0.19200 0.05000 0.08800
C 	C 	0.54876 0.26737 0.08264 -0.04400
C 	C 	0.62624 0.10825 0.12182 -0.09300
H 	H 	0.62970 0.13200 0.12480 0.06800
N 	N 	0.55037 0.11579 0.08400 -0.07700
C 	C 	0.76969 0.03604 0.23693 0.07000
C 	C 	0.55804 0.23363 0.08934 -0.07800
H 	H 	0.57390 0.22980 0.10190 0.08500
C 	C 	0.54320 0.20580 0.07700 0.10300
C 	C 	0.73089 0.01784 0.19609 -0.04600
C 	C 	0.66686 0.02295 0.14380 0.09900
C 	C 	0.68777 0.03205 0.16281 -0.16300
H 	H 	0.68770 0.05520 0.16810 0.09100
C 	C 	0.75993 0.00480 0.23351 -0.11200
H 	H 	0.76570 0.98790 0.24500 0.07500
C 	C 	0.57961 0.15978 0.09707 0.00400
H 	H 	0.59650 0.17350 0.10470 0.03800
C 	C 	0.70921 0.00798 0.17461 0.10100
C 	C 	0.60095 0.09891 0.10887 0.05200
C 	C 	0.61350 0.03972 0.12064 -0.01200
H 	H 	0.60740 0.01610 0.12040 0.03700
C 	C 	0.64343 0.04888 0.13190 -0.03300
C 	C 	0.74210 0.05064 0.19952 0.00600
H 	H 	0.73570 0.06790 0.18850 0.03100
C 	C 	0.57712 0.12459 0.09779 0.04000
C 	C 	0.74083 0.99466 0.21312 0.00900
H 	H 	0.73480 0.97120 0.21120 0.03100
C 	C 	0.76290 0.05961 0.21879 -0.10100
H 	H 	0.77250 0.08200 0.21960 0.08100
C 	C 	0.65048 0.08304 0.13242 -0.01200
H 	H 	0.67110 0.09090 0.13960 0.03700
C 	C 	0.59070 0.06375 0.10917 -0.08300
H 	H 	0.56980 0.05650 0.10210 0.07300
N 	N 	0.53532 0.14365 0.07577 -0.04300
C 	C 	0.62741 0.71802 0.05513 -0.05400
C 	C 	0.63064 0.68482 0.06465 -0.00400
H 	H 	0.61970 0.66590 0.05720 0.07200
C 	C 	0.65044 0.67996 0.08561 -0.04000
C 	C 	0.60364 0.72442 0.03345 0.39000
N 	N 	0.67975 0.77054 0.09859 -0.08900
C 	C 	0.66325 0.74094 0.08649 0.09900
C 	C 	0.66844 0.80326 0.09874 -0.01400
H 	H 	0.64890 0.81220 0.09080 0.04100
C 	C 	0.69191 0.82126 0.11313 0.06600
N 	N 	0.71570 0.79692 0.12126 -0.07900
N 	N 	0.82052 0.04917 0.29107 -0.09400
C 	C 	0.80266 0.02766 0.27727 0.01300
H 	H 	0.79940 0.00380 0.28000 0.03500
C 	C 	0.79009 0.04608 0.25873 0.02800
N 	N 	0.82060 0.08018 0.28106 -0.04100
N 	N 	0.80250 0.07903 0.26134 -0.07300
O 	O 	0.58819 0.69863 0.02522 -0.48400
O 	O 	0.60180 0.75520 0.02554 -0.48900
C 	C 	0.83795 0.01127 0.32419 -0.08100
H 	H 	0.82610 0.99290 0.31670 0.08600
C 	C 	0.85487 0.07198 0.32451 -0.07600
H 	H 	0.85410 0.09400 0.31730 0.09200
C 	C 	0.83845 0.04353 0.31381 0.10600
C 	C 	0.87278 0.03411 0.35688 -0.00600
H 	H 	0.88470 0.03070 0.37140 0.07400
C 	C 	0.87246 0.06664 0.34631 -0.04500
C 	C 	0.85526 0.00584 0.34599 -0.04400
C 	C 	0.65201 0.64407 0.09792 0.36900
C 	C 	0.85356 0.97119 0.35877 0.36500
C 	C 	0.88864 0.09784 0.35879 0.37400
N 	N 	0.70751 0.76630 0.11258 -0.04100
O 	O 	0.87225 0.96755 0.37742 -0.46200
O 	O 	0.63511 0.62041 0.08690 -0.44800
O 	O 	0.66890 0.64219 0.11665 -0.46800
O 	O 	0.90480 0.09075 0.37801 -0.45000
O 	O 	0.83486 0.94798 0.34938 -0.45100
O 	O 	0.88616 0.12643 0.34859 -0.47100
H 	H 	0.70310 0.86510 0.10690 0.05700
C 	C 	0.14465 0.24628 0.56578 -0.07400
H 	H 	0.14350 0.26850 0.55880 0.07700
C 	C 	0.16745 0.20770 0.59638 -0.07500
H 	H 	0.18150 0.20430 0.61000 0.09200
C 	C 	0.19151 0.35707 0.62177 -0.05900
C 	C 	0.16281 0.37863 0.61709 -0.02300
H 	H 	0.14260 0.37000 0.60980 0.04100
C 	C 	0.21770 0.37003 0.63526 -0.01900
H 	H 	0.23630 0.35580 0.63980 0.05000
C 	C 	0.16567 0.41362 0.62379 -0.06500
H 	H 	0.14860 0.42900 0.61810 0.05300
C 	C 	0.21680 0.40568 0.64261 -0.06800
H 	H 	0.23560 0.41450 0.65140 0.05700
C 	C 	0.19083 0.42661 0.63763 0.01300
C 	C 	0.19039 0.46343 0.64630 0.07700
C 	C 	0.21018 0.47312 0.66661 -0.14900
H 	H 	0.22380 0.45660 0.67470 0.08500
C 	C 	0.16802 0.48816 0.63550 -0.14600
H 	H 	0.15380 0.48140 0.62260 0.08200
Zn	Zn	0.07421 0.87169 0.60213 1.22800
Zn	Zn	0.09886 0.82949 0.63618 1.22800
O 	O 	0.11889 0.79577 0.66402 -0.46300
H 	H 	0.13750 0.80360 0.66900 0.25800
O 	O 	0.05333 0.90552 0.57431 -0.45600
H 	H 	0.03310 0.89980 0.57130 0.25800
O 	O 	0.08109 0.79248 0.61529 -0.45100
O 	O 	0.98098 0.78203 0.52533 -0.48300
O 	O 	0.05811 0.82835 0.58757 -0.46800
O 	O 	0.96741 0.72480 0.52494 -0.48500
C 	C 	0.02547 0.77297 0.56377 -0.00500
H 	H 	0.01980 0.79570 0.55910 0.06800
C 	C 	0.06311 0.79863 0.59640 0.36200
N 	N 	0.05343 0.67109 0.58339 -0.09300
C 	C 	0.01057 0.74477 0.55182 -0.04900
C 	C 	0.98339 0.75088 0.53203 0.38600
C 	C 	0.01947 0.71098 0.55819 -0.07300
H 	H 	0.00980 0.69200 0.55000 0.08800
C 	C 	0.04876 0.76737 0.58264 -0.04400
C 	C 	0.12624 0.60825 0.62182 -0.09300
H 	H 	0.12970 0.63200 0.62480 0.06800
N 	N 	0.05037 0.61579 0.58400 -0.07700
C 	C 	0.26969 0.53604 0.73693 0.07000
C 	C 	0.05804 0.73363 0.58934 -0.07800
H 	H 	0.07390 0.72980 0.60190 0.08500
C 	C 	0.04320 0.70580 0.57700 0.10300
C 	C 	0.23089 0.51784 0.69609 -0.04600
C 	C 	0.16686 0.52295 0.64380 0.09900
C 	C 	0.18777 0.53205 0.66281 -0.16300
H 	H 	0.18770 0.55520 0.66810 0.09100
C 	C 	0.25993 0.50480 0.73351 -0.11200
H 	H 	0.26570 0.48790 0.74500 0.07500
C 	C 	0.07961 0.65978 0.59707 0.00400
H 	H 	0.09650 0.67350 0.60470 0.03800
C 	C 	0.20921 0.50798 0.67461 0.10100
C 	C 	0.10095 0.59891 0.60887 0.05200
C 	C 	0.11350 0.53972 0.62064 -0.01200
H 	H 	0.10740 0.51610 0.62040 0.03700
C 	C 	0.14343 0.54888 0.63190 -0.03300
C 	C 	0.24210 0.55064 0.69952 0.00600
H 	H 	0.23570 0.56790 0.68850 0.03100
C 	C 	0.07712 0.62459 0.59779 0.04000
C 	C 	0.24083 0.49466 0.71312 0.00900
H 	H 	0.23480 0.47120 0.71120 0.03100
C 	C 	0.26290 0.55961 0.71879 -0.10100
H 	H 	0.27250 0.58200 0.71960 0.08100
C 	C 	0.15048 0.58304 0.63242 -0.01200
H 	H 	0.17110 0.59090 0.63960 0.03700
C 	C 	0.09070 0.56375 0.60917 -0.08300
H 	H 	0.06980 0.55650 0.60210 0.07300
N 	N 	0.03532 0.64365 0.57577 -0.04300
C 	C 	0.12741 0.21802 0.55513 -0.05400
C 	C 	0.13064 0.18482 0.56465 -0.00400
H 	H 	0.11970 0.16590 0.55720 0.07200
C 	C 	0.15044 0.17996 0.58561 -0.04000
C 	C 	0.10364 0.22442 0.53345 0.39000
N 	N 	0.17975 0.27054 0.59859 -0.08900
C 	C 	0.16325 0.24094 0.58649 0.09900
C 	C 	0.16844 0.30326 0.59874 -0.01400
H 	H 	0.14890 0.31220 0.59080 0.04100
C 	C 	0.19191 0.32126 0.61313 0.06600
N 	N 	0.21570 0.29692 0.62126 -0.07900
N 	N 	0.32052 0.54917 0.79107 -0.09400
C 	C 	0.30266 0.52766 0.77727 0.01300
H 	H 	0.29940 0.50380 0.78000 0.03500
C 	C 	0.29009 0.54608 0.75873 0.02800
N 	N 	0.32060 0.58018 0.78106 -0.04100
N 	N 	0.30250 0.57903 0.76134 -0.07300
O 	O 	0.08819 0.19863 0.52522 -0.48400
O 	O 	0.10180 0.25520 0.52554 -0.48900
C 	C 	0.33795 0.51127 0.82419 -0.08100
H 	H 	0.32610 0.49290 0.81670 0.08600
C 	C 	0.35487 0.57198 0.82451 -0.07600
H 	H 	0.35410 0.59400 0.81730 0.09200
C 	C 	0.33845 0.54353 0.81381 0.10600
C 	C 	0.37278 0.53411 0.85688 -0.00600
H 	H 	0.38470 0.53070 0.87140 0.07400
C 	C 	0.37246 0.56664 0.84631 -0.04500
C 	C 	0.35526 0.50584 0.84599 -0.04400
C 	C 	0.15201 0.14407 0.59792 0.36900
C 	C 	0.35356 0.47119 0.85877 0.36500
C 	C 	0.38864 0.59784 0.85879 0.37400
N 	N 	0.20751 0.26630 0.61258 -0.04100
O 	O 	0.37225 0.46755 0.87742 -0.46200
O 	O 	0.13511 0.12041 0.58690 -0.44800
O 	O 	0.16890 0.14219 0.61665 -0.46800
O 	O 	0.40480 0.59075 0.87801 -0.45000
O 	O 	0.33486 0.44798 0.84938 -0.45100
O 	O 	0.38616 0.62643 0.84859 -0.47100
H 	H 	0.20310 0.36510 0.60690 0.05700
C 	C 	0.74628 0.35535 0.06578 -0.07400
H 	H 	0.76850 0.35650 0.05880 0.07700
C 	C 	0.70770 0.33255 0.09638 -0.07500
H 	H 	0.70430 0.31850 0.11000 0.09200
C 	C 	0.85707 0.30849 0.12177 -0.05900
C 	C 	0.87863 0.33719 0.11709 -0.02300
H 	H 	0.87000 0.35740 0.10980 0.04100
C 	C 	0.87003 0.28230 0.13526 -0.01900
H 	H 	0.85580 0.26370 0.13980 0.05000
C 	C 	0.91362 0.33433 0.12379 -0.06500
H 	H 	0.92900 0.35140 0.11810 0.05300
C 	C 	0.90568 0.28320 0.14261 -0.06800
H 	H 	0.91450 0.26440 0.15140 0.05600
C 	C 	0.92661 0.30917 0.13763 0.01300
C 	C 	0.96343 0.30961 0.14630 0.07700
C 	C 	0.97312 0.28982 0.16661 -0.14900
H 	H 	0.95660 0.27620 0.17470 0.08500
C 	C 	0.98816 0.33198 0.13550 -0.14600
H 	H 	0.98140 0.34620 0.12260 0.08200
Zn	Zn	0.37169 0.42579 0.10213 1.22800
Zn	Zn	0.32949 0.40114 0.13618 1.22800
O 	O 	0.29577 0.38111 0.16402 -0.46300
H 	H 	0.30360 0.36250 0.16900 0.25800
O 	O 	0.40552 0.44667 0.07431 -0.45600
H 	H 	0.39980 0.46690 0.07130 0.25800
O 	O 	0.29248 0.41891 0.11529 -0.45100
O 	O 	0.28203 0.51902 0.02533 -0.48400
O 	O 	0.32835 0.44189 0.08757 -0.46800
O 	O 	0.22480 0.53259 0.02494 -0.48500
C 	C 	0.27297 0.47453 0.06377 -0.00500
H 	H 	0.29570 0.48020 0.05910 0.06800
C 	C 	0.29863 0.43689 0.09640 0.36200
N 	N 	0.17109 0.44657 0.08339 -0.09300
C 	C 	0.24477 0.48943 0.05182 -0.04900
C 	C 	0.25088 0.51661 0.03203 0.38600
C 	C 	0.21098 0.48053 0.05819 -0.07300
H 	H 	0.19200 0.49020 0.05000 0.08800
C 	C 	0.26737 0.45124 0.08264 -0.04400
C 	C 	0.10825 0.37376 0.12182 -0.09300
H 	H 	0.13200 0.37030 0.12480 0.06800
N 	N 	0.11579 0.44963 0.08400 -0.07700
C 	C 	0.03604 0.23031 0.23693 0.07000
C 	C 	0.23363 0.44196 0.08934 -0.07800
H 	H 	0.22980 0.42610 0.10190 0.08500
C 	C 	0.20580 0.45680 0.07700 0.10300
C 	C 	0.01784 0.26911 0.19609 -0.04600
C 	C 	0.02295 0.33314 0.14380 0.09900
C 	C 	0.03205 0.31223 0.16281 -0.16300
H 	H 	0.05520 0.31230 0.16810 0.09100
C 	C 	0.00480 0.24007 0.23351 -0.11200
H 	H 	0.98790 0.23430 0.24500 0.07500
C 	C 	0.15978 0.42039 0.09707 0.00400
H 	H 	0.17350 0.40350 0.10470 0.03800
C 	C 	0.00798 0.29079 0.17461 0.10100
C 	C 	0.09891 0.39905 0.10887 0.05200
C 	C 	0.03972 0.38650 0.12064 -0.01200
H 	H 	0.01610 0.39260 0.12040 0.03700
C 	C 	0.04888 0.35657 0.13190 -0.03300
C 	C 	0.05064 0.25790 0.19952 0.00600
H 	H 	0.06790 0.26430 0.18850 0.03100
C 	C 	0.12459 0.42288 0.09779 0.04000
C 	C 	0.99466 0.25917 0.21312 0.00900
H 	H 	0.97120 0.26520 0.21120 0.03100
C 	C 	0.05961 0.23710 0.21879 -0.10100
H 	H 	0.08200 0.22750 0.21960 0.08100
C 	C 	0.08304 0.34952 0.13242 -0.01200
H 	H 	0.09090 0.32890 0.13960 0.03700
C 	C 	0.06375 0.40930 0.10917 -0.08300
H 	H 	0.05650 0.43020 0.10210 0.07300
N 	N 	0.14365 0.46468 0.07577 -0.04300
C 	C 	0.71802 0.37259 0.05513 -0.05400
C 	C 	0.68482 0.36936 0.06465 -0.00400
H 	H 	0.66590 0.38030 0.05720 0.07200
C 	C 	0.67996 0.34956 0.08561 -0.04000
C 	C 	0.72442 0.39636 0.03345 0.39000
N 	N 	0.77054 0.32025 0.09859 -0.08900
C 	C 	0.74094 0.33675 0.08649 0.09900
C 	C 	0.80326 0.33156 0.09874 -0.01400
H 	H 	0.81220 0.35110 0.09080 0.04100
C 	C 	0.82126 0.30809 0.11313 0.06600
N 	N 	0.79692 0.28430 0.12126 -0.07900
N 	N 	0.04917 0.17948 0.29107 -0.09400
C 	C 	0.02766 0.19734 0.27727 0.01300
H 	H 	0.00380 0.20060 0.28000 0.03500
C 	C 	0.04608 0.20991 0.25873 0.02800
N 	N 	0.08018 0.17940 0.28106 -0.04100
N 	N 	0.07903 0.19750 0.26134 -0.07300
O 	O 	0.69863 0.41181 0.02522 -0.48400
O 	O 	0.75520 0.39820 0.02554 -0.48900
C 	C 	0.01127 0.16205 0.32419 -0.08100
H 	H 	0.99290 0.17390 0.31670 0.08600
C 	C 	0.07198 0.14513 0.32451 -0.07600
H 	H 	0.09400 0.14590 0.31730 0.09200
C 	C 	0.04353 0.16155 0.31381 0.10600
C 	C 	0.03411 0.12722 0.35688 -0.00600
H 	H 	0.03070 0.11530 0.37140 0.07400
C 	C 	0.06664 0.12754 0.34631 -0.04500
C 	C 	0.00584 0.14474 0.34599 -0.04400
C 	C 	0.64407 0.34799 0.09792 0.36900
C 	C 	0.97119 0.14644 0.35877 0.36500
C 	C 	0.09784 0.11136 0.35879 0.37400
N 	N 	0.76630 0.29249 0.11258 -0.04100
O 	O 	0.96755 0.12775 0.37742 -0.46200
O 	O 	0.62041 0.36489 0.08690 -0.44800
O 	O 	0.64219 0.33110 0.11665 -0.46800
O 	O 	0.09075 0.09520 0.37801 -0.45000
O 	O 	0.94798 0.16514 0.34938 -0.45100
O 	O 	0.12643 0.11384 0.34859 -0.47100
H 	H 	0.86510 0.29690 0.10690 0.05700
C 	C 	0.24628 0.85535 0.56578 -0.07400
H 	H 	0.26850 0.85650 0.55880 0.07700
C 	C 	0.20770 0.83255 0.59638 -0.07500
H 	H 	0.20430 0.81850 0.61000 0.09200
C 	C 	0.35707 0.80849 0.62177 -0.05900
C 	C 	0.37863 0.83719 0.61709 -0.02300
H 	H 	0.37000 0.85740 0.60980 0.04100
C 	C 	0.37003 0.78230 0.63526 -0.01900
H 	H 	0.35580 0.76370 0.63980 0.05000
C 	C 	0.41362 0.83433 0.62379 -0.06500
H 	H 	0.42900 0.85140 0.61810 0.05300
C 	C 	0.40568 0.78320 0.64261 -0.06800
H 	H 	0.41450 0.76440 0.65140 0.05700
C 	C 	0.42661 0.80917 0.63763 0.01300
C 	C 	0.46343 0.80961 0.64630 0.07700
C 	C 	0.47312 0.78982 0.66661 -0.14900
H 	H 	0.45660 0.77620 0.67470 0.08500
C 	C 	0.48816 0.83198 0.63550 -0.14600
H 	H 	0.48140 0.84620 0.62260 0.08200
Zn	Zn	0.87169 0.92579 0.60213 1.22800
Zn	Zn	0.82949 0.90114 0.63618 1.22800
O 	O 	0.79577 0.88111 0.66402 -0.46300
H 	H 	0.80360 0.86250 0.66900 0.25800
O 	O 	0.90552 0.94667 0.57431 -0.45600
H 	H 	0.89980 0.96690 0.57130 0.25800
O 	O 	0.79248 0.91891 0.61529 -0.45100
O 	O 	0.78203 0.01902 0.52533 -0.48300
O 	O 	0.82835 0.94189 0.58757 -0.46800
O 	O 	0.72480 0.03259 0.52494 -0.48500
C 	C 	0.77297 0.97453 0.56377 -0.00500
H 	H 	0.79570 0.98020 0.55910 0.06800
C 	C 	0.79863 0.93689 0.59640 0.36200
N 	N 	0.67109 0.94657 0.58339 -0.09300
C 	C 	0.74477 0.98943 0.55182 -0.04900
C 	C 	0.75088 0.01661 0.53203 0.38600
C 	C 	0.71098 0.98053 0.55819 -0.07300
H 	H 	0.69200 0.99020 0.55000 0.08800
C 	C 	0.76737 0.95124 0.58264 -0.04400
C 	C 	0.60825 0.87376 0.62182 -0.09300
H 	H 	0.63200 0.87030 0.62480 0.06800
N 	N 	0.61579 0.94963 0.58400 -0.07700
C 	C 	0.53604 0.73031 0.73693 0.07000
C 	C 	0.73363 0.94196 0.58934 -0.07800
H 	H 	0.72980 0.92610 0.60190 0.08500
C 	C 	0.70580 0.95680 0.57700 0.10300
C 	C 	0.51784 0.76911 0.69609 -0.04600
C 	C 	0.52295 0.83314 0.64380 0.09900
C 	C 	0.53205 0.81223 0.66281 -0.16300
H 	H 	0.55520 0.81230 0.66810 0.09100
C 	C 	0.50480 0.74007 0.73351 -0.11200
H 	H 	0.48790 0.73430 0.74500 0.07500
C 	C 	0.65978 0.92039 0.59707 0.00400
H 	H 	0.67350 0.90350 0.60470 0.03800
C 	C 	0.50798 0.79079 0.67461 0.10100
C 	C 	0.59891 0.89905 0.60887 0.05200
C 	C 	0.53972 0.88650 0.62064 -0.01200
H 	H 	0.51610 0.89260 0.62040 0.03700
C 	C 	0.54888 0.85657 0.63190 -0.03300
C 	C 	0.55064 0.75790 0.69952 0.00600
H 	H 	0.56790 0.76430 0.68850 0.03100
C 	C 	0.62459 0.92288 0.59779 0.04000
C 	C 	0.49466 0.75917 0.71312 0.00900
H 	H 	0.47120 0.76520 0.71120 0.03100
C 	C 	0.55961 0.73710 0.71879 -0.10100
H 	H 	0.58200 0.72750 0.71960 0.08100
C 	C 	0.58304 0.84952 0.63242 -0.01200
H 	H 	0.59090 0.82890 0.63960 0.03700
C 	C 	0.56375 0.90930 0.60917 -0.08300
H 	H 	0.55650 0.93020 0.60210 0.07300
N 	N 	0.64365 0.96468 0.57577 -0.04300
C 	C 	0.21802 0.87259 0.55513 -0.05400
C 	C 	0.18482 0.86936 0.56465 -0.00400
H 	H 	0.16590 0.88030 0.55720 0.07200
C 	C 	0.17996 0.84956 0.58561 -0.04000
C 	C 	0.22442 0.89636 0.53345 0.39000
N 	N 	0.27054 0.82025 0.59859 -0.08900
C 	C 	0.24094 0.83675 0.58649 0.09900
C 	C 	0.30326 0.83156 0.59874 -0.01400
H 	H 	0.31220 0.85110 0.59080 0.04100
C 	C 	0.32126 0.80809 0.61313 0.06600
N 	N 	0.29692 0.78430 0.62126 -0.07900
N 	N 	0.54917 0.67948 0.79107 -0.09400
C 	C 	0.52766 0.69734 0.77727 0.01300
H 	H 	0.50380 0.70060 0.78000 0.03500
C 	C 	0.54608 0.70991 0.75873 0.02800
N 	N 	0.58018 0.67940 0.78106 -0.04100
N 	N 	0.57903 0.69750 0.76134 -0.07300
O 	O 	0.19863 0.91181 0.52522 -0.48400
O 	O 	0.25520 0.89820 0.52554 -0.48900
C 	C 	0.51127 0.66205 0.82419 -0.08100
H 	H 	0.49290 0.67390 0.81670 0.08600
C 	C 	0.57198 0.64513 0.82451 -0.07600
H 	H 	0.59400 0.64590 0.81730 0.09200
C 	C 	0.54353 0.66155 0.81381 0.10600
C 	C 	0.53411 0.62722 0.85688 -0.00600
H 	H 	0.53070 0.61530 0.87140 0.07400
C 	C 	0.56664 0.62754 0.84631 -0.04500
C 	C 	0.50584 0.64474 0.84599 -0.04400
C 	C 	0.14407 0.84799 0.59792 0.36900
C 	C 	0.47119 0.64644 0.85877 0.36500
C 	C 	0.59784 0.61136 0.85879 0.37400
N 	N 	0.26630 0.79249 0.61258 -0.04100
O 	O 	0.46755 0.62775 0.87742 -0.46200
O 	O 	0.12041 0.86489 0.58690 -0.44800
O 	O 	0.14219 0.83110 0.61665 -0.46800
O 	O 	0.59075 0.59520 0.87801 -0.45000
O 	O 	0.44798 0.66514 0.84938 -0.45100
O 	O 	0.62643 0.61384 0.84859 -0.47100
H 	H 	0.36510 0.79690 0.60690 0.05700
C 	C 	0.25372 0.64465 0.06578 -0.07400
H 	H 	0.23150 0.64350 0.05880 0.07700
C 	C 	0.29230 0.66745 0.09638 -0.07500
H 	H 	0.29570 0.68150 0.11000 0.09200
C 	C 	0.14293 0.69151 0.12177 -0.05900
C 	C 	0.12137 0.66281 0.11709 -0.02300
H 	H 	0.13000 0.64260 0.10980 0.04100
C 	C 	0.12997 0.71770 0.13526 -0.01900
H 	H 	0.14420 0.73630 0.13980 0.05000
C 	C 	0.08638 0.66567 0.12379 -0.06500
H 	H 	0.07100 0.64860 0.11810 0.05300
C 	C 	0.09432 0.71680 0.14261 -0.06800
H 	H 	0.08550 0.73560 0.15140 0.05600
C 	C 	0.07339 0.69083 0.13763 0.01300
C 	C 	0.03657 0.69039 0.14630 0.07700
C 	C 	0.02688 0.71018 0.16661 -0.14900
H 	H 	0.04340 0.72380 0.17470 0.08500
C 	C 	0.01184 0.66802 0.13550 -0.14600
H 	H 	0.01860 0.65380 0.12260 0.08200
Zn	Zn	0.62831 0.57421 0.10213 1.22800
Zn	Zn	0.67051 0.59886 0.13618 1.22800
O 	O 	0.70423 0.61889 0.16402 -0.46300
H 	H 	0.69640 0.63750 0.16900 0.25800
O 	O 	0.59448 0.55333 0.07431 -0.45600
H 	H 	0.60020 0.53310 0.07130 0.25800
O 	O 	0.70752 0.58109 0.11529 -0.45100
O 	O 	0.71797 0.48098 0.02533 -0.48400
O 	O 	0.67165 0.55811 0.08757 -0.46800
O 	O 	0.77520 0.46741 0.02494 -0.48500
C 	C 	0.72703 0.52547 0.06377 -0.00500
H 	H 	0.70430 0.51980 0.05910 0.06800
C 	C 	0.70137 0.56311 0.09640 0.36200
N 	N 	0.82891 0.55343 0.08339 -0.09300
C 	C 	0.75523 0.51057 0.05182 -0.04900
C 	C 	0.74912 0.48339 0.03203 0.38600
C 	C 	0.78902 0.51947 0.05819 -0.07300
H 	H 	0.80800 0.50980 0.05000 0.08800
C 	C 	0.73263 0.54876 0.08264 -0.04400
C 	C 	0.89175 0.62624 0.12182 -0.09300
H 	H 	0.86800 0.62970 0.12480 0.06800
N 	N 	0.88421 0.55037 0.08400 -0.07700
C 	C 	0.96396 0.76969 0.23693 0.07000
C 	C 	0.76637 0.55804 0.08934 -0.07800
H 	H 	0.77020 0.57390 0.10190 0.08500
C 	C 	0.79420 0.54320 0.07700 0.10300
C 	C 	0.98216 0.73089 0.19609 -0.04600
C 	C 	0.97705 0.66686 0.14380 0.09900
C 	C 	0.96795 0.68777 0.16281 -0.16300
H 	H 	0.94480 0.68770 0.16810 0.09100
C 	C 	0.99520 0.75993 0.23351 -0.11200
H 	H 	0.01210 0.76570 0.24500 0.07500
C 	C 	0.84022 0.57961 0.09707 0.00400
H 	H 	0.82650 0.59650 0.10470 0.03800
C 	C 	0.99202 0.70921 0.17461 0.10100
C 	C 	0.90109 0.60095 0.10887 0.05200
C 	C 	0.96028 0.61350 0.12064 -0.01200
H 	H 	0.98390 0.60740 0.12040 0.03700
C 	C 	0.95112 0.64343 0.13190 -0.03300
C 	C 	0.94936 0.74210 0.19952 0.00600
H 	H 	0.93210 0.73570 0.18850 0.03100
C 	C 	0.87541 0.57712 0.09779 0.04000
C 	C 	0.00534 0.74083 0.21312 0.00900
H 	H 	0.02880 0.73480 0.21120 0.03100
C 	C 	0.94039 0.76290 0.21879 -0.10100
H 	H 	0.91800 0.77250 0.21960 0.08100
C 	C 	0.91696 0.65048 0.13242 -0.01200
H 	H 	0.90910 0.67110 0.13960 0.03700
C 	C 	0.93625 0.59070 0.10917 -0.08300
H 	H 	0.94350 0.56980 0.10210 0.07300
N 	N 	0.85635 0.53532 0.07577 -0.04300
C 	C 	0.28198 0.62741 0.05513 -0.05400
C 	C 	0.31518 0.63064 0.06465 -0.00400
H 	H 	0.33410 0.61970 0.05720 0.07200
C 	C 	0.32004 0.65044 0.08561 -0.04000
C 	C 	0.27558 0.60364 0.03345 0.39000
N 	N 	0.22946 0.67975 0.09859 -0.08900
C 	C 	0.25906 0.66325 0.08649 0.09900
C 	C 	0.19674 0.66844 0.09874 -0.01400
H 	H 	0.18780 0.64890 0.09080 0.04100
C 	C 	0.17874 0.69191 0.11313 0.06600
N 	N 	0.20308 0.71570 0.12126 -0.07900
N 	N 	0.95083 0.82052 0.29107 -0.09400
C 	C 	0.97234 0.80266 0.27727 0.01300
H 	H 	0.99620 0.79940 0.28000 0.03500
C 	C 	0.95392 0.79009 0.25873 0.02800
N 	N 	0.91982 0.82060 0.28106 -0.04100
N 	N 	0.92097 0.80250 0.26134 -0.07300
O 	O 	0.30137 0.58819 0.02522 -0.48400
O 	O 	0.24480 0.60180 0.02554 -0.48900
C 	C 	0.98873 0.83795 0.32419 -0.08100
H 	H 	0.00710 0.82610 0.31670 0.08600
C 	C 	0.92802 0.85487 0.32451 -0.07600
H 	H 	0.90600 0.85410 0.31730 0.09200
C 	C 	0.95647 0.83845 0.31381 0.10600
C 	C 	0.96589 0.87278 0.35688 -0.00600
H 	H 	0.96930 0.88470 0.37140 0.07400
C 	C 	0.93336 0.87246 0.34631 -0.04500
C 	C 	0.99416 0.85526 0.34599 -0.04400
C 	C 	0.35593 0.65201 0.09792 0.36900
C 	C 	0.02881 0.85356 0.35877 0.36500
C 	C 	0.90216 0.88864 0.35879 0.37400
N 	N 	0.23370 0.70751 0.11258 -0.04100
O 	O 	0.03245 0.87225 0.37742 -0.46200
O 	O 	0.37959 0.63511 0.08690 -0.44800
O 	O 	0.35781 0.66890 0.11665 -0.46800
O 	O 	0.90925 0.90480 0.37801 -0.45000
O 	O 	0.05202 0.83486 0.34938 -0.45100
O 	O 	0.87357 0.88616 0.34859 -0.47100
H 	H 	0.13490 0.70310 0.10690 0.05700
C 	C 	0.75372 0.14465 0.56578 -0.07400
H 	H 	0.73150 0.14350 0.55880 0.07700
C 	C 	0.79230 0.16745 0.59638 -0.07500
H 	H 	0.79570 0.18150 0.61000 0.09200
C 	C 	0.64293 0.19151 0.62177 -0.05900
C 	C 	0.62137 0.16281 0.61709 -0.02300
H 	H 	0.63000 0.14260 0.60980 0.04100
C 	C 	0.62997 0.21770 0.63526 -0.01900
H 	H 	0.64420 0.23630 0.63980 0.05000
C 	C 	0.58638 0.16567 0.62379 -0.06500
H 	H 	0.57100 0.14860 0.61810 0.05300
C 	C 	0.59432 0.21680 0.64261 -0.06800
H 	H 	0.58550 0.23560 0.65140 0.05700
C 	C 	0.57339 0.19083 0.63763 0.01300
C 	C 	0.53657 0.19039 0.64630 0.07700
C 	C 	0.52688 0.21018 0.66661 -0.14900
H 	H 	0.54340 0.22380 0.67470 0.08500
C 	C 	0.51184 0.16802 0.63550 -0.14600
H 	H 	0.51860 0.15380 0.62260 0.08200
Zn	Zn	0.12831 0.07421 0.60213 1.22800
Zn	Zn	0.17051 0.09886 0.63618 1.22800
O 	O 	0.20423 0.11889 0.66402 -0.46300
H 	H 	0.19640 0.13750 0.66900 0.25800
O 	O 	0.09448 0.05333 0.57431 -0.45600
H 	H 	0.10020 0.03310 0.57130 0.25800
O 	O 	0.20752 0.08109 0.61529 -0.45100
O 	O 	0.21797 0.98098 0.52533 -0.48300
O 	O 	0.17165 0.05811 0.58757 -0.46800
O 	O 	0.27520 0.96741 0.52494 -0.48500
C 	C 	0.22703 0.02547 0.56377 -0.00500
H 	H 	0.20430 0.01980 0.55910 0.06800
C 	C 	0.20137 0.06311 0.59640 0.36200
N 	N 	0.32891 0.05343 0.58339 -0.09300
C 	C 	0.25523 0.01057 0.55182 -0.04900
C 	C 	0.24912 0.98339 0.53203 0.38600
C 	C 	0.28902 0.01947 0.55819 -0.07300
H 	H 	0.30800 0.00980 0.55000 0.08800
C 	C 	0.23263 0.04876 0.58264 -0.04400
C 	C 	0.39175 0.12624 0.62182 -0.09300
H 	H 	0.36800 0.12970 0.62480 0.06800
N 	N 	0.38421 0.05037 0.58400 -0.07700
C 	C 	0.46396 0.26969 0.73693 0.07000
C 	C 	0.26637 0.05804 0.58934 -0.07800
H 	H 	0.27020 0.07390 0.60190 0.08500
C 	C 	0.29420 0.04320 0.57700 0.10300
C 	C 	0.48216 0.23089 0.69609 -0.04600
C 	C 	0.47705 0.16686 0.64380 0.09900
C 	C 	0.46795 0.18777 0.66281 -0.16300
H 	H 	0.44480 0.18770 0.66810 0.09100
C 	C 	0.49520 0.25993 0.73351 -0.11200
H 	H 	0.51210 0.26570 0.74500 0.07500
C 	C 	0.34022 0.07961 0.59707 0.00400
H 	H 	0.32650 0.09650 0.60470 0.03800
C 	C 	0.49202 0.20921 0.67461 0.10100
C 	C 	0.40109 0.10095 0.60887 0.05200
C 	C 	0.46028 0.11350 0.62064 -0.01200
H 	H 	0.48390 0.10740 0.62040 0.03700
C 	C 	0.45112 0.14343 0.63190 -0.03300
C 	C 	0.44936 0.24210 0.69952 0.00600
H 	H 	0.43210 0.23570 0.68850 0.03100
C 	C 	0.37541 0.07712 0.59779 0.04000
C 	C 	0.50534 0.24083 0.71312 0.00900
H 	H 	0.52880 0.23480 0.71120 0.03100
C 	C 	0.44039 0.26290 0.71879 -0.10100
H 	H 	0.41800 0.27250 0.71960 0.08100
C 	C 	0.41696 0.15048 0.63242 -0.01200
H 	H 	0.40910 0.17110 0.63960 0.03700
C 	C 	0.43625 0.09070 0.60917 -0.08300
H 	H 	0.44350 0.06980 0.60210 0.07300
N 	N 	0.35635 0.03532 0.57577 -0.04300
C 	C 	0.78198 0.12741 0.55513 -0.05400
C 	C 	0.81518 0.13064 0.56465 -0.00400
H 	H 	0.83410 0.11970 0.55720 0.07200
C 	C 	0.82004 0.15044 0.58561 -0.04000
C 	C 	0.77558 0.10364 0.53345 0.39000
N 	N 	0.72946 0.17975 0.59859 -0.08900
C 	C 	0.75906 0.16325 0.58649 0.09900
C 	C 	0.69674 0.16844 0.59874 -0.01400
H 	H 	0.68780 0.14890 0.59080 0.04100
C 	C 	0.67874 0.19191 0.61313 0.06600
N 	N 	0.70308 0.21570 0.62126 -0.07900
N 	N 	0.45083 0.32052 0.79107 -0.09400
C 	C 	0.47234 0.30266 0.77727 0.01300
H 	H 	0.49620 0.29940 0.78000 0.03500
C 	C 	0.45392 0.29009 0.75873 0.02800
N 	N 	0.41982 0.32060 0.78106 -0.04100
N 	N 	0.42097 0.30250 0.76134 -0.07300
O 	O 	0.80137 0.08819 0.52522 -0.48400
O 	O 	0.74480 0.10180 0.52554 -0.48900
C 	C 	0.48873 0.33795 0.82419 -0.08100
H 	H 	0.50710 0.32610 0.81670 0.08600
C 	C 	0.42802 0.35487 0.82451 -0.07600
H 	H 	0.40600 0.35410 0.81730 0.09200
C 	C 	0.45647 0.33845 0.81381 0.10600
C 	C 	0.46589 0.37278 0.85688 -0.00600
H 	H 	0.46930 0.38470 0.87140 0.07400
C 	C 	0.43336 0.37246 0.84631 -0.04500
C 	C 	0.49416 0.35526 0.84599 -0.04400
C 	C 	0.85593 0.15201 0.59792 0.36900
C 	C 	0.52881 0.35356 0.85877 0.36500
C 	C 	0.40216 0.38864 0.85879 0.37400
N 	N 	0.73370 0.20751 0.61258 -0.04100
O 	O 	0.53245 0.37225 0.87742 -0.46200
O 	O 	0.87959 0.13511 0.58690 -0.44800
O 	O 	0.85781 0.16890 0.61665 -0.46800
O 	O 	0.40925 0.40480 0.87801 -0.45000
O 	O 	0.55202 0.33486 0.84938 -0.45100
O 	O 	0.37357 0.38616 0.84859 -0.47100
H 	H 	0.63490 0.20310 0.60690 0.05700
C 	C 	0.64465 0.74628 0.93422 -0.07400
H 	H 	0.64350 0.76850 0.94120 0.07700
C 	C 	0.66745 0.70770 0.90362 -0.07500
H 	H 	0.68150 0.70430 0.89000 0.09200
C 	C 	0.69151 0.85707 0.87823 -0.05900
C 	C 	0.66281 0.87863 0.88291 -0.02300
H 	H 	0.64260 0.87000 0.89020 0.04100
C 	C 	0.71770 0.87003 0.86474 -0.01900
H 	H 	0.73630 0.85580 0.86020 0.05000
C 	C 	0.66567 0.91362 0.87621 -0.06500
H 	H 	0.64860 0.92900 0.88190 0.05300
C 	C 	0.71680 0.90568 0.85739 -0.06800
H 	H 	0.73560 0.91450 0.84860 0.05700
C 	C 	0.69083 0.92661 0.86237 0.01300
C 	C 	0.69039 0.96343 0.85370 0.07700
C 	C 	0.71018 0.97312 0.83339 -0.14900
H 	H 	0.72380 0.95660 0.82530 0.08500
C 	C 	0.66802 0.98816 0.86450 -0.14600
H 	H 	0.65380 0.98140 0.87740 0.08200
Zn	Zn	0.57421 0.37169 0.89787 1.22800
Zn	Zn	0.59886 0.32949 0.86382 1.22800
O 	O 	0.61889 0.29577 0.83598 -0.46300
H 	H 	0.63750 0.30360 0.83100 0.25800
O 	O 	0.55333 0.40552 0.92569 -0.45600
H 	H 	0.53310 0.39980 0.92870 0.25800
O 	O 	0.58109 0.29248 0.88471 -0.45100
O 	O 	0.48098 0.28203 0.97467 -0.48300
O 	O 	0.55811 0.32835 0.91243 -0.46800
O 	O 	0.46741 0.22480 0.97506 -0.48400
C 	C 	0.52547 0.27297 0.93623 -0.00500
H 	H 	0.51980 0.29570 0.94090 0.06800
C 	C 	0.56311 0.29863 0.90360 0.36200
N 	N 	0.55343 0.17109 0.91661 -0.09300
C 	C 	0.51057 0.24477 0.94818 -0.04900
C 	C 	0.48339 0.25088 0.96797 0.38600
C 	C 	0.51947 0.21098 0.94181 -0.07300
H 	H 	0.50980 0.19200 0.95000 0.08800
C 	C 	0.54876 0.26737 0.91736 -0.04400
C 	C 	0.62624 0.10825 0.87818 -0.09300
H 	H 	0.62970 0.13200 0.87520 0.06800
N 	N 	0.55037 0.11579 0.91600 -0.07700
C 	C 	0.76969 0.03604 0.76307 0.07000
C 	C 	0.55804 0.23363 0.91066 -0.07800
H 	H 	0.57390 0.22980 0.89810 0.08500
C 	C 	0.54320 0.20580 0.92300 0.10300
C 	C 	0.73089 0.01784 0.80391 -0.04600
C 	C 	0.66686 0.02295 0.85620 0.09900
C 	C 	0.68777 0.03205 0.83719 -0.16300
H 	H 	0.68770 0.05520 0.83190 0.09100
C 	C 	0.75993 0.00480 0.76649 -0.11200
H 	H 	0.76570 0.98790 0.75500 0.07500
C 	C 	0.57961 0.15978 0.90293 0.00400
H 	H 	0.59650 0.17350 0.89530 0.03800
C 	C 	0.70921 0.00798 0.82539 0.10100
C 	C 	0.60095 0.09891 0.89113 0.05200
C 	C 	0.61350 0.03972 0.87936 -0.01200
H 	H 	0.60740 0.01610 0.87960 0.03700
C 	C 	0.64343 0.04888 0.86810 -0.03300
C 	C 	0.74210 0.05064 0.80048 0.00600
H 	H 	0.73570 0.06790 0.81150 0.03100
C 	C 	0.57712 0.12459 0.90221 0.04000
C 	C 	0.74083 0.99466 0.78688 0.00900
H 	H 	0.73480 0.97120 0.78880 0.03100
C 	C 	0.76290 0.05961 0.78121 -0.10100
H 	H 	0.77250 0.08200 0.78040 0.08100
C 	C 	0.65048 0.08304 0.86758 -0.01200
H 	H 	0.67110 0.09090 0.86040 0.03700
C 	C 	0.59070 0.06375 0.89083 -0.08300
H 	H 	0.56980 0.05650 0.89790 0.07300
N 	N 	0.53532 0.14365 0.92423 -0.04300
C 	C 	0.62741 0.71802 0.94487 -0.05400
C 	C 	0.63064 0.68482 0.93535 -0.00400
H 	H 	0.61970 0.66590 0.94280 0.07200
C 	C 	0.65044 0.67996 0.91439 -0.04000
C 	C 	0.60364 0.72442 0.96655 0.39000
N 	N 	0.67975 0.77054 0.90141 -0.08900
C 	C 	0.66325 0.74094 0.91351 0.09900
C 	C 	0.66844 0.80326 0.90126 -0.01400
H 	H 	0.64890 0.81220 0.90920 0.04100
C 	C 	0.69191 0.82126 0.88687 0.06600
N 	N 	0.71570 0.79692 0.87874 -0.07900
N 	N 	0.82052 0.04917 0.70893 -0.09400
C 	C 	0.80266 0.02766 0.72273 0.01300
H 	H 	0.79940 0.00380 0.72000 0.03500
C 	C 	0.79009 0.04608 0.74127 0.02800
N 	N 	0.82060 0.08018 0.71894 -0.04100
N 	N 	0.80250 0.07903 0.73866 -0.07300
O 	O 	0.58819 0.69863 0.97478 -0.48300
O 	O 	0.60180 0.75520 0.97446 -0.48800
C 	C 	0.83795 0.01127 0.67581 -0.08100
H 	H 	0.82610 0.99290 0.68330 0.08600
C 	C 	0.85487 0.07198 0.67549 -0.07600
H 	H 	0.85410 0.09400 0.68270 0.09200
C 	C 	0.83845 0.04353 0.68619 0.10600
C 	C 	0.87278 0.03411 0.64312 -0.00600
H 	H 	0.88470 0.03070 0.62860 0.07400
C 	C 	0.87246 0.06664 0.65369 -0.04500
C 	C 	0.85526 0.00584 0.65401 -0.04400
C 	C 	0.65201 0.64407 0.90208 0.36900
C 	C 	0.85356 0.97119 0.64123 0.36500
C 	C 	0.88864 0.09784 0.64121 0.37400
N 	N 	0.70751 0.76630 0.88742 -0.04100
O 	O 	0.87225 0.96755 0.62258 -0.46200
O 	O 	0.63511 0.62041 0.91310 -0.44800
O 	O 	0.66890 0.64219 0.88335 -0.46800
O 	O 	0.90480 0.09075 0.62199 -0.45000
O 	O 	0.83486 0.94798 0.65062 -0.45100
O 	O 	0.88616 0.12643 0.65141 -0.47100
H 	H 	0.70310 0.86510 0.89310 0.05700
C 	C 	0.14465 0.24628 0.43422 -0.07400
H 	H 	0.14350 0.26850 0.44120 0.07700
C 	C 	0.16745 0.20770 0.40362 -0.07500
H 	H 	0.18150 0.20430 0.39000 0.09200
C 	C 	0.19151 0.35707 0.37823 -0.05900
C 	C 	0.16281 0.37863 0.38291 -0.02300
H 	H 	0.14260 0.37000 0.39020 0.04100
C 	C 	0.21770 0.37003 0.36474 -0.01900
H 	H 	0.23630 0.35580 0.36020 0.05000
C 	C 	0.16567 0.41362 0.37621 -0.06500
H 	H 	0.14860 0.42900 0.38190 0.05300
C 	C 	0.21680 0.40568 0.35739 -0.06800
H 	H 	0.23560 0.41450 0.34860 0.05700
C 	C 	0.19083 0.42661 0.36237 0.01300
C 	C 	0.19039 0.46343 0.35370 0.07700
C 	C 	0.21018 0.47312 0.33339 -0.14900
H 	H 	0.22380 0.45660 0.32530 0.08500
C 	C 	0.16802 0.48816 0.36450 -0.14600
H 	H 	0.15380 0.48140 0.37740 0.08200
Zn	Zn	0.07421 0.87169 0.39787 1.22800
Zn	Zn	0.09886 0.82949 0.36382 1.22800
O 	O 	0.11889 0.79577 0.33598 -0.46300
H 	H 	0.13750 0.80360 0.33100 0.25800
O 	O 	0.05333 0.90552 0.42569 -0.45600
H 	H 	0.03310 0.89980 0.42870 0.25800
O 	O 	0.08109 0.79248 0.38471 -0.45100
O 	O 	0.98098 0.78203 0.47467 -0.48300
O 	O 	0.05811 0.82835 0.41243 -0.46800
O 	O 	0.96741 0.72480 0.47506 -0.48500
C 	C 	0.02547 0.77297 0.43623 -0.00500
H 	H 	0.01980 0.79570 0.44090 0.06800
C 	C 	0.06311 0.79863 0.40360 0.36200
N 	N 	0.05343 0.67109 0.41661 -0.09300
C 	C 	0.01057 0.74477 0.44818 -0.04900
C 	C 	0.98339 0.75088 0.46797 0.38600
C 	C 	0.01947 0.71098 0.44181 -0.07300
H 	H 	0.00980 0.69200 0.45000 0.08800
C 	C 	0.04876 0.76737 0.41736 -0.04400
C 	C 	0.12624 0.60825 0.37818 -0.09300
H 	H 	0.12970 0.63200 0.37520 0.06800
N 	N 	0.05037 0.61579 0.41600 -0.07700
C 	C 	0.26969 0.53604 0.26307 0.07000
C 	C 	0.05804 0.73363 0.41066 -0.07800
H 	H 	0.07390 0.72980 0.39810 0.08500
C 	C 	0.04320 0.70580 0.42300 0.10300
C 	C 	0.23089 0.51784 0.30391 -0.04600
C 	C 	0.16686 0.52295 0.35620 0.09900
C 	C 	0.18777 0.53205 0.33719 -0.16300
H 	H 	0.18770 0.55520 0.33190 0.09100
C 	C 	0.25993 0.50480 0.26649 -0.11200
H 	H 	0.26570 0.48790 0.25500 0.07500
C 	C 	0.07961 0.65978 0.40293 0.00400
H 	H 	0.09650 0.67350 0.39530 0.03800
C 	C 	0.20921 0.50798 0.32539 0.10100
C 	C 	0.10095 0.59891 0.39113 0.05200
C 	C 	0.11350 0.53972 0.37936 -0.01200
H 	H 	0.10740 0.51610 0.37960 0.03700
C 	C 	0.14343 0.54888 0.36810 -0.03300
C 	C 	0.24210 0.55064 0.30048 0.00600
H 	H 	0.23570 0.56790 0.31150 0.03100
C 	C 	0.07712 0.62459 0.40221 0.04000
C 	C 	0.24083 0.49466 0.28688 0.00900
H 	H 	0.23480 0.47120 0.28880 0.03100
C 	C 	0.26290 0.55961 0.28121 -0.10100
H 	H 	0.27250 0.58200 0.28040 0.08100
C 	C 	0.15048 0.58304 0.36758 -0.01200
H 	H 	0.17110 0.59090 0.36040 0.03700
C 	C 	0.09070 0.56375 0.39083 -0.08300
H 	H 	0.06980 0.55650 0.39790 0.07300
N 	N 	0.03532 0.64365 0.42423 -0.04300
C 	C 	0.12741 0.21802 0.44487 -0.05400
C 	C 	0.13064 0.18482 0.43535 -0.00400
H 	H 	0.11970 0.16590 0.44280 0.07200
C 	C 	0.15044 0.17996 0.41439 -0.04000
C 	C 	0.10364 0.22442 0.46655 0.39000
N 	N 	0.17975 0.27054 0.40141 -0.08900
C 	C 	0.16325 0.24094 0.41351 0.09900
C 	C 	0.16844 0.30326 0.40126 -0.01400
H 	H 	0.14890 0.31220 0.40920 0.04100
C 	C 	0.19191 0.32126 0.38687 0.06600
N 	N 	0.21570 0.29692 0.37874 -0.07900
N 	N 	0.32052 0.54917 0.20893 -0.09400
C 	C 	0.30266 0.52766 0.22273 0.01300
H 	H 	0.29940 0.50380 0.22000 0.03500
C 	C 	0.29009 0.54608 0.24127 0.02800
N 	N 	0.32060 0.58018 0.21894 -0.04100
N 	N 	0.30250 0.57903 0.23866 -0.07300
O 	O 	0.08819 0.19863 0.47478 -0.48400
O 	O 	0.10180 0.25520 0.47446 -0.48900
C 	C 	0.33795 0.51127 0.17581 -0.08100
H 	H 	0.32610 0.49290 0.18330 0.08600
C 	C 	0.35487 0.57198 0.17549 -0.07600
H 	H 	0.35410 0.59400 0.18270 0.09200
C 	C 	0.33845 0.54353 0.18619 0.10600
C 	C 	0.37278 0.53411 0.14312 -0.00600
H 	H 	0.38470 0.53070 0.12860 0.07400
C 	C 	0.37246 0.56664 0.15369 -0.04500
C 	C 	0.35526 0.50584 0.15401 -0.04400
C 	C 	0.15201 0.14407 0.40208 0.36900
C 	C 	0.35356 0.47119 0.14123 0.36500
C 	C 	0.38864 0.59784 0.14121 0.37400
N 	N 	0.20751 0.26630 0.38742 -0.04100
O 	O 	0.37225 0.46755 0.12258 -0.46200
O 	O 	0.13511 0.12041 0.41310 -0.44800
O 	O 	0.16890 0.14219 0.38335 -0.46800
O 	O 	0.40480 0.59075 0.12199 -0.45000
O 	O 	0.33486 0.44798 0.15062 -0.45100
O 	O 	0.38616 0.62643 0.15141 -0.47100
H 	H 	0.20310 0.36510 0.39310 0.05700
C 	C 	0.35535 0.25372 0.93422 -0.07400
H 	H 	0.35650 0.23150 0.94120 0.07700
C 	C 	0.33255 0.29230 0.90362 -0.07500
H 	H 	0.31850 0.29570 0.89000 0.09200
C 	C 	0.30849 0.14293 0.87823 -0.05900
C 	C 	0.33719 0.12137 0.88291 -0.02300
H 	H 	0.35740 0.13000 0.89020 0.04100
C 	C 	0.28230 0.12997 0.86474 -0.01900
H 	H 	0.26370 0.14420 0.86020 0.05000
C 	C 	0.33433 0.08638 0.87621 -0.06500
H 	H 	0.35140 0.07100 0.88190 0.05300
C 	C 	0.28320 0.09432 0.85739 -0.06800
H 	H 	0.26440 0.08550 0.84860 0.05700
C 	C 	0.30917 0.07339 0.86237 0.01300
C 	C 	0.30961 0.03657 0.85370 0.07700
C 	C 	0.28982 0.02688 0.83339 -0.14900
H 	H 	0.27620 0.04340 0.82530 0.08500
C 	C 	0.33198 0.01184 0.86450 -0.14600
H 	H 	0.34620 0.01860 0.87740 0.08200
Zn	Zn	0.42579 0.62831 0.89787 1.22800
Zn	Zn	0.40114 0.67051 0.86382 1.22800
O 	O 	0.38111 0.70423 0.83598 -0.46300
H 	H 	0.36250 0.69640 0.83100 0.25800
O 	O 	0.44667 0.59448 0.92569 -0.45600
H 	H 	0.46690 0.60020 0.92870 0.25800
O 	O 	0.41891 0.70752 0.88471 -0.45100
O 	O 	0.51902 0.71797 0.97467 -0.48300
O 	O 	0.44189 0.67165 0.91243 -0.46800
O 	O 	0.53259 0.77520 0.97506 -0.48400
C 	C 	0.47453 0.72703 0.93623 -0.00500
H 	H 	0.48020 0.70430 0.94090 0.06800
C 	C 	0.43689 0.70137 0.90360 0.36200
N 	N 	0.44657 0.82891 0.91661 -0.09300
C 	C 	0.48943 0.75523 0.94818 -0.04900
C 	C 	0.51661 0.74912 0.96797 0.38600
C 	C 	0.48053 0.78902 0.94181 -0.07300
H 	H 	0.49020 0.80800 0.95000 0.08800
C 	C 	0.45124 0.73263 0.91736 -0.04400
C 	C 	0.37376 0.89175 0.87818 -0.09300
H 	H 	0.37030 0.86800 0.87520 0.06800
N 	N 	0.44963 0.88421 0.91600 -0.07700
C 	C 	0.23031 0.96396 0.76307 0.07000
C 	C 	0.44196 0.76637 0.91066 -0.07800
H 	H 	0.42610 0.77020 0.89810 0.08500
C 	C 	0.45680 0.79420 0.92300 0.10300
C 	C 	0.26911 0.98216 0.80391 -0.04600
C 	C 	0.33314 0.97705 0.85620 0.09900
C 	C 	0.31223 0.96795 0.83719 -0.16300
H 	H 	0.31230 0.94480 0.83190 0.09100
C 	C 	0.24007 0.99520 0.76649 -0.11200
H 	H 	0.23430 0.01210 0.75500 0.07500
C 	C 	0.42039 0.84022 0.90293 0.00400
H 	H 	0.40350 0.82650 0.89530 0.03800
C 	C 	0.29079 0.99202 0.82539 0.10100
C 	C 	0.39905 0.90109 0.89113 0.05200
C 	C 	0.38650 0.96028 0.87936 -0.01200
H 	H 	0.39260 0.98390 0.87960 0.03700
C 	C 	0.35657 0.95112 0.86810 -0.03300
C 	C 	0.25790 0.94936 0.80048 0.00600
H 	H 	0.26430 0.93210 0.81150 0.03100
C 	C 	0.42288 0.87541 0.90221 0.04000
C 	C 	0.25917 0.00534 0.78688 0.00900
H 	H 	0.26520 0.02880 0.78880 0.03100
C 	C 	0.23710 0.94039 0.78121 -0.10100
H 	H 	0.22750 0.91800 0.78040 0.08100
C 	C 	0.34952 0.91696 0.86758 -0.01200
H 	H 	0.32890 0.90910 0.86040 0.03700
C 	C 	0.40930 0.93625 0.89083 -0.08300
H 	H 	0.43020 0.94350 0.89790 0.07300
N 	N 	0.46468 0.85635 0.92423 -0.04300
C 	C 	0.37259 0.28198 0.94487 -0.05400
C 	C 	0.36936 0.31518 0.93535 -0.00400
H 	H 	0.38030 0.33410 0.94280 0.07200
C 	C 	0.34956 0.32004 0.91439 -0.04000
C 	C 	0.39636 0.27558 0.96655 0.39000
N 	N 	0.32025 0.22946 0.90141 -0.08900
C 	C 	0.33675 0.25906 0.91351 0.09900
C 	C 	0.33156 0.19674 0.90126 -0.01400
H 	H 	0.35110 0.18780 0.90920 0.04100
C 	C 	0.30809 0.17874 0.88687 0.06600
N 	N 	0.28430 0.20308 0.87874 -0.07900
N 	N 	0.17948 0.95083 0.70893 -0.09400
C 	C 	0.19734 0.97234 0.72273 0.01300
H 	H 	0.20060 0.99620 0.72000 0.03500
C 	C 	0.20991 0.95392 0.74127 0.02800
N 	N 	0.17940 0.91982 0.71894 -0.04100
N 	N 	0.19750 0.92097 0.73866 -0.07300
O 	O 	0.41181 0.30137 0.97478 -0.48300
O 	O 	0.39820 0.24480 0.97446 -0.48800
C 	C 	0.16205 0.98873 0.67581 -0.08100
H 	H 	0.17390 0.00710 0.68330 0.08600
C 	C 	0.14513 0.92802 0.67549 -0.07600
H 	H 	0.14590 0.90600 0.68270 0.09200
C 	C 	0.16155 0.95647 0.68619 0.10600
C 	C 	0.12722 0.96589 0.64312 -0.00600
H 	H 	0.11530 0.96930 0.62860 0.07400
C 	C 	0.12754 0.93336 0.65369 -0.04500
C 	C 	0.14474 0.99416 0.65401 -0.04400
C 	C 	0.34799 0.35593 0.90208 0.36900
C 	C 	0.14644 0.02881 0.64123 0.36500
C 	C 	0.11136 0.90216 0.64121 0.37400
N 	N 	0.29249 0.23370 0.88742 -0.04100
O 	O 	0.12775 0.03245 0.62258 -0.46200
O 	O 	0.36489 0.37959 0.91310 -0.44800
O 	O 	0.33110 0.35781 0.88335 -0.46800
O 	O 	0.09520 0.90925 0.62199 -0.45000
O 	O 	0.16514 0.05202 0.65062 -0.45100
O 	O 	0.11384 0.87357 0.65141 -0.47100
H 	H 	0.29690 0.13490 0.89310 0.05700
C 	C 	0.85535 0.75372 0.43422 -0.07400
H 	H 	0.85650 0.73150 0.44120 0.07700
C 	C 	0.83255 0.79230 0.40362 -0.07500
H 	H 	0.81850 0.79570 0.39000 0.09200
C 	C 	0.80849 0.64293 0.37823 -0.05900
C 	C 	0.83719 0.62137 0.38291 -0.02300
H 	H 	0.85740 0.63000 0.39020 0.04100
C 	C 	0.78230 0.62997 0.36474 -0.01900
H 	H 	0.76370 0.64420 0.36020 0.05000
C 	C 	0.83433 0.58638 0.37621 -0.06500
H 	H 	0.85140 0.57100 0.38190 0.05300
C 	C 	0.78320 0.59432 0.35739 -0.06800
H 	H 	0.76440 0.58550 0.34860 0.05700
C 	C 	0.80917 0.57339 0.36237 0.01300
C 	C 	0.80961 0.53657 0.35370 0.07700
C 	C 	0.78982 0.52688 0.33339 -0.14900
H 	H 	0.77620 0.54340 0.32530 0.08500
C 	C 	0.83198 0.51184 0.36450 -0.14600
H 	H 	0.84620 0.51860 0.37740 0.08200
Zn	Zn	0.92579 0.12831 0.39787 1.22800
Zn	Zn	0.90114 0.17051 0.36382 1.22800
O 	O 	0.88111 0.20423 0.33598 -0.46300
H 	H 	0.86250 0.19640 0.33100 0.25800
O 	O 	0.94667 0.09448 0.42569 -0.45600
H 	H 	0.96690 0.10020 0.42870 0.25800
O 	O 	0.91891 0.20752 0.38471 -0.45100
O 	O 	0.01902 0.21797 0.47467 -0.48300
O 	O 	0.94189 0.17165 0.41243 -0.46800
O 	O 	0.03259 0.27520 0.47506 -0.48500
C 	C 	0.97453 0.22703 0.43623 -0.00500
H 	H 	0.98020 0.20430 0.44090 0.06800
C 	C 	0.93689 0.20137 0.40360 0.36200
N 	N 	0.94657 0.32891 0.41661 -0.09300
C 	C 	0.98943 0.25523 0.44818 -0.04900
C 	C 	0.01661 0.24912 0.46797 0.38600
C 	C 	0.98053 0.28902 0.44181 -0.07300
H 	H 	0.99020 0.30800 0.45000 0.08800
C 	C 	0.95124 0.23263 0.41736 -0.04400
C 	C 	0.87376 0.39175 0.37818 -0.09300
H 	H 	0.87030 0.36800 0.37520 0.06800
N 	N 	0.94963 0.38421 0.41600 -0.07700
C 	C 	0.73031 0.46396 0.26307 0.07000
C 	C 	0.94196 0.26637 0.41066 -0.07800
H 	H 	0.92610 0.27020 0.39810 0.08500
C 	C 	0.95680 0.29420 0.42300 0.10300
C 	C 	0.76911 0.48216 0.30391 -0.04600
C 	C 	0.83314 0.47705 0.35620 0.09900
C 	C 	0.81223 0.46795 0.33719 -0.16300
H 	H 	0.81230 0.44480 0.33190 0.09100
C 	C 	0.74007 0.49520 0.26649 -0.11200
H 	H 	0.73430 0.51210 0.25500 0.07500
C 	C 	0.92039 0.34022 0.40293 0.00400
H 	H 	0.90350 0.32650 0.39530 0.03800
C 	C 	0.79079 0.49202 0.32539 0.10100
C 	C 	0.89905 0.40109 0.39113 0.05200
C 	C 	0.88650 0.46028 0.37936 -0.01200
H 	H 	0.89260 0.48390 0.37960 0.03700
C 	C 	0.85657 0.45112 0.36810 -0.03300
C 	C 	0.75790 0.44936 0.30048 0.00600
H 	H 	0.76430 0.43210 0.31150 0.03100
C 	C 	0.92288 0.37541 0.40221 0.04000
C 	C 	0.75917 0.50534 0.28688 0.00900
H 	H 	0.76520 0.52880 0.28880 0.03100
C 	C 	0.73710 0.44039 0.28121 -0.10100
H 	H 	0.72750 0.41800 0.28040 0.08100
C 	C 	0.84952 0.41696 0.36758 -0.01200
H 	H 	0.82890 0.40910 0.36040 0.03700
C 	C 	0.90930 0.43625 0.39083 -0.08300
H 	H 	0.93020 0.44350 0.39790 0.07300
N 	N 	0.96468 0.35635 0.42423 -0.04300
C 	C 	0.87259 0.78198 0.44487 -0.05400
C 	C 	0.86936 0.81518 0.43535 -0.00400
H 	H 	0.88030 0.83410 0.44280 0.07200
C 	C 	0.84956 0.82004 0.41439 -0.04000
C 	C 	0.89636 0.77558 0.46655 0.39000
N 	N 	0.82025 0.72946 0.40141 -0.08900
C 	C 	0.83675 0.75906 0.41351 0.09900
C 	C 	0.83156 0.69674 0.40126 -0.01400
H 	H 	0.85110 0.68780 0.40920 0.04100
C 	C 	0.80809 0.67874 0.38687 0.06600
N 	N 	0.78430 0.70308 0.37874 -0.07900
N 	N 	0.67948 0.45083 0.20893 -0.09400
C 	C 	0.69734 0.47234 0.22273 0.01300
H 	H 	0.70060 0.49620 0.22000 0.03500
C 	C 	0.70991 0.45392 0.24127 0.02800
N 	N 	0.67940 0.41982 0.21894 -0.04100
N 	N 	0.69750 0.42097 0.23866 -0.07300
O 	O 	0.91181 0.80137 0.47478 -0.48400
O 	O 	0.89820 0.74480 0.47446 -0.48900
C 	C 	0.66205 0.48873 0.17581 -0.08100
H 	H 	0.67390 0.50710 0.18330 0.08600
C 	C 	0.64513 0.42802 0.17549 -0.07600
H 	H 	0.64590 0.40600 0.18270 0.09200
C 	C 	0.66155 0.45647 0.18619 0.10600
C 	C 	0.62722 0.46589 0.14312 -0.00600
H 	H 	0.61530 0.46930 0.12860 0.07400
C 	C 	0.62754 0.43336 0.15369 -0.04500
C 	C 	0.64474 0.49416 0.15401 -0.04400
C 	C 	0.84799 0.85593 0.40208 0.36900
C 	C 	0.64644 0.52881 0.14123 0.36500
C 	C 	0.61136 0.40216 0.14121 0.37400
N 	N 	0.79249 0.73370 0.38742 -0.04100
O 	O 	0.62775 0.53245 0.12258 -0.46200
O 	O 	0.86489 0.87959 0.41310 -0.44800
O 	O 	0.83110 0.85781 0.38335 -0.46800
O 	O 	0.59520 0.40925 0.12199 -0.45000
O 	O 	0.66514 0.55202 0.15062 -0.45100
O 	O 	0.61384 0.37357 0.15141 -0.47100
H 	H 	0.79690 0.63490 0.39310 0.05700
C 	C 	0.25372 0.64465 0.93422 -0.07400
H 	H 	0.23150 0.64350 0.94120 0.07700
C 	C 	0.29230 0.66745 0.90362 -0.07500
H 	H 	0.29570 0.68150 0.89000 0.09200
C 	C 	0.14293 0.69151 0.87823 -0.05900
C 	C 	0.12137 0.66281 0.88291 -0.02300
H 	H 	0.13000 0.64260 0.89020 0.04100
C 	C 	0.12997 0.71770 0.86474 -0.01900
H 	H 	0.14420 0.73630 0.86020 0.05000
C 	C 	0.08638 0.66567 0.87621 -0.06500
H 	H 	0.07100 0.64860 0.88190 0.05300
C 	C 	0.09432 0.71680 0.85739 -0.06800
H 	H 	0.08550 0.73560 0.84860 0.05700
C 	C 	0.07339 0.69083 0.86237 0.01300
C 	C 	0.03657 0.69039 0.85370 0.07700
C 	C 	0.02688 0.71018 0.83339 -0.14900
H 	H 	0.04340 0.72380 0.82530 0.08500
C 	C 	0.01184 0.66802 0.86450 -0.14600
H 	H 	0.01860 0.65380 0.87740 0.08200
Zn	Zn	0.62831 0.57421 0.89787 1.22800
Zn	Zn	0.67051 0.59886 0.86382 1.22800
O 	O 	0.70423 0.61889 0.83598 -0.46300
H 	H 	0.69640 0.63750 0.83100 0.25800
O 	O 	0.59448 0.55333 0.92569 -0.45600
H 	H 	0.60020 0.53310 0.92870 0.25800
O 	O 	0.70752 0.58109 0.88471 -0.45100
O 	O 	0.71797 0.48098 0.97467 -0.48300
O 	O 	0.67165 0.55811 0.91243 -0.46800
O 	O 	0.77520 0.46741 0.97506 -0.48400
C 	C 	0.72703 0.52547 0.93623 -0.00500
H 	H 	0.70430 0.51980 0.94090 0.06800
C 	C 	0.70137 0.56311 0.90360 0.36200
N 	N 	0.82891 0.55343 0.91661 -0.09300
C 	C 	0.75523 0.51057 0.94818 -0.04900
C 	C 	0.74912 0.48339 0.96797 0.38600
C 	C 	0.78902 0.51947 0.94181 -0.07300
H 	H 	0.80800 0.50980 0.95000 0.08800
C 	C 	0.73263 0.54876 0.91736 -0.04400
C 	C 	0.89175 0.62624 0.87818 -0.09300
H 	H 	0.86800 0.62970 0.87520 0.06800
N 	N 	0.88421 0.55037 0.91600 -0.07700
C 	C 	0.96396 0.76969 0.76307 0.07000
C 	C 	0.76637 0.55804 0.91066 -0.07800
H 	H 	0.77020 0.57390 0.89810 0.08500
C 	C 	0.79420 0.54320 0.92300 0.10300
C 	C 	0.98216 0.73089 0.80391 -0.04600
C 	C 	0.97705 0.66686 0.85620 0.09900
C 	C 	0.96795 0.68777 0.83719 -0.16300
H 	H 	0.94480 0.68770 0.83190 0.09100
C 	C 	0.99520 0.75993 0.76649 -0.11200
H 	H 	0.01210 0.76570 0.75500 0.07500
C 	C 	0.84022 0.57961 0.90293 0.00400
H 	H 	0.82650 0.59650 0.89530 0.03800
C 	C 	0.99202 0.70921 0.82539 0.10100
C 	C 	0.90109 0.60095 0.89113 0.05200
C 	C 	0.96028 0.61350 0.87936 -0.01200
H 	H 	0.98390 0.60740 0.87960 0.03700
C 	C 	0.95112 0.64343 0.86810 -0.03300
C 	C 	0.94936 0.74210 0.80048 0.00600
H 	H 	0.93210 0.73570 0.81150 0.03100
C 	C 	0.87541 0.57712 0.90221 0.04000
C 	C 	0.00534 0.74083 0.78688 0.00900
H 	H 	0.02880 0.73480 0.78880 0.03100
C 	C 	0.94039 0.76290 0.78121 -0.10100
H 	H 	0.91800 0.77250 0.78040 0.08100
C 	C 	0.91696 0.65048 0.86758 -0.01200
H 	H 	0.90910 0.67110 0.86040 0.03700
C 	C 	0.93625 0.59070 0.89083 -0.08300
H 	H 	0.94350 0.56980 0.89790 0.07300
N 	N 	0.85635 0.53532 0.92423 -0.04300
C 	C 	0.28198 0.62741 0.94487 -0.05400
C 	C 	0.31518 0.63064 0.93535 -0.00400
H 	H 	0.33410 0.61970 0.94280 0.07200
C 	C 	0.32004 0.65044 0.91439 -0.04000
C 	C 	0.27558 0.60364 0.96655 0.39000
N 	N 	0.22946 0.67975 0.90141 -0.08900
C 	C 	0.25906 0.66325 0.91351 0.09900
C 	C 	0.19674 0.66844 0.90126 -0.01400
H 	H 	0.18780 0.64890 0.90920 0.04100
C 	C 	0.17874 0.69191 0.88687 0.06600
N 	N 	0.20308 0.71570 0.87874 -0.07900
N 	N 	0.95083 0.82052 0.70893 -0.09400
C 	C 	0.97234 0.80266 0.72273 0.01300
H 	H 	0.99620 0.79940 0.72000 0.03500
C 	C 	0.95392 0.79009 0.74127 0.02800
N 	N 	0.91982 0.82060 0.71894 -0.04100
N 	N 	0.92097 0.80250 0.73866 -0.07300
O 	O 	0.30137 0.58819 0.97478 -0.48300
O 	O 	0.24480 0.60180 0.97446 -0.48800
C 	C 	0.98873 0.83795 0.67581 -0.08100
H 	H 	0.00710 0.82610 0.68330 0.08600
C 	C 	0.92802 0.85487 0.67549 -0.07600
H 	H 	0.90600 0.85410 0.68270 0.09200
C 	C 	0.95647 0.83845 0.68619 0.10600
C 	C 	0.96589 0.87278 0.64312 -0.00600
H 	H 	0.96930 0.88470 0.62860 0.07400
C 	C 	0.93336 0.87246 0.65369 -0.04500
C 	C 	0.99416 0.85526 0.65401 -0.04400
C 	C 	0.35593 0.65201 0.90208 0.36900
C 	C 	0.02881 0.85356 0.64123 0.36500
C 	C 	0.90216 0.88864 0.64121 0.37400
N 	N 	0.23370 0.70751 0.88742 -0.04100
O 	O 	0.03245 0.87225 0.62258 -0.46200
O 	O 	0.37959 0.63511 0.91310 -0.44800
O 	O 	0.35781 0.66890 0.88335 -0.46800
O 	O 	0.90925 0.90480 0.62199 -0.45000
O 	O 	0.05202 0.83486 0.65062 -0.45100
O 	O 	0.87357 0.88616 0.65141 -0.47100
H 	H 	0.13490 0.70310 0.89310 0.05700
C 	C 	0.75372 0.14465 0.43422 -0.07400
H 	H 	0.73150 0.14350 0.44120 0.07700
C 	C 	0.79230 0.16745 0.40362 -0.07500
H 	H 	0.79570 0.18150 0.39000 0.09200
C 	C 	0.64293 0.19151 0.37823 -0.05900
C 	C 	0.62137 0.16281 0.38291 -0.02300
H 	H 	0.63000 0.14260 0.39020 0.04100
C 	C 	0.62997 0.21770 0.36474 -0.01900
H 	H 	0.64420 0.23630 0.36020 0.05000
C 	C 	0.58638 0.16567 0.37621 -0.06500
H 	H 	0.57100 0.14860 0.38190 0.05300
C 	C 	0.59432 0.21680 0.35739 -0.06800
H 	H 	0.58550 0.23560 0.34860 0.05700
C 	C 	0.57339 0.19083 0.36237 0.01300
C 	C 	0.53657 0.19039 0.35370 0.07700
C 	C 	0.52688 0.21018 0.33339 -0.14900
H 	H 	0.54340 0.22380 0.32530 0.08500
C 	C 	0.51184 0.16802 0.36450 -0.14600
H 	H 	0.51860 0.15380 0.37740 0.08200
Zn	Zn	0.12831 0.07421 0.39787 1.22800
Zn	Zn	0.17051 0.09886 0.36382 1.22800
O 	O 	0.20423 0.11889 0.33598 -0.46300
H 	H 	0.19640 0.13750 0.33100 0.25800
O 	O 	0.09448 0.05333 0.42569 -0.45600
H 	H 	0.10020 0.03310 0.42870 0.25800
O 	O 	0.20752 0.08109 0.38471 -0.45100
O 	O 	0.21797 0.98098 0.47467 -0.48300
O 	O 	0.17165 0.05811 0.41243 -0.46800
O 	O 	0.27520 0.96741 0.47506 -0.48500
C 	C 	0.22703 0.02547 0.43623 -0.00500
H 	H 	0.20430 0.01980 0.44090 0.06800
C 	C 	0.20137 0.06311 0.40360 0.36200
N 	N 	0.32891 0.05343 0.41661 -0.09300
C 	C 	0.25523 0.01057 0.44818 -0.04900
C 	C 	0.24912 0.98339 0.46797 0.38600
C 	C 	0.28902 0.01947 0.44181 -0.07300
H 	H 	0.30800 0.00980 0.45000 0.08800
C 	C 	0.23263 0.04876 0.41736 -0.04400
C 	C 	0.39175 0.12624 0.37818 -0.09300
H 	H 	0.36800 0.12970 0.37520 0.06800
N 	N 	0.38421 0.05037 0.41600 -0.07700
C 	C 	0.46396 0.26969 0.26307 0.07000
C 	C 	0.26637 0.05804 0.41066 -0.07800
H 	H 	0.27020 0.07390 0.39810 0.08500
C 	C 	0.29420 0.04320 0.42300 0.10300
C 	C 	0.48216 0.23089 0.30391 -0.04600
C 	C 	0.47705 0.16686 0.35620 0.09900
C 	C 	0.46795 0.18777 0.33719 -0.16300
H 	H 	0.44480 0.18770 0.33190 0.09100
C 	C 	0.49520 0.25993 0.26649 -0.11200
H 	H 	0.51210 0.26570 0.25500 0.07500
C 	C 	0.34022 0.07961 0.40293 0.00400
H 	H 	0.32650 0.09650 0.39530 0.03800
C 	C 	0.49202 0.20921 0.32539 0.10100
C 	C 	0.40109 0.10095 0.39113 0.05200
C 	C 	0.46028 0.11350 0.37936 -0.01200
H 	H 	0.48390 0.10740 0.37960 0.03700
C 	C 	0.45112 0.14343 0.36810 -0.03300
C 	C 	0.44936 0.24210 0.30048 0.00600
H 	H 	0.43210 0.23570 0.31150 0.03100
C 	C 	0.37541 0.07712 0.40221 0.04000
C 	C 	0.50534 0.24083 0.28688 0.00900
H 	H 	0.52880 0.23480 0.28880 0.03100
C 	C 	0.44039 0.26290 0.28121 -0.10100
H 	H 	0.41800 0.27250 0.28040 0.08100
C 	C 	0.41696 0.15048 0.36758 -0.01200
H 	H 	0.40910 0.17110 0.36040 0.03700
C 	C 	0.43625 0.09070 0.39083 -0.08300
H 	H 	0.44350 0.06980 0.39790 0.07300
N 	N 	0.35635 0.03532 0.42423 -0.04300
C 	C 	0.78198 0.12741 0.44487 -0.05400
C 	C 	0.81518 0.13064 0.43535 -0.00400
H 	H 	0.83410 0.11970 0.44280 0.07200
C 	C 	0.82004 0.15044 0.41439 -0.04000
C 	C 	0.77558 0.10364 0.46655 0.39000
N 	N 	0.72946 0.17975 0.40141 -0.08900
C 	C 	0.75906 0.16325 0.41351 0.09900
C 	C 	0.69674 0.16844 0.40126 -0.01400
H 	H 	0.68780 0.14890 0.40920 0.04100
C 	C 	0.67874 0.19191 0.38687 0.06600
N 	N 	0.70308 0.21570 0.37874 -0.07900
N 	N 	0.45083 0.32052 0.20893 -0.09400
C 	C 	0.47234 0.30266 0.22273 0.01300
H 	H 	0.49620 0.29940 0.22000 0.03500
C 	C 	0.45392 0.29009 0.24127 0.02800
N 	N 	0.41982 0.32060 0.21894 -0.04100
N 	N 	0.42097 0.30250 0.23866 -0.07300
O 	O 	0.80137 0.08819 0.47478 -0.48400
O 	O 	0.74480 0.10180 0.47446 -0.48900
C 	C 	0.48873 0.33795 0.17581 -0.08100
H 	H 	0.50710 0.32610 0.18330 0.08600
C 	C 	0.42802 0.35487 0.17549 -0.07600
H 	H 	0.40600 0.35410 0.18270 0.09200
C 	C 	0.45647 0.33845 0.18619 0.10600
C 	C 	0.46589 0.37278 0.14312 -0.00600
H 	H 	0.46930 0.38470 0.12860 0.07400
C 	C 	0.43336 0.37246 0.15369 -0.04500
C 	C 	0.49416 0.35526 0.15401 -0.04400
C 	C 	0.85593 0.15201 0.40208 0.36900
C 	C 	0.52881 0.35356 0.14123 0.36500
C 	C 	0.40216 0.38864 0.14121 0.37400
N 	N 	0.73370 0.20751 0.38742 -0.04100
O 	O 	0.53245 0.37225 0.12258 -0.46200
O 	O 	0.87959 0.13511 0.41310 -0.44800
O 	O 	0.85781 0.16890 0.38335 -0.46800
O 	O 	0.40925 0.40480 0.12199 -0.45000
O 	O 	0.55202 0.33486 0.15062 -0.45100
O 	O 	0.37357 0.38616 0.15141 -0.47100
H 	H 	0.63490 0.20310 0.39310 0.05700
C 	C 	0.74628 0.35535 0.93422 -0.07400
H 	H 	0.76850 0.35650 0.94120 0.07700
C 	C 	0.70770 0.33255 0.90362 -0.07500
H 	H 	0.70430 0.31850 0.89000 0.09200
C 	C 	0.85707 0.30849 0.87823 -0.05900
C 	C 	0.87863 0.33719 0.88291 -0.02300
H 	H 	0.87000 0.35740 0.89020 0.04100
C 	C 	0.87003 0.28230 0.86474 -0.01900
H 	H 	0.85580 0.26370 0.86020 0.05000
C 	C 	0.91362 0.33433 0.87621 -0.06500
H 	H 	0.92900 0.35140 0.88190 0.05300
C 	C 	0.90568 0.28320 0.85739 -0.06800
H 	H 	0.91450 0.26440 0.84860 0.05700
C 	C 	0.92661 0.30917 0.86237 0.01300
C 	C 	0.96343 0.30961 0.85370 0.07700
C 	C 	0.97312 0.28982 0.83339 -0.14900
H 	H 	0.95660 0.27620 0.82530 0.08500
C 	C 	0.98816 0.33198 0.86450 -0.14600
H 	H 	0.98140 0.34620 0.87740 0.08200
Zn	Zn	0.37169 0.42579 0.89787 1.22800
Zn	Zn	0.32949 0.40114 0.86382 1.22800
O 	O 	0.29577 0.38111 0.83598 -0.46300
H 	H 	0.30360 0.36250 0.83100 0.25800
O 	O 	0.40552 0.44667 0.92569 -0.45600
H 	H 	0.39980 0.46690 0.92870 0.25800
O 	O 	0.29248 0.41891 0.88471 -0.45100
O 	O 	0.28203 0.51902 0.97467 -0.48300
O 	O 	0.32835 0.44189 0.91243 -0.46800
O 	O 	0.22480 0.53259 0.97506 -0.48400
C 	C 	0.27297 0.47453 0.93623 -0.00500
H 	H 	0.29570 0.48020 0.94090 0.06800
C 	C 	0.29863 0.43689 0.90360 0.36200
N 	N 	0.17109 0.44657 0.91661 -0.09300
C 	C 	0.24477 0.48943 0.94818 -0.04900
C 	C 	0.25088 0.51661 0.96797 0.38600
C 	C 	0.21098 0.48053 0.94181 -0.07300
H 	H 	0.19200 0.49020 0.95000 0.08800
C 	C 	0.26737 0.45124 0.91736 -0.04400
C 	C 	0.10825 0.37376 0.87818 -0.09300
H 	H 	0.13200 0.37030 0.87520 0.06800
N 	N 	0.11579 0.44963 0.91600 -0.07700
C 	C 	0.03604 0.23031 0.76307 0.07000
C 	C 	0.23363 0.44196 0.91066 -0.07800
H 	H 	0.22980 0.42610 0.89810 0.08500
C 	C 	0.20580 0.45680 0.92300 0.10300
C 	C 	0.01784 0.26911 0.80391 -0.04600
C 	C 	0.02295 0.33314 0.85620 0.09900
C 	C 	0.03205 0.31223 0.83719 -0.16300
H 	H 	0.05520 0.31230 0.83190 0.09100
C 	C 	0.00480 0.24007 0.76649 -0.11200
H 	H 	0.98790 0.23430 0.75500 0.07500
C 	C 	0.15978 0.42039 0.90293 0.00400
H 	H 	0.17350 0.40350 0.89530 0.03800
C 	C 	0.00798 0.29079 0.82539 0.10100
C 	C 	0.09891 0.39905 0.89113 0.05200
C 	C 	0.03972 0.38650 0.87936 -0.01200
H 	H 	0.01610 0.39260 0.87960 0.03700
C 	C 	0.04888 0.35657 0.86810 -0.03300
C 	C 	0.05064 0.25790 0.80048 0.00600
H 	H 	0.06790 0.26430 0.81150 0.03100
C 	C 	0.12459 0.42288 0.90221 0.04000
C 	C 	0.99466 0.25917 0.78688 0.00900
H 	H 	0.97120 0.26520 0.78880 0.03100
C 	C 	0.05961 0.23710 0.78121 -0.10100
H 	H 	0.08200 0.22750 0.78040 0.08100
C 	C 	0.08304 0.34952 0.86758 -0.01200
H 	H 	0.09090 0.32890 0.86040 0.03700
C 	C 	0.06375 0.40930 0.89083 -0.08300
H 	H 	0.05650 0.43020 0.89790 0.07300
N 	N 	0.14365 0.46468 0.92423 -0.04300
C 	C 	0.71802 0.37259 0.94487 -0.05400
C 	C 	0.68482 0.36936 0.93535 -0.00400
H 	H 	0.66590 0.38030 0.94280 0.07200
C 	C 	0.67996 0.34956 0.91439 -0.04000
C 	C 	0.72442 0.39636 0.96655 0.39000
N 	N 	0.77054 0.32025 0.90141 -0.08900
C 	C 	0.74094 0.33675 0.91351 0.09900
C 	C 	0.80326 0.33156 0.90126 -0.01400
H 	H 	0.81220 0.35110 0.90920 0.04100
C 	C 	0.82126 0.30809 0.88687 0.06600
N 	N 	0.79692 0.28430 0.87874 -0.07900
N 	N 	0.04917 0.17948 0.70893 -0.09400
C 	C 	0.02766 0.19734 0.72273 0.01300
H 	H 	0.00380 0.20060 0.72000 0.03500
C 	C 	0.04608 0.20991 0.74127 0.02800
N 	N 	0.08018 0.17940 0.71894 -0.04100
N 	N 	0.07903 0.19750 0.73866 -0.07300
O 	O 	0.69863 0.41181 0.97478 -0.48300
O 	O 	0.75520 0.39820 0.97446 -0.48800
C 	C 	0.01127 0.16205 0.67581 -0.08100
H 	H 	0.99290 0.17390 0.68330 0.08600
C 	C 	0.07198 0.14513 0.67549 -0.07600
H 	H 	0.09400 0.14590 0.68270 0.09200
C 	C 	0.04353 0.16155 0.68619 0.10600
C 	C 	0.03411 0.12722 0.64312 -0.00600
H 	H 	0.03070 0.11530 0.62860 0.07400
C 	C 	0.06664 0.12754 0.65369 -0.04500
C 	C 	0.00584 0.14474 0.65401 -0.04400
C 	C 	0.64407 0.34799 0.90208 0.36900
C 	C 	0.97119 0.14644 0.64123 0.36500
C 	C 	0.09784 0.11136 0.64121 0.37400
N 	N 	0.76630 0.29249 0.88742 -0.04100
O 	O 	0.96755 0.12775 0.62258 -0.46200
O 	O 	0.62041 0.36489 0.91310 -0.44800
O 	O 	0.64219 0.33110 0.88335 -0.46800
O 	O 	0.09075 0.09520 0.62199 -0.45000
O 	O 	0.94798 0.16514 0.65062 -0.45100
O 	O 	0.12643 0.11384 0.65141 -0.47100
H 	H 	0.86510 0.29690 0.89310 0.05700
C 	C 	0.24628 0.85535 0.43422 -0.07400
H 	H 	0.26850 0.85650 0.44120 0.07700
C 	C 	0.20770 0.83255 0.40362 -0.07500
H 	H 	0.20430 0.81850 0.39000 0.09200
C 	C 	0.35707 0.80849 0.37823 -0.05900
C 	C 	0.37863 0.83719 0.38291 -0.02300
H 	H 	0.37000 0.85740 0.39020 0.04100
C 	C 	0.37003 0.78230 0.36474 -0.01900
H 	H 	0.35580 0.76370 0.36020 0.05000
C 	C 	0.41362 0.83433 0.37621 -0.06500
H 	H 	0.42900 0.85140 0.38190 0.05300
C 	C 	0.40568 0.78320 0.35739 -0.06800
H 	H 	0.41450 0.76440 0.34860 0.05700
C 	C 	0.42661 0.80917 0.36237 0.01300
C 	C 	0.46343 0.80961 0.35370 0.07700
C 	C 	0.47312 0.78982 0.33339 -0.14900
H 	H 	0.45660 0.77620 0.32530 0.08500
C 	C 	0.48816 0.83198 0.36450 -0.14600
H 	H 	0.48140 0.84620 0.37740 0.08200
Zn	Zn	0.87169 0.92579 0.39787 1.22800
Zn	Zn	0.82949 0.90114 0.36382 1.22800
O 	O 	0.79577 0.88111 0.33598 -0.46300
H 	H 	0.80360 0.86250 0.33100 0.25800
O 	O 	0.90552 0.94667 0.42569 -0.45600
H 	H 	0.89980 0.96690 0.42870 0.25800
O 	O 	0.79248 0.91891 0.38471 -0.45100
O 	O 	0.78203 0.01902 0.47467 -0.48300
O 	O 	0.82835 0.94189 0.41243 -0.46800
O 	O 	0.72480 0.03259 0.47506 -0.48500
C 	C 	0.77297 0.97453 0.43623 -0.00500
H 	H 	0.79570 0.98020 0.44090 0.06800
C 	C 	0.79863 0.93689 0.40360 0.36200
N 	N 	0.67109 0.94657 0.41661 -0.09300
C 	C 	0.74477 0.98943 0.44818 -0.04900
C 	C 	0.75088 0.01661 0.46797 0.38600
C 	C 	0.71098 0.98053 0.44181 -0.07300
H 	H 	0.69200 0.99020 0.45000 0.08800
C 	C 	0.76737 0.95124 0.41736 -0.04400
C 	C 	0.60825 0.87376 0.37818 -0.09300
H 	H 	0.63200 0.87030 0.37520 0.06800
N 	N 	0.61579 0.94963 0.41600 -0.07700
C 	C 	0.53604 0.73031 0.26307 0.07000
C 	C 	0.73363 0.94196 0.41066 -0.07800
H 	H 	0.72980 0.92610 0.39810 0.08500
C 	C 	0.70580 0.95680 0.42300 0.10300
C 	C 	0.51784 0.76911 0.30391 -0.04600
C 	C 	0.52295 0.83314 0.35620 0.09900
C 	C 	0.53205 0.81223 0.33719 -0.16300
H 	H 	0.55520 0.81230 0.33190 0.09100
C 	C 	0.50480 0.74007 0.26649 -0.11200
H 	H 	0.48790 0.73430 0.25500 0.07500
C 	C 	0.65978 0.92039 0.40293 0.00400
H 	H 	0.67350 0.90350 0.39530 0.03800
C 	C 	0.50798 0.79079 0.32539 0.10100
C 	C 	0.59891 0.89905 0.39113 0.05200
C 	C 	0.53972 0.88650 0.37936 -0.01200
H 	H 	0.51610 0.89260 0.37960 0.03700
C 	C 	0.54888 0.85657 0.36810 -0.03300
C 	C 	0.55064 0.75790 0.30048 0.00600
H 	H 	0.56790 0.76430 0.31150 0.03100
C 	C 	0.62459 0.92288 0.40221 0.04000
C 	C 	0.49466 0.75917 0.28688 0.00900
H 	H 	0.47120 0.76520 0.28880 0.03100
C 	C 	0.55961 0.73710 0.28121 -0.10100
H 	H 	0.58200 0.72750 0.28040 0.08100
C 	C 	0.58304 0.84952 0.36758 -0.01200
H 	H 	0.59090 0.82890 0.36040 0.03700
C 	C 	0.56375 0.90930 0.39083 -0.08300
H 	H 	0.55650 0.93020 0.39790 0.07300
N 	N 	0.64365 0.96468 0.42423 -0.04300
C 	C 	0.21802 0.87259 0.44487 -0.05400
C 	C 	0.18482 0.86936 0.43535 -0.00400
H 	H 	0.16590 0.88030 0.44280 0.07200
C 	C 	0.17996 0.84956 0.41439 -0.04000
C 	C 	0.22442 0.89636 0.46655 0.39000
N 	N 	0.27054 0.82025 0.40141 -0.08900
C 	C 	0.24094 0.83675 0.41351 0.09900
C 	C 	0.30326 0.83156 0.40126 -0.01400
H 	H 	0.31220 0.85110 0.40920 0.04100
C 	C 	0.32126 0.80809 0.38687 0.06600
N 	N 	0.29692 0.78430 0.37874 -0.07900
N 	N 	0.54917 0.67948 0.20893 -0.09400
C 	C 	0.52766 0.69734 0.22273 0.01300
H 	H 	0.50380 0.70060 0.22000 0.03500
C 	C 	0.54608 0.70991 0.24127 0.02800
N 	N 	0.58018 0.67940 0.21894 -0.04100
N 	N 	0.57903 0.69750 0.23866 -0.07300
O 	O 	0.19863 0.91181 0.47478 -0.48400
O 	O 	0.25520 0.89820 0.47446 -0.48900
C 	C 	0.51127 0.66205 0.17581 -0.08100
H 	H 	0.49290 0.67390 0.18330 0.08600
C 	C 	0.57198 0.64513 0.17549 -0.07600
H 	H 	0.59400 0.64590 0.18270 0.09200
C 	C 	0.54353 0.66155 0.18619 0.10600
C 	C 	0.53411 0.62722 0.14312 -0.00600
H 	H 	0.53070 0.61530 0.12860 0.07400
C 	C 	0.56664 0.62754 0.15369 -0.04500
C 	C 	0.50584 0.64474 0.15401 -0.04400
C 	C 	0.14407 0.84799 0.40208 0.36900
C 	C 	0.47119 0.64644 0.14123 0.36500
C 	C 	0.59784 0.61136 0.14121 0.37400
N 	N 	0.26630 0.79249 0.38742 -0.04100
O 	O 	0.46755 0.62775 0.12258 -0.46200
O 	O 	0.12041 0.86489 0.41310 -0.44800
O 	O 	0.14219 0.83110 0.38335 -0.46800
O 	O 	0.59075 0.59520 0.12199 -0.45000
O 	O 	0.44798 0.66514 0.15062 -0.45100
O 	O 	0.62643 0.61384 0.15141 -0.47100
H 	H 	0.36510 0.79690 0.39310 0.05700
Zn	Zn	0.55223 0.70299 -0.00000 1.20500
Zn	Zn	0.56930 0.77028 -0.00000 1.20300
Zn	Zn	0.05223 0.20299 0.50000 1.20600
Zn	Zn	0.06930 0.27028 0.50000 1.20400
Zn	Zn	0.44777 0.29701 -0.00000 1.20500
Zn	Zn	0.43070 0.22972 -0.00000 1.20300
Zn	Zn	0.94777 0.79701 0.50000 1.20600
Zn	Zn	0.93070 0.72972 0.50000 1.20400
Zn	Zn	0.29701 0.55223 -0.00000 1.20500
Zn	Zn	0.22972 0.56930 -0.00000 1.20300
Zn	Zn	0.79701 0.05223 0.50000 1.20600
Zn	Zn	0.72972 0.06930 0.50000 1.20400
Zn	Zn	0.70299 0.44777 -0.00000 1.20500
Zn	Zn	0.77028 0.43070 -0.00000 1.20300
Zn	Zn	0.20299 0.94777 0.50000 1.20600
Zn	Zn	0.27028 0.93070 0.50000 1.20400
