data_crystal

_cell_length_a 35.90960
_cell_length_b 35.90960
_cell_length_c 51.35330
_cell_angle_alpha 90.00000
_cell_angle_beta  90.00000
_cell_angle_gamma 90.00000

_symmetry_space_group_name_	'P 1'
_symmetry_space_group_name_H-M	'P 1'

loop_
_symmetry_equiv_pos_as_xyz
  x,y,z

loop_
_atom_site_label
_atom_site_type_symbol
_atom_site_fract_x
_atom_site_fract_y
_atom_site_fract_z
_atom_site_charge
Zn	Zn	0.91608 0.13276 0.39014 1.23000
Zn	Zn	0.88789 0.17682 0.35366 1.23000
O 	O 	0.94175 0.09911 0.41974 -0.45500
H 	H 	0.92940 0.08010 0.42190 0.25600
O 	O 	0.86475 0.21152 0.32397 -0.45800
H 	H 	0.84340 0.20470 0.32070 0.25600
O 	O 	0.72551 0.09627 0.47271 -0.49400
O 	O 	0.86695 0.13827 0.40666 -0.46100
O 	O 	0.78637 0.08453 0.47307 -0.48000
O 	O 	0.84242 0.17294 0.37482 -0.47300
C 	C 	0.73264 0.14274 0.43001 -0.07100
H 	H 	0.70900 0.13970 0.43710 0.07800
C 	C 	0.76346 0.12566 0.44100 -0.05300
C 	C 	0.75759 0.09949 0.46408 0.38900
C 	C 	0.79890 0.13035 0.43054 0.00100
H 	H 	0.81940 0.11910 0.43840 0.06900
N 	N 	0.70601 0.18089 0.39542 -0.08700
C 	C 	0.80342 0.15200 0.40824 -0.04700
C 	C 	0.84104 0.15444 0.39477 0.38200
C 	C 	0.77265 0.16916 0.39679 -0.07100
H 	H 	0.77540 0.18350 0.38180 0.09100
C 	C 	0.73821 0.16447 0.40810 0.09900
C 	C 	0.67137 0.16826 0.39490 -0.02100
H 	H 	0.66230 0.14660 0.40250 0.04600
N 	N 	0.70935 0.21459 0.38378 -0.04000
C 	C 	0.65216 0.19376 0.38094 0.08000
C 	C 	0.61299 0.19537 0.37300 -0.06000
N 	N 	0.67609 0.22199 0.37511 -0.07800
C 	C 	0.59208 0.16494 0.37445 0.05400
H 	H 	0.60240 0.14330 0.38120 0.01700
C 	C 	0.59629 0.22800 0.36555 0.05100
H 	H 	0.60910 0.25050 0.36600 0.02900
C 	C 	0.55961 0.22620 0.35728 -0.18300
H 	H 	0.54840 0.24810 0.35160 0.10400
C 	C 	0.55515 0.16450 0.36607 -0.19300
H 	H 	0.54160 0.14250 0.36690 0.10500
C 	C 	0.53920 0.19480 0.35699 0.18000
N 	N 	0.50096 0.19555 0.34915 -0.20500
C 	C 	0.49024 0.21600 0.32718 0.21800
C 	C 	0.51081 0.22050 0.30684 -0.23100
H 	H 	0.53420 0.20930 0.30700 0.11900
C 	C 	0.45909 0.23600 0.32770 -0.21600
H 	H 	0.44370 0.23530 0.34220 0.11600
C 	C 	0.47486 0.17320 0.36231 0.19000
C 	C 	0.44448 0.16230 0.35237 -0.19900
H 	H 	0.43910 0.17020 0.33550 0.10700
C 	C 	0.50128 0.24055 0.28459 0.09300
H 	H 	0.51730 0.24120 0.27040 0.00500
C 	C 	0.47033 0.25800 0.28398 -0.08900
C 	C 	0.44949 0.25840 0.30607 0.07700
H 	H 	0.42860 0.27360 0.30700 0.02200
C 	C 	0.42180 0.13060 0.38851 -0.05000
C 	C 	0.41790 0.13900 0.36481 0.05300
H 	H 	0.39760 0.12990 0.35550 0.01900
C 	C 	0.44821 0.15110 0.40325 0.03500
H 	H 	0.44700 0.15270 0.42130 0.03500
C 	C 	0.47675 0.16930 0.38851 -0.17200
H 	H 	0.49730 0.17880 0.39730 0.10000
N 	N 	0.45571 0.31126 0.22565 -0.08800
C 	C 	0.47778 0.29141 0.24020 -0.02300
H 	H 	0.50230 0.28540 0.23620 0.05100
C 	C 	0.46015 0.28120 0.26141 0.09300
N 	N 	0.34570 0.07812 0.41558 -0.09000
C 	C 	0.35887 0.09842 0.39647 -0.01600
H 	H 	0.34590 0.10560 0.38160 0.04800
N 	N 	0.37042 0.07851 0.43605 -0.04200
N 	N 	0.40023 0.09680 0.42730 -0.07700
C 	C 	0.39330 0.10690 0.40186 0.07500
N 	N 	0.42505 0.31700 0.23890 -0.03900
N 	N 	0.42718 0.29850 0.26039 -0.08100
C 	C 	0.50001 0.34656 0.16549 -0.05000
C 	C 	0.49564 0.32914 0.18984 -0.07200
H 	H 	0.51580 0.31810 0.19820 0.08400
C 	C 	0.43010 0.34464 0.18920 -0.07600
H 	H 	0.40670 0.34330 0.19700 0.09300
C 	C 	0.46036 0.32883 0.20106 0.10400
C 	C 	0.23930 0.03748 0.43141 -0.00900
H 	H 	0.21540 0.02980 0.43590 0.07300
C 	C 	0.24450 0.06255 0.41146 -0.04200
C 	C 	0.27019 0.02360 0.44490 -0.04300
C 	C 	0.27950 0.07572 0.40577 -0.07700
H 	H 	0.28300 0.09290 0.39240 0.08500
C 	C 	0.30497 0.03642 0.43926 -0.07600
H 	H 	0.32550 0.02720 0.44830 0.09000
C 	C 	0.30968 0.06289 0.42028 0.10500
C 	C 	0.40108 0.37895 0.15198 0.37200
C 	C 	0.53688 0.34587 0.15170 0.38100
C 	C 	0.46951 0.36334 0.15403 -0.00200
H 	H 	0.47240 0.37540 0.13810 0.07200
C 	C 	0.43451 0.36260 0.16569 -0.04500
C 	C 	0.21112 0.07598 0.39629 0.36600
C 	C 	0.26418 0.99394 0.46578 0.38400
O 	O 	0.53995 0.36580 0.13224 -0.46300
O 	O 	0.40817 0.39561 0.13110 -0.46000
O 	O 	0.56226 0.32668 0.16167 -0.45500
O 	O 	0.37066 0.37440 0.16279 -0.46800
O 	O 	0.17973 0.06860 0.40553 -0.45700
O 	O 	0.21716 0.09485 0.37622 -0.45200
O 	O 	0.23155 0.99026 0.47299 -0.48100
O 	O 	0.29292 0.97833 0.47344 -0.47900
Zn	Zn	0.41608 0.63276 0.89014 1.22900
Zn	Zn	0.38789 0.67682 0.85366 1.22900
O 	O 	0.44175 0.59911 0.91974 -0.45500
H 	H 	0.42940 0.58010 0.92190 0.25500
O 	O 	0.36475 0.71152 0.82397 -0.45900
H 	H 	0.34340 0.70470 0.82070 0.25500
O 	O 	0.22551 0.59627 0.97271 -0.49400
O 	O 	0.36695 0.63827 0.90666 -0.46200
O 	O 	0.28637 0.58453 0.97307 -0.48100
O 	O 	0.34242 0.67294 0.87482 -0.47400
C 	C 	0.23264 0.64274 0.93001 -0.07200
H 	H 	0.20900 0.63970 0.93710 0.07700
C 	C 	0.26346 0.62566 0.94100 -0.05300
C 	C 	0.25759 0.59949 0.96408 0.38800
C 	C 	0.29890 0.63035 0.93054 -0.00100
H 	H 	0.31940 0.61910 0.93840 0.06800
N 	N 	0.20601 0.68089 0.89542 -0.08800
C 	C 	0.30342 0.65200 0.90824 -0.04800
C 	C 	0.34104 0.65444 0.89477 0.38100
C 	C 	0.27265 0.66916 0.89679 -0.07200
H 	H 	0.27540 0.68350 0.88180 0.09000
C 	C 	0.23821 0.66447 0.90810 0.09800
C 	C 	0.17137 0.66826 0.89490 -0.02200
H 	H 	0.16230 0.64660 0.90250 0.04500
N 	N 	0.20935 0.71459 0.88378 -0.04100
C 	C 	0.15216 0.69376 0.88094 0.07900
C 	C 	0.11299 0.69537 0.87300 -0.06100
N 	N 	0.17609 0.72199 0.87511 -0.07900
C 	C 	0.09208 0.66494 0.87445 0.05300
H 	H 	0.10240 0.64330 0.88120 0.01600
C 	C 	0.09629 0.72800 0.86555 0.05000
H 	H 	0.10910 0.75050 0.86600 0.02800
C 	C 	0.05961 0.72620 0.85728 -0.18400
H 	H 	0.04840 0.74810 0.85160 0.10300
C 	C 	0.05515 0.66450 0.86607 -0.19300
H 	H 	0.04160 0.64250 0.86690 0.10400
C 	C 	0.03920 0.69480 0.85699 0.17900
N 	N 	0.00096 0.69555 0.84915 -0.20600
C 	C 	0.99024 0.71600 0.82718 0.21700
C 	C 	0.01081 0.72050 0.80684 -0.23200
H 	H 	0.03420 0.70930 0.80700 0.11800
C 	C 	0.95909 0.73600 0.82770 -0.21700
H 	H 	0.94370 0.73530 0.84220 0.11500
C 	C 	0.97486 0.67320 0.86231 0.18900
C 	C 	0.94448 0.66230 0.85237 -0.20000
H 	H 	0.93910 0.67020 0.83550 0.10600
C 	C 	0.00128 0.74055 0.78459 0.09200
H 	H 	0.01730 0.74120 0.77040 0.00400
C 	C 	0.97033 0.75800 0.78398 -0.09000
C 	C 	0.94949 0.75840 0.80607 0.07600
H 	H 	0.92860 0.77360 0.80700 0.02100
C 	C 	0.92180 0.63060 0.88851 -0.05100
C 	C 	0.91790 0.63900 0.86481 0.05100
H 	H 	0.89760 0.62990 0.85550 0.01800
C 	C 	0.94821 0.65110 0.90325 0.03400
H 	H 	0.94700 0.65270 0.92130 0.03500
C 	C 	0.97675 0.66930 0.88851 -0.17300
H 	H 	0.99730 0.67880 0.89730 0.09900
N 	N 	0.95571 0.81126 0.72565 -0.08900
C 	C 	0.97778 0.79141 0.74020 -0.02400
H 	H 	0.00230 0.78540 0.73620 0.05000
C 	C 	0.96015 0.78120 0.76141 0.09200
N 	N 	0.84570 0.57812 0.91558 -0.09100
C 	C 	0.85887 0.59842 0.89647 -0.01600
H 	H 	0.84590 0.60560 0.88160 0.04700
N 	N 	0.87042 0.57851 0.93605 -0.04300
N 	N 	0.90023 0.59680 0.92730 -0.07800
C 	C 	0.89330 0.60690 0.90186 0.07400
N 	N 	0.92505 0.81700 0.73890 -0.04000
N 	N 	0.92718 0.79850 0.76039 -0.08200
C 	C 	0.00001 0.84656 0.66549 -0.05100
C 	C 	0.99564 0.82914 0.68984 -0.07300
H 	H 	0.01580 0.81810 0.69820 0.08400
C 	C 	0.93010 0.84464 0.68920 -0.07600
H 	H 	0.90670 0.84330 0.69700 0.09300
C 	C 	0.96036 0.82883 0.70106 0.10400
C 	C 	0.73930 0.53748 0.93141 -0.00900
H 	H 	0.71540 0.52980 0.93590 0.07300
C 	C 	0.74450 0.56255 0.91146 -0.04200
C 	C 	0.77019 0.52360 0.94490 -0.04300
C 	C 	0.77950 0.57572 0.90577 -0.07700
H 	H 	0.78300 0.59290 0.89240 0.08500
C 	C 	0.80497 0.53642 0.93926 -0.07600
H 	H 	0.82550 0.52720 0.94830 0.09000
C 	C 	0.80968 0.56289 0.92028 0.10500
C 	C 	0.90108 0.87895 0.65198 0.37200
C 	C 	0.03688 0.84587 0.65170 0.38100
C 	C 	0.96951 0.86334 0.65403 -0.00200
H 	H 	0.97240 0.87540 0.63810 0.07200
C 	C 	0.93451 0.86260 0.66569 -0.04500
C 	C 	0.71112 0.57598 0.89629 0.36600
C 	C 	0.76418 0.49394 0.96578 0.38400
O 	O 	0.03995 0.86580 0.63224 -0.46300
O 	O 	0.90817 0.89561 0.63110 -0.46000
O 	O 	0.06226 0.82668 0.66167 -0.45500
O 	O 	0.87066 0.87440 0.66279 -0.46800
O 	O 	0.67973 0.56860 0.90553 -0.45700
O 	O 	0.71716 0.59485 0.87622 -0.45200
O 	O 	0.73155 0.49026 0.97299 -0.48000
O 	O 	0.79292 0.47833 0.97344 -0.47800
Zn	Zn	0.08392 0.86724 0.39014 1.22900
Zn	Zn	0.11211 0.82318 0.35366 1.22900
O 	O 	0.05825 0.90089 0.41974 -0.45600
H 	H 	0.07060 0.91990 0.42190 0.25500
O 	O 	0.13525 0.78848 0.32397 -0.45900
H 	H 	0.15660 0.79530 0.32070 0.25500
O 	O 	0.27449 0.90373 0.47271 -0.49500
O 	O 	0.13305 0.86173 0.40666 -0.46200
O 	O 	0.21363 0.91547 0.47307 -0.48100
O 	O 	0.15758 0.82706 0.37482 -0.47400
C 	C 	0.26736 0.85726 0.43001 -0.07200
H 	H 	0.29100 0.86030 0.43710 0.07700
C 	C 	0.23654 0.87434 0.44100 -0.05400
C 	C 	0.24241 0.90051 0.46408 0.38800
C 	C 	0.20110 0.86965 0.43054 -0.00000
H 	H 	0.18060 0.88090 0.43840 0.06800
N 	N 	0.29399 0.81911 0.39542 -0.08800
C 	C 	0.19658 0.84800 0.40824 -0.04800
C 	C 	0.15896 0.84556 0.39477 0.38100
C 	C 	0.22735 0.83084 0.39679 -0.07200
H 	H 	0.22460 0.81650 0.38180 0.09000
C 	C 	0.26179 0.83553 0.40810 0.09800
C 	C 	0.32863 0.83174 0.39490 -0.02200
H 	H 	0.33770 0.85340 0.40250 0.04500
N 	N 	0.29065 0.78541 0.38378 -0.04100
C 	C 	0.34784 0.80624 0.38094 0.07900
C 	C 	0.38701 0.80463 0.37300 -0.06100
N 	N 	0.32391 0.77801 0.37511 -0.07900
C 	C 	0.40792 0.83506 0.37445 0.05300
H 	H 	0.39760 0.85670 0.38120 0.01600
C 	C 	0.40371 0.77200 0.36555 0.05000
H 	H 	0.39090 0.74950 0.36600 0.02800
C 	C 	0.44039 0.77380 0.35728 -0.18400
H 	H 	0.45160 0.75190 0.35160 0.10300
C 	C 	0.44485 0.83550 0.36607 -0.19400
H 	H 	0.45840 0.85750 0.36690 0.10400
C 	C 	0.46080 0.80520 0.35699 0.17900
N 	N 	0.49904 0.80445 0.34915 -0.20600
C 	C 	0.50976 0.78400 0.32718 0.21700
C 	C 	0.48919 0.77950 0.30684 -0.23200
H 	H 	0.46580 0.79070 0.30700 0.11800
C 	C 	0.54091 0.76400 0.32770 -0.21700
H 	H 	0.55630 0.76470 0.34220 0.11500
C 	C 	0.52514 0.82680 0.36231 0.18900
C 	C 	0.55552 0.83770 0.35237 -0.20000
H 	H 	0.56090 0.82980 0.33550 0.10600
C 	C 	0.49872 0.75945 0.28459 0.09200
H 	H 	0.48270 0.75880 0.27040 0.00400
C 	C 	0.52967 0.74200 0.28398 -0.09000
C 	C 	0.55051 0.74160 0.30607 0.07600
H 	H 	0.57140 0.72640 0.30700 0.02100
C 	C 	0.57820 0.86940 0.38851 -0.05100
C 	C 	0.58210 0.86100 0.36481 0.05200
H 	H 	0.60240 0.87010 0.35550 0.01800
C 	C 	0.55179 0.84890 0.40325 0.03400
H 	H 	0.55300 0.84730 0.42130 0.03400
C 	C 	0.52325 0.83070 0.38851 -0.17300
H 	H 	0.50270 0.82120 0.39730 0.09900
N 	N 	0.54429 0.68874 0.22565 -0.08900
C 	C 	0.52222 0.70859 0.24020 -0.02400
H 	H 	0.49770 0.71460 0.23620 0.05000
C 	C 	0.53985 0.71880 0.26141 0.09200
N 	N 	0.65430 0.92188 0.41558 -0.09100
C 	C 	0.64113 0.90158 0.39647 -0.01700
H 	H 	0.65410 0.89440 0.38160 0.04700
N 	N 	0.62958 0.92149 0.43605 -0.04300
N 	N 	0.59977 0.90320 0.42730 -0.07800
C 	C 	0.60670 0.89310 0.40186 0.07400
N 	N 	0.57495 0.68300 0.23890 -0.04000
N 	N 	0.57282 0.70150 0.26039 -0.08200
C 	C 	0.49999 0.65344 0.16549 -0.05100
C 	C 	0.50436 0.67086 0.18984 -0.07300
H 	H 	0.48420 0.68190 0.19820 0.08400
C 	C 	0.56990 0.65536 0.18920 -0.07600
H 	H 	0.59330 0.65670 0.19700 0.09300
C 	C 	0.53964 0.67117 0.20106 0.10400
C 	C 	0.76070 0.96252 0.43141 -0.00900
H 	H 	0.78460 0.97020 0.43590 0.07300
C 	C 	0.75550 0.93745 0.41146 -0.04200
C 	C 	0.72981 0.97640 0.44490 -0.04300
C 	C 	0.72050 0.92428 0.40577 -0.07700
H 	H 	0.71700 0.90710 0.39240 0.08500
C 	C 	0.69503 0.96358 0.43926 -0.07600
H 	H 	0.67450 0.97280 0.44830 0.09000
C 	C 	0.69032 0.93711 0.42028 0.10500
C 	C 	0.59892 0.62105 0.15198 0.37200
C 	C 	0.46312 0.65413 0.15170 0.38100
C 	C 	0.53049 0.63666 0.15403 -0.00200
H 	H 	0.52760 0.62460 0.13810 0.07200
C 	C 	0.56549 0.63740 0.16569 -0.04500
C 	C 	0.78888 0.92402 0.39629 0.36600
C 	C 	0.73582 0.00606 0.46578 0.38400
O 	O 	0.46005 0.63420 0.13224 -0.46300
O 	O 	0.59183 0.60439 0.13110 -0.46000
O 	O 	0.43774 0.67332 0.16167 -0.45500
O 	O 	0.62934 0.62560 0.16279 -0.46800
O 	O 	0.82027 0.93140 0.40553 -0.45700
O 	O 	0.78284 0.90515 0.37622 -0.45200
O 	O 	0.76845 0.00974 0.47299 -0.48100
O 	O 	0.70708 0.02167 0.47344 -0.47900
Zn	Zn	0.58392 0.36724 0.89014 1.22900
Zn	Zn	0.61211 0.32318 0.85366 1.22900
O 	O 	0.55825 0.40089 0.91974 -0.45500
H 	H 	0.57060 0.41990 0.92190 0.25500
O 	O 	0.63525 0.28848 0.82397 -0.45900
H 	H 	0.65660 0.29530 0.82070 0.25500
O 	O 	0.77449 0.40373 0.97271 -0.49400
O 	O 	0.63305 0.36173 0.90666 -0.46200
O 	O 	0.71363 0.41547 0.97307 -0.48100
O 	O 	0.65758 0.32706 0.87482 -0.47400
C 	C 	0.76736 0.35726 0.93001 -0.07200
H 	H 	0.79100 0.36030 0.93710 0.07700
C 	C 	0.73654 0.37434 0.94100 -0.05300
C 	C 	0.74241 0.40051 0.96408 0.38800
C 	C 	0.70110 0.36965 0.93054 -0.00100
H 	H 	0.68060 0.38090 0.93840 0.06800
N 	N 	0.79399 0.31911 0.89542 -0.08800
C 	C 	0.69658 0.34800 0.90824 -0.04800
C 	C 	0.65896 0.34556 0.89477 0.38100
C 	C 	0.72735 0.33084 0.89679 -0.07200
H 	H 	0.72460 0.31650 0.88180 0.09000
C 	C 	0.76179 0.33553 0.90810 0.09800
C 	C 	0.82863 0.33174 0.89490 -0.02200
H 	H 	0.83770 0.35340 0.90250 0.04500
N 	N 	0.79065 0.28541 0.88378 -0.04100
C 	C 	0.84784 0.30624 0.88094 0.07900
C 	C 	0.88701 0.30463 0.87300 -0.06100
N 	N 	0.82391 0.27801 0.87511 -0.07900
C 	C 	0.90792 0.33506 0.87445 0.05300
H 	H 	0.89760 0.35670 0.88120 0.01600
C 	C 	0.90371 0.27200 0.86555 0.05000
H 	H 	0.89090 0.24950 0.86600 0.02800
C 	C 	0.94039 0.27380 0.85728 -0.18400
H 	H 	0.95160 0.25190 0.85160 0.10300
C 	C 	0.94485 0.33550 0.86607 -0.19300
H 	H 	0.95840 0.35750 0.86690 0.10400
C 	C 	0.96080 0.30520 0.85699 0.17900
N 	N 	0.99904 0.30445 0.84915 -0.20600
C 	C 	0.00976 0.28400 0.82718 0.21700
C 	C 	0.98919 0.27950 0.80684 -0.23200
H 	H 	0.96580 0.29070 0.80700 0.11800
C 	C 	0.04091 0.26400 0.82770 -0.21700
H 	H 	0.05630 0.26470 0.84220 0.11500
C 	C 	0.02514 0.32680 0.86231 0.18900
C 	C 	0.05552 0.33770 0.85237 -0.20000
H 	H 	0.06090 0.32980 0.83550 0.10600
C 	C 	0.99872 0.25945 0.78459 0.09200
H 	H 	0.98270 0.25880 0.77040 0.00400
C 	C 	0.02967 0.24200 0.78398 -0.09000
C 	C 	0.05051 0.24160 0.80607 0.07600
H 	H 	0.07140 0.22640 0.80700 0.02100
C 	C 	0.07820 0.36940 0.88851 -0.05100
C 	C 	0.08210 0.36100 0.86481 0.05100
H 	H 	0.10240 0.37010 0.85550 0.01800
C 	C 	0.05179 0.34890 0.90325 0.03400
H 	H 	0.05300 0.34730 0.92130 0.03500
C 	C 	0.02325 0.33070 0.88851 -0.17300
H 	H 	0.00270 0.32120 0.89730 0.09900
N 	N 	0.04429 0.18874 0.72565 -0.08900
C 	C 	0.02222 0.20859 0.74020 -0.02400
H 	H 	0.99770 0.21460 0.73620 0.05000
C 	C 	0.03985 0.21880 0.76141 0.09200
N 	N 	0.15430 0.42188 0.91558 -0.09100
C 	C 	0.14113 0.40158 0.89647 -0.01600
H 	H 	0.15410 0.39440 0.88160 0.04700
N 	N 	0.12958 0.42149 0.93605 -0.04300
N 	N 	0.09977 0.40320 0.92730 -0.07800
C 	C 	0.10670 0.39310 0.90186 0.07400
N 	N 	0.07495 0.18300 0.73890 -0.04000
N 	N 	0.07282 0.20150 0.76039 -0.08200
C 	C 	0.99999 0.15344 0.66549 -0.05100
C 	C 	0.00436 0.17086 0.68984 -0.07300
H 	H 	0.98420 0.18190 0.69820 0.08400
C 	C 	0.06990 0.15536 0.68920 -0.07600
H 	H 	0.09330 0.15670 0.69700 0.09300
C 	C 	0.03964 0.17117 0.70106 0.10400
C 	C 	0.26070 0.46252 0.93141 -0.00900
H 	H 	0.28460 0.47020 0.93590 0.07300
C 	C 	0.25550 0.43745 0.91146 -0.04200
C 	C 	0.22981 0.47640 0.94490 -0.04300
C 	C 	0.22050 0.42428 0.90577 -0.07700
H 	H 	0.21700 0.40710 0.89240 0.08500
C 	C 	0.19503 0.46358 0.93926 -0.07600
H 	H 	0.17450 0.47280 0.94830 0.09000
C 	C 	0.19032 0.43711 0.92028 0.10500
C 	C 	0.09892 0.12105 0.65198 0.37200
C 	C 	0.96312 0.15413 0.65170 0.38100
C 	C 	0.03049 0.13666 0.65403 -0.00200
H 	H 	0.02760 0.12460 0.63810 0.07200
C 	C 	0.06549 0.13740 0.66569 -0.04500
C 	C 	0.28888 0.42402 0.89629 0.36600
C 	C 	0.23582 0.50606 0.96578 0.38400
O 	O 	0.96005 0.13420 0.63224 -0.46300
O 	O 	0.09183 0.10439 0.63110 -0.46000
O 	O 	0.93774 0.17332 0.66167 -0.45500
O 	O 	0.12934 0.12560 0.66279 -0.46800
O 	O 	0.32027 0.43140 0.90553 -0.45700
O 	O 	0.28284 0.40515 0.87622 -0.45200
O 	O 	0.26845 0.50974 0.97299 -0.48000
O 	O 	0.20708 0.52167 0.97344 -0.47800
Zn	Zn	0.86724 0.91608 0.39014 1.22900
Zn	Zn	0.82318 0.88789 0.35366 1.22900
O 	O 	0.90089 0.94175 0.41974 -0.45600
H 	H 	0.91990 0.92940 0.42190 0.25500
O 	O 	0.78848 0.86475 0.32397 -0.45900
H 	H 	0.79530 0.84340 0.32070 0.25500
O 	O 	0.90373 0.72551 0.47271 -0.49500
O 	O 	0.86173 0.86695 0.40666 -0.46200
O 	O 	0.91547 0.78637 0.47307 -0.48100
O 	O 	0.82706 0.84242 0.37482 -0.47400
C 	C 	0.85726 0.73264 0.43001 -0.07200
H 	H 	0.86030 0.70900 0.43710 0.07700
C 	C 	0.87434 0.76346 0.44100 -0.05400
C 	C 	0.90051 0.75759 0.46408 0.38800
C 	C 	0.86965 0.79890 0.43054 -0.00000
H 	H 	0.88090 0.81940 0.43840 0.06800
N 	N 	0.81911 0.70601 0.39542 -0.08800
C 	C 	0.84800 0.80342 0.40824 -0.04800
C 	C 	0.84556 0.84104 0.39477 0.38100
C 	C 	0.83084 0.77265 0.39679 -0.07200
H 	H 	0.81650 0.77540 0.38180 0.09000
C 	C 	0.83553 0.73821 0.40810 0.09800
C 	C 	0.83174 0.67137 0.39490 -0.02200
H 	H 	0.85340 0.66230 0.40250 0.04500
N 	N 	0.78541 0.70935 0.38378 -0.04100
C 	C 	0.80624 0.65216 0.38094 0.07900
C 	C 	0.80463 0.61299 0.37300 -0.06100
N 	N 	0.77801 0.67609 0.37511 -0.07900
C 	C 	0.83506 0.59208 0.37445 0.05300
H 	H 	0.85670 0.60240 0.38120 0.01600
C 	C 	0.77200 0.59629 0.36555 0.05000
H 	H 	0.74950 0.60910 0.36600 0.02800
C 	C 	0.77380 0.55961 0.35728 -0.18400
H 	H 	0.75190 0.54840 0.35160 0.10300
C 	C 	0.83550 0.55515 0.36607 -0.19400
H 	H 	0.85750 0.54160 0.36690 0.10400
C 	C 	0.80520 0.53920 0.35699 0.17900
N 	N 	0.80445 0.50096 0.34915 -0.20600
C 	C 	0.78400 0.49024 0.32718 0.21700
C 	C 	0.77950 0.51081 0.30684 -0.23200
H 	H 	0.79070 0.53420 0.30700 0.11800
C 	C 	0.76400 0.45909 0.32770 -0.21700
H 	H 	0.76470 0.44370 0.34220 0.11500
C 	C 	0.82680 0.47486 0.36231 0.18900
C 	C 	0.83770 0.44448 0.35237 -0.20000
H 	H 	0.82980 0.43910 0.33550 0.10600
C 	C 	0.75945 0.50128 0.28459 0.09200
H 	H 	0.75880 0.51730 0.27040 0.00400
C 	C 	0.74200 0.47033 0.28398 -0.09000
C 	C 	0.74160 0.44949 0.30607 0.07600
H 	H 	0.72640 0.42860 0.30700 0.02100
C 	C 	0.86940 0.42180 0.38851 -0.05100
C 	C 	0.86100 0.41790 0.36481 0.05200
H 	H 	0.87010 0.39760 0.35550 0.01800
C 	C 	0.84890 0.44821 0.40325 0.03400
H 	H 	0.84730 0.44700 0.42130 0.03400
C 	C 	0.83070 0.47675 0.38851 -0.17300
H 	H 	0.82120 0.49730 0.39730 0.09900
N 	N 	0.68874 0.45571 0.22565 -0.08900
C 	C 	0.70859 0.47778 0.24020 -0.02400
H 	H 	0.71460 0.50230 0.23620 0.05000
C 	C 	0.71880 0.46015 0.26141 0.09200
N 	N 	0.92188 0.34570 0.41558 -0.09100
C 	C 	0.90158 0.35887 0.39647 -0.01700
H 	H 	0.89440 0.34590 0.38160 0.04700
N 	N 	0.92149 0.37042 0.43605 -0.04300
N 	N 	0.90320 0.40023 0.42730 -0.07800
C 	C 	0.89310 0.39330 0.40186 0.07400
N 	N 	0.68300 0.42505 0.23890 -0.04000
N 	N 	0.70150 0.42718 0.26039 -0.08200
C 	C 	0.65344 0.50001 0.16549 -0.05100
C 	C 	0.67086 0.49564 0.18984 -0.07300
H 	H 	0.68190 0.51580 0.19820 0.08400
C 	C 	0.65536 0.43010 0.18920 -0.07600
H 	H 	0.65670 0.40670 0.19700 0.09300
C 	C 	0.67117 0.46036 0.20106 0.10400
C 	C 	0.96252 0.23930 0.43141 -0.00900
H 	H 	0.97020 0.21540 0.43590 0.07300
C 	C 	0.93745 0.24450 0.41146 -0.04200
C 	C 	0.97640 0.27019 0.44490 -0.04300
C 	C 	0.92428 0.27950 0.40577 -0.07700
H 	H 	0.90710 0.28300 0.39240 0.08500
C 	C 	0.96358 0.30497 0.43926 -0.07600
H 	H 	0.97280 0.32550 0.44830 0.09000
C 	C 	0.93711 0.30968 0.42028 0.10500
C 	C 	0.62105 0.40108 0.15198 0.37200
C 	C 	0.65413 0.53688 0.15170 0.38100
C 	C 	0.63666 0.46951 0.15403 -0.00200
H 	H 	0.62460 0.47240 0.13810 0.07200
C 	C 	0.63740 0.43451 0.16569 -0.04500
C 	C 	0.92402 0.21112 0.39629 0.36600
C 	C 	0.00606 0.26418 0.46578 0.38400
O 	O 	0.63420 0.53995 0.13224 -0.46300
O 	O 	0.60439 0.40817 0.13110 -0.46000
O 	O 	0.67332 0.56226 0.16167 -0.45500
O 	O 	0.62560 0.37066 0.16279 -0.46800
O 	O 	0.93140 0.17973 0.40553 -0.45700
O 	O 	0.90515 0.21716 0.37622 -0.45200
O 	O 	0.00974 0.23155 0.47299 -0.48100
O 	O 	0.02167 0.29292 0.47344 -0.47900
Zn	Zn	0.36724 0.41608 0.89014 1.22900
Zn	Zn	0.32318 0.38789 0.85366 1.22900
O 	O 	0.40089 0.44175 0.91974 -0.45500
H 	H 	0.41990 0.42940 0.92190 0.25500
O 	O 	0.28848 0.36475 0.82397 -0.45900
H 	H 	0.29530 0.34340 0.82070 0.25500
O 	O 	0.40373 0.22551 0.97271 -0.49400
O 	O 	0.36173 0.36695 0.90666 -0.46200
O 	O 	0.41547 0.28637 0.97307 -0.48100
O 	O 	0.32706 0.34242 0.87482 -0.47400
C 	C 	0.35726 0.23264 0.93001 -0.07200
H 	H 	0.36030 0.20900 0.93710 0.07700
C 	C 	0.37434 0.26346 0.94100 -0.05300
C 	C 	0.40051 0.25759 0.96408 0.38800
C 	C 	0.36965 0.29890 0.93054 -0.00100
H 	H 	0.38090 0.31940 0.93840 0.06800
N 	N 	0.31911 0.20601 0.89542 -0.08800
C 	C 	0.34800 0.30342 0.90824 -0.04800
C 	C 	0.34556 0.34104 0.89477 0.38100
C 	C 	0.33084 0.27265 0.89679 -0.07200
H 	H 	0.31650 0.27540 0.88180 0.09000
C 	C 	0.33553 0.23821 0.90810 0.09800
C 	C 	0.33174 0.17137 0.89490 -0.02200
H 	H 	0.35340 0.16230 0.90250 0.04500
N 	N 	0.28541 0.20935 0.88378 -0.04100
C 	C 	0.30624 0.15216 0.88094 0.07900
C 	C 	0.30463 0.11299 0.87300 -0.06100
N 	N 	0.27801 0.17609 0.87511 -0.07900
C 	C 	0.33506 0.09208 0.87445 0.05300
H 	H 	0.35670 0.10240 0.88120 0.01600
C 	C 	0.27200 0.09629 0.86555 0.05000
H 	H 	0.24950 0.10910 0.86600 0.02800
C 	C 	0.27380 0.05961 0.85728 -0.18400
H 	H 	0.25190 0.04840 0.85160 0.10300
C 	C 	0.33550 0.05515 0.86607 -0.19300
H 	H 	0.35750 0.04160 0.86690 0.10400
C 	C 	0.30520 0.03920 0.85699 0.17900
N 	N 	0.30445 0.00096 0.84915 -0.20600
C 	C 	0.28400 0.99024 0.82718 0.21700
C 	C 	0.27950 0.01081 0.80684 -0.23200
H 	H 	0.29070 0.03420 0.80700 0.11800
C 	C 	0.26400 0.95909 0.82770 -0.21700
H 	H 	0.26470 0.94370 0.84220 0.11500
C 	C 	0.32680 0.97486 0.86231 0.18900
C 	C 	0.33770 0.94448 0.85237 -0.20000
H 	H 	0.32980 0.93910 0.83550 0.10600
C 	C 	0.25945 0.00128 0.78459 0.09200
H 	H 	0.25880 0.01730 0.77040 0.00400
C 	C 	0.24200 0.97033 0.78398 -0.09000
C 	C 	0.24160 0.94949 0.80607 0.07600
H 	H 	0.22640 0.92860 0.80700 0.02100
C 	C 	0.36940 0.92180 0.88851 -0.05100
C 	C 	0.36100 0.91790 0.86481 0.05100
H 	H 	0.37010 0.89760 0.85550 0.01800
C 	C 	0.34890 0.94821 0.90325 0.03400
H 	H 	0.34730 0.94700 0.92130 0.03500
C 	C 	0.33070 0.97675 0.88851 -0.17300
H 	H 	0.32120 0.99730 0.89730 0.09900
N 	N 	0.18874 0.95571 0.72565 -0.08900
C 	C 	0.20859 0.97778 0.74020 -0.02400
H 	H 	0.21460 0.00230 0.73620 0.05000
C 	C 	0.21880 0.96015 0.76141 0.09200
N 	N 	0.42188 0.84570 0.91558 -0.09100
C 	C 	0.40158 0.85887 0.89647 -0.01600
H 	H 	0.39440 0.84590 0.88160 0.04700
N 	N 	0.42149 0.87042 0.93605 -0.04300
N 	N 	0.40320 0.90023 0.92730 -0.07800
C 	C 	0.39310 0.89330 0.90186 0.07400
N 	N 	0.18300 0.92505 0.73890 -0.04000
N 	N 	0.20150 0.92718 0.76039 -0.08200
C 	C 	0.15344 0.00001 0.66549 -0.05100
C 	C 	0.17086 0.99564 0.68984 -0.07300
H 	H 	0.18190 0.01580 0.69820 0.08400
C 	C 	0.15536 0.93010 0.68920 -0.07600
H 	H 	0.15670 0.90670 0.69700 0.09300
C 	C 	0.17117 0.96036 0.70106 0.10400
C 	C 	0.46252 0.73930 0.93141 -0.00900
H 	H 	0.47020 0.71540 0.93590 0.07300
C 	C 	0.43745 0.74450 0.91146 -0.04200
C 	C 	0.47640 0.77019 0.94490 -0.04300
C 	C 	0.42428 0.77950 0.90577 -0.07700
H 	H 	0.40710 0.78300 0.89240 0.08500
C 	C 	0.46358 0.80497 0.93926 -0.07600
H 	H 	0.47280 0.82550 0.94830 0.09000
C 	C 	0.43711 0.80968 0.92028 0.10500
C 	C 	0.12105 0.90108 0.65198 0.37200
C 	C 	0.15413 0.03688 0.65170 0.38100
C 	C 	0.13666 0.96951 0.65403 -0.00200
H 	H 	0.12460 0.97240 0.63810 0.07200
C 	C 	0.13740 0.93451 0.66569 -0.04500
C 	C 	0.42402 0.71112 0.89629 0.36600
C 	C 	0.50606 0.76418 0.96578 0.38400
O 	O 	0.13420 0.03995 0.63224 -0.46300
O 	O 	0.10439 0.90817 0.63110 -0.46000
O 	O 	0.17332 0.06226 0.66167 -0.45500
O 	O 	0.12560 0.87066 0.66279 -0.46800
O 	O 	0.43140 0.67973 0.90553 -0.45700
O 	O 	0.40515 0.71716 0.87622 -0.45200
O 	O 	0.50974 0.73155 0.97299 -0.48000
O 	O 	0.52167 0.79292 0.97344 -0.47800
Zn	Zn	0.13276 0.08392 0.39014 1.22900
Zn	Zn	0.17682 0.11211 0.35366 1.22900
O 	O 	0.09911 0.05825 0.41974 -0.45600
H 	H 	0.08010 0.07060 0.42190 0.25500
O 	O 	0.21152 0.13525 0.32397 -0.45900
H 	H 	0.20470 0.15660 0.32070 0.25500
O 	O 	0.09627 0.27449 0.47271 -0.49500
O 	O 	0.13827 0.13305 0.40666 -0.46200
O 	O 	0.08453 0.21363 0.47307 -0.48100
O 	O 	0.17294 0.15758 0.37482 -0.47400
C 	C 	0.14274 0.26736 0.43001 -0.07200
H 	H 	0.13970 0.29100 0.43710 0.07700
C 	C 	0.12566 0.23654 0.44100 -0.05400
C 	C 	0.09949 0.24241 0.46408 0.38800
C 	C 	0.13035 0.20110 0.43054 -0.00000
H 	H 	0.11910 0.18060 0.43840 0.06800
N 	N 	0.18089 0.29399 0.39542 -0.08800
C 	C 	0.15200 0.19658 0.40824 -0.04800
C 	C 	0.15444 0.15896 0.39477 0.38100
C 	C 	0.16916 0.22735 0.39679 -0.07200
H 	H 	0.18350 0.22460 0.38180 0.09000
C 	C 	0.16447 0.26179 0.40810 0.09800
C 	C 	0.16826 0.32863 0.39490 -0.02200
H 	H 	0.14660 0.33770 0.40250 0.04500
N 	N 	0.21459 0.29065 0.38378 -0.04100
C 	C 	0.19376 0.34784 0.38094 0.07900
C 	C 	0.19537 0.38701 0.37300 -0.06100
N 	N 	0.22199 0.32391 0.37511 -0.07900
C 	C 	0.16494 0.40792 0.37445 0.05300
H 	H 	0.14330 0.39760 0.38120 0.01600
C 	C 	0.22800 0.40371 0.36555 0.05000
H 	H 	0.25050 0.39090 0.36600 0.02800
C 	C 	0.22620 0.44039 0.35728 -0.18400
H 	H 	0.24810 0.45160 0.35160 0.10300
C 	C 	0.16450 0.44485 0.36607 -0.19400
H 	H 	0.14250 0.45840 0.36690 0.10400
C 	C 	0.19480 0.46080 0.35699 0.17900
N 	N 	0.19555 0.49904 0.34915 -0.20600
C 	C 	0.21600 0.50976 0.32718 0.21700
C 	C 	0.22050 0.48919 0.30684 -0.23200
H 	H 	0.20930 0.46580 0.30700 0.11800
C 	C 	0.23600 0.54091 0.32770 -0.21700
H 	H 	0.23530 0.55630 0.34220 0.11500
C 	C 	0.17320 0.52514 0.36231 0.18900
C 	C 	0.16230 0.55552 0.35237 -0.20000
H 	H 	0.17020 0.56090 0.33550 0.10600
C 	C 	0.24055 0.49872 0.28459 0.09200
H 	H 	0.24120 0.48270 0.27040 0.00400
C 	C 	0.25800 0.52967 0.28398 -0.09000
C 	C 	0.25840 0.55051 0.30607 0.07600
H 	H 	0.27360 0.57140 0.30700 0.02100
C 	C 	0.13060 0.57820 0.38851 -0.05100
C 	C 	0.13900 0.58210 0.36481 0.05200
H 	H 	0.12990 0.60240 0.35550 0.01800
C 	C 	0.15110 0.55179 0.40325 0.03400
H 	H 	0.15270 0.55300 0.42130 0.03400
C 	C 	0.16930 0.52325 0.38851 -0.17300
H 	H 	0.17880 0.50270 0.39730 0.09900
N 	N 	0.31126 0.54429 0.22565 -0.08900
C 	C 	0.29141 0.52222 0.24020 -0.02400
H 	H 	0.28540 0.49770 0.23620 0.05000
C 	C 	0.28120 0.53985 0.26141 0.09200
N 	N 	0.07812 0.65430 0.41558 -0.09100
C 	C 	0.09842 0.64113 0.39647 -0.01700
H 	H 	0.10560 0.65410 0.38160 0.04700
N 	N 	0.07851 0.62958 0.43605 -0.04300
N 	N 	0.09680 0.59977 0.42730 -0.07800
C 	C 	0.10690 0.60670 0.40186 0.07400
N 	N 	0.31700 0.57495 0.23890 -0.04000
N 	N 	0.29850 0.57282 0.26039 -0.08200
C 	C 	0.34656 0.49999 0.16549 -0.05100
C 	C 	0.32914 0.50436 0.18984 -0.07300
H 	H 	0.31810 0.48420 0.19820 0.08400
C 	C 	0.34464 0.56990 0.18920 -0.07600
H 	H 	0.34330 0.59330 0.19700 0.09300
C 	C 	0.32883 0.53964 0.20106 0.10400
C 	C 	0.03748 0.76070 0.43141 -0.00900
H 	H 	0.02980 0.78460 0.43590 0.07300
C 	C 	0.06255 0.75550 0.41146 -0.04200
C 	C 	0.02360 0.72981 0.44490 -0.04300
C 	C 	0.07572 0.72050 0.40577 -0.07700
H 	H 	0.09290 0.71700 0.39240 0.08500
C 	C 	0.03642 0.69503 0.43926 -0.07600
H 	H 	0.02720 0.67450 0.44830 0.09000
C 	C 	0.06289 0.69032 0.42028 0.10500
C 	C 	0.37895 0.59892 0.15198 0.37200
C 	C 	0.34587 0.46312 0.15170 0.38100
C 	C 	0.36334 0.53049 0.15403 -0.00200
H 	H 	0.37540 0.52760 0.13810 0.07200
C 	C 	0.36260 0.56549 0.16569 -0.04500
C 	C 	0.07598 0.78888 0.39629 0.36600
C 	C 	0.99394 0.73582 0.46578 0.38400
O 	O 	0.36580 0.46005 0.13224 -0.46300
O 	O 	0.39561 0.59183 0.13110 -0.46000
O 	O 	0.32668 0.43774 0.16167 -0.45500
O 	O 	0.37440 0.62934 0.16279 -0.46800
O 	O 	0.06860 0.82027 0.40553 -0.45700
O 	O 	0.09485 0.78284 0.37622 -0.45200
O 	O 	0.99026 0.76845 0.47299 -0.48100
O 	O 	0.97833 0.70708 0.47344 -0.47900
Zn	Zn	0.63276 0.58392 0.89014 1.22900
Zn	Zn	0.67682 0.61211 0.85366 1.22900
O 	O 	0.59911 0.55825 0.91974 -0.45500
H 	H 	0.58010 0.57060 0.92190 0.25500
O 	O 	0.71152 0.63525 0.82397 -0.45900
H 	H 	0.70470 0.65660 0.82070 0.25500
O 	O 	0.59627 0.77449 0.97271 -0.49400
O 	O 	0.63827 0.63305 0.90666 -0.46200
O 	O 	0.58453 0.71363 0.97307 -0.48100
O 	O 	0.67294 0.65758 0.87482 -0.47400
C 	C 	0.64274 0.76736 0.93001 -0.07200
H 	H 	0.63970 0.79100 0.93710 0.07700
C 	C 	0.62566 0.73654 0.94100 -0.05300
C 	C 	0.59949 0.74241 0.96408 0.38800
C 	C 	0.63035 0.70110 0.93054 -0.00100
H 	H 	0.61910 0.68060 0.93840 0.06800
N 	N 	0.68089 0.79399 0.89542 -0.08800
C 	C 	0.65200 0.69658 0.90824 -0.04800
C 	C 	0.65444 0.65896 0.89477 0.38100
C 	C 	0.66916 0.72735 0.89679 -0.07200
H 	H 	0.68350 0.72460 0.88180 0.09000
C 	C 	0.66447 0.76179 0.90810 0.09800
C 	C 	0.66826 0.82863 0.89490 -0.02200
H 	H 	0.64660 0.83770 0.90250 0.04500
N 	N 	0.71459 0.79065 0.88378 -0.04100
C 	C 	0.69376 0.84784 0.88094 0.07900
C 	C 	0.69537 0.88701 0.87300 -0.06100
N 	N 	0.72199 0.82391 0.87511 -0.07900
C 	C 	0.66494 0.90792 0.87445 0.05300
H 	H 	0.64330 0.89760 0.88120 0.01600
C 	C 	0.72800 0.90371 0.86555 0.05000
H 	H 	0.75050 0.89090 0.86600 0.02800
C 	C 	0.72620 0.94039 0.85728 -0.18400
H 	H 	0.74810 0.95160 0.85160 0.10300
C 	C 	0.66450 0.94485 0.86607 -0.19300
H 	H 	0.64250 0.95840 0.86690 0.10400
C 	C 	0.69480 0.96080 0.85699 0.17900
N 	N 	0.69555 0.99904 0.84915 -0.20600
C 	C 	0.71600 0.00976 0.82718 0.21700
C 	C 	0.72050 0.98919 0.80684 -0.23200
H 	H 	0.70930 0.96580 0.80700 0.11800
C 	C 	0.73600 0.04091 0.82770 -0.21700
H 	H 	0.73530 0.05630 0.84220 0.11500
C 	C 	0.67320 0.02514 0.86231 0.18900
C 	C 	0.66230 0.05552 0.85237 -0.20000
H 	H 	0.67020 0.06090 0.83550 0.10600
C 	C 	0.74055 0.99872 0.78459 0.09200
H 	H 	0.74120 0.98270 0.77040 0.00400
C 	C 	0.75800 0.02967 0.78398 -0.09000
C 	C 	0.75840 0.05051 0.80607 0.07600
H 	H 	0.77360 0.07140 0.80700 0.02100
C 	C 	0.63060 0.07820 0.88851 -0.05100
C 	C 	0.63900 0.08210 0.86481 0.05100
H 	H 	0.62990 0.10240 0.85550 0.01800
C 	C 	0.65110 0.05179 0.90325 0.03400
H 	H 	0.65270 0.05300 0.92130 0.03500
C 	C 	0.66930 0.02325 0.88851 -0.17300
H 	H 	0.67880 0.00270 0.89730 0.09900
N 	N 	0.81126 0.04429 0.72565 -0.08900
C 	C 	0.79141 0.02222 0.74020 -0.02400
H 	H 	0.78540 0.99770 0.73620 0.05000
C 	C 	0.78120 0.03985 0.76141 0.09200
N 	N 	0.57812 0.15430 0.91558 -0.09100
C 	C 	0.59842 0.14113 0.89647 -0.01600
H 	H 	0.60560 0.15410 0.88160 0.04700
N 	N 	0.57851 0.12958 0.93605 -0.04300
N 	N 	0.59680 0.09977 0.92730 -0.07800
C 	C 	0.60690 0.10670 0.90186 0.07400
N 	N 	0.81700 0.07495 0.73890 -0.04000
N 	N 	0.79850 0.07282 0.76039 -0.08200
C 	C 	0.84656 0.99999 0.66549 -0.05100
C 	C 	0.82914 0.00436 0.68984 -0.07300
H 	H 	0.81810 0.98420 0.69820 0.08400
C 	C 	0.84464 0.06990 0.68920 -0.07600
H 	H 	0.84330 0.09330 0.69700 0.09300
C 	C 	0.82883 0.03964 0.70106 0.10400
C 	C 	0.53748 0.26070 0.93141 -0.00900
H 	H 	0.52980 0.28460 0.93590 0.07300
C 	C 	0.56255 0.25550 0.91146 -0.04200
C 	C 	0.52360 0.22981 0.94490 -0.04300
C 	C 	0.57572 0.22050 0.90577 -0.07700
H 	H 	0.59290 0.21700 0.89240 0.08500
C 	C 	0.53642 0.19503 0.93926 -0.07600
H 	H 	0.52720 0.17450 0.94830 0.09000
C 	C 	0.56289 0.19032 0.92028 0.10500
C 	C 	0.87895 0.09892 0.65198 0.37200
C 	C 	0.84587 0.96312 0.65170 0.38100
C 	C 	0.86334 0.03049 0.65403 -0.00200
H 	H 	0.87540 0.02760 0.63810 0.07200
C 	C 	0.86260 0.06549 0.66569 -0.04500
C 	C 	0.57598 0.28888 0.89629 0.36600
C 	C 	0.49394 0.23582 0.96578 0.38400
O 	O 	0.86580 0.96005 0.63224 -0.46300
O 	O 	0.89561 0.09183 0.63110 -0.46000
O 	O 	0.82668 0.93774 0.66167 -0.45500
O 	O 	0.87440 0.12934 0.66279 -0.46800
O 	O 	0.56860 0.32027 0.90553 -0.45700
O 	O 	0.59485 0.28284 0.87622 -0.45200
O 	O 	0.49026 0.26845 0.97299 -0.48000
O 	O 	0.47833 0.20708 0.97344 -0.47800
Zn	Zn	0.08392 0.86724 0.60986 1.22900
Zn	Zn	0.11211 0.82318 0.64634 1.22900
O 	O 	0.05825 0.90089 0.58026 -0.45600
H 	H 	0.07060 0.91990 0.57810 0.25500
O 	O 	0.13525 0.78848 0.67603 -0.45900
H 	H 	0.15660 0.79530 0.67930 0.25500
O 	O 	0.27449 0.90373 0.52729 -0.49500
O 	O 	0.13305 0.86173 0.59334 -0.46200
O 	O 	0.21363 0.91547 0.52693 -0.48100
O 	O 	0.15758 0.82706 0.62518 -0.47400
C 	C 	0.26736 0.85726 0.56999 -0.07200
H 	H 	0.29100 0.86030 0.56290 0.07700
C 	C 	0.23654 0.87434 0.55900 -0.05400
C 	C 	0.24241 0.90051 0.53592 0.38800
C 	C 	0.20110 0.86965 0.56946 -0.00000
H 	H 	0.18060 0.88090 0.56160 0.06800
N 	N 	0.29399 0.81911 0.60458 -0.08800
C 	C 	0.19658 0.84800 0.59176 -0.04800
C 	C 	0.15896 0.84556 0.60523 0.38100
C 	C 	0.22735 0.83084 0.60321 -0.07200
H 	H 	0.22460 0.81650 0.61820 0.09000
C 	C 	0.26179 0.83553 0.59190 0.09800
C 	C 	0.32863 0.83174 0.60510 -0.02200
H 	H 	0.33770 0.85340 0.59750 0.04500
N 	N 	0.29065 0.78541 0.61622 -0.04100
C 	C 	0.34784 0.80624 0.61906 0.07900
C 	C 	0.38701 0.80463 0.62700 -0.06100
N 	N 	0.32391 0.77801 0.62489 -0.07900
C 	C 	0.40792 0.83506 0.62555 0.05300
H 	H 	0.39760 0.85670 0.61880 0.01600
C 	C 	0.40371 0.77200 0.63445 0.05000
H 	H 	0.39090 0.74950 0.63400 0.02800
C 	C 	0.44039 0.77380 0.64272 -0.18400
H 	H 	0.45160 0.75190 0.64840 0.10300
C 	C 	0.44485 0.83550 0.63393 -0.19400
H 	H 	0.45840 0.85750 0.63310 0.10400
C 	C 	0.46080 0.80520 0.64301 0.17900
N 	N 	0.49904 0.80445 0.65085 -0.20600
C 	C 	0.50976 0.78400 0.67282 0.21700
C 	C 	0.48919 0.77950 0.69316 -0.23200
H 	H 	0.46580 0.79070 0.69300 0.11800
C 	C 	0.54091 0.76400 0.67230 -0.21700
H 	H 	0.55630 0.76470 0.65780 0.11500
C 	C 	0.52514 0.82680 0.63769 0.18900
C 	C 	0.55552 0.83770 0.64763 -0.20000
H 	H 	0.56090 0.82980 0.66450 0.10600
C 	C 	0.49872 0.75945 0.71541 0.09200
H 	H 	0.48270 0.75880 0.72960 0.00400
C 	C 	0.52967 0.74200 0.71602 -0.09000
C 	C 	0.55051 0.74160 0.69393 0.07600
H 	H 	0.57140 0.72640 0.69300 0.02100
C 	C 	0.57820 0.86940 0.61149 -0.05100
C 	C 	0.58210 0.86100 0.63519 0.05200
H 	H 	0.60240 0.87010 0.64450 0.01800
C 	C 	0.55179 0.84890 0.59675 0.03400
H 	H 	0.55300 0.84730 0.57870 0.03400
C 	C 	0.52325 0.83070 0.61149 -0.17300
H 	H 	0.50270 0.82120 0.60270 0.09900
N 	N 	0.54429 0.68874 0.77435 -0.08900
C 	C 	0.52222 0.70859 0.75980 -0.02400
H 	H 	0.49770 0.71460 0.76380 0.05000
C 	C 	0.53985 0.71880 0.73859 0.09200
N 	N 	0.65430 0.92188 0.58442 -0.09100
C 	C 	0.64113 0.90158 0.60353 -0.01700
H 	H 	0.65410 0.89440 0.61840 0.04700
N 	N 	0.62958 0.92149 0.56395 -0.04300
N 	N 	0.59977 0.90320 0.57270 -0.07800
C 	C 	0.60670 0.89310 0.59814 0.07400
N 	N 	0.57495 0.68300 0.76110 -0.04000
N 	N 	0.57282 0.70150 0.73961 -0.08200
C 	C 	0.49999 0.65344 0.83451 -0.05100
C 	C 	0.50436 0.67086 0.81016 -0.07300
H 	H 	0.48420 0.68190 0.80180 0.08400
C 	C 	0.56990 0.65536 0.81080 -0.07600
H 	H 	0.59330 0.65670 0.80300 0.09300
C 	C 	0.53964 0.67117 0.79894 0.10400
C 	C 	0.76070 0.96252 0.56859 -0.00900
H 	H 	0.78460 0.97020 0.56410 0.07300
C 	C 	0.75550 0.93745 0.58854 -0.04200
C 	C 	0.72981 0.97640 0.55510 -0.04300
C 	C 	0.72050 0.92428 0.59423 -0.07700
H 	H 	0.71700 0.90710 0.60760 0.08500
C 	C 	0.69503 0.96358 0.56074 -0.07600
H 	H 	0.67450 0.97280 0.55170 0.09000
C 	C 	0.69032 0.93711 0.57972 0.10500
C 	C 	0.59892 0.62105 0.84802 0.37200
C 	C 	0.46312 0.65413 0.84830 0.38100
C 	C 	0.53049 0.63666 0.84597 -0.00200
H 	H 	0.52760 0.62460 0.86190 0.07200
C 	C 	0.56549 0.63740 0.83431 -0.04500
C 	C 	0.78888 0.92402 0.60371 0.36600
C 	C 	0.73582 0.00606 0.53422 0.38400
O 	O 	0.46005 0.63420 0.86776 -0.46300
O 	O 	0.59183 0.60439 0.86890 -0.46000
O 	O 	0.43774 0.67332 0.83833 -0.45500
O 	O 	0.62934 0.62560 0.83721 -0.46800
O 	O 	0.82027 0.93140 0.59447 -0.45700
O 	O 	0.78284 0.90515 0.62378 -0.45200
O 	O 	0.76845 0.00974 0.52701 -0.48100
O 	O 	0.70708 0.02167 0.52656 -0.47900
Zn	Zn	0.58392 0.36724 0.10986 1.22900
Zn	Zn	0.61211 0.32318 0.14634 1.22900
O 	O 	0.55825 0.40089 0.08026 -0.45600
H 	H 	0.57060 0.41990 0.07810 0.25500
O 	O 	0.63525 0.28848 0.17603 -0.45900
H 	H 	0.65660 0.29530 0.17930 0.25500
O 	O 	0.77449 0.40373 0.02729 -0.49500
O 	O 	0.63305 0.36173 0.09334 -0.46200
O 	O 	0.71363 0.41547 0.02693 -0.48200
O 	O 	0.65758 0.32706 0.12518 -0.47400
C 	C 	0.76736 0.35726 0.06999 -0.07200
H 	H 	0.79100 0.36030 0.06290 0.07700
C 	C 	0.73654 0.37434 0.05900 -0.05400
C 	C 	0.74241 0.40051 0.03592 0.38800
C 	C 	0.70110 0.36965 0.06946 -0.00000
H 	H 	0.68060 0.38090 0.06160 0.06800
N 	N 	0.79399 0.31911 0.10458 -0.08800
C 	C 	0.69658 0.34800 0.09176 -0.04800
C 	C 	0.65896 0.34556 0.10523 0.38100
C 	C 	0.72735 0.33084 0.10321 -0.07200
H 	H 	0.72460 0.31650 0.11820 0.09000
C 	C 	0.76179 0.33553 0.09190 0.09800
C 	C 	0.82863 0.33174 0.10510 -0.02200
H 	H 	0.83770 0.35340 0.09750 0.04500
N 	N 	0.79065 0.28541 0.11622 -0.04100
C 	C 	0.84784 0.30624 0.11906 0.07900
C 	C 	0.88701 0.30463 0.12700 -0.06100
N 	N 	0.82391 0.27801 0.12489 -0.07900
C 	C 	0.90792 0.33506 0.12555 0.05300
H 	H 	0.89760 0.35670 0.11880 0.01600
C 	C 	0.90371 0.27200 0.13445 0.05000
H 	H 	0.89090 0.24950 0.13400 0.02800
C 	C 	0.94039 0.27380 0.14272 -0.18400
H 	H 	0.95160 0.25190 0.14840 0.10300
C 	C 	0.94485 0.33550 0.13393 -0.19400
H 	H 	0.95840 0.35750 0.13310 0.10400
C 	C 	0.96080 0.30520 0.14301 0.17900
N 	N 	0.99904 0.30445 0.15085 -0.20600
C 	C 	0.00976 0.28400 0.17282 0.21700
C 	C 	0.98919 0.27950 0.19316 -0.23200
H 	H 	0.96580 0.29070 0.19300 0.11800
C 	C 	0.04091 0.26400 0.17230 -0.21700
H 	H 	0.05630 0.26470 0.15780 0.11500
C 	C 	0.02514 0.32680 0.13769 0.18900
C 	C 	0.05552 0.33770 0.14763 -0.20100
H 	H 	0.06090 0.32980 0.16450 0.10600
C 	C 	0.99872 0.25945 0.21541 0.09200
H 	H 	0.98270 0.25880 0.22960 0.00400
C 	C 	0.02967 0.24200 0.21602 -0.09000
C 	C 	0.05051 0.24160 0.19393 0.07600
H 	H 	0.07140 0.22640 0.19300 0.02100
C 	C 	0.07820 0.36940 0.11149 -0.05100
C 	C 	0.08210 0.36100 0.13519 0.05200
H 	H 	0.10240 0.37010 0.14450 0.01800
C 	C 	0.05179 0.34890 0.09675 0.03400
H 	H 	0.05300 0.34730 0.07870 0.03400
C 	C 	0.02325 0.33070 0.11149 -0.17400
H 	H 	0.00270 0.32120 0.10270 0.09900
N 	N 	0.04429 0.18874 0.27435 -0.08900
C 	C 	0.02222 0.20859 0.25980 -0.02400
H 	H 	0.99770 0.21460 0.26380 0.05000
C 	C 	0.03985 0.21880 0.23859 0.09200
N 	N 	0.15430 0.42188 0.08442 -0.09100
C 	C 	0.14113 0.40158 0.10353 -0.01700
H 	H 	0.15410 0.39440 0.11840 0.04700
N 	N 	0.12958 0.42149 0.06395 -0.04300
N 	N 	0.09977 0.40320 0.07270 -0.07800
C 	C 	0.10670 0.39310 0.09814 0.07400
N 	N 	0.07495 0.18300 0.26110 -0.04000
N 	N 	0.07282 0.20150 0.23961 -0.08200
C 	C 	0.99999 0.15344 0.33451 -0.05100
C 	C 	0.00436 0.17086 0.31016 -0.07300
H 	H 	0.98420 0.18190 0.30180 0.08400
C 	C 	0.06990 0.15536 0.31080 -0.07600
H 	H 	0.09330 0.15670 0.30300 0.09300
C 	C 	0.03964 0.17117 0.29894 0.10400
C 	C 	0.26070 0.46252 0.06859 -0.00900
H 	H 	0.28460 0.47020 0.06410 0.07300
C 	C 	0.25550 0.43745 0.08854 -0.04200
C 	C 	0.22981 0.47640 0.05510 -0.04300
C 	C 	0.22050 0.42428 0.09423 -0.07700
H 	H 	0.21700 0.40710 0.10760 0.08500
C 	C 	0.19503 0.46358 0.06074 -0.07500
H 	H 	0.17450 0.47280 0.05170 0.09000
C 	C 	0.19032 0.43711 0.07972 0.10400
C 	C 	0.09892 0.12105 0.34802 0.37200
C 	C 	0.96312 0.15413 0.34830 0.38100
C 	C 	0.03049 0.13666 0.34597 -0.00200
H 	H 	0.02760 0.12460 0.36190 0.07200
C 	C 	0.06549 0.13740 0.33431 -0.04500
C 	C 	0.28888 0.42402 0.10371 0.36600
C 	C 	0.23582 0.50606 0.03422 0.38400
O 	O 	0.96005 0.13420 0.36776 -0.46300
O 	O 	0.09183 0.10439 0.36890 -0.46000
O 	O 	0.93774 0.17332 0.33833 -0.45500
O 	O 	0.12934 0.12560 0.33721 -0.46800
O 	O 	0.32027 0.43140 0.09447 -0.45700
O 	O 	0.28284 0.40515 0.12378 -0.45200
O 	O 	0.26845 0.50974 0.02701 -0.48100
O 	O 	0.20708 0.52167 0.02656 -0.47900
Zn	Zn	0.91608 0.13276 0.60986 1.22900
Zn	Zn	0.88789 0.17682 0.64634 1.22900
O 	O 	0.94175 0.09911 0.58026 -0.45600
H 	H 	0.92940 0.08010 0.57810 0.25500
O 	O 	0.86475 0.21152 0.67603 -0.45900
H 	H 	0.84340 0.20470 0.67930 0.25500
O 	O 	0.72551 0.09627 0.52729 -0.49500
O 	O 	0.86695 0.13827 0.59334 -0.46200
O 	O 	0.78637 0.08453 0.52693 -0.48100
O 	O 	0.84242 0.17294 0.62518 -0.47400
C 	C 	0.73264 0.14274 0.56999 -0.07200
H 	H 	0.70900 0.13970 0.56290 0.07700
C 	C 	0.76346 0.12566 0.55900 -0.05400
C 	C 	0.75759 0.09949 0.53592 0.38800
C 	C 	0.79890 0.13035 0.56946 -0.00000
H 	H 	0.81940 0.11910 0.56160 0.06800
N 	N 	0.70601 0.18089 0.60458 -0.08800
C 	C 	0.80342 0.15200 0.59176 -0.04800
C 	C 	0.84104 0.15444 0.60523 0.38100
C 	C 	0.77265 0.16916 0.60321 -0.07200
H 	H 	0.77540 0.18350 0.61820 0.09000
C 	C 	0.73821 0.16447 0.59190 0.09800
C 	C 	0.67137 0.16826 0.60510 -0.02200
H 	H 	0.66230 0.14660 0.59750 0.04500
N 	N 	0.70935 0.21459 0.61622 -0.04100
C 	C 	0.65216 0.19376 0.61906 0.07900
C 	C 	0.61299 0.19537 0.62700 -0.06100
N 	N 	0.67609 0.22199 0.62489 -0.07900
C 	C 	0.59208 0.16494 0.62555 0.05300
H 	H 	0.60240 0.14330 0.61880 0.01600
C 	C 	0.59629 0.22800 0.63445 0.05000
H 	H 	0.60910 0.25050 0.63400 0.02800
C 	C 	0.55961 0.22620 0.64272 -0.18400
H 	H 	0.54840 0.24810 0.64840 0.10300
C 	C 	0.55515 0.16450 0.63393 -0.19400
H 	H 	0.54160 0.14250 0.63310 0.10400
C 	C 	0.53920 0.19480 0.64301 0.17900
N 	N 	0.50096 0.19555 0.65085 -0.20600
C 	C 	0.49024 0.21600 0.67282 0.21700
C 	C 	0.51081 0.22050 0.69316 -0.23200
H 	H 	0.53420 0.20930 0.69300 0.11800
C 	C 	0.45909 0.23600 0.67230 -0.21700
H 	H 	0.44370 0.23530 0.65780 0.11500
C 	C 	0.47486 0.17320 0.63769 0.18900
C 	C 	0.44448 0.16230 0.64763 -0.20000
H 	H 	0.43910 0.17020 0.66450 0.10600
C 	C 	0.50128 0.24055 0.71541 0.09200
H 	H 	0.51730 0.24120 0.72960 0.00400
C 	C 	0.47033 0.25800 0.71602 -0.09000
C 	C 	0.44949 0.25840 0.69393 0.07600
H 	H 	0.42860 0.27360 0.69300 0.02100
C 	C 	0.42180 0.13060 0.61149 -0.05100
C 	C 	0.41790 0.13900 0.63519 0.05200
H 	H 	0.39760 0.12990 0.64450 0.01800
C 	C 	0.44821 0.15110 0.59675 0.03400
H 	H 	0.44700 0.15270 0.57870 0.03400
C 	C 	0.47675 0.16930 0.61149 -0.17300
H 	H 	0.49730 0.17880 0.60270 0.09900
N 	N 	0.45571 0.31126 0.77435 -0.08900
C 	C 	0.47778 0.29141 0.75980 -0.02400
H 	H 	0.50230 0.28540 0.76380 0.05000
C 	C 	0.46015 0.28120 0.73859 0.09200
N 	N 	0.34570 0.07812 0.58442 -0.09100
C 	C 	0.35887 0.09842 0.60353 -0.01700
H 	H 	0.34590 0.10560 0.61840 0.04700
N 	N 	0.37042 0.07851 0.56395 -0.04300
N 	N 	0.40023 0.09680 0.57270 -0.07800
C 	C 	0.39330 0.10690 0.59814 0.07400
N 	N 	0.42505 0.31700 0.76110 -0.04000
N 	N 	0.42718 0.29850 0.73961 -0.08200
C 	C 	0.50001 0.34656 0.83451 -0.05100
C 	C 	0.49564 0.32914 0.81016 -0.07300
H 	H 	0.51580 0.31810 0.80180 0.08400
C 	C 	0.43010 0.34464 0.81080 -0.07600
H 	H 	0.40670 0.34330 0.80300 0.09300
C 	C 	0.46036 0.32883 0.79894 0.10400
C 	C 	0.23930 0.03748 0.56859 -0.00900
H 	H 	0.21540 0.02980 0.56410 0.07300
C 	C 	0.24450 0.06255 0.58854 -0.04200
C 	C 	0.27019 0.02360 0.55510 -0.04300
C 	C 	0.27950 0.07572 0.59423 -0.07700
H 	H 	0.28300 0.09290 0.60760 0.08500
C 	C 	0.30497 0.03642 0.56074 -0.07600
H 	H 	0.32550 0.02720 0.55170 0.09000
C 	C 	0.30968 0.06289 0.57972 0.10500
C 	C 	0.40108 0.37895 0.84802 0.37200
C 	C 	0.53688 0.34587 0.84830 0.38100
C 	C 	0.46951 0.36334 0.84597 -0.00200
H 	H 	0.47240 0.37540 0.86190 0.07200
C 	C 	0.43451 0.36260 0.83431 -0.04500
C 	C 	0.21112 0.07598 0.60371 0.36600
C 	C 	0.26418 0.99394 0.53422 0.38400
O 	O 	0.53995 0.36580 0.86776 -0.46300
O 	O 	0.40817 0.39561 0.86890 -0.46000
O 	O 	0.56226 0.32668 0.83833 -0.45500
O 	O 	0.37066 0.37440 0.83721 -0.46800
O 	O 	0.17973 0.06860 0.59447 -0.45700
O 	O 	0.21716 0.09485 0.62378 -0.45200
O 	O 	0.23155 0.99026 0.52701 -0.48100
O 	O 	0.29292 0.97833 0.52656 -0.47900
Zn	Zn	0.41608 0.63276 0.10986 1.22900
Zn	Zn	0.38789 0.67682 0.14634 1.22900
O 	O 	0.44175 0.59911 0.08026 -0.45600
H 	H 	0.42940 0.58010 0.07810 0.25500
O 	O 	0.36475 0.71152 0.17603 -0.45900
H 	H 	0.34340 0.70470 0.17930 0.25500
O 	O 	0.22551 0.59627 0.02729 -0.49500
O 	O 	0.36695 0.63827 0.09334 -0.46200
O 	O 	0.28637 0.58453 0.02693 -0.48200
O 	O 	0.34242 0.67294 0.12518 -0.47400
C 	C 	0.23264 0.64274 0.06999 -0.07200
H 	H 	0.20900 0.63970 0.06290 0.07700
C 	C 	0.26346 0.62566 0.05900 -0.05400
C 	C 	0.25759 0.59949 0.03592 0.38800
C 	C 	0.29890 0.63035 0.06946 -0.00000
H 	H 	0.31940 0.61910 0.06160 0.06800
N 	N 	0.20601 0.68089 0.10458 -0.08800
C 	C 	0.30342 0.65200 0.09176 -0.04800
C 	C 	0.34104 0.65444 0.10523 0.38100
C 	C 	0.27265 0.66916 0.10321 -0.07200
H 	H 	0.27540 0.68350 0.11820 0.09000
C 	C 	0.23821 0.66447 0.09190 0.09800
C 	C 	0.17137 0.66826 0.10510 -0.02200
H 	H 	0.16230 0.64660 0.09750 0.04500
N 	N 	0.20935 0.71459 0.11622 -0.04100
C 	C 	0.15216 0.69376 0.11906 0.07900
C 	C 	0.11299 0.69537 0.12700 -0.06100
N 	N 	0.17609 0.72199 0.12489 -0.07900
C 	C 	0.09208 0.66494 0.12555 0.05300
H 	H 	0.10240 0.64330 0.11880 0.01600
C 	C 	0.09629 0.72800 0.13445 0.05000
H 	H 	0.10910 0.75050 0.13400 0.02800
C 	C 	0.05961 0.72620 0.14272 -0.18400
H 	H 	0.04840 0.74810 0.14840 0.10300
C 	C 	0.05515 0.66450 0.13393 -0.19400
H 	H 	0.04160 0.64250 0.13310 0.10400
C 	C 	0.03920 0.69480 0.14301 0.17900
N 	N 	0.00096 0.69555 0.15085 -0.20600
C 	C 	0.99024 0.71600 0.17282 0.21700
C 	C 	0.01081 0.72050 0.19316 -0.23200
H 	H 	0.03420 0.70930 0.19300 0.11800
C 	C 	0.95909 0.73600 0.17230 -0.21700
H 	H 	0.94370 0.73530 0.15780 0.11500
C 	C 	0.97486 0.67320 0.13769 0.18900
C 	C 	0.94448 0.66230 0.14763 -0.20100
H 	H 	0.93910 0.67020 0.16450 0.10600
C 	C 	0.00128 0.74055 0.21541 0.09200
H 	H 	0.01730 0.74120 0.22960 0.00400
C 	C 	0.97033 0.75800 0.21602 -0.09000
C 	C 	0.94949 0.75840 0.19393 0.07600
H 	H 	0.92860 0.77360 0.19300 0.02100
C 	C 	0.92180 0.63060 0.11149 -0.05100
C 	C 	0.91790 0.63900 0.13519 0.05200
H 	H 	0.89760 0.62990 0.14450 0.01800
C 	C 	0.94821 0.65110 0.09675 0.03400
H 	H 	0.94700 0.65270 0.07870 0.03400
C 	C 	0.97675 0.66930 0.11149 -0.17400
H 	H 	0.99730 0.67880 0.10270 0.09900
N 	N 	0.95571 0.81126 0.27435 -0.08900
C 	C 	0.97778 0.79141 0.25980 -0.02400
H 	H 	0.00230 0.78540 0.26380 0.05000
C 	C 	0.96015 0.78120 0.23859 0.09200
N 	N 	0.84570 0.57812 0.08442 -0.09100
C 	C 	0.85887 0.59842 0.10353 -0.01700
H 	H 	0.84590 0.60560 0.11840 0.04700
N 	N 	0.87042 0.57851 0.06395 -0.04300
N 	N 	0.90023 0.59680 0.07270 -0.07800
C 	C 	0.89330 0.60690 0.09814 0.07400
N 	N 	0.92505 0.81700 0.26110 -0.04000
N 	N 	0.92718 0.79850 0.23961 -0.08200
C 	C 	0.00001 0.84656 0.33451 -0.05100
C 	C 	0.99564 0.82914 0.31016 -0.07300
H 	H 	0.01580 0.81810 0.30180 0.08400
C 	C 	0.93010 0.84464 0.31080 -0.07600
H 	H 	0.90670 0.84330 0.30300 0.09300
C 	C 	0.96036 0.82883 0.29894 0.10400
C 	C 	0.73930 0.53748 0.06859 -0.00900
H 	H 	0.71540 0.52980 0.06410 0.07300
C 	C 	0.74450 0.56255 0.08854 -0.04200
C 	C 	0.77019 0.52360 0.05510 -0.04300
C 	C 	0.77950 0.57572 0.09423 -0.07700
H 	H 	0.78300 0.59290 0.10760 0.08500
C 	C 	0.80497 0.53642 0.06074 -0.07500
H 	H 	0.82550 0.52720 0.05170 0.09000
C 	C 	0.80968 0.56289 0.07972 0.10400
C 	C 	0.90108 0.87895 0.34802 0.37200
C 	C 	0.03688 0.84587 0.34830 0.38100
C 	C 	0.96951 0.86334 0.34597 -0.00200
H 	H 	0.97240 0.87540 0.36190 0.07200
C 	C 	0.93451 0.86260 0.33431 -0.04500
C 	C 	0.71112 0.57598 0.10371 0.36600
C 	C 	0.76418 0.49394 0.03422 0.38400
O 	O 	0.03995 0.86580 0.36776 -0.46300
O 	O 	0.90817 0.89561 0.36890 -0.46000
O 	O 	0.06226 0.82668 0.33833 -0.45500
O 	O 	0.87066 0.87440 0.33721 -0.46800
O 	O 	0.67973 0.56860 0.09447 -0.45700
O 	O 	0.71716 0.59485 0.12378 -0.45200
O 	O 	0.73155 0.49026 0.02701 -0.48100
O 	O 	0.79292 0.47833 0.02656 -0.47900
Zn	Zn	0.13276 0.08392 0.60986 1.22900
Zn	Zn	0.17682 0.11211 0.64634 1.22900
O 	O 	0.09911 0.05825 0.58026 -0.45600
H 	H 	0.08010 0.07060 0.57810 0.25500
O 	O 	0.21152 0.13525 0.67603 -0.45900
H 	H 	0.20470 0.15660 0.67930 0.25500
O 	O 	0.09627 0.27449 0.52729 -0.49500
O 	O 	0.13827 0.13305 0.59334 -0.46200
O 	O 	0.08453 0.21363 0.52693 -0.48100
O 	O 	0.17294 0.15758 0.62518 -0.47400
C 	C 	0.14274 0.26736 0.56999 -0.07200
H 	H 	0.13970 0.29100 0.56290 0.07700
C 	C 	0.12566 0.23654 0.55900 -0.05400
C 	C 	0.09949 0.24241 0.53592 0.38800
C 	C 	0.13035 0.20110 0.56946 -0.00000
H 	H 	0.11910 0.18060 0.56160 0.06800
N 	N 	0.18089 0.29399 0.60458 -0.08800
C 	C 	0.15200 0.19658 0.59176 -0.04800
C 	C 	0.15444 0.15896 0.60523 0.38100
C 	C 	0.16916 0.22735 0.60321 -0.07200
H 	H 	0.18350 0.22460 0.61820 0.09000
C 	C 	0.16447 0.26179 0.59190 0.09800
C 	C 	0.16826 0.32863 0.60510 -0.02200
H 	H 	0.14660 0.33770 0.59750 0.04500
N 	N 	0.21459 0.29065 0.61622 -0.04100
C 	C 	0.19376 0.34784 0.61906 0.07900
C 	C 	0.19537 0.38701 0.62700 -0.06100
N 	N 	0.22199 0.32391 0.62489 -0.07900
C 	C 	0.16494 0.40792 0.62555 0.05300
H 	H 	0.14330 0.39760 0.61880 0.01600
C 	C 	0.22800 0.40371 0.63445 0.05000
H 	H 	0.25050 0.39090 0.63400 0.02800
C 	C 	0.22620 0.44039 0.64272 -0.18400
H 	H 	0.24810 0.45160 0.64840 0.10300
C 	C 	0.16450 0.44485 0.63393 -0.19400
H 	H 	0.14250 0.45840 0.63310 0.10400
C 	C 	0.19480 0.46080 0.64301 0.17900
N 	N 	0.19555 0.49904 0.65085 -0.20600
C 	C 	0.21600 0.50976 0.67282 0.21700
C 	C 	0.22050 0.48919 0.69316 -0.23200
H 	H 	0.20930 0.46580 0.69300 0.11800
C 	C 	0.23600 0.54091 0.67230 -0.21700
H 	H 	0.23530 0.55630 0.65780 0.11500
C 	C 	0.17320 0.52514 0.63769 0.18900
C 	C 	0.16230 0.55552 0.64763 -0.20000
H 	H 	0.17020 0.56090 0.66450 0.10600
C 	C 	0.24055 0.49872 0.71541 0.09200
H 	H 	0.24120 0.48270 0.72960 0.00400
C 	C 	0.25800 0.52967 0.71602 -0.09000
C 	C 	0.25840 0.55051 0.69393 0.07600
H 	H 	0.27360 0.57140 0.69300 0.02100
C 	C 	0.13060 0.57820 0.61149 -0.05100
C 	C 	0.13900 0.58210 0.63519 0.05200
H 	H 	0.12990 0.60240 0.64450 0.01800
C 	C 	0.15110 0.55179 0.59675 0.03400
H 	H 	0.15270 0.55300 0.57870 0.03400
C 	C 	0.16930 0.52325 0.61149 -0.17300
H 	H 	0.17880 0.50270 0.60270 0.09900
N 	N 	0.31126 0.54429 0.77435 -0.08900
C 	C 	0.29141 0.52222 0.75980 -0.02400
H 	H 	0.28540 0.49770 0.76380 0.05000
C 	C 	0.28120 0.53985 0.73859 0.09200
N 	N 	0.07812 0.65430 0.58442 -0.09100
C 	C 	0.09842 0.64113 0.60353 -0.01700
H 	H 	0.10560 0.65410 0.61840 0.04700
N 	N 	0.07851 0.62958 0.56395 -0.04300
N 	N 	0.09680 0.59977 0.57270 -0.07800
C 	C 	0.10690 0.60670 0.59814 0.07400
N 	N 	0.31700 0.57495 0.76110 -0.04000
N 	N 	0.29850 0.57282 0.73961 -0.08200
C 	C 	0.34656 0.49999 0.83451 -0.05100
C 	C 	0.32914 0.50436 0.81016 -0.07300
H 	H 	0.31810 0.48420 0.80180 0.08400
C 	C 	0.34464 0.56990 0.81080 -0.07600
H 	H 	0.34330 0.59330 0.80300 0.09300
C 	C 	0.32883 0.53964 0.79894 0.10400
C 	C 	0.03748 0.76070 0.56859 -0.00900
H 	H 	0.02980 0.78460 0.56410 0.07300
C 	C 	0.06255 0.75550 0.58854 -0.04200
C 	C 	0.02360 0.72981 0.55510 -0.04300
C 	C 	0.07572 0.72050 0.59423 -0.07700
H 	H 	0.09290 0.71700 0.60760 0.08500
C 	C 	0.03642 0.69503 0.56074 -0.07600
H 	H 	0.02720 0.67450 0.55170 0.09000
C 	C 	0.06289 0.69032 0.57972 0.10500
C 	C 	0.37895 0.59892 0.84802 0.37200
C 	C 	0.34587 0.46312 0.84830 0.38100
C 	C 	0.36334 0.53049 0.84597 -0.00200
H 	H 	0.37540 0.52760 0.86190 0.07200
C 	C 	0.36260 0.56549 0.83431 -0.04500
C 	C 	0.07598 0.78888 0.60371 0.36600
C 	C 	0.99394 0.73582 0.53422 0.38400
O 	O 	0.36580 0.46005 0.86776 -0.46300
O 	O 	0.39561 0.59183 0.86890 -0.46000
O 	O 	0.32668 0.43774 0.83833 -0.45500
O 	O 	0.37440 0.62934 0.83721 -0.46800
O 	O 	0.06860 0.82027 0.59447 -0.45700
O 	O 	0.09485 0.78284 0.62378 -0.45200
O 	O 	0.99026 0.76845 0.52701 -0.48100
O 	O 	0.97833 0.70708 0.52656 -0.47900
Zn	Zn	0.63276 0.58392 0.10986 1.22900
Zn	Zn	0.67682 0.61211 0.14634 1.22900
O 	O 	0.59911 0.55825 0.08026 -0.45600
H 	H 	0.58010 0.57060 0.07810 0.25500
O 	O 	0.71152 0.63525 0.17603 -0.45900
H 	H 	0.70470 0.65660 0.17930 0.25500
O 	O 	0.59627 0.77449 0.02729 -0.49500
O 	O 	0.63827 0.63305 0.09334 -0.46200
O 	O 	0.58453 0.71363 0.02693 -0.48200
O 	O 	0.67294 0.65758 0.12518 -0.47400
C 	C 	0.64274 0.76736 0.06999 -0.07200
H 	H 	0.63970 0.79100 0.06290 0.07700
C 	C 	0.62566 0.73654 0.05900 -0.05400
C 	C 	0.59949 0.74241 0.03592 0.38800
C 	C 	0.63035 0.70110 0.06946 -0.00000
H 	H 	0.61910 0.68060 0.06160 0.06800
N 	N 	0.68089 0.79399 0.10458 -0.08800
C 	C 	0.65200 0.69658 0.09176 -0.04800
C 	C 	0.65444 0.65896 0.10523 0.38100
C 	C 	0.66916 0.72735 0.10321 -0.07200
H 	H 	0.68350 0.72460 0.11820 0.09000
C 	C 	0.66447 0.76179 0.09190 0.09800
C 	C 	0.66826 0.82863 0.10510 -0.02200
H 	H 	0.64660 0.83770 0.09750 0.04500
N 	N 	0.71459 0.79065 0.11622 -0.04100
C 	C 	0.69376 0.84784 0.11906 0.07900
C 	C 	0.69537 0.88701 0.12700 -0.06100
N 	N 	0.72199 0.82391 0.12489 -0.07900
C 	C 	0.66494 0.90792 0.12555 0.05300
H 	H 	0.64330 0.89760 0.11880 0.01600
C 	C 	0.72800 0.90371 0.13445 0.05000
H 	H 	0.75050 0.89090 0.13400 0.02800
C 	C 	0.72620 0.94039 0.14272 -0.18400
H 	H 	0.74810 0.95160 0.14840 0.10300
C 	C 	0.66450 0.94485 0.13393 -0.19400
H 	H 	0.64250 0.95840 0.13310 0.10400
C 	C 	0.69480 0.96080 0.14301 0.17900
N 	N 	0.69555 0.99904 0.15085 -0.20600
C 	C 	0.71600 0.00976 0.17282 0.21700
C 	C 	0.72050 0.98919 0.19316 -0.23200
H 	H 	0.70930 0.96580 0.19300 0.11800
C 	C 	0.73600 0.04091 0.17230 -0.21700
H 	H 	0.73530 0.05630 0.15780 0.11500
C 	C 	0.67320 0.02514 0.13769 0.18900
C 	C 	0.66230 0.05552 0.14763 -0.20100
H 	H 	0.67020 0.06090 0.16450 0.10600
C 	C 	0.74055 0.99872 0.21541 0.09200
H 	H 	0.74120 0.98270 0.22960 0.00400
C 	C 	0.75800 0.02967 0.21602 -0.09000
C 	C 	0.75840 0.05051 0.19393 0.07600
H 	H 	0.77360 0.07140 0.19300 0.02100
C 	C 	0.63060 0.07820 0.11149 -0.05100
C 	C 	0.63900 0.08210 0.13519 0.05200
H 	H 	0.62990 0.10240 0.14450 0.01800
C 	C 	0.65110 0.05179 0.09675 0.03400
H 	H 	0.65270 0.05300 0.07870 0.03400
C 	C 	0.66930 0.02325 0.11149 -0.17400
H 	H 	0.67880 0.00270 0.10270 0.09900
N 	N 	0.81126 0.04429 0.27435 -0.08900
C 	C 	0.79141 0.02222 0.25980 -0.02400
H 	H 	0.78540 0.99770 0.26380 0.05000
C 	C 	0.78120 0.03985 0.23859 0.09200
N 	N 	0.57812 0.15430 0.08442 -0.09100
C 	C 	0.59842 0.14113 0.10353 -0.01700
H 	H 	0.60560 0.15410 0.11840 0.04700
N 	N 	0.57851 0.12958 0.06395 -0.04300
N 	N 	0.59680 0.09977 0.07270 -0.07800
C 	C 	0.60690 0.10670 0.09814 0.07400
N 	N 	0.81700 0.07495 0.26110 -0.04000
N 	N 	0.79850 0.07282 0.23961 -0.08200
C 	C 	0.84656 0.99999 0.33451 -0.05100
C 	C 	0.82914 0.00436 0.31016 -0.07300
H 	H 	0.81810 0.98420 0.30180 0.08400
C 	C 	0.84464 0.06990 0.31080 -0.07600
H 	H 	0.84330 0.09330 0.30300 0.09300
C 	C 	0.82883 0.03964 0.29894 0.10400
C 	C 	0.53748 0.26070 0.06859 -0.00900
H 	H 	0.52980 0.28460 0.06410 0.07300
C 	C 	0.56255 0.25550 0.08854 -0.04200
C 	C 	0.52360 0.22981 0.05510 -0.04300
C 	C 	0.57572 0.22050 0.09423 -0.07700
H 	H 	0.59290 0.21700 0.10760 0.08500
C 	C 	0.53642 0.19503 0.06074 -0.07500
H 	H 	0.52720 0.17450 0.05170 0.09000
C 	C 	0.56289 0.19032 0.07972 0.10400
C 	C 	0.87895 0.09892 0.34802 0.37200
C 	C 	0.84587 0.96312 0.34830 0.38100
C 	C 	0.86334 0.03049 0.34597 -0.00200
H 	H 	0.87540 0.02760 0.36190 0.07200
C 	C 	0.86260 0.06549 0.33431 -0.04500
C 	C 	0.57598 0.28888 0.10371 0.36600
C 	C 	0.49394 0.23582 0.03422 0.38400
O 	O 	0.86580 0.96005 0.36776 -0.46300
O 	O 	0.89561 0.09183 0.36890 -0.46000
O 	O 	0.82668 0.93774 0.33833 -0.45500
O 	O 	0.87440 0.12934 0.33721 -0.46800
O 	O 	0.56860 0.32027 0.09447 -0.45700
O 	O 	0.59485 0.28284 0.12378 -0.45200
O 	O 	0.49026 0.26845 0.02701 -0.48100
O 	O 	0.47833 0.20708 0.02656 -0.47900
Zn	Zn	0.86724 0.91608 0.60986 1.22900
Zn	Zn	0.82318 0.88789 0.64634 1.22900
O 	O 	0.90089 0.94175 0.58026 -0.45600
H 	H 	0.91990 0.92940 0.57810 0.25500
O 	O 	0.78848 0.86475 0.67603 -0.45900
H 	H 	0.79530 0.84340 0.67930 0.25500
O 	O 	0.90373 0.72551 0.52729 -0.49500
O 	O 	0.86173 0.86695 0.59334 -0.46200
O 	O 	0.91547 0.78637 0.52693 -0.48100
O 	O 	0.82706 0.84242 0.62518 -0.47400
C 	C 	0.85726 0.73264 0.56999 -0.07200
H 	H 	0.86030 0.70900 0.56290 0.07700
C 	C 	0.87434 0.76346 0.55900 -0.05400
C 	C 	0.90051 0.75759 0.53592 0.38800
C 	C 	0.86965 0.79890 0.56946 -0.00000
H 	H 	0.88090 0.81940 0.56160 0.06800
N 	N 	0.81911 0.70601 0.60458 -0.08800
C 	C 	0.84800 0.80342 0.59176 -0.04800
C 	C 	0.84556 0.84104 0.60523 0.38100
C 	C 	0.83084 0.77265 0.60321 -0.07200
H 	H 	0.81650 0.77540 0.61820 0.09000
C 	C 	0.83553 0.73821 0.59190 0.09800
C 	C 	0.83174 0.67137 0.60510 -0.02200
H 	H 	0.85340 0.66230 0.59750 0.04500
N 	N 	0.78541 0.70935 0.61622 -0.04100
C 	C 	0.80624 0.65216 0.61906 0.07900
C 	C 	0.80463 0.61299 0.62700 -0.06100
N 	N 	0.77801 0.67609 0.62489 -0.07900
C 	C 	0.83506 0.59208 0.62555 0.05300
H 	H 	0.85670 0.60240 0.61880 0.01600
C 	C 	0.77200 0.59629 0.63445 0.05000
H 	H 	0.74950 0.60910 0.63400 0.02800
C 	C 	0.77380 0.55961 0.64272 -0.18400
H 	H 	0.75190 0.54840 0.64840 0.10300
C 	C 	0.83550 0.55515 0.63393 -0.19400
H 	H 	0.85750 0.54160 0.63310 0.10400
C 	C 	0.80520 0.53920 0.64301 0.17900
N 	N 	0.80445 0.50096 0.65085 -0.20600
C 	C 	0.78400 0.49024 0.67282 0.21700
C 	C 	0.77950 0.51081 0.69316 -0.23200
H 	H 	0.79070 0.53420 0.69300 0.11800
C 	C 	0.76400 0.45909 0.67230 -0.21700
H 	H 	0.76470 0.44370 0.65780 0.11500
C 	C 	0.82680 0.47486 0.63769 0.18900
C 	C 	0.83770 0.44448 0.64763 -0.20000
H 	H 	0.82980 0.43910 0.66450 0.10600
C 	C 	0.75945 0.50128 0.71541 0.09200
H 	H 	0.75880 0.51730 0.72960 0.00400
C 	C 	0.74200 0.47033 0.71602 -0.09000
C 	C 	0.74160 0.44949 0.69393 0.07600
H 	H 	0.72640 0.42860 0.69300 0.02100
C 	C 	0.86940 0.42180 0.61149 -0.05100
C 	C 	0.86100 0.41790 0.63519 0.05200
H 	H 	0.87010 0.39760 0.64450 0.01800
C 	C 	0.84890 0.44821 0.59675 0.03400
H 	H 	0.84730 0.44700 0.57870 0.03400
C 	C 	0.83070 0.47675 0.61149 -0.17300
H 	H 	0.82120 0.49730 0.60270 0.09900
N 	N 	0.68874 0.45571 0.77435 -0.08900
C 	C 	0.70859 0.47778 0.75980 -0.02400
H 	H 	0.71460 0.50230 0.76380 0.05000
C 	C 	0.71880 0.46015 0.73859 0.09200
N 	N 	0.92188 0.34570 0.58442 -0.09100
C 	C 	0.90158 0.35887 0.60353 -0.01700
H 	H 	0.89440 0.34590 0.61840 0.04700
N 	N 	0.92149 0.37042 0.56395 -0.04300
N 	N 	0.90320 0.40023 0.57270 -0.07800
C 	C 	0.89310 0.39330 0.59814 0.07400
N 	N 	0.68300 0.42505 0.76110 -0.04000
N 	N 	0.70150 0.42718 0.73961 -0.08200
C 	C 	0.65344 0.50001 0.83451 -0.05100
C 	C 	0.67086 0.49564 0.81016 -0.07300
H 	H 	0.68190 0.51580 0.80180 0.08400
C 	C 	0.65536 0.43010 0.81080 -0.07600
H 	H 	0.65670 0.40670 0.80300 0.09300
C 	C 	0.67117 0.46036 0.79894 0.10400
C 	C 	0.96252 0.23930 0.56859 -0.00900
H 	H 	0.97020 0.21540 0.56410 0.07300
C 	C 	0.93745 0.24450 0.58854 -0.04200
C 	C 	0.97640 0.27019 0.55510 -0.04300
C 	C 	0.92428 0.27950 0.59423 -0.07700
H 	H 	0.90710 0.28300 0.60760 0.08500
C 	C 	0.96358 0.30497 0.56074 -0.07600
H 	H 	0.97280 0.32550 0.55170 0.09000
C 	C 	0.93711 0.30968 0.57972 0.10500
C 	C 	0.62105 0.40108 0.84802 0.37200
C 	C 	0.65413 0.53688 0.84830 0.38100
C 	C 	0.63666 0.46951 0.84597 -0.00200
H 	H 	0.62460 0.47240 0.86190 0.07200
C 	C 	0.63740 0.43451 0.83431 -0.04500
C 	C 	0.92402 0.21112 0.60371 0.36600
C 	C 	0.00606 0.26418 0.53422 0.38400
O 	O 	0.63420 0.53995 0.86776 -0.46300
O 	O 	0.60439 0.40817 0.86890 -0.46000
O 	O 	0.67332 0.56226 0.83833 -0.45500
O 	O 	0.62560 0.37066 0.83721 -0.46800
O 	O 	0.93140 0.17973 0.59447 -0.45700
O 	O 	0.90515 0.21716 0.62378 -0.45200
O 	O 	0.00974 0.23155 0.52701 -0.48100
O 	O 	0.02167 0.29292 0.52656 -0.47900
Zn	Zn	0.36724 0.41608 0.10986 1.22900
Zn	Zn	0.32318 0.38789 0.14634 1.22900
O 	O 	0.40089 0.44175 0.08026 -0.45600
H 	H 	0.41990 0.42940 0.07810 0.25500
O 	O 	0.28848 0.36475 0.17603 -0.45900
H 	H 	0.29530 0.34340 0.17930 0.25500
O 	O 	0.40373 0.22551 0.02729 -0.49500
O 	O 	0.36173 0.36695 0.09334 -0.46200
O 	O 	0.41547 0.28637 0.02693 -0.48200
O 	O 	0.32706 0.34242 0.12518 -0.47400
C 	C 	0.35726 0.23264 0.06999 -0.07200
H 	H 	0.36030 0.20900 0.06290 0.07700
C 	C 	0.37434 0.26346 0.05900 -0.05400
C 	C 	0.40051 0.25759 0.03592 0.38800
C 	C 	0.36965 0.29890 0.06946 -0.00000
H 	H 	0.38090 0.31940 0.06160 0.06800
N 	N 	0.31911 0.20601 0.10458 -0.08800
C 	C 	0.34800 0.30342 0.09176 -0.04800
C 	C 	0.34556 0.34104 0.10523 0.38100
C 	C 	0.33084 0.27265 0.10321 -0.07200
H 	H 	0.31650 0.27540 0.11820 0.09000
C 	C 	0.33553 0.23821 0.09190 0.09800
C 	C 	0.33174 0.17137 0.10510 -0.02200
H 	H 	0.35340 0.16230 0.09750 0.04500
N 	N 	0.28541 0.20935 0.11622 -0.04100
C 	C 	0.30624 0.15216 0.11906 0.07900
C 	C 	0.30463 0.11299 0.12700 -0.06100
N 	N 	0.27801 0.17609 0.12489 -0.07900
C 	C 	0.33506 0.09208 0.12555 0.05300
H 	H 	0.35670 0.10240 0.11880 0.01600
C 	C 	0.27200 0.09629 0.13445 0.05000
H 	H 	0.24950 0.10910 0.13400 0.02800
C 	C 	0.27380 0.05961 0.14272 -0.18400
H 	H 	0.25190 0.04840 0.14840 0.10300
C 	C 	0.33550 0.05515 0.13393 -0.19400
H 	H 	0.35750 0.04160 0.13310 0.10400
C 	C 	0.30520 0.03920 0.14301 0.17900
N 	N 	0.30445 0.00096 0.15085 -0.20600
C 	C 	0.28400 0.99024 0.17282 0.21700
C 	C 	0.27950 0.01081 0.19316 -0.23200
H 	H 	0.29070 0.03420 0.19300 0.11800
C 	C 	0.26400 0.95909 0.17230 -0.21700
H 	H 	0.26470 0.94370 0.15780 0.11500
C 	C 	0.32680 0.97486 0.13769 0.18900
C 	C 	0.33770 0.94448 0.14763 -0.20100
H 	H 	0.32980 0.93910 0.16450 0.10600
C 	C 	0.25945 0.00128 0.21541 0.09200
H 	H 	0.25880 0.01730 0.22960 0.00400
C 	C 	0.24200 0.97033 0.21602 -0.09000
C 	C 	0.24160 0.94949 0.19393 0.07600
H 	H 	0.22640 0.92860 0.19300 0.02100
C 	C 	0.36940 0.92180 0.11149 -0.05100
C 	C 	0.36100 0.91790 0.13519 0.05200
H 	H 	0.37010 0.89760 0.14450 0.01800
C 	C 	0.34890 0.94821 0.09675 0.03400
H 	H 	0.34730 0.94700 0.07870 0.03400
C 	C 	0.33070 0.97675 0.11149 -0.17400
H 	H 	0.32120 0.99730 0.10270 0.09900
N 	N 	0.18874 0.95571 0.27435 -0.08900
C 	C 	0.20859 0.97778 0.25980 -0.02400
H 	H 	0.21460 0.00230 0.26380 0.05000
C 	C 	0.21880 0.96015 0.23859 0.09200
N 	N 	0.42188 0.84570 0.08442 -0.09100
C 	C 	0.40158 0.85887 0.10353 -0.01700
H 	H 	0.39440 0.84590 0.11840 0.04700
N 	N 	0.42149 0.87042 0.06395 -0.04300
N 	N 	0.40320 0.90023 0.07270 -0.07800
C 	C 	0.39310 0.89330 0.09814 0.07400
N 	N 	0.18300 0.92505 0.26110 -0.04000
N 	N 	0.20150 0.92718 0.23961 -0.08200
C 	C 	0.15344 0.00001 0.33451 -0.05100
C 	C 	0.17086 0.99564 0.31016 -0.07300
H 	H 	0.18190 0.01580 0.30180 0.08400
C 	C 	0.15536 0.93010 0.31080 -0.07600
H 	H 	0.15670 0.90670 0.30300 0.09300
C 	C 	0.17117 0.96036 0.29894 0.10400
C 	C 	0.46252 0.73930 0.06859 -0.00900
H 	H 	0.47020 0.71540 0.06410 0.07300
C 	C 	0.43745 0.74450 0.08854 -0.04200
C 	C 	0.47640 0.77019 0.05510 -0.04300
C 	C 	0.42428 0.77950 0.09423 -0.07700
H 	H 	0.40710 0.78300 0.10760 0.08500
C 	C 	0.46358 0.80497 0.06074 -0.07500
H 	H 	0.47280 0.82550 0.05170 0.09000
C 	C 	0.43711 0.80968 0.07972 0.10400
C 	C 	0.12105 0.90108 0.34802 0.37200
C 	C 	0.15413 0.03688 0.34830 0.38100
C 	C 	0.13666 0.96951 0.34597 -0.00200
H 	H 	0.12460 0.97240 0.36190 0.07200
C 	C 	0.13740 0.93451 0.33431 -0.04500
C 	C 	0.42402 0.71112 0.10371 0.36600
C 	C 	0.50606 0.76418 0.03422 0.38400
O 	O 	0.13420 0.03995 0.36776 -0.46300
O 	O 	0.10439 0.90817 0.36890 -0.46000
O 	O 	0.17332 0.06226 0.33833 -0.45500
O 	O 	0.12560 0.87066 0.33721 -0.46800
O 	O 	0.43140 0.67973 0.09447 -0.45700
O 	O 	0.40515 0.71716 0.12378 -0.45200
O 	O 	0.50974 0.73155 0.02701 -0.48100
O 	O 	0.52167 0.79292 0.02656 -0.47900
Zn	Zn	0.78322 0.04638 0.50000 1.20600
Zn	Zn	0.71078 0.06146 0.50000 1.20400
Zn	Zn	0.28322 0.54638 -0.00000 1.20500
Zn	Zn	0.21078 0.56146 -0.00000 1.20400
Zn	Zn	0.21678 0.95362 0.50000 1.20600
Zn	Zn	0.28922 0.93854 0.50000 1.20400
Zn	Zn	0.71678 0.45362 -0.00000 1.20500
Zn	Zn	0.78922 0.43854 -0.00000 1.20400
Zn	Zn	0.95362 0.78322 0.50000 1.20600
Zn	Zn	0.93854 0.71078 0.50000 1.20400
Zn	Zn	0.45362 0.28322 -0.00000 1.20500
Zn	Zn	0.43854 0.21078 -0.00000 1.20400
Zn	Zn	0.04638 0.21678 0.50000 1.20600
Zn	Zn	0.06146 0.28922 0.50000 1.20400
Zn	Zn	0.54638 0.71678 -0.00000 1.20500
Zn	Zn	0.56146 0.78922 -0.00000 1.20400
