data_crystal

_cell_length_a 11.57910
_cell_length_b 15.26230
_cell_length_c 19.24830
_cell_angle_alpha 70.39400
_cell_angle_beta  76.58700
_cell_angle_gamma 82.73200

_symmetry_space_group_name_	'P 1'
_symmetry_space_group_name_H-M	'P 1'

loop_
_symmetry_equiv_pos_as_xyz
  x,y,z

loop_
_atom_site_label
_atom_site_type_symbol
_atom_site_fract_x
_atom_site_fract_y
_atom_site_fract_z
_atom_site_charge
C 	C 	0.86200 0.69820 0.31130 0.08100
H 	H 	0.78980 0.70510 0.29620 -0.01200
C 	C 	0.94400 0.76670 0.27330 -0.15600
H 	H 	0.92600 0.81820 0.23400 0.07100
C 	C 	0.05270 0.75730 0.29440 0.08700
C 	C 	0.07290 0.67990 0.35510 -0.14700
H 	H 	0.14350 0.67180 0.37220 0.10200
C 	C 	0.98630 0.61520 0.38960 0.07700
H 	H 	0.00150 0.56350 0.42950 0.00900
C 	C 	0.14560 0.82680 0.25480 -0.01000
C 	C 	0.15280 0.87950 0.17910 -0.04300
H 	H 	0.09830 0.87240 0.15300 0.03800
C 	C 	0.24120 0.94250 0.14290 -0.05700
H 	H 	0.24490 0.97790 0.09260 0.04500
C 	C 	0.32430 0.95330 0.18090 0.01500
C 	C 	0.31720 0.90010 0.25580 -0.05700
H 	H 	0.37250 0.90640 0.28180 0.03000
C 	C 	0.22890 0.83780 0.29240 -0.05800
H 	H 	0.22510 0.80280 0.34270 0.06000
C 	C 	0.41660 0.02230 0.14310 0.02100
C 	C 	0.56260 0.91410 0.08490 0.29200
H 	H 	0.61630 0.92540 0.03630 -0.06800
H 	H 	0.49440 0.88430 0.08340 -0.05400
C 	C 	0.62440 0.84960 0.14460 -0.78300
H 	H 	0.69180 0.87880 0.14650 0.25100
H 	H 	0.65060 0.79300 0.13290 0.26100
H 	H 	0.57040 0.83570 0.19250 0.26000
C 	C 	0.58540 0.08050 0.07320 0.08500
H 	H 	0.66040 0.08580 0.04210 -0.02700
C 	C 	0.42100 0.11090 0.14310 0.02100
C 	C 	0.33000 0.16630 0.17990 0.00400
C 	C 	0.29570 0.25790 0.14110 -0.06600
H 	H 	0.33070 0.28460 0.09070 0.04300
C 	C 	0.21040 0.30900 0.17710 -0.03300
H 	H 	0.18790 0.36930 0.15010 0.04600
C 	C 	0.15720 0.27190 0.25310 -0.02200
C 	C 	0.19260 0.18040 0.29170 -0.03600
H 	H 	0.15840 0.15410 0.34220 0.04000
C 	C 	0.27670 0.12890 0.25630 -0.05900
H 	H 	0.29860 0.06850 0.28330 0.04600
C 	C 	0.06930 0.32700 0.29230 0.09300
C 	C 	0.99200 0.39340 0.25550 -0.15600
H 	H 	0.99480 0.40470 0.20450 0.08400
C 	C 	0.90960 0.44320 0.29550 0.08100
H 	H 	0.85880 0.48810 0.26980 -0.00000
C 	C 	0.97690 0.36690 0.40400 0.08900
H 	H 	0.97340 0.35770 0.45470 0.00600
C 	C 	0.06150 0.31490 0.36790 -0.14900
H 	H 	0.11300 0.27190 0.39450 0.08600
C 	C 	0.58010 0.31990 0.94730 0.30000
C 	C 	0.53650 0.34340 0.87670 -0.05000
C 	C 	0.60690 0.31770 0.81590 -0.04400
H 	H 	0.67820 0.28290 0.82100 0.06300
C 	C 	0.56930 0.34450 0.74850 -0.00300
H 	H 	0.61750 0.33010 0.70740 0.03700
C 	C 	0.46040 0.39260 0.74130 -0.09700
C 	C 	0.38860 0.41350 0.80360 -0.00200
H 	H 	0.31410 0.44350 0.79990 0.04200
C 	C 	0.42710 0.39020 0.87020 -0.04900
H 	H 	0.37970 0.40580 0.91090 0.06200
C 	C 	0.42160 0.42530 0.66730 0.36400
C 	C 	0.76010 0.44260 0.02250 0.40400
C 	C 	0.88440 0.47380 0.01080 -0.18900
C 	C 	0.97900 0.40730 0.01870 0.07400
H 	H 	0.96450 0.34470 0.03140 0.00500
C 	C 	0.90640 0.56740 0.99200 0.10800
H 	H 	0.84420 0.61260 0.98670 0.01200
C 	C 	0.52950 0.61450 0.82900 0.36300
C 	C 	0.58090 0.60150 0.75310 -0.07200
C 	C 	0.68470 0.54510 0.74330 -0.01400
H 	H 	0.72350 0.51700 0.78310 0.05300
C 	C 	0.72910 0.53140 0.67470 -0.02100
H 	H 	0.79970 0.49590 0.66770 0.05200
C 	C 	0.66870 0.57040 0.61574 -0.06700
C 	C 	0.56550 0.62650 0.62550 -0.02800
H 	H 	0.52560 0.65360 0.58610 0.03500
C 	C 	0.52300 0.64140 0.69350 -0.01400
H 	H 	0.45410 0.67900 0.69970 0.04100
C 	C 	0.71110 0.54910 0.54310 0.30800
C 	C 	0.66760 0.32300 0.51620 0.67100
C 	C 	0.56780 0.25700 0.55280 -1.20500
H 	H 	0.57880 0.20910 0.52960 0.38600
H 	H 	0.49310 0.29080 0.54660 0.39000
H 	H 	0.56800 0.22930 0.60560 0.38600
Co	Co	0.61505 0.26997 0.08187 1.13800
Co	Co	0.76856 0.50808 0.42199 1.16100
N 	N 	0.52230 0.00390 0.09780 -0.17100
N 	N 	0.52750 0.14750 0.09889 -0.24200
N 	N 	0.90020 0.42950 0.36899 -0.23800
N 	N 	0.88240 0.62300 0.36869 -0.23200
O 	O 	0.52430 0.35671 0.99829 -0.46600
O 	O 	0.66660 0.26234 0.96114 -0.33800
O 	O 	0.31250 0.44503 0.66791 -0.44200
O 	O 	0.50180 0.42955 0.60933 -0.44200
O 	O 	0.55240 0.55034 0.88613 -0.41500
O 	O 	0.46870 0.69060 0.82748 -0.44100
O 	O 	0.64410 0.57773 0.49367 -0.50400
O 	O 	0.80730 0.50496 0.52964 -0.38000
O 	O 	0.68050 0.50427 0.00227 -0.43700
O 	O 	0.74880 0.35650 0.05223 -0.47000
O 	O 	0.64230 0.40722 0.47553 -0.60800
O 	O 	0.76940 0.29460 0.52490 -0.39800
C 	C 	0.13800 0.30180 0.68870 0.08500
H 	H 	0.21020 0.29490 0.70380 -0.00900
C 	C 	0.05600 0.23330 0.72670 -0.15100
H 	H 	0.07400 0.18180 0.76600 0.07500
C 	C 	0.94730 0.24270 0.70560 0.08800
C 	C 	0.92710 0.32010 0.64490 -0.15800
H 	H 	0.85650 0.32820 0.62780 0.10600
C 	C 	0.01370 0.38480 0.61040 0.09300
H 	H 	0.99850 0.43650 0.57050 0.00100
C 	C 	0.85440 0.17320 0.74520 -0.01000
C 	C 	0.84720 0.12050 0.82090 -0.04100
H 	H 	0.90170 0.12760 0.84700 0.04500
C 	C 	0.75880 0.05750 0.85710 -0.05600
H 	H 	0.75510 0.02210 0.90740 0.06000
C 	C 	0.67570 0.04670 0.81910 0.01100
C 	C 	0.68280 0.09990 0.74420 -0.05500
H 	H 	0.62750 0.09360 0.71820 0.02800
C 	C 	0.77110 0.16220 0.70760 -0.05900
H 	H 	0.77490 0.19720 0.65730 0.06000
C 	C 	0.58340 0.97770 0.85690 0.03300
C 	C 	0.43740 0.08590 0.91510 0.27100
H 	H 	0.38370 0.07460 0.96370 -0.04000
H 	H 	0.50560 0.11570 0.91660 -0.03600
C 	C 	0.37560 0.15040 0.85540 -0.76900
H 	H 	0.30820 0.12120 0.85350 0.25200
H 	H 	0.34940 0.20700 0.86710 0.26400
H 	H 	0.42960 0.16430 0.80750 0.25600
C 	C 	0.41460 0.91950 0.92680 0.09500
H 	H 	0.33960 0.91420 0.95790 -0.00600
C 	C 	0.57900 0.88910 0.85690 0.02200
C 	C 	0.67000 0.83370 0.82010 0.01500
C 	C 	0.70430 0.74210 0.85890 -0.07400
H 	H 	0.66930 0.71540 0.90930 0.06700
C 	C 	0.78960 0.69100 0.82290 -0.02400
H 	H 	0.81210 0.63070 0.84990 0.05100
C 	C 	0.84280 0.72810 0.74690 -0.02500
C 	C 	0.80740 0.81960 0.70830 -0.03000
H 	H 	0.84160 0.84590 0.65780 0.03900
C 	C 	0.72330 0.87110 0.74370 -0.06500
H 	H 	0.70140 0.93150 0.71670 0.05000
C 	C 	0.93070 0.67300 0.70770 0.09400
C 	C 	0.00800 0.60660 0.74450 -0.15200
H 	H 	0.00520 0.59530 0.79550 0.08900
C 	C 	0.09040 0.55680 0.70450 0.08200
H 	H 	0.14120 0.51190 0.73020 0.00200
C 	C 	0.02310 0.63310 0.59600 0.09600
H 	H 	0.02660 0.64230 0.54530 0.00500
C 	C 	0.93850 0.68510 0.63210 -0.15600
H 	H 	0.88700 0.72810 0.60550 0.08800
C 	C 	0.41990 0.68010 0.05270 0.30700
C 	C 	0.46350 0.65660 0.12330 -0.06400
C 	C 	0.39310 0.68230 0.18410 -0.03700
H 	H 	0.32180 0.71710 0.17900 0.05800
C 	C 	0.43070 0.65550 0.25150 -0.00900
H 	H 	0.38250 0.66990 0.29260 0.03900
C 	C 	0.53960 0.60740 0.25870 -0.09300
C 	C 	0.61140 0.58650 0.19640 -0.01000
H 	H 	0.68590 0.55650 0.20010 0.04000
C 	C 	0.57290 0.60980 0.12980 -0.04300
H 	H 	0.62030 0.59420 0.08910 0.05100
C 	C 	0.57840 0.57470 0.33270 0.36300
C 	C 	0.23990 0.55740 0.97750 0.34100
C 	C 	0.11560 0.52620 0.98920 0.03000
C 	C 	0.02100 0.59270 0.98130 -0.11500
H 	H 	0.03550 0.65530 0.96860 0.08200
C 	C 	0.09360 0.43260 0.00800 -0.15300
H 	H 	0.15580 0.38740 0.01330 0.07700
C 	C 	0.47050 0.38550 0.17100 0.36700
C 	C 	0.41910 0.39850 0.24690 -0.07600
C 	C 	0.31530 0.45490 0.25670 -0.00900
H 	H 	0.27650 0.48300 0.21690 0.04700
C 	C 	0.27090 0.46860 0.32530 -0.02600
H 	H 	0.20030 0.50410 0.33230 0.05300
C 	C 	0.33130 0.42960 0.38426 -0.06400
C 	C 	0.43450 0.37350 0.37450 -0.03100
H 	H 	0.47440 0.34640 0.41390 0.03600
C 	C 	0.47700 0.35860 0.30650 -0.01000
H 	H 	0.54590 0.32100 0.30030 0.03900
C 	C 	0.28890 0.45090 0.45690 0.30700
C 	C 	0.33240 0.67700 0.48380 0.67100
C 	C 	0.43220 0.74300 0.44720 -1.20600
H 	H 	0.42120 0.79090 0.47040 0.38700
H 	H 	0.50690 0.70920 0.45340 0.39100
H 	H 	0.43200 0.77070 0.39440 0.38700
Co	Co	0.38495 0.73003 0.91813 1.15600
Co	Co	0.23144 0.49192 0.57801 1.16200
N 	N 	0.47770 0.99610 0.90220 -0.16200
N 	N 	0.47250 0.85250 0.90111 -0.23100
N 	N 	0.09980 0.57050 0.63101 -0.23900
N 	N 	0.11760 0.37700 0.63131 -0.23400
O 	O 	0.47570 0.64329 0.00171 -0.51200
O 	O 	0.33340 0.73766 0.03886 -0.37700
O 	O 	0.68750 0.55497 0.33209 -0.44300
O 	O 	0.49820 0.57045 0.39067 -0.44100
O 	O 	0.44760 0.44966 0.11387 -0.43500
O 	O 	0.53130 0.30940 0.17252 -0.44700
O 	O 	0.35590 0.42227 0.50633 -0.50300
O 	O 	0.19270 0.49504 0.47036 -0.37900
O 	O 	0.31950 0.49573 0.99773 -0.38300
O 	O 	0.25120 0.64350 0.94777 -0.43600
O 	O 	0.35770 0.59278 0.52447 -0.60800
O 	O 	0.23060 0.70540 0.47510 -0.39700
Co	Co	0.50000 0.50000 -0.00000 1.18000
Co	Co	0.50000 0.50000 0.50000 1.18800
