data_crystal

_cell_length_a 9.34020
_cell_length_b 13.73910
_cell_length_c 20.09000
_cell_angle_alpha 86.13720
_cell_angle_beta  78.56890
_cell_angle_gamma 70.12840

_symmetry_space_group_name_	'P 1'
_symmetry_space_group_name_H-M	'P 1'

loop_
_symmetry_equiv_pos_as_xyz
  x,y,z

loop_
_atom_site_label
_atom_site_type_symbol
_atom_site_fract_x
_atom_site_fract_y
_atom_site_fract_z
_atom_site_charge
Zn	Zn	0.65877 0.24342 0.98640 1.20900
Zn	Zn	0.09781 0.24342 0.51360 1.20900
Zn	Zn	0.34123 0.75658 0.01360 1.20900
Zn	Zn	0.90219 0.75658 0.48640 1.20900
H 	H 	0.98100 0.12900 0.93400 -0.02700
H 	H 	0.13560 0.98620 0.87190 0.14200
H 	H 	0.75670 0.91080 0.86900 0.14000
H 	H 	0.61120 0.06080 0.92830 -0.02900
H 	H 	0.97230 0.73780 0.83680 0.04400
H 	H 	0.92100 0.81440 0.77720 0.04100
H 	H 	0.28900 0.68460 0.81960 0.04400
H 	H 	0.36750 0.61500 0.75440 0.04100
H 	H 	0.59680 0.45380 0.93710 -0.03200
H 	H 	0.44440 0.57820 0.87590 0.14500
H 	H 	0.23050 0.38040 0.85060 0.14400
H 	H 	0.38140 0.26220 0.91320 -0.04100
H 	H 	0.12450 0.35560 0.05990 0.05000
H 	H 	0.81050 0.49660 0.94370 0.04900
H 	H 	0.38600 0.32740 0.19260 0.04600
H 	H 	0.53280 0.01480 0.19090 0.04900
H 	H 	0.89000 0.12900 0.56600 -0.03300
H 	H 	0.87820 0.98620 0.62810 0.15000
H 	H 	0.33250 0.91080 0.63100 0.14400
H 	H 	0.32800 0.06080 0.57170 -0.03000
H 	H 	0.28990 0.73780 0.66320 0.04700
H 	H 	0.26460 0.81440 0.72280 0.04300
H 	H 	0.02640 0.68460 0.68040 0.04500
H 	H 	0.01750 0.61500 0.74560 0.04200
H 	H 	0.94940 0.45380 0.56290 -0.03100
H 	H 	0.97740 0.57820 0.62410 0.14400
H 	H 	0.38910 0.38040 0.64940 0.14400
H 	H 	0.35640 0.26220 0.58680 -0.04000
H 	H 	0.51990 0.35560 0.44010 0.04900
H 	H 	0.69290 0.49660 0.55630 0.04800
H 	H 	0.28660 0.32740 0.30740 0.04500
H 	H 	0.45240 0.01480 0.30910 0.04900
H 	H 	0.01900 0.87100 0.06600 -0.02700
H 	H 	0.86440 0.01380 0.12810 0.14200
H 	H 	0.24330 0.08920 0.13100 0.14000
H 	H 	0.38880 0.93920 0.07170 -0.02900
H 	H 	0.02770 0.26220 0.16320 0.04400
H 	H 	0.07900 0.18560 0.22280 0.04100
H 	H 	0.71100 0.31540 0.18040 0.04400
H 	H 	0.63250 0.38500 0.24560 0.04100
H 	H 	0.40320 0.54620 0.06290 -0.03200
H 	H 	0.55560 0.42180 0.12410 0.14500
H 	H 	0.76950 0.61960 0.14940 0.14400
H 	H 	0.61860 0.73780 0.08680 -0.04100
H 	H 	0.87550 0.64440 0.94010 0.05000
H 	H 	0.18950 0.50340 0.05630 0.04900
H 	H 	0.61400 0.67260 0.80740 0.04600
H 	H 	0.46720 0.98520 0.80910 0.04900
H 	H 	0.11000 0.87100 0.43400 -0.03300
H 	H 	0.12180 0.01380 0.37190 0.15000
H 	H 	0.66750 0.08920 0.36900 0.14400
H 	H 	0.67200 0.93920 0.42830 -0.03000
H 	H 	0.71010 0.26220 0.33680 0.04700
H 	H 	0.73540 0.18560 0.27720 0.04300
H 	H 	0.97360 0.31540 0.31960 0.04500
H 	H 	0.98250 0.38500 0.25440 0.04200
H 	H 	0.05060 0.54620 0.43710 -0.03100
H 	H 	0.02260 0.42180 0.37590 0.14400
H 	H 	0.61090 0.61960 0.35060 0.14400
H 	H 	0.64360 0.73780 0.41320 -0.04000
H 	H 	0.48010 0.64440 0.55990 0.04900
H 	H 	0.30710 0.50340 0.44370 0.04800
H 	H 	0.71340 0.67260 0.69260 0.04500
H 	H 	0.54760 0.98520 0.69090 0.04900
C 	C 	0.93549 0.08542 0.91978 0.14900
C 	C 	0.02916 0.99968 0.88300 -0.27200
C 	C 	0.96409 0.93342 0.86262 0.29700
C 	C 	0.80377 0.95526 0.88084 -0.26700
C 	C 	0.71811 0.04478 0.91689 0.15600
C 	C 	0.00689 0.77882 0.80004 0.02200
C 	C 	0.27153 0.64354 0.78661 0.01600
C 	C 	0.52280 0.43820 0.91907 0.15400
C 	C 	0.43116 0.51388 0.88261 -0.30300
C 	C 	0.32162 0.49336 0.85673 0.30400
C 	C 	0.30487 0.39626 0.86822 -0.28700
C 	C 	0.39665 0.32570 0.90480 0.16100
C 	C 	0.91415 0.31530 0.00410 0.34900
C 	C 	0.07440 0.41320 0.03586 -0.02200
C 	C 	0.95881 0.41118 0.00131 -0.06500
C 	C 	0.88737 0.49786 0.96650 -0.01800
C 	C 	0.53306 0.17008 0.10553 0.32900
C 	C 	0.39622 0.26496 0.21553 -0.02500
C 	C 	0.46923 0.17174 0.18039 -0.07000
C 	C 	0.48724 0.07692 0.21470 -0.02700
C 	C 	0.97909 0.08542 0.58022 0.16800
C 	C 	0.97116 0.99968 0.61700 -0.29900
C 	C 	0.10249 0.93342 0.63738 0.31500
C 	C 	0.24097 0.95526 0.61916 -0.27700
C 	C 	0.23711 0.04478 0.58311 0.16100
C 	C 	0.21429 0.77882 0.69996 0.01700
C 	C 	0.08493 0.64354 0.71339 0.01600
C 	C 	0.03900 0.43820 0.58093 0.15300
C 	C 	0.05496 0.51388 0.61739 -0.30100
C 	C 	0.18502 0.49336 0.64327 0.30300
C 	C 	0.29887 0.39626 0.63178 -0.28600
C 	C 	0.27765 0.32570 0.59520 0.16000
C 	C 	0.77055 0.31530 0.49590 0.34800
C 	C 	0.51240 0.41320 0.46414 -0.02000
C 	C 	0.63001 0.41118 0.49869 -0.06700
C 	C 	0.61477 0.49786 0.53350 -0.01600
C 	C 	0.29686 0.17008 0.39447 0.32900
C 	C 	0.33882 0.26496 0.28447 -0.02500
C 	C 	0.35903 0.17174 0.31961 -0.07000
C 	C 	0.43584 0.07692 0.28530 -0.02700
C 	C 	0.06451 0.91458 0.08022 0.14900
C 	C 	0.97084 0.00032 0.11700 -0.27200
C 	C 	0.03591 0.06658 0.13738 0.29700
C 	C 	0.19623 0.04474 0.11916 -0.26700
C 	C 	0.28189 0.95522 0.08311 0.15600
C 	C 	0.99311 0.22118 0.19996 0.02200
C 	C 	0.72847 0.35646 0.21339 0.01600
C 	C 	0.47720 0.56180 0.08093 0.15400
C 	C 	0.56884 0.48612 0.11739 -0.30300
C 	C 	0.67838 0.50664 0.14327 0.30400
C 	C 	0.69513 0.60374 0.13178 -0.28700
C 	C 	0.60335 0.67430 0.09520 0.16100
C 	C 	0.08585 0.68470 0.99590 0.34900
C 	C 	0.92560 0.58680 0.96414 -0.02200
C 	C 	0.04119 0.58882 0.99869 -0.06500
C 	C 	0.11263 0.50214 0.03350 -0.01800
C 	C 	0.46694 0.82992 0.89447 0.32900
C 	C 	0.60378 0.73504 0.78447 -0.02500
C 	C 	0.53077 0.82826 0.81961 -0.07000
C 	C 	0.51276 0.92308 0.78530 -0.02700
C 	C 	0.02091 0.91458 0.41978 0.16800
C 	C 	0.02884 0.00032 0.38300 -0.29900
C 	C 	0.89751 0.06658 0.36262 0.31500
C 	C 	0.75903 0.04474 0.38084 -0.27700
C 	C 	0.76289 0.95522 0.41689 0.16100
C 	C 	0.78571 0.22118 0.30004 0.01700
C 	C 	0.91507 0.35646 0.28661 0.01600
C 	C 	0.96100 0.56180 0.41907 0.15300
C 	C 	0.94504 0.48612 0.38261 -0.30100
C 	C 	0.81498 0.50664 0.35673 0.30300
C 	C 	0.70113 0.60374 0.36822 -0.28600
C 	C 	0.72235 0.67430 0.40480 0.16000
C 	C 	0.22945 0.68470 0.50410 0.34800
C 	C 	0.48760 0.58680 0.53586 -0.02000
C 	C 	0.36999 0.58882 0.50131 -0.06700
C 	C 	0.38523 0.50214 0.46650 -0.01600
C 	C 	0.70314 0.82992 0.60553 0.32900
C 	C 	0.66118 0.73504 0.71553 -0.02500
C 	C 	0.64097 0.82826 0.68039 -0.07000
C 	C 	0.56416 0.92308 0.71470 -0.02700
C 	C 	0.14496 0.71008 0.75000 0.01600
C 	C 	0.85504 0.28992 0.25000 0.01600
N 	N 	0.78126 0.11028 0.93645 -0.30100
N 	N 	0.51185 0.34250 0.93041 -0.29600
N 	N 	0.10846 0.11028 0.56355 -0.30600
N 	N 	0.14565 0.34250 0.56959 -0.29600
N 	N 	0.21874 0.88972 0.06355 -0.30100
N 	N 	0.48815 0.65750 0.06959 -0.29600
N 	N 	0.89154 0.88972 0.43645 -0.30600
N 	N 	0.85435 0.65750 0.43041 -0.29600
O 	O 	0.06251 0.85178 0.82555 -0.24400
O 	O 	0.22183 0.56194 0.81996 -0.24200
O 	O 	0.79432 0.32616 0.97964 -0.46400
O 	O 	0.99204 0.23412 0.02824 -0.27900
O 	O 	0.55027 0.25246 0.08037 -0.46600
O 	O 	0.56218 0.09144 0.07168 -0.31200
O 	O 	0.08571 0.85178 0.67445 -0.24800
O 	O 	0.21623 0.56194 0.68004 -0.24200
O 	O 	0.87952 0.32616 0.52036 -0.46200
O 	O 	0.77384 0.23412 0.47176 -0.28000
O 	O 	0.19727 0.25246 0.41963 -0.46700
O 	O 	0.34638 0.09144 0.42832 -0.31400
O 	O 	0.93749 0.14822 0.17445 -0.24400
O 	O 	0.77817 0.43806 0.18004 -0.24200
O 	O 	0.20568 0.67384 0.02036 -0.46400
O 	O 	0.00796 0.76588 0.97176 -0.27900
O 	O 	0.44973 0.74754 0.91963 -0.46600
O 	O 	0.43782 0.90856 0.92832 -0.31200
O 	O 	0.91429 0.14822 0.32555 -0.24800
O 	O 	0.78377 0.43806 0.31996 -0.24200
O 	O 	0.12048 0.67384 0.47964 -0.46200
O 	O 	0.22616 0.76588 0.52824 -0.28000
O 	O 	0.80273 0.74754 0.58037 -0.46700
O 	O 	0.65362 0.90856 0.57168 -0.31400
