data_crystal

_cell_length_a 25.29900
_cell_length_b 25.29900
_cell_length_c 166.82800
_cell_angle_alpha 90.00000
_cell_angle_beta  90.00000
_cell_angle_gamma 120.00000

_symmetry_space_group_name_	'P 1'
_symmetry_space_group_name_H-M	'P 1'

loop_
_symmetry_equiv_pos_as_xyz
  x,y,z

loop_
_atom_site_label
_atom_site_type_symbol
_atom_site_fract_x
_atom_site_fract_y
_atom_site_fract_z
_atom_site_charge
Zn	Zn	0.65912 0.99951 0.41159 1.21400
Zn	Zn	0.68825 0.93074 0.42511 1.21400
Zn	Zn	0.75766 0.07301 0.42518 1.21300
Zn	Zn	0.78537 0.00073 0.41143 1.21300
Zn	Zn	0.58766 0.26879 0.49539 1.21700
Zn	Zn	0.93925 0.91943 0.33393 1.21800
O 	O 	0.72291 0.00149 0.41806 -0.95700
O 	O 	0.72679 0.12590 0.42074 -0.49700
O 	O 	0.60570 0.87474 0.42165 -0.51900
O 	O 	0.67178 0.99030 0.40016 -0.50800
O 	O 	0.57831 0.92560 0.41354 -0.52100
O 	O 	0.67910 0.94440 0.43631 -0.52000
O 	O 	0.65238 0.07375 0.41201 -0.50900
O 	O 	0.72770 0.88360 0.42453 -0.50100
O 	O 	0.79540 0.92970 0.41435 -0.48900
O 	O 	0.75780 0.98520 0.40032 -0.50800
C 	C 	0.68120 0.17520 0.41483 -0.23200
O 	O 	0.70440 0.04160 0.43482 -0.52300
C 	C 	0.68680 0.12090 0.41570 0.45400
O 	O 	0.41060 0.73120 0.35254 -0.52900
O 	O 	0.40060 0.74030 0.48458 -0.51300
O 	O 	0.44200 0.78920 0.34203 -0.55300
O 	O 	0.45890 0.78060 0.49553 -0.50600
O 	O 	0.59780 0.21050 0.48906 -0.49500
C 	C 	0.56730 0.87950 0.41714 0.47300
C 	C 	0.50590 0.82440 0.41644 -0.27000
C 	C 	0.71950 0.22820 0.41891 0.16300
H 	H 	0.74810 0.22920 0.42250 -0.01100
O 	O 	0.70010 0.24840 0.48883 -0.53600
C 	C 	0.71100 0.98190 0.39693 0.43600
S 	S 	0.85243 0.85249 0.41516 0.08200
C 	C 	0.67280 0.28140 0.41270 0.22400
C 	C 	0.39240 0.71950 0.41509 0.26300
C 	C 	0.66580 0.99580 0.44715 -0.21300
N 	N 	0.67800 0.92140 0.36365 -0.20800
C 	C 	0.64020 0.17750 0.40967 0.16400
H 	H 	0.61480 0.14260 0.40670 -0.01000
C 	C 	0.43620 0.72030 0.41961 -0.30800
H 	H 	0.42850 0.68520 0.42240 0.14000
C 	C 	0.71500 0.28080 0.41760 -0.26100
H 	H 	0.74220 0.31660 0.42020 0.12600
C 	C 	0.49330 0.77240 0.42028 0.21200
H 	H 	0.52320 0.77150 0.42340 -0.02800
N 	N 	0.60390 0.99510 0.47060 -0.21800
C 	C 	0.62490 0.99400 0.46286 0.21000
C 	C 	0.63450 0.22890 0.40859 -0.25600
H 	H 	0.60500 0.22770 0.40510 0.12300
C 	C 	0.46160 0.82400 0.41174 0.21500
H 	H 	0.46920 0.85880 0.40890 -0.03000
C 	C 	0.65510 0.96380 0.38409 0.14200
H 	H 	0.62800 0.97230 0.38680 -0.00200
C 	C 	0.40580 0.77190 0.41123 -0.30900
H 	H 	0.37570 0.77240 0.40810 0.14100
C 	C 	0.44540 0.78120 0.48797 0.42100
C 	C 	0.65080 0.94720 0.45245 0.14400
H 	H 	0.65290 0.91340 0.45070 -0.00600
C 	C 	0.70400 0.96720 0.38830 -0.21300
C 	C 	0.63720 0.15660 0.48236 -0.30400
C 	C 	0.61360 0.04960 0.47434 0.27300
C 	C 	0.68380 0.99230 0.43884 0.43400
C 	C 	0.64520 0.94860 0.37617 -0.22800
H 	H 	0.61100 0.94450 0.37350 0.11400
C 	C 	0.50700 0.81450 0.35312 -0.35400
C 	C 	0.63300 0.94830 0.46029 -0.25000
H 	H 	0.62670 0.91700 0.46380 0.12000
C 	C 	0.48750 0.83480 0.48349 -0.19500
C 	C 	0.47740 0.83870 0.47533 0.12400
H 	H 	0.44530 0.80580 0.47270 0.00200
C 	C 	0.73040 0.93540 0.35881 0.20200
C 	C 	0.68910 0.93940 0.37217 0.18400
C 	C 	0.45160 0.77590 0.34897 0.52100
C 	C 	0.77120 0.89160 0.41974 0.37700
C 	C 	0.87720 0.97250 0.34337 0.41100
C 	C 	0.56670 0.94020 0.47474 0.17800
C 	C 	0.51860 0.80310 0.36069 0.30100
H 	H 	0.48750 0.77070 0.36350 -0.05900
C 	C 	0.63970 0.04430 0.45762 -0.24300
H 	H 	0.63670 0.07750 0.45940 0.11800
C 	C 	0.65830 0.04290 0.44999 0.15200
H 	H 	0.66620 0.07500 0.44660 -0.01100
C 	C 	0.56770 0.05400 0.47747 -0.30800
H 	H 	0.52810 0.02140 0.47700 0.14100
C 	C 	0.57760 0.10720 0.48157 0.20500
H 	H 	0.54490 0.10930 0.48370 -0.02700
C 	C 	0.78010 0.99370 0.35793 -0.26000
H 	H 	0.78220 0.02580 0.36090 0.12300
C 	C 	0.67070 0.09810 0.47493 -0.33700
H 	H 	0.70360 0.09670 0.47270 0.15000
C 	C 	0.77930 0.89980 0.34988 0.15800
H 	H 	0.77970 0.86810 0.34710 -0.01000
C 	C 	0.57290 0.83660 0.36428 -0.38700
H 	H 	0.57900 0.82650 0.36940 0.16900
C 	C 	0.73080 0.88670 0.35493 -0.24200
H 	H 	0.69940 0.84680 0.35570 0.11900
C 	C 	0.61780 0.88390 0.36055 0.28200
C 	C 	0.64780 0.20820 0.48680 0.45000
C 	C 	0.74520 0.95730 0.38414 0.15600
H 	H 	0.77730 0.95790 0.38690 -0.00700
C 	C 	0.55180 0.86290 0.34929 0.25200
H 	H 	0.54420 0.87240 0.34420 -0.04500
C 	C 	0.82510 0.00390 0.35287 0.17100
H 	H 	0.85660 0.04370 0.35200 -0.01500
C 	C 	0.57870 0.93520 0.48262 -0.20300
H 	H 	0.61210 0.96760 0.48510 0.10500
C 	C 	0.74080 0.94690 0.37619 -0.24000
H 	H 	0.77150 0.94470 0.37340 0.12000
C 	C 	0.60940 0.89960 0.35272 -0.31600
H 	H 	0.64050 0.93250 0.35000 0.14600
C 	C 	0.67970 0.14980 0.47891 0.25500
H 	H 	0.71940 0.18260 0.47920 -0.04500
C 	C 	0.89700 0.77180 0.41784 0.37400
C 	C 	0.51470 0.89080 0.47117 -0.21300
H 	H 	0.50570 0.89380 0.46580 0.10600
C 	C 	0.53960 0.87970 0.48714 0.10900
H 	H 	0.54950 0.87480 0.49230 0.00600
O 	O 	0.88470 0.72500 0.42459 -0.35600
C 	C 	0.79340 0.75910 0.42295 0.08900
H 	H 	0.77870 0.71930 0.42470 0.01900
C 	C 	0.76110 0.79060 0.42403 0.00800
H 	H 	0.72430 0.77560 0.42670 0.03400
C 	C 	0.79190 0.84560 0.42051 -0.10000
C 	C 	0.84710 0.79090 0.41914 -0.09100
O 	O 	0.88090 0.92620 0.34090 -0.49200
O 	O 	0.91430 0.02770 0.34127 -0.51600
C 	C 	0.82630 0.95760 0.34889 -0.22500
O 	O 	0.93400 0.80190 0.41285 -0.49800
O 	O 	0.83890 0.12470 0.41846 -0.27700
C 	C 	0.77590 0.80650 0.42864 -0.04600
H 	H 	0.74930 0.80320 0.43270 0.04700
C 	C 	0.81580 0.77550 0.42801 -0.12100
H 	H 	0.82080 0.75240 0.43200 0.07600
Zn	Zn	0.32579 0.33284 0.74492 1.21300
Zn	Zn	0.35492 0.26407 0.75844 1.21300
Zn	Zn	0.42433 0.40634 0.75852 1.21200
Zn	Zn	0.45204 0.33406 0.74477 1.21200
Zn	Zn	0.25433 0.60212 0.82872 1.21600
Zn	Zn	0.60592 0.25276 0.66727 1.21700
O 	O 	0.38958 0.33482 0.75140 -0.95700
O 	O 	0.39346 0.45923 0.75407 -0.49800
O 	O 	0.27237 0.20807 0.75498 -0.52000
O 	O 	0.33845 0.32363 0.73349 -0.51000
O 	O 	0.24498 0.25893 0.74687 -0.52300
O 	O 	0.34577 0.27773 0.76964 -0.52100
O 	O 	0.31905 0.40708 0.74534 -0.51000
O 	O 	0.39437 0.21693 0.75786 -0.50200
O 	O 	0.46207 0.26303 0.74768 -0.49000
O 	O 	0.42447 0.31853 0.73365 -0.50900
C 	C 	0.34787 0.50853 0.74816 -0.23200
O 	O 	0.37107 0.37493 0.76815 -0.52400
C 	C 	0.35347 0.45423 0.74903 0.45300
O 	O 	0.07727 0.06453 0.68587 -0.53100
O 	O 	0.06727 0.07363 0.81791 -0.51400
O 	O 	0.10867 0.12253 0.67536 -0.55500
O 	O 	0.12557 0.11393 0.82886 -0.50700
O 	O 	0.26447 0.54383 0.82239 -0.49500
C 	C 	0.23397 0.21283 0.75047 0.47200
C 	C 	0.17257 0.15773 0.74977 -0.27100
C 	C 	0.38617 0.56153 0.75224 0.16200
H 	H 	0.41477 0.56253 0.75583 -0.01200
O 	O 	0.36677 0.58173 0.82216 -0.53700
C 	C 	0.37767 0.31523 0.73026 0.43500
S 	S 	0.51910 0.18582 0.74849 0.08000
C 	C 	0.33947 0.61473 0.74603 0.22300
C 	C 	0.05907 0.05283 0.74842 0.26100
C 	C 	0.33247 0.32913 0.78048 -0.21500
N 	N 	0.34467 0.25473 0.69698 -0.21000
C 	C 	0.30687 0.51083 0.74300 0.16300
H 	H 	0.28147 0.47593 0.74003 -0.01000
C 	C 	0.10287 0.05363 0.75294 -0.30800
H 	H 	0.09517 0.01853 0.75573 0.14000
C 	C 	0.38167 0.61413 0.75093 -0.26100
H 	H 	0.40887 0.64993 0.75353 0.12600
C 	C 	0.15997 0.10573 0.75361 0.21200
H 	H 	0.18987 0.10483 0.75673 -0.02800
N 	N 	0.27057 0.32843 0.80393 -0.21800
C 	C 	0.29157 0.32733 0.79619 0.20900
C 	C 	0.30117 0.56223 0.74192 -0.25600
H 	H 	0.27167 0.56103 0.73843 0.12300
C 	C 	0.12827 0.15733 0.74507 0.21500
H 	H 	0.13587 0.19213 0.74223 -0.03000
C 	C 	0.32177 0.29713 0.71742 0.14200
H 	H 	0.29467 0.30563 0.72013 -0.00200
C 	C 	0.07247 0.10523 0.74456 -0.30800
H 	H 	0.04237 0.10573 0.74143 0.14100
C 	C 	0.11207 0.11453 0.82130 0.42100
C 	C 	0.31747 0.28053 0.78578 0.14400
H 	H 	0.31957 0.24673 0.78403 -0.00600
C 	C 	0.37067 0.30053 0.72163 -0.21300
C 	C 	0.30387 0.48993 0.81569 -0.30500
C 	C 	0.28027 0.38293 0.80767 0.27300
C 	C 	0.35047 0.32563 0.77217 0.43300
C 	C 	0.31187 0.28193 0.70950 -0.22800
H 	H 	0.27767 0.27783 0.70683 0.11400
C 	C 	0.17367 0.14783 0.68645 -0.35400
C 	C 	0.29967 0.28163 0.79362 -0.25000
H 	H 	0.29337 0.25033 0.79713 0.12000
C 	C 	0.15417 0.16813 0.81682 -0.19500
C 	C 	0.14407 0.17203 0.80866 0.12400
H 	H 	0.11197 0.13913 0.80603 0.00200
C 	C 	0.39707 0.26873 0.69214 0.20500
C 	C 	0.35577 0.27273 0.70550 0.18400
C 	C 	0.11827 0.10923 0.68230 0.52100
C 	C 	0.43787 0.22493 0.75307 0.37600
C 	C 	0.54387 0.30583 0.67670 0.41200
C 	C 	0.23337 0.27353 0.80807 0.17800
C 	C 	0.18527 0.13643 0.69402 0.30200
H 	H 	0.15417 0.10403 0.69683 -0.05900
C 	C 	0.30637 0.37763 0.79095 -0.24300
H 	H 	0.30337 0.41083 0.79273 0.11800
C 	C 	0.32497 0.37623 0.78332 0.15300
H 	H 	0.33287 0.40833 0.77993 -0.01200
C 	C 	0.23437 0.38733 0.81080 -0.30900
H 	H 	0.19477 0.35473 0.81033 0.14100
C 	C 	0.24427 0.44053 0.81490 0.20500
H 	H 	0.21157 0.44263 0.81703 -0.02700
C 	C 	0.44677 0.32703 0.69126 -0.26700
H 	H 	0.44887 0.35913 0.69423 0.12600
C 	C 	0.33737 0.43143 0.80826 -0.33800
H 	H 	0.37027 0.43003 0.80603 0.15000
C 	C 	0.44597 0.23313 0.68321 0.16200
H 	H 	0.44637 0.20143 0.68043 -0.01100
C 	C 	0.23957 0.16993 0.69761 -0.38800
H 	H 	0.24567 0.15983 0.70273 0.16900
C 	C 	0.39747 0.22003 0.68826 -0.24600
H 	H 	0.36607 0.18013 0.68903 0.12000
C 	C 	0.28447 0.21723 0.69388 0.28200
C 	C 	0.31447 0.54153 0.82013 0.45000
C 	C 	0.41187 0.29063 0.71747 0.15600
H 	H 	0.44397 0.29123 0.72023 -0.00800
C 	C 	0.21847 0.19623 0.68262 0.25200
H 	H 	0.21087 0.20573 0.67753 -0.04500
C 	C 	0.49177 0.33723 0.68620 0.17900
H 	H 	0.52327 0.37703 0.68533 -0.01800
C 	C 	0.24537 0.26853 0.81595 -0.20300
H 	H 	0.27877 0.30093 0.81843 0.10500
C 	C 	0.40747 0.28023 0.70952 -0.24000
H 	H 	0.43817 0.27803 0.70673 0.11900
C 	C 	0.27607 0.23293 0.68605 -0.31700
H 	H 	0.30717 0.26583 0.68333 0.14600
C 	C 	0.34637 0.48313 0.81224 0.25600
H 	H 	0.38607 0.51593 0.81253 -0.04500
C 	C 	0.56367 0.10513 0.75117 0.37400
C 	C 	0.18137 0.22413 0.80450 -0.21300
H 	H 	0.17237 0.22713 0.79913 0.10600
C 	C 	0.20627 0.21303 0.82047 0.10900
H 	H 	0.21617 0.20813 0.82563 0.00600
O 	O 	0.55137 0.05833 0.75792 -0.35600
C 	C 	0.46007 0.09243 0.75628 0.08900
H 	H 	0.44537 0.05263 0.75803 0.01900
C 	C 	0.42777 0.12393 0.75736 0.00800
H 	H 	0.39097 0.10893 0.76003 0.03400
C 	C 	0.45857 0.17893 0.75384 -0.10100
C 	C 	0.51377 0.12423 0.75247 -0.09100
O 	O 	0.54757 0.25953 0.67423 -0.49300
O 	O 	0.58097 0.36103 0.67460 -0.51700
C 	C 	0.49297 0.29093 0.68222 -0.23000
O 	O 	0.60067 0.13523 0.74618 -0.49900
O 	O 	0.50557 0.45803 0.75179 -0.27700
C 	C 	0.44257 0.13983 0.76197 -0.04600
H 	H 	0.41597 0.13653 0.76603 0.04700
C 	C 	0.48247 0.10883 0.76134 -0.12100
H 	H 	0.48747 0.08573 0.76533 0.07500
Zn	Zn	0.99245 0.66618 0.07826 1.21300
Zn	Zn	0.02158 0.59741 0.09177 1.21300
Zn	Zn	0.09099 0.73968 0.09185 1.21200
Zn	Zn	0.11870 0.66740 0.07810 1.21200
Zn	Zn	0.92099 0.93546 0.16205 1.21600
Zn	Zn	0.27258 0.58610 0.00060 1.21700
O 	O 	0.05624 0.66816 0.08473 -0.95800
O 	O 	0.06012 0.79257 0.08741 -0.49800
O 	O 	0.93903 0.54141 0.08832 -0.52000
O 	O 	0.00511 0.65697 0.06683 -0.51000
O 	O 	0.91164 0.59227 0.08021 -0.52200
O 	O 	0.01243 0.61107 0.10298 -0.52100
O 	O 	0.98571 0.74042 0.07868 -0.50900
O 	O 	0.06103 0.55027 0.09120 -0.50200
O 	O 	0.12873 0.59637 0.08102 -0.49000
O 	O 	0.09113 0.65187 0.06699 -0.51000
C 	C 	0.01453 0.84187 0.08150 -0.23200
O 	O 	0.03773 0.70827 0.10149 -0.52400
C 	C 	0.02013 0.78757 0.08237 0.45100
O 	O 	0.74393 0.39787 0.01921 -0.53000
O 	O 	0.73393 0.40697 0.15125 -0.51400
O 	O 	0.77533 0.45587 0.00870 -0.55500
O 	O 	0.79223 0.44727 0.16220 -0.50700
O 	O 	0.93113 0.87717 0.15573 -0.49600
C 	C 	0.90063 0.54617 0.08381 0.47200
C 	C 	0.83923 0.49107 0.08311 -0.27100
C 	C 	0.05283 0.89487 0.08558 0.16000
H 	H 	0.08143 0.89587 0.08917 -0.01100
O 	O 	0.03343 0.91507 0.15550 -0.54100
C 	C 	0.04433 0.64857 0.06360 0.43500
S 	S 	0.18576 0.51916 0.08182 0.08000
C 	C 	0.00613 0.94807 0.07937 0.21700
C 	C 	0.72573 0.38617 0.08176 0.26200
C 	C 	0.99913 0.66247 0.11382 -0.21100
N 	N 	0.01133 0.58807 0.03032 -0.21000
C 	C 	0.97353 0.84417 0.07634 0.16200
H 	H 	0.94813 0.80927 0.07337 -0.01000
C 	C 	0.76953 0.38697 0.08628 -0.30800
H 	H 	0.76183 0.35187 0.08907 0.14000
C 	C 	0.04833 0.94747 0.08427 -0.25800
H 	H 	0.07553 0.98327 0.08687 0.12400
C 	C 	0.82663 0.43907 0.08695 0.21200
H 	H 	0.85653 0.43817 0.09007 -0.02800
N 	N 	0.93723 0.66177 0.13727 -0.21800
C 	C 	0.95823 0.66067 0.12953 0.20800
C 	C 	0.96783 0.89557 0.07526 -0.25200
H 	H 	0.93833 0.89437 0.07177 0.12200
C 	C 	0.79493 0.49067 0.07841 0.21500
H 	H 	0.80253 0.52547 0.07557 -0.03000
C 	C 	0.98843 0.63047 0.05076 0.14300
H 	H 	0.96133 0.63897 0.05347 -0.00200
C 	C 	0.73913 0.43857 0.07790 -0.30900
H 	H 	0.70903 0.43907 0.07477 0.14100
C 	C 	0.77873 0.44787 0.15464 0.42100
C 	C 	0.98413 0.61387 0.11912 0.14200
H 	H 	0.98623 0.58007 0.11737 -0.00500
C 	C 	0.03733 0.63387 0.05497 -0.21400
C 	C 	0.97053 0.82327 0.14903 -0.30300
C 	C 	0.94693 0.71627 0.14101 0.27700
C 	C 	0.01713 0.65897 0.10551 0.43000
C 	C 	0.97853 0.61527 0.04284 -0.22900
H 	H 	0.94433 0.61117 0.04017 0.11400
C 	C 	0.84033 0.48117 0.01979 -0.35400
C 	C 	0.96633 0.61497 0.12696 -0.24800
H 	H 	0.96003 0.58367 0.13047 0.12000
C 	C 	0.82083 0.50147 0.15016 -0.19500
C 	C 	0.81073 0.50537 0.14200 0.12400
H 	H 	0.77863 0.47247 0.13937 0.00200
C 	C 	0.06373 0.60207 0.02548 0.20500
C 	C 	0.02243 0.60607 0.03884 0.18400
C 	C 	0.78493 0.44257 0.01564 0.52000
C 	C 	0.10453 0.55827 0.08641 0.37600
C 	C 	0.21053 0.63917 0.01004 0.41200
C 	C 	0.90003 0.60687 0.14141 0.17900
C 	C 	0.85193 0.46977 0.02736 0.30100
H 	H 	0.82083 0.43737 0.03017 -0.05800
C 	C 	0.97303 0.71097 0.12429 -0.24100
H 	H 	0.97003 0.74417 0.12607 0.11800
C 	C 	0.99163 0.70957 0.11666 0.15100
H 	H 	0.99953 0.74167 0.11327 -0.01000
C 	C 	0.90103 0.72067 0.14414 -0.31000
H 	H 	0.86143 0.68807 0.14367 0.14200
C 	C 	0.91093 0.77387 0.14824 0.20600
H 	H 	0.87823 0.77597 0.15037 -0.02700
C 	C 	0.11343 0.66037 0.02460 -0.26700
H 	H 	0.11553 0.69247 0.02757 0.12600
C 	C 	0.00403 0.76477 0.14160 -0.34100
H 	H 	0.03693 0.76337 0.13937 0.15000
C 	C 	0.11263 0.56647 0.01655 0.16200
H 	H 	0.11303 0.53477 0.01377 -0.01100
C 	C 	0.90623 0.50327 0.03095 -0.38700
H 	H 	0.91233 0.49317 0.03607 0.16900
C 	C 	0.06413 0.55337 0.02160 -0.24600
H 	H 	0.03273 0.51347 0.02237 0.12000
C 	C 	0.95113 0.55057 0.02722 0.28200
C 	C 	0.98113 0.87487 0.15347 0.45300
C 	C 	0.07853 0.62397 0.05081 0.15700
H 	H 	0.11063 0.62457 0.05357 -0.00800
C 	C 	0.88513 0.52957 0.01596 0.25100
H 	H 	0.87753 0.53907 0.01087 -0.04500
C 	C 	0.15843 0.67057 0.01954 0.17900
H 	H 	0.18993 0.71037 0.01867 -0.01800
C 	C 	0.91203 0.60187 0.14929 -0.20300
H 	H 	0.94543 0.63427 0.15177 0.10500
C 	C 	0.07413 0.61357 0.04286 -0.24000
H 	H 	0.10483 0.61137 0.04007 0.12000
C 	C 	0.94273 0.56627 0.01939 -0.31600
H 	H 	0.97383 0.59917 0.01667 0.14600
C 	C 	0.01303 0.81647 0.14558 0.25300
H 	H 	0.05273 0.84927 0.14587 -0.04500
C 	C 	0.23033 0.43847 0.08451 0.37300
C 	C 	0.84803 0.55747 0.13784 -0.21300
H 	H 	0.83903 0.56047 0.13247 0.10600
C 	C 	0.87293 0.54637 0.15381 0.10900
H 	H 	0.88283 0.54147 0.15897 0.00600
O 	O 	0.21803 0.39167 0.09126 -0.35600
C 	C 	0.12673 0.42577 0.08962 0.08900
H 	H 	0.11203 0.38597 0.09137 0.01900
C 	C 	0.09443 0.45727 0.09070 0.00800
H 	H 	0.05763 0.44227 0.09337 0.03400
C 	C 	0.12523 0.51227 0.08718 -0.10100
C 	C 	0.18043 0.45757 0.08581 -0.09100
O 	O 	0.21423 0.59287 0.00757 -0.49200
O 	O 	0.24763 0.69437 0.00794 -0.51600
C 	C 	0.15963 0.62427 0.01556 -0.23000
O 	O 	0.26733 0.46857 0.07952 -0.49900
O 	O 	0.17223 0.79137 0.08513 -0.27800
C 	C 	0.10923 0.47317 0.09531 -0.04600
H 	H 	0.08263 0.46987 0.09937 0.04600
C 	C 	0.14913 0.44217 0.09468 -0.12200
H 	H 	0.15413 0.41907 0.09867 0.07600
Zn	Zn	0.00049 0.65961 0.41159 1.21300
Zn	Zn	0.06926 0.75751 0.42511 1.21300
Zn	Zn	0.92699 0.68465 0.42518 1.21200
Zn	Zn	0.99927 0.78464 0.41143 1.21200
Zn	Zn	0.73121 0.31887 0.49539 1.21600
Zn	Zn	0.08057 0.01982 0.33393 1.21700
O 	O 	0.99851 0.72142 0.41806 -0.95700
O 	O 	0.87410 0.60089 0.42074 -0.49800
O 	O 	0.12526 0.73096 0.42165 -0.52000
O 	O 	0.00970 0.68148 0.40016 -0.51000
O 	O 	0.07440 0.65271 0.41354 -0.52300
O 	O 	0.05560 0.73470 0.43631 -0.52100
O 	O 	0.92625 0.57863 0.41201 -0.51000
O 	O 	0.11640 0.84410 0.42453 -0.50200
O 	O 	0.07030 0.86570 0.41435 -0.49000
O 	O 	0.01480 0.77260 0.40032 -0.51000
C 	C 	0.82480 0.50600 0.41483 -0.23200
O 	O 	0.95840 0.66280 0.43482 -0.52300
C 	C 	0.87910 0.56590 0.41570 0.45300
O 	O 	0.26880 0.67940 0.35254 -0.53000
O 	O 	0.25970 0.66030 0.48458 -0.51400
O 	O 	0.21080 0.65280 0.34203 -0.55500
O 	O 	0.21940 0.67830 0.49553 -0.50700
O 	O 	0.78950 0.38730 0.48906 -0.49600
C 	C 	0.12050 0.68780 0.41714 0.47200
C 	C 	0.17560 0.68150 0.41644 -0.27100
C 	C 	0.77180 0.49130 0.41891 0.16200
H 	H 	0.77080 0.51890 0.42250 -0.01200
O 	O 	0.75160 0.45170 0.48883 -0.53700
C 	C 	0.01810 0.72910 0.39693 0.43500
S 	S 	0.14751 0.99994 0.41516 0.08200
C 	C 	0.71860 0.39140 0.41270 0.22300
C 	C 	0.28050 0.67290 0.41509 0.26200
C 	C 	0.00420 0.67000 0.44715 -0.21500
N 	N 	0.07860 0.75660 0.36365 -0.21000
C 	C 	0.82250 0.46270 0.40967 0.16300
H 	H 	0.85740 0.47220 0.40670 -0.01000
C 	C 	0.27970 0.71590 0.41961 -0.30800
H 	H 	0.31480 0.74330 0.42240 0.14000
C 	C 	0.71920 0.43420 0.41760 -0.26100
H 	H 	0.68340 0.42560 0.42020 0.12600
C 	C 	0.22760 0.72090 0.42028 0.21200
H 	H 	0.22850 0.75170 0.42340 -0.02800
N 	N 	0.00490 0.60880 0.47060 -0.21800
C 	C 	0.00600 0.63090 0.46286 0.20800
C 	C 	0.77110 0.40560 0.40859 -0.25600
H 	H 	0.77230 0.37730 0.40510 0.12300
C 	C 	0.17600 0.63760 0.41174 0.21500
H 	H 	0.14120 0.61040 0.40890 -0.03000
C 	C 	0.03620 0.69130 0.38409 0.14200
H 	H 	0.02770 0.65570 0.38680 -0.00200
C 	C 	0.22810 0.63390 0.41123 -0.30900
H 	H 	0.22760 0.60330 0.40810 0.14100
C 	C 	0.21880 0.66420 0.48797 0.42100
C 	C 	0.05280 0.70360 0.45245 0.14400
H 	H 	0.08660 0.73950 0.45070 -0.00600
C 	C 	0.03280 0.73680 0.38830 -0.21300
C 	C 	0.84340 0.48060 0.48236 -0.30500
C 	C 	0.95040 0.56400 0.47434 0.27400
C 	C 	0.00770 0.69150 0.43884 0.43300
C 	C 	0.05140 0.69660 0.37617 -0.22800
H 	H 	0.05550 0.66650 0.37350 0.11400
C 	C 	0.18550 0.69250 0.35312 -0.35400
C 	C 	0.05170 0.68470 0.46029 -0.25000
H 	H 	0.08300 0.70970 0.46380 0.12000
C 	C 	0.16520 0.65270 0.48349 -0.19500
C 	C 	0.16130 0.63870 0.47533 0.12400
H 	H 	0.19420 0.63950 0.47270 0.00200
C 	C 	0.06460 0.79500 0.35881 0.20700
C 	C 	0.06060 0.74970 0.37217 0.18400
C 	C 	0.22410 0.67570 0.34897 0.52100
C 	C 	0.10840 0.87960 0.41974 0.37700
C 	C 	0.02750 0.90470 0.34337 0.41200
C 	C 	0.05980 0.62650 0.47474 0.17800
C 	C 	0.19690 0.71550 0.36069 0.30200
H 	H 	0.22930 0.71680 0.36350 -0.05900
C 	C 	0.95570 0.59540 0.45762 -0.24200
H 	H 	0.92250 0.55920 0.45940 0.11800
C 	C 	0.95710 0.61540 0.44999 0.15300
H 	H 	0.92500 0.59120 0.44660 -0.01200
C 	C 	0.94600 0.51370 0.47747 -0.30900
H 	H 	0.97860 0.50670 0.47700 0.14200
C 	C 	0.89280 0.47040 0.48157 0.20600
H 	H 	0.89070 0.43560 0.48370 -0.02700
C 	C 	0.00630 0.78640 0.35793 -0.27200
H 	H 	0.97420 0.75640 0.36090 0.12900
C 	C 	0.90190 0.57260 0.47493 -0.33800
H 	H 	0.90330 0.60690 0.47270 0.15000
C 	C 	0.10020 0.87950 0.34988 0.16400
H 	H 	0.13190 0.91160 0.34710 -0.01200
C 	C 	0.16340 0.73630 0.36428 -0.38800
H 	H 	0.17350 0.75250 0.36940 0.16900
C 	C 	0.11330 0.84410 0.35493 -0.24800
H 	H 	0.15320 0.85260 0.35570 0.12100
C 	C 	0.11610 0.73390 0.36055 0.28200
C 	C 	0.79180 0.43960 0.48680 0.45000
C 	C 	0.04270 0.78790 0.38414 0.15600
H 	H 	0.04210 0.81940 0.38690 -0.00800
C 	C 	0.13710 0.68890 0.34929 0.25200
H 	H 	0.12760 0.67180 0.34420 -0.04500
C 	C 	0.99610 0.82120 0.35287 0.18400
H 	H 	0.95630 0.81290 0.35200 -0.02000
C 	C 	0.06480 0.64350 0.48262 -0.20300
H 	H 	0.03240 0.64450 0.48510 0.10500
C 	C 	0.05310 0.79390 0.37619 -0.24000
H 	H 	0.05530 0.82680 0.37340 0.12000
C 	C 	0.10040 0.70980 0.35272 -0.31700
H 	H 	0.06750 0.70800 0.35000 0.14600
C 	C 	0.85020 0.52990 0.47891 0.25600
H 	H 	0.81740 0.53680 0.47920 -0.04500
C 	C 	0.22820 0.12520 0.41784 0.37400
C 	C 	0.10920 0.62390 0.47117 -0.21300
H 	H 	0.10620 0.61190 0.46580 0.10600
C 	C 	0.12030 0.65990 0.48714 0.10900
H 	H 	0.12520 0.67470 0.49230 0.00600
O 	O 	0.27500 0.15970 0.42459 -0.35600
C 	C 	0.24090 0.03430 0.42295 0.08900
H 	H 	0.28070 0.05940 0.42470 0.01900
C 	C 	0.20940 0.97050 0.42403 0.00800
H 	H 	0.22440 0.94870 0.42670 0.03400
C 	C 	0.15440 0.94630 0.42051 -0.10100
C 	C 	0.20910 0.05620 0.41914 -0.09200
O 	O 	0.07380 0.95470 0.34090 -0.49200
O 	O 	0.97230 0.88660 0.34127 -0.51600
C 	C 	0.04240 0.86870 0.34889 -0.23300
O 	O 	0.19810 0.13210 0.41285 -0.49900
O 	O 	0.87530 0.71420 0.41846 -0.27700
C 	C 	0.19350 0.96940 0.42864 -0.04500
H 	H 	0.19680 0.94610 0.43270 0.04700
C 	C 	0.22450 0.04030 0.42801 -0.12200
H 	H 	0.24760 0.06840 0.43200 0.07600
Zn	Zn	0.66716 0.99294 0.74492 1.21400
Zn	Zn	0.73593 0.09084 0.75844 1.21300
Zn	Zn	0.59366 0.01798 0.75852 1.21100
Zn	Zn	0.66594 0.11797 0.74477 1.21200
Zn	Zn	0.39788 0.65220 0.82872 1.21600
Zn	Zn	0.74724 0.35315 0.66727 1.21700
O 	O 	0.66518 0.05475 0.75140 -0.95800
O 	O 	0.54077 0.93422 0.75407 -0.49600
O 	O 	0.79193 0.06429 0.75498 -0.52000
O 	O 	0.67637 0.01481 0.73349 -0.51100
O 	O 	0.74107 0.98604 0.74687 -0.52000
O 	O 	0.72227 0.06803 0.76964 -0.52100
O 	O 	0.59292 0.91196 0.74534 -0.50900
O 	O 	0.78307 0.17743 0.75786 -0.50200
O 	O 	0.73697 0.19903 0.74768 -0.49000
O 	O 	0.68147 0.10593 0.73365 -0.50900
C 	C 	0.49147 0.83933 0.74816 -0.23200
O 	O 	0.62507 0.99613 0.76815 -0.52100
C 	C 	0.54577 0.89923 0.74903 0.45300
O 	O 	0.93547 0.01273 0.68587 -0.53000
O 	O 	0.92637 0.99363 0.81791 -0.51500
O 	O 	0.87747 0.98613 0.67536 -0.55300
O 	O 	0.88607 0.01163 0.82886 -0.51100
O 	O 	0.45617 0.72063 0.82239 -0.49600
C 	C 	0.78717 0.02113 0.75047 0.46900
C 	C 	0.84227 0.01483 0.74977 -0.27200
C 	C 	0.43847 0.82463 0.75224 0.16200
H 	H 	0.43747 0.85223 0.75583 -0.01100
O 	O 	0.41827 0.78503 0.82216 -0.53700
C 	C 	0.68477 0.06243 0.73026 0.43500
S 	S 	0.81418 0.33327 0.74849 0.08000
C 	C 	0.38527 0.72473 0.74603 0.22300
C 	C 	0.94717 0.00623 0.74842 0.25700
C 	C 	0.67087 0.00333 0.78048 -0.22400
N 	N 	0.74527 0.08993 0.69698 -0.21000
C 	C 	0.48917 0.79603 0.74300 0.16300
H 	H 	0.52407 0.80553 0.74003 -0.01000
C 	C 	0.94637 0.04923 0.75294 -0.30600
H 	H 	0.98147 0.07663 0.75573 0.13900
C 	C 	0.38587 0.76753 0.75093 -0.26100
H 	H 	0.35007 0.75893 0.75353 0.12600
C 	C 	0.89427 0.05423 0.75361 0.21000
H 	H 	0.89517 0.08503 0.75673 -0.02800
N 	N 	0.67157 0.94213 0.80393 -0.22000
C 	C 	0.67267 0.96423 0.79619 0.21800
C 	C 	0.43777 0.73893 0.74192 -0.25600
H 	H 	0.43897 0.71063 0.73843 0.12300
C 	C 	0.84267 0.97093 0.74507 0.21600
H 	H 	0.80787 0.94373 0.74223 -0.03000
C 	C 	0.70287 0.02463 0.71742 0.13900
H 	H 	0.69437 0.98903 0.72013 0.00100
C 	C 	0.89477 0.96723 0.74456 -0.30400
H 	H 	0.89427 0.93663 0.74143 0.14000
C 	C 	0.88547 0.99753 0.82130 0.42700
C 	C 	0.71947 0.03693 0.78578 0.15100
H 	H 	0.75327 0.07283 0.78403 -0.00900
C 	C 	0.69947 0.07013 0.72163 -0.21200
C 	C 	0.51007 0.81393 0.81569 -0.30500
C 	C 	0.61707 0.89733 0.80767 0.27400
C 	C 	0.67437 0.02483 0.77217 0.43200
C 	C 	0.71807 0.02993 0.70950 -0.23000
H 	H 	0.72217 0.99983 0.70683 0.11600
C 	C 	0.85217 0.02583 0.68645 -0.35300
C 	C 	0.71837 0.01803 0.79362 -0.26100
H 	H 	0.74967 0.04303 0.79713 0.12300
C 	C 	0.83187 0.98603 0.81682 -0.20100
C 	C 	0.82797 0.97203 0.80866 0.12900
H 	H 	0.86087 0.97283 0.80603 0.00000
C 	C 	0.73127 0.12833 0.69214 0.20500
C 	C 	0.72727 0.08303 0.70550 0.18400
C 	C 	0.89077 0.00903 0.68230 0.51900
C 	C 	0.77507 0.21293 0.75307 0.37700
C 	C 	0.69417 0.23803 0.67670 0.41200
C 	C 	0.72647 0.95983 0.80807 0.18200
C 	C 	0.86357 0.04883 0.69402 0.30100
H 	H 	0.89597 0.05013 0.69683 -0.05800
C 	C 	0.62237 0.92873 0.79095 -0.25100
H 	H 	0.58917 0.89253 0.79273 0.12100
C 	C 	0.62377 0.94873 0.78332 0.16400
H 	H 	0.59167 0.92453 0.77993 -0.01500
C 	C 	0.61267 0.84703 0.81080 -0.30900
H 	H 	0.64527 0.84003 0.81033 0.14100
C 	C 	0.55947 0.80373 0.81490 0.20600
H 	H 	0.55737 0.76893 0.81703 -0.02700
C 	C 	0.67297 0.11973 0.69126 -0.26700
H 	H 	0.64087 0.08973 0.69423 0.12600
C 	C 	0.56857 0.90593 0.80826 -0.33800
H 	H 	0.56997 0.94023 0.80603 0.15000
C 	C 	0.76687 0.21283 0.68321 0.16200
H 	H 	0.79857 0.24493 0.68043 -0.01100
C 	C 	0.83007 0.06963 0.69761 -0.38700
H 	H 	0.84017 0.08583 0.70273 0.16900
C 	C 	0.77997 0.17743 0.68826 -0.24600
H 	H 	0.81987 0.18593 0.68903 0.12000
C 	C 	0.78277 0.06723 0.69388 0.28200
C 	C 	0.45847 0.77293 0.82013 0.45000
C 	C 	0.70937 0.12123 0.71747 0.15500
H 	H 	0.70877 0.15273 0.72023 -0.00800
C 	C 	0.80377 0.02223 0.68262 0.25100
H 	H 	0.79427 0.00513 0.67753 -0.04500
C 	C 	0.66277 0.15453 0.68620 0.17900
H 	H 	0.62297 0.14623 0.68533 -0.01800
C 	C 	0.73147 0.97683 0.81595 -0.20900
H 	H 	0.69907 0.97783 0.81843 0.10800
C 	C 	0.71977 0.12723 0.70952 -0.24000
H 	H 	0.72197 0.16013 0.70673 0.11900
C 	C 	0.76707 0.04313 0.68605 -0.31600
H 	H 	0.73417 0.04133 0.68333 0.14600
C 	C 	0.51687 0.86323 0.81224 0.25700
H 	H 	0.48407 0.87013 0.81253 -0.04500
C 	C 	0.89487 0.45853 0.75117 0.37300
C 	C 	0.77587 0.95723 0.80450 -0.21700
H 	H 	0.77287 0.94523 0.79913 0.10800
C 	C 	0.78697 0.99323 0.82047 0.12000
H 	H 	0.79187 0.00803 0.82563 -0.00100
O 	O 	0.94167 0.49303 0.75792 -0.35600
C 	C 	0.90757 0.36763 0.75628 0.08900
H 	H 	0.94737 0.39273 0.75803 0.01900
C 	C 	0.87607 0.30383 0.75736 0.00800
H 	H 	0.89107 0.28203 0.76003 0.03400
C 	C 	0.82107 0.27963 0.75384 -0.10100
C 	C 	0.87577 0.38953 0.75247 -0.09100
O 	O 	0.74047 0.28803 0.67423 -0.49300
O 	O 	0.63897 0.21993 0.67460 -0.51700
C 	C 	0.70907 0.20203 0.68222 -0.23000
O 	O 	0.86477 0.46543 0.74618 -0.49900
O 	O 	0.54197 0.04753 0.75179 -0.27800
C 	C 	0.86017 0.30273 0.76197 -0.04600
H 	H 	0.86347 0.27943 0.76603 0.04700
C 	C 	0.89117 0.37363 0.76134 -0.12200
H 	H 	0.91427 0.40173 0.76533 0.07600
Zn	Zn	0.33382 0.32628 0.07826 1.21300
Zn	Zn	0.40259 0.42418 0.09177 1.21300
Zn	Zn	0.26032 0.35132 0.09185 1.21200
Zn	Zn	0.33260 0.45131 0.07810 1.21200
Zn	Zn	0.06454 0.98554 0.16205 1.21500
Zn	Zn	0.41390 0.68649 0.00060 1.21700
O 	O 	0.33184 0.38809 0.08473 -0.95700
O 	O 	0.20743 0.26756 0.08741 -0.49800
O 	O 	0.45859 0.39763 0.08832 -0.52000
O 	O 	0.34303 0.34815 0.06683 -0.50900
O 	O 	0.40773 0.31938 0.08021 -0.52300
O 	O 	0.38893 0.40137 0.10298 -0.52100
O 	O 	0.25958 0.24530 0.07868 -0.51000
O 	O 	0.44973 0.51077 0.09120 -0.50200
O 	O 	0.40363 0.53237 0.08102 -0.49000
O 	O 	0.34813 0.43927 0.06699 -0.51000
C 	C 	0.15813 0.17267 0.08150 -0.23200
O 	O 	0.29173 0.32947 0.10149 -0.52400
C 	C 	0.21243 0.23257 0.08237 0.45300
O 	O 	0.60213 0.34607 0.01921 -0.53000
O 	O 	0.59303 0.32697 0.15125 -0.51300
O 	O 	0.54413 0.31947 0.00870 -0.55400
O 	O 	0.55273 0.34497 0.16220 -0.50700
O 	O 	0.12283 0.05397 0.15573 -0.49500
C 	C 	0.45383 0.35447 0.08381 0.47200
C 	C 	0.50893 0.34817 0.08311 -0.27100
C 	C 	0.10513 0.15797 0.08558 0.16200
H 	H 	0.10413 0.18557 0.08917 -0.01200
O 	O 	0.08493 0.11837 0.15550 -0.53800
C 	C 	0.35143 0.39577 0.06360 0.43500
S 	S 	0.48084 0.66661 0.08182 0.08000
C 	C 	0.05193 0.05807 0.07937 0.22300
C 	C 	0.61383 0.33957 0.08176 0.26200
C 	C 	0.33753 0.33667 0.11382 -0.21500
N 	N 	0.41193 0.42327 0.03032 -0.21000
C 	C 	0.15583 0.12937 0.07634 0.16300
H 	H 	0.19073 0.13887 0.07337 -0.01000
C 	C 	0.61303 0.38257 0.08628 -0.30800
H 	H 	0.64813 0.40997 0.08907 0.14000
C 	C 	0.05253 0.10087 0.08427 -0.26100
H 	H 	0.01673 0.09227 0.08687 0.12600
C 	C 	0.56093 0.38757 0.08695 0.21200
H 	H 	0.56183 0.41837 0.09007 -0.02800
N 	N 	0.33823 0.27547 0.13727 -0.21800
C 	C 	0.33933 0.29757 0.12953 0.20900
C 	C 	0.10443 0.07227 0.07526 -0.25600
H 	H 	0.10563 0.04397 0.07177 0.12400
C 	C 	0.50933 0.30427 0.07841 0.21500
H 	H 	0.47453 0.27707 0.07557 -0.03000
C 	C 	0.36953 0.35797 0.05076 0.14200
H 	H 	0.36103 0.32237 0.05347 -0.00200
C 	C 	0.56143 0.30057 0.07790 -0.30900
H 	H 	0.56093 0.26997 0.07477 0.14100
C 	C 	0.55213 0.33087 0.15464 0.42100
C 	C 	0.38613 0.37027 0.11912 0.14400
H 	H 	0.41993 0.40617 0.11737 -0.00600
C 	C 	0.36613 0.40347 0.05497 -0.21300
C 	C 	0.17673 0.14727 0.14903 -0.30400
C 	C 	0.28373 0.23067 0.14101 0.27300
C 	C 	0.34103 0.35817 0.10551 0.43300
C 	C 	0.38473 0.36327 0.04284 -0.22800
H 	H 	0.38883 0.33317 0.04017 0.11400
C 	C 	0.51883 0.35917 0.01979 -0.35400
C 	C 	0.38503 0.35137 0.12696 -0.25000
H 	H 	0.41633 0.37637 0.13047 0.12000
C 	C 	0.49853 0.31937 0.15016 -0.19500
C 	C 	0.49463 0.30537 0.14200 0.12400
H 	H 	0.52753 0.30617 0.13937 0.00200
C 	C 	0.39793 0.46167 0.02548 0.20500
C 	C 	0.39393 0.41637 0.03884 0.18400
C 	C 	0.55743 0.34237 0.01564 0.52000
C 	C 	0.44173 0.54627 0.08641 0.37600
C 	C 	0.36083 0.57137 0.01004 0.41200
C 	C 	0.39313 0.29317 0.14141 0.17800
C 	C 	0.53023 0.38217 0.02736 0.30100
H 	H 	0.56263 0.38347 0.03017 -0.05800
C 	C 	0.28903 0.26207 0.12429 -0.24300
H 	H 	0.25583 0.22587 0.12607 0.11800
C 	C 	0.29043 0.28207 0.11666 0.15200
H 	H 	0.25833 0.25787 0.11327 -0.01200
C 	C 	0.27933 0.18037 0.14414 -0.30800
H 	H 	0.31193 0.17337 0.14367 0.14100
C 	C 	0.22613 0.13707 0.14824 0.20500
H 	H 	0.22403 0.10227 0.15037 -0.02600
C 	C 	0.33963 0.45307 0.02460 -0.26700
H 	H 	0.30753 0.42307 0.02757 0.12600
C 	C 	0.23523 0.23927 0.14160 -0.33800
H 	H 	0.23663 0.27357 0.13937 0.15000
C 	C 	0.43353 0.54617 0.01655 0.16200
H 	H 	0.46523 0.57827 0.01377 -0.01100
C 	C 	0.49673 0.40297 0.03095 -0.38700
H 	H 	0.50683 0.41917 0.03607 0.16900
C 	C 	0.44663 0.51077 0.02160 -0.24600
H 	H 	0.48653 0.51927 0.02237 0.12000
C 	C 	0.44943 0.40057 0.02722 0.28200
C 	C 	0.12513 0.10627 0.15347 0.45000
C 	C 	0.37603 0.45457 0.05081 0.15600
H 	H 	0.37543 0.48607 0.05357 -0.00800
C 	C 	0.47043 0.35557 0.01596 0.25200
H 	H 	0.46093 0.33847 0.01087 -0.04500
C 	C 	0.32943 0.48787 0.01954 0.17900
H 	H 	0.28963 0.47957 0.01867 -0.01800
C 	C 	0.39813 0.31017 0.14929 -0.20300
H 	H 	0.36573 0.31117 0.15177 0.10500
C 	C 	0.38643 0.46057 0.04286 -0.24000
H 	H 	0.38863 0.49347 0.04007 0.11900
C 	C 	0.43373 0.37647 0.01939 -0.31600
H 	H 	0.40083 0.37467 0.01667 0.14600
C 	C 	0.18353 0.19657 0.14558 0.25600
H 	H 	0.15073 0.20347 0.14587 -0.04600
C 	C 	0.56153 0.79187 0.08451 0.37400
C 	C 	0.44253 0.29057 0.13784 -0.21300
H 	H 	0.43953 0.27857 0.13247 0.10600
C 	C 	0.45363 0.32657 0.15381 0.10800
H 	H 	0.45853 0.34137 0.15897 0.00600
O 	O 	0.60833 0.82637 0.09126 -0.35600
C 	C 	0.57423 0.70097 0.08962 0.08900
H 	H 	0.61403 0.72607 0.09137 0.01900
C 	C 	0.54273 0.63717 0.09070 0.00800
H 	H 	0.55773 0.61537 0.09337 0.03400
C 	C 	0.48773 0.61297 0.08718 -0.10000
C 	C 	0.54243 0.72287 0.08581 -0.09100
O 	O 	0.40713 0.62137 0.00757 -0.49200
O 	O 	0.30563 0.55327 0.00794 -0.51600
C 	C 	0.37573 0.53537 0.01556 -0.23000
O 	O 	0.53143 0.79877 0.07952 -0.49900
O 	O 	0.20863 0.38087 0.08513 -0.27700
C 	C 	0.52683 0.63607 0.09531 -0.04600
H 	H 	0.53013 0.61277 0.09937 0.04700
C 	C 	0.55783 0.70697 0.09468 -0.12200
H 	H 	0.58093 0.73507 0.09867 0.07600
Zn	Zn	0.34039 0.34088 0.41159 1.21300
Zn	Zn	0.24249 0.31175 0.42511 1.21300
Zn	Zn	0.31535 0.24234 0.42518 1.21200
Zn	Zn	0.21536 0.21463 0.41143 1.21200
Zn	Zn	0.68113 0.41234 0.49539 1.21600
Zn	Zn	0.98018 0.06075 0.33393 1.21700
O 	O 	0.27858 0.27709 0.41806 -0.95700
O 	O 	0.39911 0.27321 0.42074 -0.49800
O 	O 	0.26904 0.39430 0.42165 -0.52000
O 	O 	0.31852 0.32822 0.40016 -0.51000
O 	O 	0.34729 0.42169 0.41354 -0.52300
O 	O 	0.26530 0.32090 0.43631 -0.52100
O 	O 	0.42137 0.34762 0.41201 -0.51000
O 	O 	0.15590 0.27230 0.42453 -0.50200
O 	O 	0.13430 0.20460 0.41435 -0.49000
O 	O 	0.22740 0.24220 0.40032 -0.51000
C 	C 	0.49400 0.31880 0.41483 -0.23300
O 	O 	0.33720 0.29560 0.43482 -0.52400
C 	C 	0.43410 0.31320 0.41570 0.45300
O 	O 	0.32060 0.58940 0.35254 -0.53000
O 	O 	0.33970 0.59940 0.48458 -0.51400
O 	O 	0.34720 0.55800 0.34203 -0.55400
O 	O 	0.32170 0.54110 0.49553 -0.50700
O 	O 	0.61270 0.40220 0.48906 -0.49600
C 	C 	0.31220 0.43270 0.41714 0.47200
C 	C 	0.31850 0.49410 0.41644 -0.27100
C 	C 	0.50870 0.28050 0.41891 0.16200
H 	H 	0.48110 0.25190 0.42250 -0.01200
O 	O 	0.54830 0.29990 0.48883 -0.53700
C 	C 	0.27090 0.28900 0.39693 0.43500
S 	S 	0.00006 0.14757 0.41516 0.08000
C 	C 	0.60860 0.32720 0.41270 0.22300
C 	C 	0.32710 0.60760 0.41509 0.26200
C 	C 	0.33000 0.33420 0.44715 -0.21500
N 	N 	0.24340 0.32200 0.36365 -0.21000
C 	C 	0.53730 0.35980 0.40967 0.16300
H 	H 	0.52780 0.38520 0.40670 -0.01000
C 	C 	0.28410 0.56380 0.41961 -0.30800
H 	H 	0.25670 0.57150 0.42240 0.14000
C 	C 	0.56580 0.28500 0.41760 -0.26100
H 	H 	0.57440 0.25780 0.42020 0.12600
C 	C 	0.27910 0.50670 0.42028 0.21200
H 	H 	0.24830 0.47680 0.42340 -0.02800
N 	N 	0.39120 0.39610 0.47060 -0.21800
C 	C 	0.36910 0.37510 0.46286 0.20900
C 	C 	0.59440 0.36550 0.40859 -0.25600
H 	H 	0.62270 0.39500 0.40510 0.12300
C 	C 	0.36240 0.53840 0.41174 0.21500
H 	H 	0.38960 0.53080 0.40890 -0.03000
C 	C 	0.30870 0.34490 0.38409 0.14200
H 	H 	0.34430 0.37200 0.38680 -0.00200
C 	C 	0.36610 0.59420 0.41123 -0.30900
H 	H 	0.39670 0.62430 0.40810 0.14100
C 	C 	0.33580 0.55460 0.48797 0.42100
C 	C 	0.29640 0.34920 0.45245 0.14400
H 	H 	0.26050 0.34710 0.45070 -0.00600
C 	C 	0.26320 0.29600 0.38830 -0.21300
C 	C 	0.51940 0.36280 0.48236 -0.30500
C 	C 	0.43600 0.38640 0.47434 0.27300
C 	C 	0.30850 0.31620 0.43884 0.43300
C 	C 	0.30340 0.35480 0.37617 -0.22800
H 	H 	0.33350 0.38900 0.37350 0.11400
C 	C 	0.30750 0.49300 0.35312 -0.35400
C 	C 	0.31530 0.36700 0.46029 -0.25000
H 	H 	0.29030 0.37330 0.46380 0.12000
C 	C 	0.34730 0.51250 0.48349 -0.19500
C 	C 	0.36130 0.52260 0.47533 0.12400
H 	H 	0.36050 0.55470 0.47270 0.00200
C 	C 	0.20500 0.26960 0.35881 0.20500
C 	C 	0.25030 0.31090 0.37217 0.18400
C 	C 	0.32430 0.54840 0.34897 0.52100
C 	C 	0.12040 0.22880 0.41974 0.37600
C 	C 	0.09530 0.12280 0.34337 0.41200
C 	C 	0.37350 0.43330 0.47474 0.17800
C 	C 	0.28450 0.48140 0.36069 0.30200
H 	H 	0.28320 0.51250 0.36350 -0.05900
C 	C 	0.40460 0.36030 0.45762 -0.24300
H 	H 	0.44080 0.36330 0.45940 0.11800
C 	C 	0.38460 0.34170 0.44999 0.15200
H 	H 	0.40880 0.33380 0.44660 -0.01200
C 	C 	0.48630 0.43230 0.47747 -0.30900
H 	H 	0.49330 0.47190 0.47700 0.14100
C 	C 	0.52960 0.42240 0.48157 0.20500
H 	H 	0.56440 0.45510 0.48370 -0.02700
C 	C 	0.21360 0.21990 0.35793 -0.26700
H 	H 	0.24360 0.21780 0.36090 0.12600
C 	C 	0.42740 0.32930 0.47493 -0.33800
H 	H 	0.39310 0.29640 0.47270 0.15000
C 	C 	0.12050 0.22070 0.34988 0.16200
H 	H 	0.08840 0.22030 0.34710 -0.01100
C 	C 	0.26370 0.42710 0.36428 -0.38800
H 	H 	0.24750 0.42100 0.36940 0.16900
C 	C 	0.15590 0.26920 0.35493 -0.24600
H 	H 	0.14740 0.30060 0.35570 0.12000
C 	C 	0.26610 0.38220 0.36055 0.28200
C 	C 	0.56040 0.35220 0.48680 0.45000
C 	C 	0.21210 0.25480 0.38414 0.15600
H 	H 	0.18060 0.22270 0.38690 -0.00800
C 	C 	0.31110 0.44820 0.34929 0.25200
H 	H 	0.32820 0.45580 0.34420 -0.04500
C 	C 	0.17880 0.17490 0.35287 0.17900
H 	H 	0.18710 0.14340 0.35200 -0.01800
C 	C 	0.35650 0.42130 0.48262 -0.20300
H 	H 	0.35550 0.38790 0.48510 0.10500
C 	C 	0.20610 0.25920 0.37619 -0.24000
H 	H 	0.17320 0.22850 0.37340 0.11900
C 	C 	0.29020 0.39060 0.35272 -0.31700
H 	H 	0.29200 0.35950 0.35000 0.14600
C 	C 	0.47010 0.32030 0.47891 0.25600
H 	H 	0.46320 0.28060 0.47920 -0.04500
C 	C 	0.87480 0.10300 0.41784 0.37300
C 	C 	0.37610 0.48530 0.47117 -0.21300
H 	H 	0.38810 0.49430 0.46580 0.10600
C 	C 	0.34010 0.46040 0.48714 0.10900
H 	H 	0.32530 0.45050 0.49230 0.00600
O 	O 	0.84030 0.11530 0.42459 -0.35600
C 	C 	0.96570 0.20660 0.42295 0.08900
H 	H 	0.94060 0.22130 0.42470 0.01900
C 	C 	0.02950 0.23890 0.42403 0.00800
H 	H 	0.05130 0.27570 0.42670 0.03400
C 	C 	0.05370 0.20810 0.42051 -0.10000
C 	C 	0.94380 0.15290 0.41914 -0.09100
O 	O 	0.04530 0.11910 0.34090 -0.49300
O 	O 	0.11340 0.08570 0.34127 -0.51700
C 	C 	0.13130 0.17370 0.34889 -0.23000
O 	O 	0.86790 0.06600 0.41285 -0.49900
O 	O 	0.28580 0.16110 0.41846 -0.27800
C 	C 	0.03060 0.22410 0.42864 -0.04600
H 	H 	0.05390 0.25070 0.43270 0.04700
C 	C 	0.95970 0.18420 0.42801 -0.12100
H 	H 	0.93160 0.17920 0.43200 0.07600
Zn	Zn	0.00706 0.67421 0.74492 1.21300
Zn	Zn	0.90916 0.64508 0.75844 1.21300
Zn	Zn	0.98202 0.57567 0.75852 1.21200
Zn	Zn	0.88203 0.54796 0.74477 1.21200
Zn	Zn	0.34780 0.74567 0.82872 1.21600
Zn	Zn	0.64685 0.39408 0.66727 1.21700
O 	O 	0.94525 0.61042 0.75140 -0.95800
O 	O 	0.06578 0.60654 0.75407 -0.49700
O 	O 	0.93571 0.72763 0.75498 -0.52000
O 	O 	0.98519 0.66155 0.73349 -0.51000
O 	O 	0.01396 0.75502 0.74687 -0.52100
O 	O 	0.93197 0.65423 0.76964 -0.52100
O 	O 	0.08804 0.68095 0.74534 -0.50900
O 	O 	0.82257 0.60563 0.75786 -0.50200
O 	O 	0.80097 0.53793 0.74768 -0.49000
O 	O 	0.89407 0.57553 0.73365 -0.50900
C 	C 	0.16067 0.65213 0.74816 -0.23200
O 	O 	0.00387 0.62893 0.76815 -0.52200
C 	C 	0.10077 0.64653 0.74903 0.45300
O 	O 	0.98727 0.92273 0.68587 -0.52900
O 	O 	0.00637 0.93273 0.81791 -0.51300
O 	O 	0.01387 0.89133 0.67536 -0.55500
O 	O 	0.98837 0.87443 0.82886 -0.51000
O 	O 	0.27937 0.73553 0.82239 -0.49500
C 	C 	0.97887 0.76603 0.75047 0.47100
C 	C 	0.98517 0.82743 0.74977 -0.27300
C 	C 	0.17537 0.61383 0.75224 0.16200
H 	H 	0.14777 0.58523 0.75583 -0.01200
O 	O 	0.21497 0.63323 0.82216 -0.53700
C 	C 	0.93757 0.62233 0.73026 0.43500
S 	S 	0.66673 0.48090 0.74849 0.08000
C 	C 	0.27527 0.66053 0.74603 0.22300
C 	C 	0.99377 0.94093 0.74842 0.26200
C 	C 	0.99667 0.66753 0.78048 -0.22100
N 	N 	0.91007 0.65533 0.69698 -0.21000
C 	C 	0.20397 0.69313 0.74300 0.16300
H 	H 	0.19447 0.71853 0.74003 -0.01000
C 	C 	0.95077 0.89713 0.75294 -0.30900
H 	H 	0.92337 0.90483 0.75573 0.14100
C 	C 	0.23247 0.61833 0.75093 -0.26100
H 	H 	0.24107 0.59113 0.75353 0.12600
C 	C 	0.94577 0.84003 0.75361 0.21300
H 	H 	0.91497 0.81013 0.75673 -0.02800
N 	N 	0.05787 0.72943 0.80393 -0.22000
C 	C 	0.03577 0.70843 0.79619 0.21600
C 	C 	0.26107 0.69883 0.74192 -0.25600
H 	H 	0.28937 0.72833 0.73843 0.12300
C 	C 	0.02907 0.87173 0.74507 0.21700
H 	H 	0.05627 0.86413 0.74223 -0.03000
C 	C 	0.97537 0.67823 0.71742 0.14100
H 	H 	0.01097 0.70533 0.72013 -0.00100
C 	C 	0.03277 0.92753 0.74456 -0.30800
H 	H 	0.06337 0.95763 0.74143 0.14200
C 	C 	0.00247 0.88793 0.82130 0.42700
C 	C 	0.96307 0.68253 0.78578 0.14900
H 	H 	0.92717 0.68043 0.78403 -0.00800
C 	C 	0.92987 0.62933 0.72163 -0.21200
C 	C 	0.18607 0.69613 0.81569 -0.30500
C 	C 	0.10267 0.71973 0.80767 0.27400
C 	C 	0.97517 0.64953 0.77217 0.43300
C 	C 	0.97007 0.68813 0.70950 -0.22800
H 	H 	0.00017 0.72233 0.70683 0.11400
C 	C 	0.97417 0.82633 0.68645 -0.35400
C 	C 	0.98197 0.70033 0.79362 -0.25900
H 	H 	0.95697 0.70663 0.79713 0.12200
C 	C 	0.01397 0.84583 0.81682 -0.20000
C 	C 	0.02797 0.85593 0.80866 0.12900
H 	H 	0.02717 0.88803 0.80603 0.00100
C 	C 	0.87167 0.60293 0.69214 0.20500
C 	C 	0.91697 0.64423 0.70550 0.18300
C 	C 	0.99097 0.88173 0.68230 0.52100
C 	C 	0.78707 0.56213 0.75307 0.37700
C 	C 	0.76197 0.45613 0.67670 0.41200
C 	C 	0.04017 0.76663 0.80807 0.18200
C 	C 	0.95117 0.81473 0.69402 0.30200
H 	H 	0.94987 0.84583 0.69683 -0.05800
C 	C 	0.07127 0.69363 0.79095 -0.24900
H 	H 	0.10747 0.69663 0.79273 0.12100
C 	C 	0.05127 0.67503 0.78332 0.16100
H 	H 	0.07547 0.66713 0.77993 -0.01400
C 	C 	0.15297 0.76563 0.81080 -0.30900
H 	H 	0.15997 0.80523 0.81033 0.14200
C 	C 	0.19627 0.75573 0.81490 0.20600
H 	H 	0.23107 0.78843 0.81703 -0.02700
C 	C 	0.88027 0.55323 0.69126 -0.26700
H 	H 	0.91027 0.55113 0.69423 0.12600
C 	C 	0.09407 0.66263 0.80826 -0.33800
H 	H 	0.05977 0.62973 0.80603 0.15000
C 	C 	0.78717 0.55403 0.68321 0.16200
H 	H 	0.75507 0.55363 0.68043 -0.01100
C 	C 	0.93037 0.76043 0.69761 -0.38700
H 	H 	0.91417 0.75433 0.70273 0.16900
C 	C 	0.82257 0.60253 0.68826 -0.24600
H 	H 	0.81407 0.63393 0.68903 0.12000
C 	C 	0.93277 0.71553 0.69388 0.28200
C 	C 	0.22707 0.68553 0.82013 0.45000
C 	C 	0.87877 0.58813 0.71747 0.15600
H 	H 	0.84727 0.55603 0.72023 -0.00700
C 	C 	0.97777 0.78153 0.68262 0.25200
H 	H 	0.99487 0.78913 0.67753 -0.04500
C 	C 	0.84547 0.50823 0.68620 0.17900
H 	H 	0.85377 0.47673 0.68533 -0.01800
C 	C 	0.02317 0.75463 0.81595 -0.20900
H 	H 	0.02217 0.72123 0.81843 0.10800
C 	C 	0.87277 0.59253 0.70952 -0.24000
H 	H 	0.83987 0.56183 0.70673 0.11900
C 	C 	0.95687 0.72393 0.68605 -0.31600
H 	H 	0.95867 0.69283 0.68333 0.14600
C 	C 	0.13677 0.65363 0.81224 0.25700
H 	H 	0.12987 0.61393 0.81253 -0.04500
C 	C 	0.54147 0.43633 0.75117 0.37300
C 	C 	0.04277 0.81863 0.80450 -0.21600
H 	H 	0.05477 0.82763 0.79913 0.10800
C 	C 	0.00677 0.79373 0.82047 0.11900
H 	H 	0.99197 0.78383 0.82563 -0.00000
O 	O 	0.50697 0.44863 0.75792 -0.35600
C 	C 	0.63237 0.53993 0.75628 0.08900
H 	H 	0.60727 0.55463 0.75803 0.01900
C 	C 	0.69617 0.57223 0.75736 0.00800
H 	H 	0.71797 0.60903 0.76003 0.03400
C 	C 	0.72037 0.54143 0.75384 -0.10000
C 	C 	0.61047 0.48623 0.75247 -0.09100
O 	O 	0.71197 0.45243 0.67423 -0.49300
O 	O 	0.78007 0.41903 0.67460 -0.51700
C 	C 	0.79797 0.50703 0.68222 -0.23000
O 	O 	0.53457 0.39933 0.74618 -0.49900
O 	O 	0.95247 0.49443 0.75179 -0.27700
C 	C 	0.69727 0.55743 0.76197 -0.04600
H 	H 	0.72057 0.58403 0.76603 0.04700
C 	C 	0.62637 0.51753 0.76134 -0.12200
H 	H 	0.59827 0.51253 0.76533 0.07600
Zn	Zn	0.67372 0.00755 0.07826 1.21400
Zn	Zn	0.57582 0.97842 0.09177 1.21200
Zn	Zn	0.64868 0.90901 0.09185 1.21200
Zn	Zn	0.54869 0.88130 0.07810 1.21200
Zn	Zn	0.01446 0.07901 0.16205 1.21500
Zn	Zn	0.31351 0.72742 0.00060 1.21700
O 	O 	0.61191 0.94376 0.08473 -0.95800
O 	O 	0.73244 0.93988 0.08741 -0.49700
O 	O 	0.60237 0.06097 0.08832 -0.51900
O 	O 	0.65185 0.99489 0.06683 -0.51200
O 	O 	0.68062 0.08836 0.08021 -0.52200
O 	O 	0.59863 0.98757 0.10298 -0.52100
O 	O 	0.75470 0.01429 0.07868 -0.50600
O 	O 	0.48923 0.93897 0.09120 -0.50300
O 	O 	0.46763 0.87127 0.08102 -0.49100
O 	O 	0.56073 0.90887 0.06699 -0.51000
C 	C 	0.82733 0.98547 0.08150 -0.23400
O 	O 	0.67053 0.96227 0.10149 -0.52400
C 	C 	0.76743 0.97987 0.08237 0.45000
O 	O 	0.65393 0.25607 0.01921 -0.53000
O 	O 	0.67303 0.26607 0.15125 -0.51400
O 	O 	0.68053 0.22467 0.00870 -0.55500
O 	O 	0.65503 0.20777 0.16220 -0.50700
O 	O 	0.94603 0.06887 0.15573 -0.49400
C 	C 	0.64553 0.09937 0.08381 0.47200
C 	C 	0.65183 0.16077 0.08311 -0.27000
C 	C 	0.84203 0.94717 0.08558 0.16100
H 	H 	0.81443 0.91857 0.08917 -0.01100
O 	O 	0.88163 0.96657 0.15550 -0.54100
C 	C 	0.60423 0.95567 0.06360 0.43600
S 	S 	0.33339 0.81424 0.08182 0.08000
C 	C 	0.94193 0.99387 0.07937 0.21700
C 	C 	0.66043 0.27427 0.08176 0.26200
C 	C 	0.66333 0.00087 0.11382 -0.20900
N 	N 	0.57673 0.98867 0.03032 -0.21100
C 	C 	0.87063 0.02647 0.07634 0.16500
H 	H 	0.86113 0.05187 0.07337 -0.01000
C 	C 	0.61743 0.23047 0.08628 -0.30800
H 	H 	0.59003 0.23817 0.08907 0.14000
C 	C 	0.89913 0.95167 0.08427 -0.25900
H 	H 	0.90773 0.92447 0.08687 0.12500
C 	C 	0.61243 0.17337 0.08695 0.21200
H 	H 	0.58163 0.14347 0.09007 -0.02700
N 	N 	0.72453 0.06277 0.13727 -0.21800
C 	C 	0.70243 0.04177 0.12953 0.20800
C 	C 	0.92773 0.03217 0.07526 -0.25100
H 	H 	0.95603 0.06167 0.07177 0.12200
C 	C 	0.69573 0.20507 0.07841 0.21500
H 	H 	0.72293 0.19747 0.07557 -0.03000
C 	C 	0.64203 0.01157 0.05076 0.14600
H 	H 	0.67763 0.03867 0.05347 -0.00200
C 	C 	0.69943 0.26087 0.07790 -0.30900
H 	H 	0.73003 0.29097 0.07477 0.14100
C 	C 	0.66913 0.22127 0.15464 0.42100
C 	C 	0.62973 0.01587 0.11912 0.14100
H 	H 	0.59383 0.01377 0.11737 -0.00400
C 	C 	0.59653 0.96267 0.05497 -0.21700
C 	C 	0.85273 0.02947 0.14903 -0.30100
C 	C 	0.76933 0.05307 0.14101 0.27700
C 	C 	0.64183 0.98287 0.10551 0.42800
C 	C 	0.63673 0.02147 0.04284 -0.22700
H 	H 	0.66683 0.05567 0.04017 0.11400
C 	C 	0.64083 0.15967 0.01979 -0.35500
C 	C 	0.64863 0.03367 0.12696 -0.24700
H 	H 	0.62363 0.03997 0.13047 0.12000
C 	C 	0.68063 0.17917 0.15016 -0.19500
C 	C 	0.69463 0.18927 0.14200 0.12400
H 	H 	0.69383 0.22137 0.13937 0.00200
C 	C 	0.53833 0.93627 0.02548 0.20500
C 	C 	0.58363 0.97757 0.03884 0.18200
C 	C 	0.65763 0.21507 0.01564 0.52100
C 	C 	0.45373 0.89547 0.08641 0.37600
C 	C 	0.42863 0.78947 0.01004 0.41200
C 	C 	0.70683 0.09997 0.14141 0.17900
C 	C 	0.61783 0.14807 0.02736 0.30400
H 	H 	0.61653 0.17917 0.03017 -0.05900
C 	C 	0.73793 0.02697 0.12429 -0.24000
H 	H 	0.77413 0.02997 0.12607 0.11800
C 	C 	0.71793 0.00837 0.11666 0.14900
H 	H 	0.74213 0.00047 0.11327 -0.00900
C 	C 	0.81963 0.09897 0.14414 -0.31000
H 	H 	0.82663 0.13857 0.14367 0.14200
C 	C 	0.86293 0.08907 0.14824 0.20600
H 	H 	0.89773 0.12177 0.15037 -0.02600
C 	C 	0.54693 0.88657 0.02460 -0.26700
H 	H 	0.57693 0.88447 0.02757 0.12600
C 	C 	0.76073 0.99597 0.14160 -0.34200
H 	H 	0.72643 0.96307 0.13937 0.15000
C 	C 	0.45383 0.88737 0.01655 0.16200
H 	H 	0.42173 0.88697 0.01377 -0.01100
C 	C 	0.59703 0.09377 0.03095 -0.39000
H 	H 	0.58083 0.08767 0.03607 0.17000
C 	C 	0.48923 0.93587 0.02160 -0.24600
H 	H 	0.48073 0.96727 0.02237 0.12000
C 	C 	0.59943 0.04887 0.02722 0.28500
C 	C 	0.89373 0.01887 0.15347 0.45300
C 	C 	0.54543 0.92147 0.05081 0.15700
H 	H 	0.51393 0.88937 0.05357 -0.00800
C 	C 	0.64443 0.11487 0.01596 0.25300
H 	H 	0.66153 0.12247 0.01087 -0.04500
C 	C 	0.51213 0.84157 0.01954 0.17800
H 	H 	0.52043 0.81007 0.01867 -0.01800
C 	C 	0.68983 0.08797 0.14929 -0.20300
H 	H 	0.68883 0.05457 0.15177 0.10600
C 	C 	0.53943 0.92587 0.04286 -0.24000
H 	H 	0.50653 0.89517 0.04007 0.12000
C 	C 	0.62353 0.05727 0.01939 -0.31800
H 	H 	0.62533 0.02617 0.01667 0.14700
C 	C 	0.80343 0.98697 0.14558 0.25200
H 	H 	0.79653 0.94727 0.14587 -0.04500
C 	C 	0.20813 0.76967 0.08451 0.37300
C 	C 	0.70943 0.15197 0.13784 -0.21300
H 	H 	0.72143 0.16097 0.13247 0.10600
C 	C 	0.67343 0.12707 0.15381 0.10900
H 	H 	0.65863 0.11717 0.15897 0.00600
O 	O 	0.17363 0.78197 0.09126 -0.35600
C 	C 	0.29903 0.87327 0.08962 0.08900
H 	H 	0.27393 0.88797 0.09137 0.01900
C 	C 	0.36283 0.90557 0.09070 0.00800
H 	H 	0.38463 0.94237 0.09337 0.03400
C 	C 	0.38703 0.87477 0.08718 -0.10100
C 	C 	0.27713 0.81957 0.08581 -0.09100
O 	O 	0.37863 0.78577 0.00757 -0.49200
O 	O 	0.44673 0.75237 0.00794 -0.51700
C 	C 	0.46463 0.84037 0.01556 -0.23000
O 	O 	0.20123 0.73267 0.07952 -0.49900
O 	O 	0.61913 0.82777 0.08513 -0.27800
C 	C 	0.36393 0.89077 0.09531 -0.04600
H 	H 	0.38723 0.91737 0.09937 0.04600
C 	C 	0.29303 0.85087 0.09468 -0.12100
H 	H 	0.26493 0.84587 0.09867 0.07500
Zn	Zn	0.34088 0.00049 0.58841 1.21300
Zn	Zn	0.31175 0.06926 0.57489 1.21300
Zn	Zn	0.24234 0.92699 0.57482 1.21200
Zn	Zn	0.21463 0.99927 0.58857 1.21200
Zn	Zn	0.41234 0.73121 0.50461 1.21600
Zn	Zn	0.06075 0.08057 0.66607 1.21700
O 	O 	0.27709 0.99851 0.58194 -0.95700
O 	O 	0.27321 0.87410 0.57926 -0.49800
O 	O 	0.39430 0.12526 0.57835 -0.52000
O 	O 	0.32822 0.00970 0.59984 -0.51000
O 	O 	0.42169 0.07440 0.58646 -0.52300
O 	O 	0.32090 0.05560 0.56369 -0.52100
O 	O 	0.34762 0.92625 0.58799 -0.51000
O 	O 	0.27230 0.11640 0.57547 -0.50200
O 	O 	0.20460 0.07030 0.58565 -0.49000
O 	O 	0.24220 0.01480 0.59968 -0.51000
C 	C 	0.31880 0.82480 0.58517 -0.23200
O 	O 	0.29560 0.95840 0.56518 -0.52300
C 	C 	0.31320 0.87910 0.58430 0.45300
O 	O 	0.58940 0.26880 0.64746 -0.53000
O 	O 	0.59940 0.25970 0.51542 -0.51400
O 	O 	0.55800 0.21080 0.65797 -0.55500
O 	O 	0.54110 0.21940 0.50447 -0.50700
O 	O 	0.40220 0.78950 0.51094 -0.49600
C 	C 	0.43270 0.12050 0.58286 0.47200
C 	C 	0.49410 0.17560 0.58356 -0.27100
C 	C 	0.28050 0.77180 0.58109 0.16200
H 	H 	0.25190 0.77080 0.57750 -0.01200
O 	O 	0.29990 0.75160 0.51117 -0.53700
C 	C 	0.28900 0.01810 0.60307 0.43500
S 	S 	0.14757 0.14751 0.58484 0.08000
C 	C 	0.32720 0.71860 0.58730 0.22300
C 	C 	0.60760 0.28050 0.58491 0.26200
C 	C 	0.33420 0.00420 0.55285 -0.21500
N 	N 	0.32200 0.07860 0.63635 -0.21000
C 	C 	0.35980 0.82250 0.59033 0.16300
H 	H 	0.38520 0.85740 0.59330 -0.01000
C 	C 	0.56380 0.27970 0.58039 -0.30800
H 	H 	0.57150 0.31480 0.57760 0.14000
C 	C 	0.28500 0.71920 0.58240 -0.26100
H 	H 	0.25780 0.68340 0.57980 0.12600
C 	C 	0.50670 0.22760 0.57972 0.21200
H 	H 	0.47680 0.22850 0.57660 -0.02800
N 	N 	0.39610 0.00490 0.52940 -0.21800
C 	C 	0.37510 0.00600 0.53714 0.20800
C 	C 	0.36550 0.77110 0.59141 -0.25600
H 	H 	0.39500 0.77230 0.59490 0.12300
C 	C 	0.53840 0.17600 0.58826 0.21500
H 	H 	0.53080 0.14120 0.59110 -0.03000
C 	C 	0.34490 0.03620 0.61591 0.14200
H 	H 	0.37200 0.02770 0.61320 -0.00200
C 	C 	0.59420 0.22810 0.58877 -0.30900
H 	H 	0.62430 0.22760 0.59190 0.14100
C 	C 	0.55460 0.21880 0.51203 0.42100
C 	C 	0.34920 0.05280 0.54755 0.14400
H 	H 	0.34710 0.08660 0.54930 -0.00600
C 	C 	0.29600 0.03280 0.61170 -0.21300
C 	C 	0.36280 0.84340 0.51764 -0.30500
C 	C 	0.38640 0.95040 0.52566 0.27400
C 	C 	0.31620 0.00770 0.56116 0.43300
C 	C 	0.35480 0.05140 0.62383 -0.22800
H 	H 	0.38900 0.05550 0.62650 0.11400
C 	C 	0.49300 0.18550 0.64688 -0.35400
C 	C 	0.36700 0.05170 0.53971 -0.25000
H 	H 	0.37330 0.08300 0.53620 0.12000
C 	C 	0.51250 0.16520 0.51651 -0.19500
C 	C 	0.52260 0.16130 0.52467 0.12400
H 	H 	0.55470 0.19420 0.52730 0.00200
C 	C 	0.26960 0.06460 0.64119 0.20800
C 	C 	0.31090 0.06060 0.62783 0.18400
C 	C 	0.54840 0.22410 0.65103 0.52100
C 	C 	0.22880 0.10840 0.58026 0.37700
C 	C 	0.12280 0.02750 0.65663 0.41200
C 	C 	0.43330 0.05980 0.52526 0.17800
C 	C 	0.48140 0.19690 0.63931 0.30200
H 	H 	0.51250 0.22930 0.63650 -0.05900
C 	C 	0.36030 0.95570 0.54238 -0.24200
H 	H 	0.36330 0.92250 0.54060 0.11800
C 	C 	0.34170 0.95710 0.55001 0.15300
H 	H 	0.33380 0.92500 0.55340 -0.01200
C 	C 	0.43230 0.94600 0.52253 -0.30900
H 	H 	0.47190 0.97860 0.52300 0.14200
C 	C 	0.42240 0.89280 0.51843 0.20600
H 	H 	0.45510 0.89070 0.51630 -0.02700
C 	C 	0.21990 0.00630 0.64207 -0.27400
H 	H 	0.21780 0.97420 0.63910 0.12900
C 	C 	0.32930 0.90190 0.52507 -0.33800
H 	H 	0.29640 0.90330 0.52730 0.15000
C 	C 	0.22070 0.10020 0.65012 0.16600
H 	H 	0.22030 0.13190 0.65290 -0.01300
C 	C 	0.42710 0.16340 0.63572 -0.38800
H 	H 	0.42100 0.17350 0.63060 0.16900
C 	C 	0.26920 0.11330 0.64507 -0.24900
H 	H 	0.30060 0.15320 0.64430 0.12100
C 	C 	0.38220 0.11610 0.63945 0.28200
C 	C 	0.35220 0.79180 0.51320 0.45000
C 	C 	0.25480 0.04270 0.61586 0.15600
H 	H 	0.22270 0.04210 0.61310 -0.00800
C 	C 	0.44820 0.13710 0.65071 0.25200
H 	H 	0.45580 0.12760 0.65580 -0.04500
C 	C 	0.17490 0.99610 0.64713 0.18600
H 	H 	0.14340 0.95630 0.64800 -0.02000
C 	C 	0.42130 0.06480 0.51738 -0.20300
H 	H 	0.38790 0.03240 0.51490 0.10500
C 	C 	0.25920 0.05310 0.62381 -0.24000
H 	H 	0.22850 0.05530 0.62660 0.11900
C 	C 	0.39060 0.10040 0.64728 -0.31700
H 	H 	0.35950 0.06750 0.65000 0.14600
C 	C 	0.32030 0.85020 0.52109 0.25600
H 	H 	0.28060 0.81740 0.52080 -0.04500
C 	C 	0.10300 0.22820 0.58216 0.37400
C 	C 	0.48530 0.10920 0.52883 -0.21300
H 	H 	0.49430 0.10620 0.53420 0.10600
C 	C 	0.46040 0.12030 0.51286 0.10800
H 	H 	0.45050 0.12520 0.50770 0.00600
O 	O 	0.11530 0.27500 0.57541 -0.35600
C 	C 	0.20660 0.24090 0.57705 0.08900
H 	H 	0.22130 0.28070 0.57530 0.01900
C 	C 	0.23890 0.20940 0.57597 0.00800
H 	H 	0.27570 0.22440 0.57330 0.03400
C 	C 	0.20810 0.15440 0.57949 -0.10000
C 	C 	0.15290 0.20910 0.58086 -0.09100
O 	O 	0.11910 0.07380 0.65910 -0.49200
O 	O 	0.08570 0.97230 0.65873 -0.51600
C 	C 	0.17370 0.04240 0.65111 -0.23400
O 	O 	0.06600 0.19810 0.58715 -0.49900
O 	O 	0.16110 0.87530 0.58154 -0.27700
C 	C 	0.22410 0.19350 0.57136 -0.04600
H 	H 	0.25070 0.19680 0.56730 0.04700
C 	C 	0.18420 0.22450 0.57199 -0.12200
H 	H 	0.17920 0.24760 0.56800 0.07600
Zn	Zn	0.00755 0.33382 0.92174 1.21400
Zn	Zn	0.97842 0.40259 0.90823 1.21200
Zn	Zn	0.90901 0.26032 0.90815 1.21200
Zn	Zn	0.88130 0.33260 0.92190 1.21200
Zn	Zn	0.07901 0.06454 0.83795 1.21600
Zn	Zn	0.72742 0.41390 0.99940 1.21700
O 	O 	0.94376 0.33184 0.91527 -0.95800
O 	O 	0.93988 0.20743 0.91259 -0.49700
O 	O 	0.06097 0.45859 0.91168 -0.51900
O 	O 	0.99489 0.34303 0.93317 -0.51200
O 	O 	0.08836 0.40773 0.91979 -0.52200
O 	O 	0.98757 0.38893 0.89702 -0.52100
O 	O 	0.01429 0.25958 0.92132 -0.50600
O 	O 	0.93897 0.44973 0.90880 -0.50300
O 	O 	0.87127 0.40363 0.91898 -0.49100
O 	O 	0.90887 0.34813 0.93301 -0.51000
C 	C 	0.98547 0.15813 0.91850 -0.23300
O 	O 	0.96227 0.29173 0.89851 -0.52400
C 	C 	0.97987 0.21243 0.91763 0.44900
O 	O 	0.25607 0.60213 0.98079 -0.53000
O 	O 	0.26607 0.59303 0.84875 -0.51400
O 	O 	0.22467 0.54413 0.99130 -0.55500
O 	O 	0.20777 0.55273 0.83780 -0.50700
O 	O 	0.06887 0.12283 0.84427 -0.49600
C 	C 	0.09937 0.45383 0.91619 0.47200
C 	C 	0.16077 0.50893 0.91689 -0.27000
C 	C 	0.94717 0.10513 0.91442 0.16000
H 	H 	0.91857 0.10413 0.91083 -0.01100
O 	O 	0.96657 0.08493 0.84450 -0.54100
C 	C 	0.95567 0.35143 0.93640 0.43600
S 	S 	0.81424 0.48084 0.91818 0.08000
C 	C 	0.99387 0.05193 0.92063 0.21500
C 	C 	0.27427 0.61383 0.91824 0.26100
C 	C 	0.00087 0.33753 0.88618 -0.20900
N 	N 	0.98867 0.41193 0.96968 -0.21100
C 	C 	0.02647 0.15583 0.92366 0.16400
H 	H 	0.05187 0.19073 0.92663 -0.01000
C 	C 	0.23047 0.61303 0.91372 -0.30800
H 	H 	0.23817 0.64813 0.91093 0.14000
C 	C 	0.95167 0.05253 0.91573 -0.25800
H 	H 	0.92447 0.01673 0.91313 0.12400
C 	C 	0.17337 0.56093 0.91305 0.21200
H 	H 	0.14347 0.56183 0.90993 -0.02700
N 	N 	0.06277 0.33823 0.86273 -0.21800
C 	C 	0.04177 0.33933 0.87047 0.20800
C 	C 	0.03217 0.10443 0.92474 -0.25000
H 	H 	0.06167 0.10563 0.92823 0.12200
C 	C 	0.20507 0.50933 0.92159 0.21500
H 	H 	0.19747 0.47453 0.92443 -0.03000
C 	C 	0.01157 0.36953 0.94924 0.14600
H 	H 	0.03867 0.36103 0.94653 -0.00200
C 	C 	0.26087 0.56143 0.92210 -0.30900
H 	H 	0.29097 0.56093 0.92523 0.14100
C 	C 	0.22127 0.55213 0.84536 0.42100
C 	C 	0.01587 0.38613 0.88088 0.14100
H 	H 	0.01377 0.41993 0.88263 -0.00400
C 	C 	0.96267 0.36613 0.94503 -0.21700
C 	C 	0.02947 0.17673 0.85097 -0.30200
C 	C 	0.05307 0.28373 0.85899 0.27800
C 	C 	0.98287 0.34103 0.89449 0.42800
C 	C 	0.02147 0.38473 0.95716 -0.22700
H 	H 	0.05567 0.38883 0.95983 0.11400
C 	C 	0.15967 0.51883 0.98021 -0.35500
C 	C 	0.03367 0.38503 0.87304 -0.24700
H 	H 	0.03997 0.41633 0.86953 0.12000
C 	C 	0.17917 0.49853 0.84984 -0.19500
C 	C 	0.18927 0.49463 0.85800 0.12400
H 	H 	0.22137 0.52753 0.86063 0.00200
C 	C 	0.93627 0.39793 0.97452 0.20500
C 	C 	0.97757 0.39393 0.96116 0.18200
C 	C 	0.21507 0.55743 0.98436 0.52100
C 	C 	0.89547 0.44173 0.91359 0.37600
C 	C 	0.78947 0.36083 0.98996 0.41200
C 	C 	0.09997 0.39313 0.85859 0.17900
C 	C 	0.14807 0.53023 0.97264 0.30300
H 	H 	0.17917 0.56263 0.96983 -0.05900
C 	C 	0.02697 0.28903 0.87571 -0.24000
H 	H 	0.02997 0.25583 0.87393 0.11800
C 	C 	0.00837 0.29043 0.88334 0.14900
H 	H 	0.00047 0.25833 0.88673 -0.01000
C 	C 	0.09897 0.27933 0.85586 -0.31000
H 	H 	0.13857 0.31193 0.85633 0.14200
C 	C 	0.08907 0.22613 0.85176 0.20600
H 	H 	0.12177 0.22403 0.84963 -0.02700
C 	C 	0.88657 0.33963 0.97540 -0.26700
H 	H 	0.88447 0.30753 0.97243 0.12600
C 	C 	0.99597 0.23523 0.85840 -0.34200
H 	H 	0.96307 0.23663 0.86063 0.15000
C 	C 	0.88737 0.43353 0.98345 0.16200
H 	H 	0.88697 0.46523 0.98623 -0.01100
C 	C 	0.09377 0.49673 0.96905 -0.39000
H 	H 	0.08767 0.50683 0.96393 0.17000
C 	C 	0.93587 0.44663 0.97840 -0.24600
H 	H 	0.96727 0.48653 0.97763 0.12000
C 	C 	0.04887 0.44943 0.97278 0.28500
C 	C 	0.01887 0.12513 0.84653 0.45300
C 	C 	0.92147 0.37603 0.94919 0.15700
H 	H 	0.88937 0.37543 0.94643 -0.00800
C 	C 	0.11487 0.47043 0.98404 0.25300
H 	H 	0.12247 0.46093 0.98913 -0.04500
C 	C 	0.84157 0.32943 0.98046 0.17800
H 	H 	0.81007 0.28963 0.98133 -0.01800
C 	C 	0.08797 0.39813 0.85071 -0.20300
H 	H 	0.05457 0.36573 0.84823 0.10500
C 	C 	0.92587 0.38643 0.95714 -0.24000
H 	H 	0.89517 0.38863 0.95993 0.12000
C 	C 	0.05727 0.43373 0.98061 -0.31800
H 	H 	0.02617 0.40083 0.98333 0.14700
C 	C 	0.98697 0.18353 0.85442 0.25300
H 	H 	0.94727 0.15073 0.85413 -0.04500
C 	C 	0.76967 0.56153 0.91549 0.37300
C 	C 	0.15197 0.44253 0.86216 -0.21300
H 	H 	0.16097 0.43953 0.86753 0.10600
C 	C 	0.12707 0.45363 0.84619 0.10900
H 	H 	0.11717 0.45853 0.84103 0.00600
O 	O 	0.78197 0.60833 0.90874 -0.35600
C 	C 	0.87327 0.57423 0.91038 0.08900
H 	H 	0.88797 0.61403 0.90863 0.01900
C 	C 	0.90557 0.54273 0.90930 0.00800
H 	H 	0.94237 0.55773 0.90663 0.03400
C 	C 	0.87477 0.48773 0.91282 -0.10100
C 	C 	0.81957 0.54243 0.91419 -0.09100
O 	O 	0.78577 0.40713 0.99243 -0.49200
O 	O 	0.75237 0.30563 0.99206 -0.51600
C 	C 	0.84037 0.37573 0.98444 -0.23000
O 	O 	0.73267 0.53143 0.92048 -0.49900
O 	O 	0.82777 0.20863 0.91487 -0.27800
C 	C 	0.89077 0.52683 0.90469 -0.04600
H 	H 	0.91737 0.53013 0.90063 0.04600
C 	C 	0.85087 0.55783 0.90532 -0.12100
H 	H 	0.84587 0.58093 0.90133 0.07500
Zn	Zn	0.67421 0.66716 0.25508 1.21300
Zn	Zn	0.64508 0.73593 0.24156 1.21300
Zn	Zn	0.57567 0.59366 0.24148 1.21200
Zn	Zn	0.54796 0.66594 0.25523 1.21200
Zn	Zn	0.74567 0.39788 0.17128 1.21600
Zn	Zn	0.39408 0.74724 0.33273 1.21700
O 	O 	0.61042 0.66518 0.24860 -0.95700
O 	O 	0.60654 0.54077 0.24593 -0.49800
O 	O 	0.72763 0.79193 0.24502 -0.52000
O 	O 	0.66155 0.67637 0.26651 -0.50900
O 	O 	0.75502 0.74107 0.25313 -0.52300
O 	O 	0.65423 0.72227 0.23036 -0.52100
O 	O 	0.68095 0.59292 0.25466 -0.51000
O 	O 	0.60563 0.78307 0.24214 -0.50200
O 	O 	0.53793 0.73697 0.25232 -0.49000
O 	O 	0.57553 0.68147 0.26635 -0.50900
C 	C 	0.65213 0.49147 0.25184 -0.23200
O 	O 	0.62893 0.62507 0.23185 -0.52400
C 	C 	0.64653 0.54577 0.25097 0.45300
O 	O 	0.92273 0.93547 0.31413 -0.52900
O 	O 	0.93273 0.92637 0.18209 -0.51400
O 	O 	0.89133 0.87747 0.32464 -0.55500
O 	O 	0.87443 0.88607 0.17114 -0.50700
O 	O 	0.73553 0.45617 0.17761 -0.49500
C 	C 	0.76603 0.78717 0.24953 0.47300
C 	C 	0.82743 0.84227 0.25023 -0.27200
C 	C 	0.61383 0.43847 0.24776 0.16200
H 	H 	0.58523 0.43747 0.24417 -0.01200
O 	O 	0.63323 0.41827 0.17784 -0.53700
C 	C 	0.62233 0.68477 0.26974 0.43500
S 	S 	0.48090 0.81418 0.25151 0.08000
C 	C 	0.66053 0.38527 0.25397 0.22300
C 	C 	0.94093 0.94717 0.25158 0.26400
C 	C 	0.66753 0.67087 0.21952 -0.21500
N 	N 	0.65533 0.74527 0.30302 -0.21000
C 	C 	0.69313 0.48917 0.25700 0.16300
H 	H 	0.71853 0.52407 0.25997 -0.01000
C 	C 	0.89713 0.94637 0.24706 -0.31000
H 	H 	0.90483 0.98147 0.24427 0.14100
C 	C 	0.61833 0.38587 0.24907 -0.26100
H 	H 	0.59113 0.35007 0.24647 0.12600
C 	C 	0.84003 0.89427 0.24639 0.21300
H 	H 	0.81013 0.89517 0.24327 -0.02800
N 	N 	0.72943 0.67157 0.19607 -0.21800
C 	C 	0.70843 0.67267 0.20381 0.20900
C 	C 	0.69883 0.43777 0.25808 -0.25600
H 	H 	0.72833 0.43897 0.26157 0.12300
C 	C 	0.87173 0.84267 0.25493 0.21600
H 	H 	0.86413 0.80787 0.25777 -0.03000
C 	C 	0.67823 0.70287 0.28258 0.14200
H 	H 	0.70533 0.69437 0.27987 -0.00200
C 	C 	0.92753 0.89477 0.25544 -0.31000
H 	H 	0.95763 0.89427 0.25857 0.14200
C 	C 	0.88793 0.88547 0.17870 0.42100
C 	C 	0.68253 0.71947 0.21422 0.14400
H 	H 	0.68043 0.75327 0.21597 -0.00600
C 	C 	0.62933 0.69947 0.27837 -0.21300
C 	C 	0.69613 0.51007 0.18431 -0.30500
C 	C 	0.71973 0.61707 0.19233 0.27300
C 	C 	0.64953 0.67437 0.22783 0.43300
C 	C 	0.68813 0.71807 0.29050 -0.22800
H 	H 	0.72233 0.72217 0.29317 0.11400
C 	C 	0.82633 0.85217 0.31355 -0.35300
C 	C 	0.70033 0.71837 0.20638 -0.25000
H 	H 	0.70663 0.74967 0.20287 0.12000
C 	C 	0.84583 0.83187 0.18318 -0.19500
C 	C 	0.85593 0.82797 0.19134 0.12400
H 	H 	0.88803 0.86087 0.19397 0.00200
C 	C 	0.60293 0.73127 0.30786 0.20500
C 	C 	0.64423 0.72727 0.29450 0.18400
C 	C 	0.88173 0.89077 0.31770 0.52000
C 	C 	0.56213 0.77507 0.24693 0.37700
C 	C 	0.45613 0.69417 0.32330 0.41200
C 	C 	0.76663 0.72647 0.19193 0.17800
C 	C 	0.81473 0.86357 0.30598 0.30100
H 	H 	0.84583 0.89597 0.30317 -0.05800
C 	C 	0.69363 0.62237 0.20905 -0.24300
H 	H 	0.69663 0.58917 0.20727 0.11800
C 	C 	0.67503 0.62377 0.21668 0.15300
H 	H 	0.66713 0.59167 0.22007 -0.01200
C 	C 	0.76563 0.61267 0.18920 -0.30900
H 	H 	0.80523 0.64527 0.18967 0.14100
C 	C 	0.75573 0.55947 0.18510 0.20500
H 	H 	0.78843 0.55737 0.18297 -0.02600
C 	C 	0.55323 0.67297 0.30874 -0.26700
H 	H 	0.55113 0.64087 0.30577 0.12600
C 	C 	0.66263 0.56857 0.19174 -0.33800
H 	H 	0.62973 0.56997 0.19397 0.15000
C 	C 	0.55403 0.76687 0.31679 0.16200
H 	H 	0.55363 0.79857 0.31957 -0.01100
C 	C 	0.76043 0.83007 0.30239 -0.38700
H 	H 	0.75433 0.84017 0.29727 0.16900
C 	C 	0.60253 0.77997 0.31174 -0.24600
H 	H 	0.63393 0.81987 0.31097 0.12000
C 	C 	0.71553 0.78277 0.30612 0.28200
C 	C 	0.68553 0.45847 0.17987 0.45000
C 	C 	0.58813 0.70937 0.28253 0.15600
H 	H 	0.55603 0.70877 0.27977 -0.00800
C 	C 	0.78153 0.80377 0.31738 0.25200
H 	H 	0.78913 0.79427 0.32247 -0.04500
C 	C 	0.50823 0.66277 0.31380 0.17900
H 	H 	0.47673 0.62297 0.31467 -0.01800
C 	C 	0.75463 0.73147 0.18405 -0.20300
H 	H 	0.72123 0.69907 0.18157 0.10500
C 	C 	0.59253 0.71977 0.29048 -0.24000
H 	H 	0.56183 0.72197 0.29327 0.11900
C 	C 	0.72393 0.76707 0.31395 -0.31600
H 	H 	0.69283 0.73417 0.31667 0.14600
C 	C 	0.65363 0.51687 0.18776 0.25600
H 	H 	0.61393 0.48407 0.18747 -0.04500
C 	C 	0.43633 0.89487 0.24883 0.37300
C 	C 	0.81863 0.77587 0.19550 -0.21300
H 	H 	0.82763 0.77287 0.20087 0.10600
C 	C 	0.79373 0.78697 0.17953 0.10800
H 	H 	0.78383 0.79187 0.17437 0.00600
O 	O 	0.44863 0.94167 0.24208 -0.35600
C 	C 	0.53993 0.90757 0.24372 0.08900
H 	H 	0.55463 0.94737 0.24197 0.01900
C 	C 	0.57223 0.87607 0.24264 0.00800
H 	H 	0.60903 0.89107 0.23997 0.03400
C 	C 	0.54143 0.82107 0.24616 -0.10000
C 	C 	0.48623 0.87577 0.24753 -0.09100
O 	O 	0.45243 0.74047 0.32577 -0.49300
O 	O 	0.41903 0.63897 0.32540 -0.51700
C 	C 	0.50703 0.70907 0.31778 -0.23000
O 	O 	0.39933 0.86477 0.25382 -0.49900
O 	O 	0.49443 0.54197 0.24821 -0.27700
C 	C 	0.55743 0.86017 0.23803 -0.04600
H 	H 	0.58403 0.86347 0.23397 0.04700
C 	C 	0.51753 0.89117 0.23866 -0.12200
H 	H 	0.51253 0.91427 0.23467 0.07600
Zn	Zn	0.99951 0.34039 0.58841 1.21300
Zn	Zn	0.93074 0.24249 0.57489 1.21300
Zn	Zn	0.07301 0.31535 0.57482 1.21200
Zn	Zn	0.00073 0.21536 0.58857 1.21200
Zn	Zn	0.26879 0.68113 0.50461 1.21600
Zn	Zn	0.91943 0.98018 0.66607 1.21700
O 	O 	0.00149 0.27858 0.58194 -0.95800
O 	O 	0.12590 0.39911 0.57926 -0.49800
O 	O 	0.87474 0.26904 0.57835 -0.52000
O 	O 	0.99030 0.31852 0.59984 -0.50900
O 	O 	0.92560 0.34729 0.58646 -0.52200
O 	O 	0.94440 0.26530 0.56369 -0.52100
O 	O 	0.07375 0.42137 0.58799 -0.51000
O 	O 	0.88360 0.15590 0.57547 -0.50200
O 	O 	0.92970 0.13430 0.58565 -0.49000
O 	O 	0.98520 0.22740 0.59968 -0.50900
C 	C 	0.17520 0.49400 0.58517 -0.23300
O 	O 	0.04160 0.33720 0.56518 -0.52500
C 	C 	0.12090 0.43410 0.58430 0.45300
O 	O 	0.73120 0.32060 0.64746 -0.53000
O 	O 	0.74030 0.33970 0.51542 -0.51400
O 	O 	0.78920 0.34720 0.65797 -0.55400
O 	O 	0.78060 0.32170 0.50447 -0.50700
O 	O 	0.21050 0.61270 0.51094 -0.49600
C 	C 	0.87950 0.31220 0.58286 0.47200
C 	C 	0.82440 0.31850 0.58356 -0.27100
C 	C 	0.22820 0.50870 0.58109 0.16200
H 	H 	0.22920 0.48110 0.57750 -0.01200
O 	O 	0.24840 0.54830 0.51117 -0.53700
C 	C 	0.98190 0.27090 0.60307 0.43500
S 	S 	0.85249 0.00006 0.58484 0.08100
C 	C 	0.28140 0.60860 0.58730 0.22300
C 	C 	0.71950 0.32710 0.58491 0.26200
C 	C 	0.99580 0.33000 0.55285 -0.21400
N 	N 	0.92140 0.24340 0.63635 -0.20900
C 	C 	0.17750 0.53730 0.59033 0.16300
H 	H 	0.14260 0.52780 0.59330 -0.01100
C 	C 	0.72030 0.28410 0.58039 -0.30800
H 	H 	0.68520 0.25670 0.57760 0.14000
C 	C 	0.28080 0.56580 0.58240 -0.26100
H 	H 	0.31660 0.57440 0.57980 0.12600
C 	C 	0.77240 0.27910 0.57972 0.21200
H 	H 	0.77150 0.24830 0.57660 -0.02800
N 	N 	0.99510 0.39120 0.52940 -0.21800
C 	C 	0.99400 0.36910 0.53714 0.21000
C 	C 	0.22890 0.59440 0.59141 -0.25600
H 	H 	0.22770 0.62270 0.59490 0.12300
C 	C 	0.82400 0.36240 0.58826 0.21500
H 	H 	0.85880 0.38960 0.59110 -0.03000
C 	C 	0.96380 0.30870 0.61591 0.14200
H 	H 	0.97230 0.34430 0.61320 -0.00200
C 	C 	0.77190 0.36610 0.58877 -0.30900
H 	H 	0.77240 0.39670 0.59190 0.14100
C 	C 	0.78120 0.33580 0.51203 0.42100
C 	C 	0.94720 0.29640 0.54755 0.14400
H 	H 	0.91340 0.26050 0.54930 -0.00600
C 	C 	0.96720 0.26320 0.61170 -0.21300
C 	C 	0.15660 0.51940 0.51764 -0.30400
C 	C 	0.04960 0.43600 0.52566 0.27200
C 	C 	0.99230 0.30850 0.56116 0.43400
C 	C 	0.94860 0.30340 0.62383 -0.22800
H 	H 	0.94450 0.33350 0.62650 0.11400
C 	C 	0.81450 0.30750 0.64688 -0.35400
C 	C 	0.94830 0.31530 0.53971 -0.25000
H 	H 	0.91700 0.29030 0.53620 0.12000
C 	C 	0.83480 0.34730 0.51651 -0.19500
C 	C 	0.83870 0.36130 0.52467 0.12400
H 	H 	0.80580 0.36050 0.52730 0.00200
C 	C 	0.93540 0.20500 0.64119 0.20100
C 	C 	0.93940 0.25030 0.62783 0.18400
C 	C 	0.77590 0.32430 0.65103 0.52100
C 	C 	0.89160 0.12040 0.58026 0.37700
C 	C 	0.97250 0.09530 0.65663 0.41100
C 	C 	0.94020 0.37350 0.52526 0.17800
C 	C 	0.80310 0.28450 0.63931 0.30100
H 	H 	0.77070 0.28320 0.63650 -0.05900
C 	C 	0.04430 0.40460 0.54238 -0.24300
H 	H 	0.07750 0.44080 0.54060 0.11800
C 	C 	0.04290 0.38460 0.55001 0.15200
H 	H 	0.07500 0.40880 0.55340 -0.01100
C 	C 	0.05400 0.48630 0.52253 -0.30800
H 	H 	0.02140 0.49330 0.52300 0.14100
C 	C 	0.10720 0.52960 0.51843 0.20500
H 	H 	0.10930 0.56440 0.51630 -0.02700
C 	C 	0.99370 0.21360 0.64207 -0.25800
H 	H 	0.02580 0.24360 0.63910 0.12200
C 	C 	0.09810 0.42740 0.52507 -0.33700
H 	H 	0.09670 0.39310 0.52730 0.14900
C 	C 	0.89980 0.12050 0.65012 0.15700
H 	H 	0.86810 0.08840 0.65290 -0.01000
C 	C 	0.83660 0.26370 0.63572 -0.38700
H 	H 	0.82650 0.24750 0.63060 0.16900
C 	C 	0.88670 0.15590 0.64507 -0.24100
H 	H 	0.84680 0.14740 0.64430 0.11900
C 	C 	0.88390 0.26610 0.63945 0.28200
C 	C 	0.20820 0.56040 0.51320 0.45000
C 	C 	0.95730 0.21210 0.61586 0.15600
H 	H 	0.95790 0.18060 0.61310 -0.00700
C 	C 	0.86290 0.31110 0.65071 0.25200
H 	H 	0.87240 0.32820 0.65580 -0.04500
C 	C 	0.00390 0.17880 0.64713 0.17000
H 	H 	0.04370 0.18710 0.64800 -0.01500
C 	C 	0.93520 0.35650 0.51738 -0.20300
H 	H 	0.96760 0.35550 0.51490 0.10500
C 	C 	0.94690 0.20610 0.62381 -0.24000
H 	H 	0.94470 0.17320 0.62660 0.12000
C 	C 	0.89960 0.29020 0.64728 -0.31600
H 	H 	0.93250 0.29200 0.65000 0.14600
C 	C 	0.14980 0.47010 0.52109 0.25500
H 	H 	0.18260 0.46320 0.52080 -0.04500
C 	C 	0.77180 0.87480 0.58216 0.37400
C 	C 	0.89080 0.37610 0.52883 -0.21300
H 	H 	0.89380 0.38810 0.53420 0.10600
C 	C 	0.87970 0.34010 0.51286 0.10900
H 	H 	0.87480 0.32530 0.50770 0.00600
O 	O 	0.72500 0.84030 0.57541 -0.35600
C 	C 	0.75910 0.96570 0.57705 0.08900
H 	H 	0.71930 0.94060 0.57530 0.01900
C 	C 	0.79060 0.02950 0.57597 0.00800
H 	H 	0.77560 0.05130 0.57330 0.03400
C 	C 	0.84560 0.05370 0.57949 -0.10000
C 	C 	0.79090 0.94380 0.58086 -0.09100
O 	O 	0.92620 0.04530 0.65910 -0.49200
O 	O 	0.02770 0.11340 0.65873 -0.51700
C 	C 	0.95760 0.13130 0.65111 -0.22400
O 	O 	0.80190 0.86790 0.58715 -0.49800
O 	O 	0.12470 0.28580 0.58154 -0.27700
C 	C 	0.80650 0.03060 0.57136 -0.04600
H 	H 	0.80320 0.05390 0.56730 0.04700
C 	C 	0.77550 0.95970 0.57199 -0.12100
H 	H 	0.75240 0.93160 0.56800 0.07600
Zn	Zn	0.66618 0.67372 0.92174 1.21300
Zn	Zn	0.59741 0.57582 0.90823 1.21300
Zn	Zn	0.73968 0.64868 0.90815 1.21200
Zn	Zn	0.66740 0.54869 0.92190 1.21200
Zn	Zn	0.93546 0.01446 0.83795 1.21500
Zn	Zn	0.58610 0.31351 0.99940 1.21700
O 	O 	0.66816 0.61191 0.91527 -0.95700
O 	O 	0.79257 0.73244 0.91259 -0.49800
O 	O 	0.54141 0.60237 0.91168 -0.52000
O 	O 	0.65697 0.65185 0.93317 -0.51000
O 	O 	0.59227 0.68062 0.91979 -0.52300
O 	O 	0.61107 0.59863 0.89702 -0.52100
O 	O 	0.74042 0.75470 0.92132 -0.51000
O 	O 	0.55027 0.48923 0.90880 -0.50200
O 	O 	0.59637 0.46763 0.91898 -0.49000
O 	O 	0.65187 0.56073 0.93301 -0.51000
C 	C 	0.84187 0.82733 0.91850 -0.23200
O 	O 	0.70827 0.67053 0.89851 -0.52400
C 	C 	0.78757 0.76743 0.91763 0.45300
O 	O 	0.39787 0.65393 0.98079 -0.53000
O 	O 	0.40697 0.67303 0.84875 -0.51300
O 	O 	0.45587 0.68053 0.99130 -0.55500
O 	O 	0.44727 0.65503 0.83780 -0.50700
O 	O 	0.87717 0.94603 0.84427 -0.49500
C 	C 	0.54617 0.64553 0.91619 0.47200
C 	C 	0.49107 0.65183 0.91689 -0.27100
C 	C 	0.89487 0.84203 0.91442 0.16100
H 	H 	0.89587 0.81443 0.91083 -0.01200
O 	O 	0.91507 0.88163 0.84450 -0.53800
C 	C 	0.64857 0.60423 0.93640 0.43500
S 	S 	0.51916 0.33339 0.91818 0.08000
C 	C 	0.94807 0.94193 0.92063 0.22000
C 	C 	0.38617 0.66043 0.91824 0.26200
C 	C 	0.66247 0.66333 0.88618 -0.21500
N 	N 	0.58807 0.57673 0.96968 -0.21000
C 	C 	0.84417 0.87063 0.92366 0.16200
H 	H 	0.80927 0.86113 0.92663 -0.01000
C 	C 	0.38697 0.61743 0.91372 -0.30800
H 	H 	0.35187 0.59003 0.91093 0.14000
C 	C 	0.94747 0.89913 0.91573 -0.26000
H 	H 	0.98327 0.90773 0.91313 0.12500
C 	C 	0.43907 0.61243 0.91305 0.21200
H 	H 	0.43817 0.58163 0.90993 -0.02800
N 	N 	0.66177 0.72453 0.86273 -0.21800
C 	C 	0.66067 0.70243 0.87047 0.20900
C 	C 	0.89557 0.92773 0.92474 -0.25400
H 	H 	0.89437 0.95603 0.92823 0.12300
C 	C 	0.49067 0.69573 0.92159 0.21500
H 	H 	0.52547 0.72293 0.92443 -0.03000
C 	C 	0.63047 0.64203 0.94924 0.14200
H 	H 	0.63897 0.67763 0.94653 -0.00200
C 	C 	0.43857 0.69943 0.92210 -0.30900
H 	H 	0.43907 0.73003 0.92523 0.14100
C 	C 	0.44787 0.66913 0.84536 0.42100
C 	C 	0.61387 0.62973 0.88088 0.14400
H 	H 	0.58007 0.59383 0.88263 -0.00600
C 	C 	0.63387 0.59653 0.94503 -0.21300
C 	C 	0.82327 0.85273 0.85097 -0.30500
C 	C 	0.71627 0.76933 0.85899 0.27300
C 	C 	0.65897 0.64183 0.89449 0.43300
C 	C 	0.61527 0.63673 0.95716 -0.22800
H 	H 	0.61117 0.66683 0.95983 0.11400
C 	C 	0.48117 0.64083 0.98021 -0.35400
C 	C 	0.61497 0.64863 0.87304 -0.25000
H 	H 	0.58367 0.62363 0.86953 0.12000
C 	C 	0.50147 0.68063 0.84984 -0.19500
C 	C 	0.50537 0.69463 0.85800 0.12400
H 	H 	0.47247 0.69383 0.86063 0.00200
C 	C 	0.60207 0.53833 0.97452 0.20500
C 	C 	0.60607 0.58363 0.96116 0.18400
C 	C 	0.44257 0.65763 0.98436 0.52000
C 	C 	0.55827 0.45373 0.91359 0.37600
C 	C 	0.63917 0.42863 0.98996 0.41200
C 	C 	0.60687 0.70683 0.85859 0.17800
C 	C 	0.46977 0.61783 0.97264 0.30100
H 	H 	0.43737 0.61653 0.96983 -0.05900
C 	C 	0.71097 0.73793 0.87571 -0.24300
H 	H 	0.74417 0.77413 0.87393 0.11800
C 	C 	0.70957 0.71793 0.88334 0.15200
H 	H 	0.74167 0.74213 0.88673 -0.01200
C 	C 	0.72067 0.81963 0.85586 -0.30800
H 	H 	0.68807 0.82663 0.85633 0.14100
C 	C 	0.77387 0.86293 0.85176 0.20500
H 	H 	0.77597 0.89773 0.84963 -0.02600
C 	C 	0.66037 0.54693 0.97540 -0.26700
H 	H 	0.69247 0.57693 0.97243 0.12600
C 	C 	0.76477 0.76073 0.85840 -0.33800
H 	H 	0.76337 0.72643 0.86063 0.15000
C 	C 	0.56647 0.45383 0.98345 0.16200
H 	H 	0.53477 0.42173 0.98623 -0.01100
C 	C 	0.50327 0.59703 0.96905 -0.38700
H 	H 	0.49317 0.58083 0.96393 0.16900
C 	C 	0.55337 0.48923 0.97840 -0.24600
H 	H 	0.51347 0.48073 0.97763 0.12000
C 	C 	0.55057 0.59943 0.97278 0.28200
C 	C 	0.87487 0.89373 0.84653 0.45000
C 	C 	0.62397 0.54543 0.94919 0.15600
H 	H 	0.62457 0.51393 0.94643 -0.00800
C 	C 	0.52957 0.64443 0.98404 0.25200
H 	H 	0.53907 0.66153 0.98913 -0.04500
C 	C 	0.67057 0.51213 0.98046 0.17900
H 	H 	0.71037 0.52043 0.98133 -0.01800
C 	C 	0.60187 0.68983 0.85071 -0.20300
H 	H 	0.63427 0.68883 0.84823 0.10500
C 	C 	0.61357 0.53943 0.95714 -0.24000
H 	H 	0.61137 0.50653 0.95993 0.11900
C 	C 	0.56627 0.62353 0.98061 -0.31700
H 	H 	0.59917 0.62533 0.98333 0.14600
C 	C 	0.81647 0.80343 0.85442 0.25600
H 	H 	0.84927 0.79653 0.85413 -0.04600
C 	C 	0.43847 0.20813 0.91549 0.37400
C 	C 	0.55747 0.70943 0.86216 -0.21200
H 	H 	0.56047 0.72143 0.86753 0.10600
C 	C 	0.54637 0.67343 0.84619 0.10800
H 	H 	0.54147 0.65863 0.84103 0.00600
O 	O 	0.39167 0.17363 0.90874 -0.35600
C 	C 	0.42577 0.29903 0.91038 0.08900
H 	H 	0.38597 0.27393 0.90863 0.01900
C 	C 	0.45727 0.36283 0.90930 0.00800
H 	H 	0.44227 0.38463 0.90663 0.03400
C 	C 	0.51227 0.38703 0.91282 -0.10000
C 	C 	0.45757 0.27713 0.91419 -0.09100
O 	O 	0.59287 0.37863 0.99243 -0.49200
O 	O 	0.69437 0.44673 0.99206 -0.51700
C 	C 	0.62427 0.46463 0.98444 -0.23000
O 	O 	0.46857 0.20123 0.92048 -0.49900
O 	O 	0.79137 0.61913 0.91487 -0.27800
C 	C 	0.47317 0.36393 0.90469 -0.04600
H 	H 	0.46987 0.38723 0.90063 0.04700
C 	C 	0.44217 0.29303 0.90532 -0.12200
H 	H 	0.41907 0.26493 0.90133 0.07600
Zn	Zn	0.33284 0.00706 0.25508 1.21300
Zn	Zn	0.26407 0.90916 0.24156 1.21300
Zn	Zn	0.40634 0.98202 0.24148 1.21200
Zn	Zn	0.33406 0.88203 0.25523 1.21200
Zn	Zn	0.60212 0.34780 0.17128 1.21600
Zn	Zn	0.25276 0.64685 0.33273 1.21700
O 	O 	0.33482 0.94525 0.24860 -0.95800
O 	O 	0.45923 0.06578 0.24593 -0.49700
O 	O 	0.20807 0.93571 0.24502 -0.52000
O 	O 	0.32363 0.98519 0.26651 -0.51000
O 	O 	0.25893 0.01396 0.25313 -0.52100
O 	O 	0.27773 0.93197 0.23036 -0.52100
O 	O 	0.40708 0.08804 0.25466 -0.51000
O 	O 	0.21693 0.82257 0.24214 -0.50200
O 	O 	0.26303 0.80097 0.25232 -0.49100
O 	O 	0.31853 0.89407 0.26635 -0.50900
C 	C 	0.50853 0.16067 0.25184 -0.23200
O 	O 	0.37493 0.00387 0.23185 -0.52200
C 	C 	0.45423 0.10077 0.25097 0.45300
O 	O 	0.06453 0.98727 0.31413 -0.53000
O 	O 	0.07363 0.00637 0.18209 -0.51500
O 	O 	0.12253 0.01387 0.32464 -0.55600
O 	O 	0.11393 0.98837 0.17114 -0.51100
O 	O 	0.54383 0.27937 0.17761 -0.49600
C 	C 	0.21283 0.97887 0.24953 0.47100
C 	C 	0.15773 0.98517 0.25023 -0.27100
C 	C 	0.56153 0.17537 0.24776 0.16200
H 	H 	0.56253 0.14777 0.24417 -0.01200
O 	O 	0.58173 0.21497 0.17784 -0.53700
C 	C 	0.31523 0.93757 0.26974 0.43500
S 	S 	0.18582 0.66673 0.25151 0.08000
C 	C 	0.61473 0.27527 0.25397 0.22300
C 	C 	0.05283 0.99377 0.25158 0.25800
C 	C 	0.32913 0.99667 0.21952 -0.22100
N 	N 	0.25473 0.91007 0.30302 -0.21000
C 	C 	0.51083 0.20397 0.25700 0.16300
H 	H 	0.47593 0.19447 0.25997 -0.01000
C 	C 	0.05363 0.95077 0.24706 -0.30700
H 	H 	0.01853 0.92337 0.24427 0.13900
C 	C 	0.61413 0.23247 0.24907 -0.26100
H 	H 	0.64993 0.24107 0.24647 0.12600
C 	C 	0.10573 0.94577 0.24639 0.21100
H 	H 	0.10483 0.91497 0.24327 -0.02800
N 	N 	0.32843 0.05787 0.19607 -0.22000
C 	C 	0.32733 0.03577 0.20381 0.21500
C 	C 	0.56223 0.26107 0.25808 -0.25600
H 	H 	0.56103 0.28937 0.26157 0.12300
C 	C 	0.15733 0.02907 0.25493 0.21500
H 	H 	0.19213 0.05627 0.25777 -0.03000
C 	C 	0.29713 0.97537 0.28258 0.14100
H 	H 	0.30563 0.01097 0.27987 -0.00100
C 	C 	0.10523 0.03277 0.25544 -0.30600
H 	H 	0.10573 0.06337 0.25857 0.14000
C 	C 	0.11453 0.00247 0.17870 0.42700
C 	C 	0.28053 0.96307 0.21422 0.14900
H 	H 	0.24673 0.92717 0.21597 -0.00800
C 	C 	0.30053 0.92987 0.27837 -0.21300
C 	C 	0.48993 0.18607 0.18431 -0.30500
C 	C 	0.38293 0.10267 0.19233 0.27400
C 	C 	0.32563 0.97517 0.22783 0.43300
C 	C 	0.28193 0.97007 0.29050 -0.22700
H 	H 	0.27783 0.00017 0.29317 0.11400
C 	C 	0.14783 0.97417 0.31355 -0.35400
C 	C 	0.28163 0.98197 0.20638 -0.25800
H 	H 	0.25033 0.95697 0.20287 0.12200
C 	C 	0.16813 0.01397 0.18318 -0.20100
C 	C 	0.17203 0.02797 0.19134 0.12900
H 	H 	0.13913 0.02717 0.19397 0.00000
C 	C 	0.26873 0.87167 0.30786 0.20500
C 	C 	0.27273 0.91697 0.29450 0.18300
C 	C 	0.10923 0.99097 0.31770 0.52200
C 	C 	0.22493 0.78707 0.24693 0.37600
C 	C 	0.30583 0.76197 0.32330 0.41200
C 	C 	0.27353 0.04017 0.19193 0.18200
C 	C 	0.13643 0.95117 0.30598 0.30200
H 	H 	0.10403 0.94987 0.30317 -0.05900
C 	C 	0.37763 0.07127 0.20905 -0.24800
H 	H 	0.41083 0.10747 0.20727 0.12000
C 	C 	0.37623 0.05127 0.21668 0.16000
H 	H 	0.40833 0.07547 0.22007 -0.01400
C 	C 	0.38733 0.15297 0.18920 -0.30900
H 	H 	0.35473 0.15997 0.18967 0.14100
C 	C 	0.44053 0.19627 0.18510 0.20600
H 	H 	0.44263 0.23107 0.18297 -0.02700
C 	C 	0.32703 0.88027 0.30874 -0.26700
H 	H 	0.35913 0.91027 0.30577 0.12600
C 	C 	0.43143 0.09407 0.19174 -0.33800
H 	H 	0.43003 0.05977 0.19397 0.15000
C 	C 	0.23313 0.78717 0.31679 0.16200
H 	H 	0.20143 0.75507 0.31957 -0.01100
C 	C 	0.16993 0.93037 0.30239 -0.38800
H 	H 	0.15983 0.91417 0.29727 0.16900
C 	C 	0.22003 0.82257 0.31174 -0.24600
H 	H 	0.18013 0.81407 0.31097 0.12000
C 	C 	0.21723 0.93277 0.30612 0.28200
C 	C 	0.54153 0.22707 0.17987 0.45000
C 	C 	0.29063 0.87877 0.28253 0.15600
H 	H 	0.29123 0.84727 0.27977 -0.00800
C 	C 	0.19623 0.97777 0.31738 0.25200
H 	H 	0.20573 0.99487 0.32247 -0.04500
C 	C 	0.33723 0.84547 0.31380 0.17900
H 	H 	0.37703 0.85377 0.31467 -0.01800
C 	C 	0.26853 0.02317 0.18405 -0.20900
H 	H 	0.30093 0.02217 0.18157 0.10700
C 	C 	0.28023 0.87277 0.29048 -0.24000
H 	H 	0.27803 0.83987 0.29327 0.11900
C 	C 	0.23293 0.95687 0.31395 -0.31700
H 	H 	0.26583 0.95867 0.31667 0.14600
C 	C 	0.48313 0.13677 0.18776 0.25600
H 	H 	0.51593 0.12987 0.18747 -0.04500
C 	C 	0.10513 0.54147 0.24883 0.37400
C 	C 	0.22413 0.04277 0.19550 -0.21600
H 	H 	0.22713 0.05477 0.20087 0.10800
C 	C 	0.21303 0.00677 0.17953 0.11900
H 	H 	0.20813 0.99197 0.17437 -0.00000
O 	O 	0.05833 0.50697 0.24208 -0.35600
C 	C 	0.09243 0.63237 0.24372 0.08900
H 	H 	0.05263 0.60727 0.24197 0.01900
C 	C 	0.12393 0.69617 0.24264 0.00800
H 	H 	0.10893 0.71797 0.23997 0.03400
C 	C 	0.17893 0.72037 0.24616 -0.10100
C 	C 	0.12423 0.61047 0.24753 -0.09100
O 	O 	0.25953 0.71197 0.32577 -0.49300
O 	O 	0.36103 0.78007 0.32540 -0.51700
C 	C 	0.29093 0.79797 0.31778 -0.23000
O 	O 	0.13523 0.53457 0.25382 -0.49900
O 	O 	0.45803 0.95247 0.24821 -0.27700
C 	C 	0.13983 0.69727 0.23803 -0.04600
H 	H 	0.13653 0.72057 0.23397 0.04600
C 	C 	0.10883 0.62637 0.23866 -0.12100
H 	H 	0.08573 0.59827 0.23467 0.07500
Zn	Zn	0.65961 0.65912 0.58841 1.21300
Zn	Zn	0.75751 0.68825 0.57489 1.21300
Zn	Zn	0.68465 0.75766 0.57482 1.21200
Zn	Zn	0.78464 0.78537 0.58857 1.21200
Zn	Zn	0.31887 0.58766 0.50461 1.21600
Zn	Zn	0.01982 0.93925 0.66607 1.21700
O 	O 	0.72142 0.72291 0.58194 -0.95700
O 	O 	0.60089 0.72679 0.57926 -0.49800
O 	O 	0.73096 0.60570 0.57835 -0.52000
O 	O 	0.68148 0.67178 0.59984 -0.51000
O 	O 	0.65271 0.57831 0.58646 -0.52300
O 	O 	0.73470 0.67910 0.56369 -0.52100
O 	O 	0.57863 0.65238 0.58799 -0.51000
O 	O 	0.84410 0.72770 0.57547 -0.50200
O 	O 	0.86570 0.79540 0.58565 -0.49000
O 	O 	0.77260 0.75780 0.59968 -0.50900
C 	C 	0.50600 0.68120 0.58517 -0.23200
O 	O 	0.66280 0.70440 0.56518 -0.52400
C 	C 	0.56590 0.68680 0.58430 0.45300
O 	O 	0.67940 0.41060 0.64746 -0.53000
O 	O 	0.66030 0.40060 0.51542 -0.51400
O 	O 	0.65280 0.44200 0.65797 -0.55400
O 	O 	0.67830 0.45890 0.50447 -0.50700
O 	O 	0.38730 0.59780 0.51094 -0.49600
C 	C 	0.68780 0.56730 0.58286 0.47200
C 	C 	0.68150 0.50590 0.58356 -0.27100
C 	C 	0.49130 0.71950 0.58109 0.16200
H 	H 	0.51890 0.74810 0.57750 -0.01200
O 	O 	0.45170 0.70010 0.51117 -0.53700
C 	C 	0.72910 0.71100 0.60307 0.43500
S 	S 	0.99994 0.85243 0.58484 0.08200
C 	C 	0.39140 0.67280 0.58730 0.22300
C 	C 	0.67290 0.39240 0.58491 0.26200
C 	C 	0.67000 0.66580 0.55285 -0.21500
N 	N 	0.75660 0.67800 0.63635 -0.21000
C 	C 	0.46270 0.64020 0.59033 0.16300
H 	H 	0.47220 0.61480 0.59330 -0.01000
C 	C 	0.71590 0.43620 0.58039 -0.30800
H 	H 	0.74330 0.42850 0.57760 0.14000
C 	C 	0.43420 0.71500 0.58240 -0.26100
H 	H 	0.42560 0.74220 0.57980 0.12600
C 	C 	0.72090 0.49330 0.57972 0.21200
H 	H 	0.75170 0.52320 0.57660 -0.02800
N 	N 	0.60880 0.60390 0.52940 -0.21800
C 	C 	0.63090 0.62490 0.53714 0.20900
C 	C 	0.40560 0.63450 0.59141 -0.25600
H 	H 	0.37730 0.60500 0.59490 0.12300
C 	C 	0.63760 0.46160 0.58826 0.21500
H 	H 	0.61040 0.46920 0.59110 -0.03000
C 	C 	0.69130 0.65510 0.61591 0.14200
H 	H 	0.65570 0.62800 0.61320 -0.00200
C 	C 	0.63390 0.40580 0.58877 -0.30900
H 	H 	0.60330 0.37570 0.59190 0.14100
C 	C 	0.66420 0.44540 0.51203 0.42100
C 	C 	0.70360 0.65080 0.54755 0.14400
H 	H 	0.73950 0.65290 0.54930 -0.00600
C 	C 	0.73680 0.70400 0.61170 -0.21300
C 	C 	0.48060 0.63720 0.51764 -0.30500
C 	C 	0.56400 0.61360 0.52566 0.27300
C 	C 	0.69150 0.68380 0.56116 0.43300
C 	C 	0.69660 0.64520 0.62383 -0.22800
H 	H 	0.66650 0.61100 0.62650 0.11400
C 	C 	0.69250 0.50700 0.64688 -0.35400
C 	C 	0.68470 0.63300 0.53971 -0.25000
H 	H 	0.70970 0.62670 0.53620 0.12000
C 	C 	0.65270 0.48750 0.51651 -0.19500
C 	C 	0.63870 0.47740 0.52467 0.12400
H 	H 	0.63950 0.44530 0.52730 0.00200
C 	C 	0.79500 0.73040 0.64119 0.20500
C 	C 	0.74970 0.68910 0.62783 0.18400
C 	C 	0.67570 0.45160 0.65103 0.52100
C 	C 	0.87960 0.77120 0.58026 0.37700
C 	C 	0.90470 0.87720 0.65663 0.41200
C 	C 	0.62650 0.56670 0.52526 0.17800
C 	C 	0.71550 0.51860 0.63931 0.30200
H 	H 	0.71680 0.48750 0.63650 -0.05900
C 	C 	0.59540 0.63970 0.54238 -0.24300
H 	H 	0.55920 0.63670 0.54060 0.11800
C 	C 	0.61540 0.65830 0.55001 0.15200
H 	H 	0.59120 0.66620 0.55340 -0.01200
C 	C 	0.51370 0.56770 0.52253 -0.30900
H 	H 	0.50670 0.52810 0.52300 0.14100
C 	C 	0.47040 0.57760 0.51843 0.20500
H 	H 	0.43560 0.54490 0.51630 -0.02700
C 	C 	0.78640 0.78010 0.64207 -0.26700
H 	H 	0.75640 0.78220 0.63910 0.12600
C 	C 	0.57260 0.67070 0.52507 -0.33800
H 	H 	0.60690 0.70360 0.52730 0.15000
C 	C 	0.87950 0.77930 0.65012 0.16200
H 	H 	0.91160 0.77970 0.65290 -0.01100
C 	C 	0.73630 0.57290 0.63572 -0.38800
H 	H 	0.75250 0.57900 0.63060 0.16900
C 	C 	0.84410 0.73080 0.64507 -0.24500
H 	H 	0.85260 0.69940 0.64430 0.12000
C 	C 	0.73390 0.61780 0.63945 0.28200
C 	C 	0.43960 0.64780 0.51320 0.45000
C 	C 	0.78790 0.74520 0.61586 0.15600
H 	H 	0.81940 0.77730 0.61310 -0.00800
C 	C 	0.68890 0.55180 0.65071 0.25200
H 	H 	0.67180 0.54420 0.65580 -0.04500
C 	C 	0.82120 0.82510 0.64713 0.17900
H 	H 	0.81290 0.85660 0.64800 -0.01800
C 	C 	0.64350 0.57870 0.51738 -0.20300
H 	H 	0.64450 0.61210 0.51490 0.10500
C 	C 	0.79390 0.74080 0.62381 -0.24000
H 	H 	0.82680 0.77150 0.62660 0.12000
C 	C 	0.70980 0.60940 0.64728 -0.31700
H 	H 	0.70800 0.64050 0.65000 0.14600
C 	C 	0.52990 0.67970 0.52109 0.25600
H 	H 	0.53680 0.71940 0.52080 -0.04500
C 	C 	0.12520 0.89700 0.58216 0.37400
C 	C 	0.62390 0.51470 0.52883 -0.21300
H 	H 	0.61190 0.50570 0.53420 0.10600
C 	C 	0.65990 0.53960 0.51286 0.10900
H 	H 	0.67470 0.54950 0.50770 0.00600
O 	O 	0.15970 0.88470 0.57541 -0.35600
C 	C 	0.03430 0.79340 0.57705 0.08900
H 	H 	0.05940 0.77870 0.57530 0.01900
C 	C 	0.97050 0.76110 0.57597 0.00800
H 	H 	0.94870 0.72430 0.57330 0.03400
C 	C 	0.94630 0.79190 0.57949 -0.10100
C 	C 	0.05620 0.84710 0.58086 -0.09200
O 	O 	0.95470 0.88090 0.65910 -0.49200
O 	O 	0.88660 0.91430 0.65873 -0.51600
C 	C 	0.86870 0.82630 0.65111 -0.23000
O 	O 	0.13210 0.93400 0.58715 -0.49900
O 	O 	0.71420 0.83890 0.58154 -0.27700
C 	C 	0.96940 0.77590 0.57136 -0.04500
H 	H 	0.94610 0.74930 0.56730 0.04700
C 	C 	0.04030 0.81580 0.57199 -0.12200
H 	H 	0.06840 0.82080 0.56800 0.07600
Zn	Zn	0.32628 0.99245 0.92174 1.21300
Zn	Zn	0.42418 0.02158 0.90823 1.21300
Zn	Zn	0.35132 0.09099 0.90815 1.21200
Zn	Zn	0.45131 0.11870 0.92190 1.21200
Zn	Zn	0.98554 0.92099 0.83795 1.21500
Zn	Zn	0.68649 0.27258 0.99940 1.21700
O 	O 	0.38809 0.05624 0.91527 -0.95800
O 	O 	0.26756 0.06012 0.91259 -0.49800
O 	O 	0.39763 0.93903 0.91168 -0.52000
O 	O 	0.34815 0.00511 0.93317 -0.51000
O 	O 	0.31938 0.91164 0.91979 -0.52200
O 	O 	0.40137 0.01243 0.89702 -0.52100
O 	O 	0.24530 0.98571 0.92132 -0.50800
O 	O 	0.51077 0.06103 0.90880 -0.50200
O 	O 	0.53237 0.12873 0.91898 -0.49000
O 	O 	0.43927 0.09113 0.93301 -0.51000
C 	C 	0.17267 0.01453 0.91850 -0.23300
O 	O 	0.32947 0.03773 0.89851 -0.52400
C 	C 	0.23257 0.02013 0.91763 0.45200
O 	O 	0.34607 0.74393 0.98079 -0.53000
O 	O 	0.32697 0.73393 0.84875 -0.51400
O 	O 	0.31947 0.77533 0.99130 -0.55500
O 	O 	0.34497 0.79223 0.83780 -0.50700
O 	O 	0.05397 0.93113 0.84427 -0.49400
C 	C 	0.35447 0.90063 0.91619 0.47200
C 	C 	0.34817 0.83923 0.91689 -0.27100
C 	C 	0.15797 0.05283 0.91442 0.16200
H 	H 	0.18557 0.08143 0.91083 -0.01200
O 	O 	0.11837 0.03343 0.84450 -0.54000
C 	C 	0.39577 0.04433 0.93640 0.43500
S 	S 	0.66661 0.18576 0.91818 0.08000
C 	C 	0.05807 0.00613 0.92063 0.22200
C 	C 	0.33957 0.72573 0.91824 0.26200
C 	C 	0.33667 0.99913 0.88618 -0.21100
N 	N 	0.42327 0.01133 0.96968 -0.21000
C 	C 	0.12937 0.97353 0.92366 0.16500
H 	H 	0.13887 0.94813 0.92663 -0.01000
C 	C 	0.38257 0.76953 0.91372 -0.30800
H 	H 	0.40997 0.76183 0.91093 0.14000
C 	C 	0.10087 0.04833 0.91573 -0.26100
H 	H 	0.09227 0.07553 0.91313 0.12600
C 	C 	0.38757 0.82663 0.91305 0.21200
H 	H 	0.41837 0.85653 0.90993 -0.02800
N 	N 	0.27547 0.93723 0.86273 -0.21800
C 	C 	0.29757 0.95823 0.87047 0.20800
C 	C 	0.07227 0.96783 0.92474 -0.25400
H 	H 	0.04397 0.93833 0.92823 0.12400
C 	C 	0.30427 0.79493 0.92159 0.21500
H 	H 	0.27707 0.80253 0.92443 -0.03000
C 	C 	0.35797 0.98843 0.94924 0.14300
H 	H 	0.32237 0.96133 0.94653 -0.00200
C 	C 	0.30057 0.73913 0.92210 -0.30900
H 	H 	0.26997 0.70903 0.92523 0.14100
C 	C 	0.33087 0.77873 0.84536 0.42100
C 	C 	0.37027 0.98413 0.88088 0.14200
H 	H 	0.40617 0.98623 0.88263 -0.00500
C 	C 	0.40347 0.03733 0.94503 -0.21400
C 	C 	0.14727 0.97053 0.85097 -0.30100
C 	C 	0.23067 0.94693 0.85899 0.27700
C 	C 	0.35817 0.01713 0.89449 0.43000
C 	C 	0.36327 0.97853 0.95716 -0.22900
H 	H 	0.33317 0.94433 0.95983 0.11500
C 	C 	0.35917 0.84033 0.98021 -0.35400
C 	C 	0.35137 0.96633 0.87304 -0.24800
H 	H 	0.37637 0.96003 0.86953 0.12000
C 	C 	0.31937 0.82083 0.84984 -0.19500
C 	C 	0.30537 0.81073 0.85800 0.12400
H 	H 	0.30617 0.77863 0.86063 0.00200
C 	C 	0.46167 0.06373 0.97452 0.20500
C 	C 	0.41637 0.02243 0.96116 0.18400
C 	C 	0.34237 0.78493 0.98436 0.52000
C 	C 	0.54627 0.10453 0.91359 0.37600
C 	C 	0.57137 0.21053 0.98996 0.41200
C 	C 	0.29317 0.90003 0.85859 0.17900
C 	C 	0.38217 0.85193 0.97264 0.30100
H 	H 	0.38347 0.82083 0.96983 -0.05800
C 	C 	0.26207 0.97303 0.87571 -0.24100
H 	H 	0.22587 0.97003 0.87393 0.11800
C 	C 	0.28207 0.99163 0.88334 0.15100
H 	H 	0.25787 0.99953 0.88673 -0.01000
C 	C 	0.18037 0.90103 0.85586 -0.30900
H 	H 	0.17337 0.86143 0.85633 0.14200
C 	C 	0.13707 0.91093 0.85176 0.20600
H 	H 	0.10227 0.87823 0.84963 -0.02600
C 	C 	0.45307 0.11343 0.97540 -0.26700
H 	H 	0.42307 0.11553 0.97243 0.12600
C 	C 	0.23927 0.00403 0.85840 -0.34100
H 	H 	0.27357 0.03693 0.86063 0.15000
C 	C 	0.54617 0.11263 0.98345 0.16200
H 	H 	0.57827 0.11303 0.98623 -0.01100
C 	C 	0.40297 0.90623 0.96905 -0.38700
H 	H 	0.41917 0.91233 0.96393 0.16900
C 	C 	0.51077 0.06413 0.97840 -0.24600
H 	H 	0.51927 0.03273 0.97763 0.12000
C 	C 	0.40057 0.95113 0.97278 0.28200
C 	C 	0.10627 0.98113 0.84653 0.45300
C 	C 	0.45457 0.07853 0.94919 0.15700
H 	H 	0.48607 0.11063 0.94643 -0.00800
C 	C 	0.35557 0.88513 0.98404 0.25200
H 	H 	0.33847 0.87753 0.98913 -0.04500
C 	C 	0.48787 0.15843 0.98046 0.17900
H 	H 	0.47957 0.18993 0.98133 -0.01800
C 	C 	0.31017 0.91203 0.85071 -0.20300
H 	H 	0.31117 0.94543 0.84823 0.10600
C 	C 	0.46057 0.07413 0.95714 -0.24000
H 	H 	0.49347 0.10483 0.95993 0.12000
C 	C 	0.37647 0.94273 0.98061 -0.31600
H 	H 	0.37467 0.97383 0.98333 0.14600
C 	C 	0.19657 0.01303 0.85442 0.25300
H 	H 	0.20347 0.05273 0.85413 -0.04500
C 	C 	0.79187 0.23033 0.91549 0.37400
C 	C 	0.29057 0.84803 0.86216 -0.21300
H 	H 	0.27857 0.83903 0.86753 0.10600
C 	C 	0.32657 0.87293 0.84619 0.10900
H 	H 	0.34137 0.88283 0.84103 0.00600
O 	O 	0.82637 0.21803 0.90874 -0.35600
C 	C 	0.70097 0.12673 0.91038 0.08900
H 	H 	0.72607 0.11203 0.90863 0.01900
C 	C 	0.63717 0.09443 0.90930 0.00800
H 	H 	0.61537 0.05763 0.90663 0.03400
C 	C 	0.61297 0.12523 0.91282 -0.10100
C 	C 	0.72287 0.18043 0.91419 -0.09100
O 	O 	0.62137 0.21423 0.99243 -0.49200
O 	O 	0.55327 0.24763 0.99206 -0.51600
C 	C 	0.53537 0.15963 0.98444 -0.23000
O 	O 	0.79877 0.26733 0.92048 -0.49900
O 	O 	0.38087 0.17223 0.91487 -0.27700
C 	C 	0.63607 0.10923 0.90469 -0.04600
H 	H 	0.61277 0.08263 0.90063 0.04600
C 	C 	0.70697 0.14913 0.90532 -0.12100
H 	H 	0.73507 0.15413 0.90133 0.07500
Zn	Zn	0.99294 0.32579 0.25508 1.21400
Zn	Zn	0.09084 0.35492 0.24156 1.21300
Zn	Zn	0.01798 0.42433 0.24148 1.21100
Zn	Zn	0.11797 0.45204 0.25523 1.21200
Zn	Zn	0.65220 0.25433 0.17128 1.21600
Zn	Zn	0.35315 0.60592 0.33273 1.21700
O 	O 	0.05475 0.38958 0.24860 -0.95800
O 	O 	0.93422 0.39346 0.24593 -0.49600
O 	O 	0.06429 0.27237 0.24502 -0.52000
O 	O 	0.01481 0.33845 0.26651 -0.51100
O 	O 	0.98604 0.24498 0.25313 -0.51900
O 	O 	0.06803 0.34577 0.23036 -0.52100
O 	O 	0.91196 0.31905 0.25466 -0.50900
O 	O 	0.17743 0.39437 0.24214 -0.50200
O 	O 	0.19903 0.46207 0.25232 -0.49000
O 	O 	0.10593 0.42447 0.26635 -0.50900
C 	C 	0.83933 0.34787 0.25184 -0.23200
O 	O 	0.99613 0.37107 0.23185 -0.52100
C 	C 	0.89923 0.35347 0.25097 0.45300
O 	O 	0.01273 0.07727 0.31413 -0.53000
O 	O 	0.99363 0.06727 0.18209 -0.51300
O 	O 	0.98613 0.10867 0.32464 -0.55300
O 	O 	0.01163 0.12557 0.17114 -0.51000
O 	O 	0.72063 0.26447 0.17761 -0.49500
C 	C 	0.02113 0.23397 0.24953 0.46900
C 	C 	0.01483 0.17257 0.25023 -0.27300
C 	C 	0.82463 0.38617 0.24776 0.16200
H 	H 	0.85223 0.41477 0.24417 -0.01100
O 	O 	0.78503 0.36677 0.17784 -0.53700
C 	C 	0.06243 0.37767 0.26974 0.43500
S 	S 	0.33327 0.51910 0.25151 0.08000
C 	C 	0.72473 0.33947 0.25397 0.22300
C 	C 	0.00623 0.05907 0.25158 0.25800
C 	C 	0.00333 0.33247 0.21952 -0.22400
N 	N 	0.08993 0.34467 0.30302 -0.21000
C 	C 	0.79603 0.30687 0.25700 0.16300
H 	H 	0.80553 0.28147 0.25997 -0.01000
C 	C 	0.04923 0.10287 0.24706 -0.30700
H 	H 	0.07663 0.09517 0.24427 0.14000
C 	C 	0.76753 0.38167 0.24907 -0.26100
H 	H 	0.75893 0.40887 0.24647 0.12600
C 	C 	0.05423 0.15997 0.24639 0.21100
H 	H 	0.08503 0.18987 0.24327 -0.02800
N 	N 	0.94213 0.27057 0.19607 -0.22000
C 	C 	0.96423 0.29157 0.20381 0.21800
C 	C 	0.73893 0.30117 0.25808 -0.25600
H 	H 	0.71063 0.27167 0.26157 0.12300
C 	C 	0.97093 0.12827 0.25493 0.21700
H 	H 	0.94373 0.13587 0.25777 -0.03000
C 	C 	0.02463 0.32177 0.28258 0.13800
H 	H 	0.98903 0.29467 0.27987 0.00100
C 	C 	0.96723 0.07247 0.25544 -0.30500
H 	H 	0.93663 0.04237 0.25857 0.14000
C 	C 	0.99753 0.11207 0.17870 0.42800
C 	C 	0.03693 0.31747 0.21422 0.15200
H 	H 	0.07283 0.31957 0.21597 -0.00900
C 	C 	0.07013 0.37067 0.27837 -0.21200
C 	C 	0.81393 0.30387 0.18431 -0.30500
C 	C 	0.89733 0.28027 0.19233 0.27400
C 	C 	0.02483 0.35047 0.22783 0.43200
C 	C 	0.02993 0.31187 0.29050 -0.23000
H 	H 	0.99983 0.27767 0.29317 0.11700
C 	C 	0.02583 0.17367 0.31355 -0.35300
C 	C 	0.01803 0.29967 0.20638 -0.26200
H 	H 	0.04303 0.29337 0.20287 0.12300
C 	C 	0.98603 0.15417 0.18318 -0.20100
C 	C 	0.97203 0.14407 0.19134 0.13000
H 	H 	0.97283 0.11197 0.19397 0.00100
C 	C 	0.12833 0.39707 0.30786 0.20500
C 	C 	0.08303 0.35577 0.29450 0.18400
C 	C 	0.00903 0.11827 0.31770 0.51900
C 	C 	0.21293 0.43787 0.24693 0.37600
C 	C 	0.23803 0.54387 0.32330 0.41200
C 	C 	0.95983 0.23337 0.19193 0.18300
C 	C 	0.04883 0.18527 0.30598 0.30100
H 	H 	0.05013 0.15417 0.30317 -0.05800
C 	C 	0.92873 0.30637 0.20905 -0.25100
H 	H 	0.89253 0.30337 0.20727 0.12100
C 	C 	0.94873 0.32497 0.21668 0.16400
H 	H 	0.92453 0.33287 0.22007 -0.01500
C 	C 	0.84703 0.23437 0.18920 -0.30900
H 	H 	0.84003 0.19477 0.18967 0.14200
C 	C 	0.80373 0.24427 0.18510 0.20600
H 	H 	0.76893 0.21157 0.18297 -0.02700
C 	C 	0.11973 0.44677 0.30874 -0.26700
H 	H 	0.08973 0.44887 0.30577 0.12600
C 	C 	0.90593 0.33737 0.19174 -0.33800
H 	H 	0.94023 0.37027 0.19397 0.15100
C 	C 	0.21283 0.44597 0.31679 0.16200
H 	H 	0.24493 0.44637 0.31957 -0.01100
C 	C 	0.06963 0.23957 0.30239 -0.38700
H 	H 	0.08583 0.24567 0.29727 0.16900
C 	C 	0.17743 0.39747 0.31174 -0.24600
H 	H 	0.18593 0.36607 0.31097 0.12000
C 	C 	0.06723 0.28447 0.30612 0.28100
C 	C 	0.77293 0.31447 0.17987 0.45000
C 	C 	0.12123 0.41187 0.28253 0.15500
H 	H 	0.15273 0.44397 0.27977 -0.00800
C 	C 	0.02223 0.21847 0.31738 0.25100
H 	H 	0.00513 0.21087 0.32247 -0.04500
C 	C 	0.15453 0.49177 0.31380 0.17900
H 	H 	0.14623 0.52327 0.31467 -0.01800
C 	C 	0.97683 0.24537 0.18405 -0.20900
H 	H 	0.97783 0.27877 0.18157 0.10800
C 	C 	0.12723 0.40747 0.29048 -0.24000
H 	H 	0.16013 0.43817 0.29327 0.11900
C 	C 	0.04313 0.27607 0.31395 -0.31600
H 	H 	0.04133 0.30717 0.31667 0.14600
C 	C 	0.86323 0.34637 0.18776 0.25700
H 	H 	0.87013 0.38607 0.18747 -0.04500
C 	C 	0.45853 0.56367 0.24883 0.37300
C 	C 	0.95723 0.18137 0.19550 -0.21700
H 	H 	0.94523 0.17237 0.20087 0.10800
C 	C 	0.99323 0.20627 0.17953 0.12000
H 	H 	0.00803 0.21617 0.17437 -0.00100
O 	O 	0.49303 0.55137 0.24208 -0.35600
C 	C 	0.36763 0.46007 0.24372 0.08900
H 	H 	0.39273 0.44537 0.24197 0.01900
C 	C 	0.30383 0.42777 0.24264 0.00800
H 	H 	0.28203 0.39097 0.23997 0.03400
C 	C 	0.27963 0.45857 0.24616 -0.10100
C 	C 	0.38953 0.51377 0.24753 -0.09100
O 	O 	0.28803 0.54757 0.32577 -0.49300
O 	O 	0.21993 0.58097 0.32540 -0.51700
C 	C 	0.20203 0.49297 0.31778 -0.23000
O 	O 	0.46543 0.60067 0.25382 -0.49900
O 	O 	0.04753 0.50557 0.24821 -0.27800
C 	C 	0.30273 0.44257 0.23803 -0.04600
H 	H 	0.27943 0.41597 0.23397 0.04700
C 	C 	0.37363 0.48247 0.23866 -0.12200
H 	H 	0.40173 0.48747 0.23467 0.07600
Zn	Zn	-0.00000 0.00000 0.31853 1.21600
O 	O 	-0.00000 0.00000 0.33009 -0.95200
Zn	Zn	0.66667 0.33333 0.65186 1.21600
O 	O 	0.66667 0.33333 0.66342 -0.95000
Zn	Zn	0.33333 0.66667 0.98520 1.21600
O 	O 	0.33333 0.66667 0.99676 -0.95100
Zn	Zn	0.00000 0.00000 0.68147 1.21600
O 	O 	-0.00000 0.00000 0.66991 -0.95200
Zn	Zn	0.66667 0.33333 0.01480 1.21600
O 	O 	0.66667 0.33333 0.00324 -0.95100
Zn	Zn	0.33333 0.66667 0.34814 1.21600
O 	O 	0.33333 0.66667 0.33658 -0.95000
Zn	Zn	0.66667 0.33333 0.51070 1.21200
O 	O 	0.66667 0.33333 0.49922 -0.96000
N 	N 	0.66667 0.33333 0.41183 -0.22100
Zn	Zn	0.33333 0.66667 0.84403 1.21200
O 	O 	0.33333 0.66667 0.83255 -0.96000
N 	N 	0.33333 0.66667 0.74516 -0.22000
Zn	Zn	-0.00000 0.00000 0.17737 1.21200
O 	O 	0.00000 0.00000 0.16589 -0.95900
N 	N 	-0.00000 0.00000 0.07850 -0.21700
Zn	Zn	0.33333 0.66667 0.48930 1.21200
O 	O 	0.33333 0.66667 0.50078 -0.96000
N 	N 	0.33333 0.66667 0.58817 -0.22100
Zn	Zn	-0.00000 0.00000 0.82263 1.21200
O 	O 	-0.00000 0.00000 0.83411 -0.95900
N 	N 	0.00000 0.00000 0.92150 -0.21700
Zn	Zn	0.66667 0.33333 0.15597 1.21200
O 	O 	0.66667 0.33333 0.16745 -0.96000
N 	N 	0.66667 0.33333 0.25484 -0.22000
N 	N 	0.33333 0.66667 0.41448 -0.23500
N 	N 	-0.00000 0.00000 0.74781 -0.23500
N 	N 	0.66667 0.33333 0.08115 -0.23500
N 	N 	0.66667 0.33333 0.58552 -0.23500
N 	N 	0.33333 0.66667 0.91885 -0.23500
N 	N 	0.00000 0.00000 0.25219 -0.23500
