data_crystal

_cell_length_a 26.23200
_cell_length_b 26.23200
_cell_length_c 26.23200
_cell_angle_alpha 90.00000
_cell_angle_beta  90.00000
_cell_angle_gamma 90.00000

_symmetry_space_group_name_	'P 1'
_symmetry_space_group_name_H-M	'P 1'

loop_
_symmetry_equiv_pos_as_xyz
  x,y,z

loop_
_atom_site_label
_atom_site_type_symbol
_atom_site_fract_x
_atom_site_fract_y
_atom_site_fract_z
_atom_site_charge
O 	O 	0.94760 0.18300 0.25680 -0.38700
O 	O 	0.94760 0.68300 0.75680 -0.37800
O 	O 	0.44760 0.18300 0.75680 -0.41600
O 	O 	0.44760 0.68300 0.25680 -0.41400
O 	O 	0.05240 0.81700 0.25680 -0.42600
O 	O 	0.05240 0.31700 0.75680 -0.42800
O 	O 	0.55240 0.81700 0.75680 -0.40500
O 	O 	0.55240 0.31700 0.25680 -0.41500
O 	O 	0.05240 0.18300 0.74320 -0.43200
O 	O 	0.05240 0.68300 0.24320 -0.42900
O 	O 	0.55240 0.18300 0.24320 -0.41800
O 	O 	0.55240 0.68300 0.74320 -0.40900
O 	O 	0.94760 0.81700 0.74320 -0.37200
O 	O 	0.94760 0.31700 0.24320 -0.38100
O 	O 	0.44760 0.81700 0.24320 -0.40700
O 	O 	0.44760 0.31700 0.74320 -0.40900
O 	O 	0.25680 0.94760 0.18300 -0.38600
O 	O 	0.25680 0.44760 0.68300 -0.41300
O 	O 	0.75680 0.94760 0.68300 -0.37700
O 	O 	0.75680 0.44760 0.18300 -0.41500
O 	O 	0.25680 0.05240 0.81700 -0.42500
O 	O 	0.25680 0.55240 0.31700 -0.41400
O 	O 	0.75680 0.05240 0.31700 -0.42700
O 	O 	0.75680 0.55240 0.81700 -0.40400
O 	O 	0.74320 0.05240 0.18300 -0.43100
O 	O 	0.74320 0.55240 0.68300 -0.40900
O 	O 	0.24320 0.05240 0.68300 -0.42900
O 	O 	0.24320 0.55240 0.18300 -0.41800
O 	O 	0.74320 0.94760 0.81700 -0.37200
O 	O 	0.74320 0.44760 0.31700 -0.40900
O 	O 	0.24320 0.94760 0.31700 -0.38100
O 	O 	0.24320 0.44760 0.81700 -0.40700
O 	O 	0.18300 0.25680 0.94760 -0.38600
O 	O 	0.18300 0.75680 0.44760 -0.41500
O 	O 	0.68300 0.25680 0.44760 -0.41300
O 	O 	0.68300 0.75680 0.94760 -0.37700
O 	O 	0.81700 0.25680 0.05240 -0.42500
O 	O 	0.81700 0.75680 0.55240 -0.40400
O 	O 	0.31700 0.25680 0.55240 -0.41400
O 	O 	0.31700 0.75680 0.05240 -0.42700
O 	O 	0.18300 0.74320 0.05240 -0.43100
O 	O 	0.18300 0.24320 0.55240 -0.41800
O 	O 	0.68300 0.74320 0.55240 -0.40900
O 	O 	0.68300 0.24320 0.05240 -0.42900
O 	O 	0.81700 0.74320 0.94760 -0.37200
O 	O 	0.81700 0.24320 0.44760 -0.40700
O 	O 	0.31700 0.74320 0.44760 -0.40900
O 	O 	0.31700 0.24320 0.94760 -0.38100
O 	O 	0.18300 0.94760 0.74320 -0.38200
O 	O 	0.18300 0.44760 0.24320 -0.41800
O 	O 	0.68300 0.94760 0.24320 -0.38000
O 	O 	0.68300 0.44760 0.74320 -0.40900
O 	O 	0.81700 0.05240 0.74320 -0.42000
O 	O 	0.81700 0.55240 0.24320 -0.40700
O 	O 	0.31700 0.05240 0.24320 -0.43000
O 	O 	0.31700 0.55240 0.74320 -0.40900
O 	O 	0.18300 0.05240 0.25680 -0.43500
O 	O 	0.18300 0.55240 0.75680 -0.41500
O 	O 	0.68300 0.05240 0.75680 -0.42700
O 	O 	0.68300 0.55240 0.25680 -0.41300
O 	O 	0.81700 0.94760 0.25680 -0.37600
O 	O 	0.81700 0.44760 0.75680 -0.40400
O 	O 	0.31700 0.94760 0.75680 -0.37800
O 	O 	0.31700 0.44760 0.25680 -0.41400
O 	O 	0.94760 0.25680 0.81700 -0.37600
O 	O 	0.94760 0.75680 0.31700 -0.37800
O 	O 	0.44760 0.25680 0.31700 -0.41400
O 	O 	0.44760 0.75680 0.81700 -0.40400
O 	O 	0.05240 0.25680 0.18300 -0.43500
O 	O 	0.05240 0.75680 0.68300 -0.42700
O 	O 	0.55240 0.25680 0.68300 -0.41300
O 	O 	0.55240 0.75680 0.18300 -0.41500
O 	O 	0.05240 0.74320 0.81700 -0.42000
O 	O 	0.05240 0.24320 0.31700 -0.43000
O 	O 	0.55240 0.74320 0.31700 -0.40900
O 	O 	0.55240 0.24320 0.81700 -0.40700
O 	O 	0.94760 0.74320 0.18300 -0.38200
O 	O 	0.94760 0.24320 0.68300 -0.38000
O 	O 	0.44760 0.74320 0.68300 -0.40900
O 	O 	0.44760 0.24320 0.18300 -0.41800
O 	O 	0.25680 0.18300 0.05240 -0.43500
O 	O 	0.25680 0.68300 0.55240 -0.41300
O 	O 	0.75680 0.18300 0.55240 -0.41500
O 	O 	0.75680 0.68300 0.05240 -0.42700
O 	O 	0.25680 0.81700 0.94760 -0.37600
O 	O 	0.25680 0.31700 0.44760 -0.41400
O 	O 	0.75680 0.81700 0.44760 -0.40400
O 	O 	0.75680 0.31700 0.94760 -0.37800
O 	O 	0.74320 0.18300 0.94760 -0.38200
O 	O 	0.74320 0.68300 0.44760 -0.40900
O 	O 	0.24320 0.18300 0.44760 -0.41800
O 	O 	0.24320 0.68300 0.94760 -0.38000
O 	O 	0.74320 0.81700 0.05240 -0.42000
O 	O 	0.74320 0.31700 0.55240 -0.40900
O 	O 	0.24320 0.81700 0.55240 -0.40700
O 	O 	0.24320 0.31700 0.05240 -0.43000
O 	O 	0.05240 0.81700 0.74320 -0.42000
O 	O 	0.05240 0.31700 0.24320 -0.43000
O 	O 	0.55240 0.81700 0.24320 -0.40700
O 	O 	0.55240 0.31700 0.74320 -0.40900
O 	O 	0.94760 0.18300 0.74320 -0.38200
O 	O 	0.94760 0.68300 0.24320 -0.38000
O 	O 	0.44760 0.18300 0.24320 -0.41800
O 	O 	0.44760 0.68300 0.74320 -0.40900
O 	O 	0.94760 0.81700 0.25680 -0.37600
O 	O 	0.94760 0.31700 0.75680 -0.37800
O 	O 	0.44760 0.81700 0.75680 -0.40400
O 	O 	0.44760 0.31700 0.25680 -0.41400
O 	O 	0.05240 0.18300 0.25680 -0.43500
O 	O 	0.05240 0.68300 0.75680 -0.42700
O 	O 	0.55240 0.18300 0.75680 -0.41500
O 	O 	0.55240 0.68300 0.25680 -0.41300
O 	O 	0.74320 0.05240 0.81700 -0.42000
O 	O 	0.74320 0.55240 0.31700 -0.40900
O 	O 	0.24320 0.05240 0.31700 -0.43000
O 	O 	0.24320 0.55240 0.81700 -0.40700
O 	O 	0.74320 0.94760 0.18300 -0.38200
O 	O 	0.74320 0.44760 0.68300 -0.40900
O 	O 	0.24320 0.94760 0.68300 -0.38000
O 	O 	0.24320 0.44760 0.18300 -0.41800
O 	O 	0.25680 0.94760 0.81700 -0.37600
O 	O 	0.25680 0.44760 0.31700 -0.41400
O 	O 	0.75680 0.94760 0.31700 -0.37800
O 	O 	0.75680 0.44760 0.81700 -0.40400
O 	O 	0.25680 0.05240 0.18300 -0.43500
O 	O 	0.25680 0.55240 0.68300 -0.41300
O 	O 	0.75680 0.05240 0.68300 -0.42700
O 	O 	0.75680 0.55240 0.18300 -0.41500
O 	O 	0.81700 0.74320 0.05240 -0.42000
O 	O 	0.81700 0.24320 0.55240 -0.40700
O 	O 	0.31700 0.74320 0.55240 -0.40900
O 	O 	0.31700 0.24320 0.05240 -0.43000
O 	O 	0.18300 0.74320 0.94760 -0.38200
O 	O 	0.18300 0.24320 0.44760 -0.41800
O 	O 	0.68300 0.74320 0.44760 -0.40900
O 	O 	0.68300 0.24320 0.94760 -0.38000
O 	O 	0.81700 0.25680 0.94760 -0.37600
O 	O 	0.81700 0.75680 0.44760 -0.40400
O 	O 	0.31700 0.25680 0.44760 -0.41400
O 	O 	0.31700 0.75680 0.94760 -0.37800
O 	O 	0.18300 0.25680 0.05240 -0.43500
O 	O 	0.18300 0.75680 0.55240 -0.41500
O 	O 	0.68300 0.25680 0.55240 -0.41300
O 	O 	0.68300 0.75680 0.05240 -0.42700
O 	O 	0.81700 0.05240 0.25680 -0.42500
O 	O 	0.81700 0.55240 0.75680 -0.40400
O 	O 	0.31700 0.05240 0.75680 -0.42700
O 	O 	0.31700 0.55240 0.25680 -0.41400
O 	O 	0.18300 0.94760 0.25680 -0.38600
O 	O 	0.18300 0.44760 0.75680 -0.41500
O 	O 	0.68300 0.94760 0.75680 -0.37700
O 	O 	0.68300 0.44760 0.25680 -0.41300
O 	O 	0.81700 0.94760 0.74320 -0.37200
O 	O 	0.81700 0.44760 0.24320 -0.40700
O 	O 	0.31700 0.94760 0.24320 -0.38100
O 	O 	0.31700 0.44760 0.74320 -0.40900
O 	O 	0.18300 0.05240 0.74320 -0.43100
O 	O 	0.18300 0.55240 0.24320 -0.41800
O 	O 	0.68300 0.05240 0.24320 -0.42900
O 	O 	0.68300 0.55240 0.74320 -0.40900
O 	O 	0.05240 0.74320 0.18300 -0.43100
O 	O 	0.05240 0.24320 0.68300 -0.42900
O 	O 	0.55240 0.74320 0.68300 -0.40900
O 	O 	0.55240 0.24320 0.18300 -0.41800
O 	O 	0.94760 0.74320 0.81700 -0.37200
O 	O 	0.94760 0.24320 0.31700 -0.38100
O 	O 	0.44760 0.74320 0.31700 -0.40900
O 	O 	0.44760 0.24320 0.81700 -0.40700
O 	O 	0.94760 0.25680 0.18300 -0.38600
O 	O 	0.94760 0.75680 0.68300 -0.37700
O 	O 	0.44760 0.25680 0.68300 -0.41300
O 	O 	0.44760 0.75680 0.18300 -0.41500
O 	O 	0.05240 0.25680 0.81700 -0.42500
O 	O 	0.05240 0.75680 0.31700 -0.42700
O 	O 	0.55240 0.25680 0.31700 -0.41400
O 	O 	0.55240 0.75680 0.81700 -0.40400
O 	O 	0.74320 0.81700 0.94760 -0.37200
O 	O 	0.74320 0.31700 0.44760 -0.40900
O 	O 	0.24320 0.81700 0.44760 -0.40700
O 	O 	0.24320 0.31700 0.94760 -0.38100
O 	O 	0.74320 0.18300 0.05240 -0.43100
O 	O 	0.74320 0.68300 0.55240 -0.40900
O 	O 	0.24320 0.18300 0.55240 -0.41800
O 	O 	0.24320 0.68300 0.05240 -0.42900
O 	O 	0.25680 0.81700 0.05240 -0.42500
O 	O 	0.25680 0.31700 0.55240 -0.41400
O 	O 	0.75680 0.81700 0.55240 -0.40400
O 	O 	0.75680 0.31700 0.05240 -0.42700
O 	O 	0.25680 0.18300 0.94760 -0.38600
O 	O 	0.25680 0.68300 0.44760 -0.41300
O 	O 	0.75680 0.18300 0.44760 -0.41500
O 	O 	0.75680 0.68300 0.94760 -0.37700
Cu	Cu	0.00000 0.21488 0.21488 0.87500
Cu	Cu	-0.00000 0.71488 0.71488 0.87800
Cu	Cu	0.50000 0.21488 0.71488 0.90600
Cu	Cu	0.50000 0.71488 0.21488 0.90600
Cu	Cu	-0.00000 0.78512 0.21488 0.87800
Cu	Cu	-0.00000 0.28512 0.71488 0.87800
Cu	Cu	0.50000 0.78512 0.71488 0.90900
Cu	Cu	0.50000 0.28512 0.21488 0.90600
Cu	Cu	-0.00000 0.21488 0.78512 0.87800
Cu	Cu	-0.00000 0.71488 0.28512 0.87800
Cu	Cu	0.50000 0.21488 0.28512 0.90600
Cu	Cu	0.50000 0.71488 0.78512 0.90900
Cu	Cu	-0.00000 0.78512 0.78512 0.88100
Cu	Cu	-0.00000 0.28512 0.28512 0.87800
Cu	Cu	0.50000 0.78512 0.28512 0.90900
Cu	Cu	0.50000 0.28512 0.78512 0.90900
Cu	Cu	0.21488 0.00000 0.21488 0.87500
Cu	Cu	0.21488 0.50000 0.71488 0.90600
Cu	Cu	0.71488 -0.00000 0.71488 0.87800
Cu	Cu	0.71488 0.50000 0.21488 0.90600
Cu	Cu	0.21488 -0.00000 0.78512 0.87800
Cu	Cu	0.21488 0.50000 0.28512 0.90600
Cu	Cu	0.71488 -0.00000 0.28512 0.87800
Cu	Cu	0.71488 0.50000 0.78512 0.90900
Cu	Cu	0.78512 0.00000 0.21488 0.87800
Cu	Cu	0.78512 0.50000 0.71488 0.90900
Cu	Cu	0.28512 -0.00000 0.71488 0.87800
Cu	Cu	0.28512 0.50000 0.21488 0.90600
Cu	Cu	0.78512 -0.00000 0.78512 0.88100
Cu	Cu	0.78512 0.50000 0.28512 0.90900
Cu	Cu	0.28512 -0.00000 0.28512 0.87800
Cu	Cu	0.28512 0.50000 0.78512 0.90900
Cu	Cu	0.21488 0.21488 -0.00000 0.87500
Cu	Cu	0.21488 0.71488 0.50000 0.90600
Cu	Cu	0.71488 0.21488 0.50000 0.90600
Cu	Cu	0.71488 0.71488 -0.00000 0.87800
Cu	Cu	0.78512 0.21488 -0.00000 0.87800
Cu	Cu	0.78512 0.71488 0.50000 0.90900
Cu	Cu	0.28512 0.21488 0.50000 0.90600
Cu	Cu	0.28512 0.71488 -0.00000 0.87800
Cu	Cu	0.21488 0.78512 -0.00000 0.87800
Cu	Cu	0.21488 0.28512 0.50000 0.90600
Cu	Cu	0.71488 0.78512 0.50000 0.90900
Cu	Cu	0.71488 0.28512 -0.00000 0.87800
Cu	Cu	0.78512 0.78512 -0.00000 0.88100
Cu	Cu	0.78512 0.28512 0.50000 0.90900
Cu	Cu	0.28512 0.78512 0.50000 0.90900
Cu	Cu	0.28512 0.28512 -0.00000 0.87800
C 	C 	0.86700 0.19920 0.36700 0.05400
H 	H 	0.88090 0.22860 0.38090 0.05300
C 	C 	0.86700 0.69920 0.86700 0.04400
H 	H 	0.88090 0.72860 0.88090 0.06500
C 	C 	0.36700 0.69920 0.36700 0.05600
H 	H 	0.38090 0.72860 0.38090 0.04800
C 	C 	0.13300 0.80080 0.36700 0.05600
H 	H 	0.11910 0.77140 0.38090 0.04200
C 	C 	0.13300 0.30080 0.86700 0.05500
H 	H 	0.11910 0.27140 0.88090 0.04600
C 	C 	0.13300 0.19920 0.63300 0.06100
H 	H 	0.11910 0.22860 0.61910 0.03800
C 	C 	0.13300 0.69920 0.13300 0.06100
H 	H 	0.11910 0.72860 0.11910 0.03500
C 	C 	0.86700 0.80080 0.63300 0.04600
H 	H 	0.88090 0.77140 0.61910 0.05800
C 	C 	0.86700 0.30080 0.13300 0.05500
H 	H 	0.88090 0.27140 0.11910 0.04600
C 	C 	0.36700 0.80080 0.13300 0.05600
H 	H 	0.38090 0.77140 0.11910 0.04200
C 	C 	0.36700 0.86700 0.19920 0.05400
H 	H 	0.38090 0.88090 0.22860 0.05300
C 	C 	0.36700 0.36700 0.69920 0.05600
H 	H 	0.38090 0.38090 0.72860 0.04800
C 	C 	0.36700 0.13300 0.80080 0.05600
H 	H 	0.38090 0.11910 0.77140 0.04200
C 	C 	0.36700 0.63300 0.30080 0.05700
H 	H 	0.38090 0.61910 0.27140 0.04500
C 	C 	0.63300 0.13300 0.19920 0.06100
H 	H 	0.61910 0.11910 0.22860 0.03800
C 	C 	0.63300 0.63300 0.69920 0.05300
H 	H 	0.61910 0.61910 0.72860 0.04900
C 	C 	0.13300 0.13300 0.69920 0.06100
H 	H 	0.11910 0.11910 0.72860 0.03500
C 	C 	0.63300 0.86700 0.80080 0.04600
H 	H 	0.61910 0.88090 0.77140 0.05800
C 	C 	0.63300 0.36700 0.30080 0.05700
H 	H 	0.61910 0.38090 0.27140 0.04500
C 	C 	0.13300 0.36700 0.80080 0.05600
H 	H 	0.11910 0.38090 0.77140 0.04200
C 	C 	0.19920 0.36700 0.86700 0.05400
H 	H 	0.22860 0.38090 0.88090 0.05300
C 	C 	0.69920 0.36700 0.36700 0.05600
H 	H 	0.72860 0.38090 0.38090 0.04800
C 	C 	0.80080 0.36700 0.13300 0.05600
H 	H 	0.77140 0.38090 0.11910 0.04200
C 	C 	0.30080 0.36700 0.63300 0.05700
H 	H 	0.27140 0.38090 0.61910 0.04500
C 	C 	0.19920 0.63300 0.13300 0.06100
H 	H 	0.22860 0.61910 0.11910 0.03800
C 	C 	0.69920 0.63300 0.63300 0.05300
H 	H 	0.72860 0.61910 0.61910 0.04900
C 	C 	0.69920 0.13300 0.13300 0.06100
H 	H 	0.72860 0.11910 0.11910 0.03500
C 	C 	0.80080 0.63300 0.86700 0.04600
H 	H 	0.77140 0.61910 0.88090 0.05800
C 	C 	0.80080 0.13300 0.36700 0.05600
H 	H 	0.77140 0.11910 0.38090 0.04200
C 	C 	0.30080 0.63300 0.36700 0.05700
H 	H 	0.27140 0.61910 0.38090 0.04500
C 	C 	0.19920 0.86700 0.63300 0.05200
H 	H 	0.22860 0.88090 0.61910 0.05300
C 	C 	0.19920 0.36700 0.13300 0.06200
H 	H 	0.22860 0.38090 0.11910 0.03700
C 	C 	0.69920 0.86700 0.13300 0.05300
H 	H 	0.72860 0.88090 0.11910 0.05000
C 	C 	0.80080 0.13300 0.63300 0.05500
H 	H 	0.77140 0.11910 0.61910 0.04200
C 	C 	0.30080 0.13300 0.13300 0.06300
H 	H 	0.27140 0.11910 0.11910 0.03100
C 	C 	0.19920 0.13300 0.36700 0.06200
H 	H 	0.22860 0.11910 0.38090 0.03700
C 	C 	0.69920 0.13300 0.86700 0.05300
H 	H 	0.72860 0.11910 0.88090 0.05000
C 	C 	0.80080 0.86700 0.36700 0.04800
H 	H 	0.77140 0.88090 0.38090 0.05700
C 	C 	0.30080 0.86700 0.86700 0.04700
H 	H 	0.27140 0.88090 0.88090 0.06100
C 	C 	0.30080 0.36700 0.36700 0.05800
H 	H 	0.27140 0.38090 0.38090 0.04400
C 	C 	0.86700 0.36700 0.80080 0.04800
H 	H 	0.88090 0.38090 0.77140 0.05700
C 	C 	0.86700 0.86700 0.30080 0.04700
H 	H 	0.88090 0.88090 0.27140 0.06100
C 	C 	0.36700 0.36700 0.30080 0.05800
H 	H 	0.38090 0.38090 0.27140 0.04400
C 	C 	0.13300 0.36700 0.19920 0.06200
H 	H 	0.11910 0.38090 0.22860 0.03700
C 	C 	0.13300 0.86700 0.69920 0.05300
H 	H 	0.11910 0.88090 0.72860 0.05000
C 	C 	0.13300 0.63300 0.80080 0.05500
H 	H 	0.11910 0.61910 0.77140 0.04200
C 	C 	0.13300 0.13300 0.30080 0.06300
H 	H 	0.11910 0.11910 0.27140 0.03100
C 	C 	0.86700 0.63300 0.19920 0.05200
H 	H 	0.88090 0.61910 0.22860 0.05300
C 	C 	0.86700 0.13300 0.69920 0.05300
H 	H 	0.88090 0.11910 0.72860 0.05000
C 	C 	0.36700 0.13300 0.19920 0.06200
H 	H 	0.38090 0.11910 0.22860 0.03700
C 	C 	0.36700 0.19920 0.13300 0.06200
H 	H 	0.38090 0.22860 0.11910 0.03700
C 	C 	0.36700 0.69920 0.63300 0.05400
H 	H 	0.38090 0.72860 0.61910 0.04900
C 	C 	0.36700 0.80080 0.86700 0.04800
H 	H 	0.38090 0.77140 0.88090 0.05700
C 	C 	0.36700 0.30080 0.36700 0.05800
H 	H 	0.38090 0.27140 0.38090 0.04400
C 	C 	0.63300 0.19920 0.86700 0.05200
H 	H 	0.61910 0.22860 0.88090 0.05300
C 	C 	0.63300 0.69920 0.36700 0.05400
H 	H 	0.61910 0.72860 0.38090 0.04900
C 	C 	0.13300 0.19920 0.36700 0.06200
H 	H 	0.11910 0.22860 0.38090 0.03700
C 	C 	0.63300 0.80080 0.13300 0.05500
H 	H 	0.61910 0.77140 0.11910 0.04200
C 	C 	0.63300 0.30080 0.63300 0.05500
H 	H 	0.61910 0.27140 0.61910 0.04500
C 	C 	0.13300 0.30080 0.13300 0.06300
H 	H 	0.11910 0.27140 0.11910 0.03100
C 	C 	0.13300 0.80080 0.63300 0.05500
H 	H 	0.11910 0.77140 0.61910 0.04200
C 	C 	0.86700 0.19920 0.63300 0.05200
H 	H 	0.88090 0.22860 0.61910 0.05300
C 	C 	0.86700 0.69920 0.13300 0.05300
H 	H 	0.88090 0.72860 0.11910 0.05000
C 	C 	0.86700 0.80080 0.36700 0.04800
H 	H 	0.88090 0.77140 0.38090 0.05700
C 	C 	0.86700 0.30080 0.86700 0.04700
H 	H 	0.88090 0.27140 0.88090 0.06100
C 	C 	0.13300 0.69920 0.86700 0.05300
H 	H 	0.11910 0.72860 0.88090 0.05000
C 	C 	0.63300 0.13300 0.80080 0.05500
H 	H 	0.61910 0.11910 0.77140 0.04200
C 	C 	0.63300 0.63300 0.30080 0.05500
H 	H 	0.61910 0.61910 0.27140 0.04500
C 	C 	0.63300 0.86700 0.19920 0.05200
H 	H 	0.61910 0.88090 0.22860 0.05300
C 	C 	0.63300 0.36700 0.69920 0.05400
H 	H 	0.61910 0.38090 0.72860 0.04900
C 	C 	0.36700 0.86700 0.80080 0.04800
H 	H 	0.38090 0.88090 0.77140 0.05700
C 	C 	0.36700 0.63300 0.69920 0.05400
H 	H 	0.38090 0.61910 0.72860 0.04900
C 	C 	0.80080 0.63300 0.13300 0.05500
H 	H 	0.77140 0.61910 0.11910 0.04200
C 	C 	0.30080 0.63300 0.63300 0.05500
H 	H 	0.27140 0.61910 0.61910 0.04500
C 	C 	0.19920 0.63300 0.86700 0.05200
H 	H 	0.22860 0.61910 0.88090 0.05300
C 	C 	0.69920 0.63300 0.36700 0.05400
H 	H 	0.72860 0.61910 0.38090 0.04900
C 	C 	0.80080 0.36700 0.86700 0.04800
H 	H 	0.77140 0.38090 0.88090 0.05700
C 	C 	0.69920 0.36700 0.63300 0.05400
H 	H 	0.72860 0.38090 0.61910 0.04900
C 	C 	0.30080 0.13300 0.86700 0.05500
H 	H 	0.27140 0.11910 0.88090 0.04600
C 	C 	0.19920 0.86700 0.36700 0.05400
H 	H 	0.22860 0.88090 0.38090 0.05300
C 	C 	0.69920 0.86700 0.86700 0.04400
H 	H 	0.72860 0.88090 0.88090 0.06500
C 	C 	0.80080 0.86700 0.63300 0.04600
H 	H 	0.77140 0.88090 0.61910 0.05800
C 	C 	0.30080 0.86700 0.13300 0.05500
H 	H 	0.27140 0.88090 0.11910 0.04600
C 	C 	0.19920 0.13300 0.63300 0.06100
H 	H 	0.22860 0.11910 0.61910 0.03800
C 	C 	0.13300 0.63300 0.19920 0.06100
H 	H 	0.11910 0.61910 0.22860 0.03800
C 	C 	0.86700 0.63300 0.80080 0.04600
H 	H 	0.88090 0.61910 0.77140 0.05800
C 	C 	0.86700 0.13300 0.30080 0.05500
H 	H 	0.88090 0.11910 0.27140 0.04600
C 	C 	0.86700 0.36700 0.19920 0.05400
H 	H 	0.88090 0.38090 0.22860 0.05300
C 	C 	0.86700 0.86700 0.69920 0.04400
H 	H 	0.88090 0.88090 0.72860 0.06500
C 	C 	0.13300 0.86700 0.30080 0.05500
H 	H 	0.11910 0.88090 0.27140 0.04600
C 	C 	0.63300 0.80080 0.86700 0.04600
H 	H 	0.61910 0.77140 0.88090 0.05800
C 	C 	0.63300 0.30080 0.36700 0.05700
H 	H 	0.61910 0.27140 0.38090 0.04500
C 	C 	0.63300 0.19920 0.13300 0.06100
H 	H 	0.61910 0.22860 0.11910 0.03800
C 	C 	0.63300 0.69920 0.63300 0.05300
H 	H 	0.61910 0.72860 0.61910 0.04900
C 	C 	0.36700 0.30080 0.63300 0.05700
H 	H 	0.38090 0.27140 0.61910 0.04500
C 	C 	0.36700 0.19920 0.86700 0.05400
H 	H 	0.38090 0.22860 0.88090 0.05300
C 	C 	0.88910 0.17660 0.32340 -0.10600
C 	C 	0.93250 0.20240 0.29760 0.37400
C 	C 	0.38910 0.17660 0.82340 -0.11200
C 	C 	0.43250 0.20240 0.79760 0.37900
C 	C 	0.11090 0.82340 0.32340 -0.11600
C 	C 	0.06750 0.79760 0.29760 0.37900
C 	C 	0.61090 0.82340 0.82340 -0.09700
C 	C 	0.56750 0.79760 0.79760 0.37600
C 	C 	0.61090 0.32340 0.32340 -0.11400
C 	C 	0.56750 0.29760 0.29760 0.38000
C 	C 	0.11090 0.17660 0.67660 -0.12800
C 	C 	0.06750 0.20240 0.70240 0.38000
C 	C 	0.61090 0.17660 0.17660 -0.12400
C 	C 	0.56750 0.20240 0.20240 0.38100
C 	C 	0.88910 0.82340 0.67660 -0.09000
C 	C 	0.93250 0.79760 0.70240 0.37000
C 	C 	0.88910 0.32340 0.17660 -0.10600
C 	C 	0.93250 0.29760 0.20240 0.37400
C 	C 	0.38910 0.82340 0.17660 -0.11200
C 	C 	0.43250 0.79760 0.20240 0.37900
C 	C 	0.32340 0.88910 0.17660 -0.10600
C 	C 	0.29760 0.93250 0.20240 0.37400
C 	C 	0.32340 0.38910 0.67660 -0.11300
C 	C 	0.29760 0.43250 0.70240 0.37900
C 	C 	0.32340 0.11090 0.82340 -0.11600
C 	C 	0.29760 0.06750 0.79760 0.37900
C 	C 	0.32340 0.61090 0.32340 -0.11400
C 	C 	0.29760 0.56750 0.29760 0.38000
C 	C 	0.67660 0.11090 0.17660 -0.12800
C 	C 	0.70240 0.06750 0.20240 0.38000
C 	C 	0.67660 0.61090 0.67660 -0.10900
C 	C 	0.70240 0.56750 0.70240 0.37700
C 	C 	0.17660 0.61090 0.17660 -0.12400
C 	C 	0.20240 0.56750 0.20240 0.38100
C 	C 	0.67660 0.88910 0.82340 -0.09000
C 	C 	0.70240 0.93250 0.79760 0.37000
C 	C 	0.67660 0.38910 0.32340 -0.11300
C 	C 	0.70240 0.43250 0.29760 0.37900
C 	C 	0.17660 0.88910 0.32340 -0.10600
C 	C 	0.20240 0.93250 0.29760 0.37400
C 	C 	0.17660 0.32340 0.88910 -0.10600
C 	C 	0.20240 0.29760 0.93250 0.37400
C 	C 	0.17660 0.82340 0.38910 -0.11200
C 	C 	0.20240 0.79760 0.43250 0.37900
C 	C 	0.82340 0.32340 0.11090 -0.11600
C 	C 	0.79760 0.29760 0.06750 0.37900
C 	C 	0.82340 0.82340 0.61090 -0.09700
C 	C 	0.79760 0.79760 0.56750 0.37600
C 	C 	0.32340 0.32340 0.61090 -0.11400
C 	C 	0.29760 0.29760 0.56750 0.38000
C 	C 	0.17660 0.67660 0.11090 -0.12800
C 	C 	0.20240 0.70240 0.06750 0.38000
C 	C 	0.17660 0.17660 0.61090 -0.12400
C 	C 	0.20240 0.20240 0.56750 0.38100
C 	C 	0.82340 0.67660 0.88910 -0.09000
C 	C 	0.79760 0.70240 0.93250 0.37000
C 	C 	0.82340 0.17660 0.38910 -0.11200
C 	C 	0.79760 0.20240 0.43250 0.37900
C 	C 	0.32340 0.17660 0.88910 -0.10600
C 	C 	0.29760 0.20240 0.93250 0.37400
C 	C 	0.17660 0.88910 0.67660 -0.10400
C 	C 	0.20240 0.93250 0.70240 0.37300
C 	C 	0.17660 0.38910 0.17660 -0.12500
C 	C 	0.20240 0.43250 0.20240 0.38200
C 	C 	0.82340 0.11090 0.67660 -0.11400
C 	C 	0.79760 0.06750 0.70240 0.37700
C 	C 	0.82340 0.61090 0.17660 -0.11100
C 	C 	0.79760 0.56750 0.20240 0.37800
C 	C 	0.32340 0.11090 0.17660 -0.13000
C 	C 	0.29760 0.06750 0.20240 0.38200
C 	C 	0.17660 0.11090 0.32340 -0.13000
C 	C 	0.20240 0.06750 0.29760 0.38200
C 	C 	0.17660 0.61090 0.82340 -0.11100
C 	C 	0.20240 0.56750 0.79760 0.37800
C 	C 	0.82340 0.88910 0.32340 -0.09200
C 	C 	0.79760 0.93250 0.29760 0.37200
C 	C 	0.82340 0.38910 0.82340 -0.09800
C 	C 	0.79760 0.43250 0.79760 0.37600
C 	C 	0.32340 0.38910 0.32340 -0.11500
C 	C 	0.29760 0.43250 0.29760 0.38100
C 	C 	0.88910 0.32340 0.82340 -0.09200
C 	C 	0.93250 0.29760 0.79760 0.37200
C 	C 	0.38910 0.32340 0.32340 -0.11500
C 	C 	0.43250 0.29760 0.29760 0.38100
C 	C 	0.11090 0.32340 0.17660 -0.13000
C 	C 	0.06750 0.29760 0.20240 0.38200
C 	C 	0.61090 0.32340 0.67660 -0.11200
C 	C 	0.56750 0.29760 0.70240 0.37900
C 	C 	0.11090 0.67660 0.82340 -0.11400
C 	C 	0.06750 0.70240 0.79760 0.37700
C 	C 	0.11090 0.17660 0.32340 -0.13000
C 	C 	0.06750 0.20240 0.29760 0.38200
C 	C 	0.61090 0.67660 0.32340 -0.11200
C 	C 	0.56750 0.70240 0.29760 0.37900
C 	C 	0.88910 0.67660 0.17660 -0.10400
C 	C 	0.93250 0.70240 0.20240 0.37300
C 	C 	0.38910 0.67660 0.67660 -0.11000
C 	C 	0.43250 0.70240 0.70240 0.37700
C 	C 	0.38910 0.17660 0.17660 -0.12500
C 	C 	0.43250 0.20240 0.20240 0.38200
C 	C 	0.32340 0.17660 0.11090 -0.13000
C 	C 	0.29760 0.20240 0.06750 0.38200
C 	C 	0.32340 0.67660 0.61090 -0.11200
C 	C 	0.29760 0.70240 0.56750 0.37900
C 	C 	0.32340 0.82340 0.88910 -0.09200
C 	C 	0.29760 0.79760 0.93250 0.37200
C 	C 	0.32340 0.32340 0.38910 -0.11500
C 	C 	0.29760 0.29760 0.43250 0.38100
C 	C 	0.67660 0.17660 0.88910 -0.10400
C 	C 	0.70240 0.20240 0.93250 0.37300
C 	C 	0.67660 0.67660 0.38910 -0.11000
C 	C 	0.70240 0.70240 0.43250 0.37700
C 	C 	0.17660 0.17660 0.38910 -0.12500
C 	C 	0.20240 0.20240 0.43250 0.38200
C 	C 	0.67660 0.82340 0.11090 -0.11400
C 	C 	0.70240 0.79760 0.06750 0.37700
C 	C 	0.67660 0.32340 0.61090 -0.11200
C 	C 	0.70240 0.29760 0.56750 0.37900
C 	C 	0.17660 0.32340 0.11090 -0.13000
C 	C 	0.20240 0.29760 0.06750 0.38200
C 	C 	0.11090 0.82340 0.67660 -0.11400
C 	C 	0.06750 0.79760 0.70240 0.37700
C 	C 	0.61090 0.82340 0.17660 -0.11100
C 	C 	0.56750 0.79760 0.20240 0.37800
C 	C 	0.88910 0.17660 0.67660 -0.10400
C 	C 	0.93250 0.20240 0.70240 0.37300
C 	C 	0.88910 0.82340 0.32340 -0.09200
C 	C 	0.93250 0.79760 0.29760 0.37200
C 	C 	0.38910 0.82340 0.82340 -0.09800
C 	C 	0.43250 0.79760 0.79760 0.37600
C 	C 	0.61090 0.17660 0.82340 -0.11100
C 	C 	0.56750 0.20240 0.79760 0.37800
C 	C 	0.67660 0.11090 0.82340 -0.11400
C 	C 	0.70240 0.06750 0.79760 0.37700
C 	C 	0.67660 0.61090 0.32340 -0.11200
C 	C 	0.70240 0.56750 0.29760 0.37900
C 	C 	0.67660 0.88910 0.17660 -0.10400
C 	C 	0.70240 0.93250 0.20240 0.37300
C 	C 	0.67660 0.38910 0.67660 -0.11000
C 	C 	0.70240 0.43250 0.70240 0.37700
C 	C 	0.32340 0.88910 0.82340 -0.09200
C 	C 	0.29760 0.93250 0.79760 0.37200
C 	C 	0.32340 0.61090 0.67660 -0.11200
C 	C 	0.29760 0.56750 0.70240 0.37900
C 	C 	0.82340 0.67660 0.11090 -0.11400
C 	C 	0.79760 0.70240 0.06750 0.37700
C 	C 	0.82340 0.17660 0.61090 -0.11100
C 	C 	0.79760 0.20240 0.56750 0.37800
C 	C 	0.17660 0.67660 0.88910 -0.10400
C 	C 	0.20240 0.70240 0.93250 0.37300
C 	C 	0.82340 0.32340 0.88910 -0.09200
C 	C 	0.79760 0.29760 0.93250 0.37200
C 	C 	0.82340 0.82340 0.38910 -0.09800
C 	C 	0.79760 0.79760 0.43250 0.37600
C 	C 	0.17660 0.82340 0.61090 -0.11100
C 	C 	0.20240 0.79760 0.56750 0.37800
C 	C 	0.82340 0.11090 0.32340 -0.11600
C 	C 	0.79760 0.06750 0.29760 0.37900
C 	C 	0.82340 0.61090 0.82340 -0.09700
C 	C 	0.79760 0.56750 0.79760 0.37600
C 	C 	0.17660 0.38910 0.82340 -0.11200
C 	C 	0.20240 0.43250 0.79760 0.37900
C 	C 	0.82340 0.88910 0.67660 -0.09000
C 	C 	0.79760 0.93250 0.70240 0.37000
C 	C 	0.82340 0.38910 0.17660 -0.11200
C 	C 	0.79760 0.43250 0.20240 0.37900
C 	C 	0.17660 0.11090 0.67660 -0.12800
C 	C 	0.20240 0.06750 0.70240 0.38000
C 	C 	0.11090 0.67660 0.17660 -0.12800
C 	C 	0.06750 0.70240 0.20240 0.38000
C 	C 	0.61090 0.67660 0.67660 -0.10900
C 	C 	0.56750 0.70240 0.70240 0.37700
C 	C 	0.88910 0.67660 0.82340 -0.09000
C 	C 	0.93250 0.70240 0.79760 0.37000
C 	C 	0.38910 0.67660 0.32340 -0.11300
C 	C 	0.43250 0.70240 0.29760 0.37900
C 	C 	0.38910 0.32340 0.67660 -0.11300
C 	C 	0.43250 0.29760 0.70240 0.37900
C 	C 	0.11090 0.32340 0.82340 -0.11600
C 	C 	0.06750 0.29760 0.79760 0.37900
C 	C 	0.67660 0.82340 0.88910 -0.09000
C 	C 	0.70240 0.79760 0.93250 0.37000
C 	C 	0.67660 0.32340 0.38910 -0.11300
C 	C 	0.70240 0.29760 0.43250 0.37900
C 	C 	0.67660 0.17660 0.11090 -0.12800
C 	C 	0.70240 0.20240 0.06750 0.38000
C 	C 	0.67660 0.67660 0.61090 -0.10900
C 	C 	0.70240 0.70240 0.56750 0.37700
C 	C 	0.32340 0.82340 0.11090 -0.11600
C 	C 	0.29760 0.79760 0.06750 0.37900
C 	C 	0.32340 0.67660 0.38910 -0.11300
C 	C 	0.29760 0.70240 0.43250 0.37900
