data_crystal

_cell_length_a 31.78640
_cell_length_b 33.33950
_cell_length_c 11.67730
_cell_angle_alpha 90.00000
_cell_angle_beta  90.00000
_cell_angle_gamma 90.00000

_symmetry_space_group_name_	'P 1'
_symmetry_space_group_name_H-M	'P 1'

loop_
_symmetry_equiv_pos_as_xyz
  x,y,z

loop_
_atom_site_label
_atom_site_type_symbol
_atom_site_fract_x
_atom_site_fract_y
_atom_site_fract_z
_atom_site_charge
O 	O 	0.73437 0.29062 0.89850 -0.40500
O 	O 	0.69471 0.29096 0.73890 -0.41600
N 	N 	0.54408 0.46181 0.05458 -0.24900
N 	N 	0.59209 0.41449 0.04420 -0.17200
C 	C 	0.56608 0.43920 0.98670 0.13700
H 	H 	0.56410 0.44000 0.90560 -0.03700
C 	C 	0.67462 0.33171 0.89510 -0.13300
C 	C 	0.70343 0.30216 0.83870 0.37200
C 	C 	0.61994 0.38632 0.99380 0.19100
C 	C 	0.68147 0.34504 0.00480 0.07900
H 	H 	0.70490 0.33520 0.04680 0.01500
C 	C 	0.61208 0.37251 0.88570 -0.18900
H 	H 	0.58810 0.38180 0.84480 0.09400
C 	C 	0.63917 0.34490 0.83560 0.08800
H 	H 	0.63350 0.33500 0.76080 0.01500
C 	C 	0.65454 0.37260 0.05490 -0.20000
H 	H 	0.65970 0.38200 0.13040 0.09800
C 	C 	0.58527 0.42195 0.15650 0.00600
H 	H 	0.59850 0.40900 0.21950 0.02500
C 	C 	0.55600 0.45132 0.16170 0.00600
H 	H 	0.54540 0.46290 0.23030 0.00900
O 	O 	0.23437 0.79062 0.39850 -0.40900
O 	O 	0.19471 0.79096 0.23890 -0.41800
N 	N 	0.04408 0.96181 0.55458 -0.23500
N 	N 	0.09209 0.91449 0.54420 -0.15200
C 	C 	0.06608 0.93920 0.48670 0.10500
H 	H 	0.06410 0.94000 0.40560 -0.02900
C 	C 	0.17462 0.83171 0.39510 -0.14500
C 	C 	0.20343 0.80216 0.33870 0.37500
C 	C 	0.11994 0.88632 0.49380 0.16000
C 	C 	0.18147 0.84504 0.50480 0.08900
H 	H 	0.20490 0.83520 0.54680 0.01700
C 	C 	0.11208 0.87251 0.38570 -0.17700
H 	H 	0.08810 0.88180 0.34480 0.08700
C 	C 	0.13917 0.84490 0.33560 0.08300
H 	H 	0.13350 0.83500 0.26080 0.01400
C 	C 	0.15454 0.87260 0.55490 -0.17700
H 	H 	0.15970 0.88200 0.63040 0.09400
C 	C 	0.08527 0.92195 0.65650 0.00600
H 	H 	0.09850 0.90900 0.71950 0.02800
C 	C 	0.05600 0.95132 0.66170 0.00900
H 	H 	0.04540 0.96290 0.73030 0.01000
O 	O 	0.26563 0.20938 0.89850 -0.40500
O 	O 	0.30529 0.20904 0.73890 -0.41500
N 	N 	0.45592 0.03819 0.05458 -0.24900
N 	N 	0.40791 0.08551 0.04420 -0.17200
C 	C 	0.43392 0.06080 0.98670 0.13500
H 	H 	0.43590 0.06000 0.90560 -0.03800
C 	C 	0.32538 0.16829 0.89510 -0.13400
C 	C 	0.29657 0.19784 0.83870 0.37200
C 	C 	0.38006 0.11368 0.99380 0.19000
C 	C 	0.31853 0.15496 0.00480 0.07900
H 	H 	0.29510 0.16480 0.04680 0.01400
C 	C 	0.38792 0.12749 0.88570 -0.18900
H 	H 	0.41190 0.11820 0.84480 0.09300
C 	C 	0.36083 0.15510 0.83560 0.08700
H 	H 	0.36650 0.16500 0.76080 0.01500
C 	C 	0.34546 0.12740 0.05490 -0.20000
H 	H 	0.34030 0.11800 0.13040 0.09700
C 	C 	0.41473 0.07805 0.15650 0.00500
H 	H 	0.40150 0.09100 0.21950 0.02400
C 	C 	0.44400 0.04868 0.16170 0.00500
H 	H 	0.45460 0.03710 0.23030 0.00700
O 	O 	0.76563 0.70938 0.39850 -0.40900
O 	O 	0.80529 0.70904 0.23890 -0.41700
N 	N 	0.95592 0.53819 0.55458 -0.23300
N 	N 	0.90791 0.58551 0.54420 -0.15200
C 	C 	0.93392 0.56080 0.48670 0.10600
H 	H 	0.93590 0.56000 0.40560 -0.02800
C 	C 	0.82538 0.66829 0.39510 -0.14500
C 	C 	0.79657 0.69784 0.33870 0.37500
C 	C 	0.88006 0.61368 0.49380 0.16100
C 	C 	0.81853 0.65496 0.50480 0.08900
H 	H 	0.79510 0.66480 0.54680 0.01700
C 	C 	0.88792 0.62749 0.38570 -0.17700
H 	H 	0.91190 0.61820 0.34480 0.08900
C 	C 	0.86083 0.65510 0.33560 0.08400
H 	H 	0.86650 0.66500 0.26080 0.01600
C 	C 	0.84546 0.62740 0.55490 -0.17700
H 	H 	0.84030 0.61800 0.63040 0.09400
C 	C 	0.91473 0.57805 0.65650 0.00700
H 	H 	0.90150 0.59100 0.71950 0.02900
C 	C 	0.94400 0.54868 0.66170 0.01000
H 	H 	0.95460 0.53710 0.73030 0.01300
O 	O 	0.26563 0.79062 0.10150 -0.41400
O 	O 	0.30529 0.79096 0.26110 -0.41700
N 	N 	0.45592 0.96181 0.94542 -0.22000
N 	N 	0.40791 0.91449 0.95580 -0.13100
C 	C 	0.43392 0.93920 0.01330 0.07300
H 	H 	0.43590 0.94000 0.09440 -0.01700
C 	C 	0.32538 0.83171 0.10490 -0.15700
C 	C 	0.29657 0.80216 0.16130 0.37700
C 	C 	0.38006 0.88632 0.00620 0.12700
C 	C 	0.31853 0.84504 0.99520 0.09900
H 	H 	0.29510 0.83520 0.95320 0.01800
C 	C 	0.38792 0.87251 0.11430 -0.16400
H 	H 	0.41190 0.88180 0.15520 0.08300
C 	C 	0.36083 0.84490 0.16440 0.07900
H 	H 	0.36650 0.83500 0.23920 0.01800
C 	C 	0.34546 0.87260 0.94510 -0.15100
H 	H 	0.34030 0.88200 0.86960 0.08700
C 	C 	0.41473 0.92195 0.84350 0.00600
H 	H 	0.40150 0.90900 0.78050 0.03000
C 	C 	0.44400 0.95132 0.83830 0.01200
H 	H 	0.45460 0.96290 0.76970 0.01100
O 	O 	0.76563 0.29062 0.60150 -0.40900
O 	O 	0.80529 0.29096 0.76110 -0.41400
N 	N 	0.95592 0.46181 0.44542 -0.23300
N 	N 	0.90791 0.41449 0.45580 -0.15200
C 	C 	0.93392 0.43920 0.51330 0.10600
H 	H 	0.93590 0.44000 0.59440 -0.02600
C 	C 	0.82538 0.33171 0.60490 -0.14400
C 	C 	0.79657 0.30216 0.66130 0.37400
C 	C 	0.88006 0.38632 0.50620 0.16000
C 	C 	0.81853 0.34504 0.49520 0.08800
H 	H 	0.79510 0.33520 0.45320 0.01500
C 	C 	0.88792 0.37251 0.61430 -0.17600
H 	H 	0.91190 0.38180 0.65520 0.09100
C 	C 	0.86083 0.34490 0.66440 0.08400
H 	H 	0.86650 0.33500 0.73920 0.01900
C 	C 	0.84546 0.37260 0.44510 -0.17600
H 	H 	0.84030 0.38200 0.36960 0.09100
C 	C 	0.91473 0.42195 0.34350 0.00600
H 	H 	0.90150 0.40900 0.28050 0.02600
C 	C 	0.94400 0.45132 0.33830 0.00900
H 	H 	0.95460 0.46290 0.26970 0.01000
O 	O 	0.73437 0.70938 0.10150 -0.41400
O 	O 	0.69471 0.70904 0.26110 -0.41700
N 	N 	0.54408 0.53819 0.94542 -0.22200
N 	N 	0.59209 0.58551 0.95580 -0.13100
C 	C 	0.56608 0.56080 0.01330 0.07200
H 	H 	0.56410 0.56000 0.09440 -0.01900
C 	C 	0.67462 0.66829 0.10490 -0.15700
C 	C 	0.70343 0.69784 0.16130 0.37700
C 	C 	0.61994 0.61368 0.00620 0.12600
C 	C 	0.68147 0.65496 0.99520 0.09900
H 	H 	0.70490 0.66480 0.95320 0.01800
C 	C 	0.61208 0.62749 0.11430 -0.16400
H 	H 	0.58810 0.61820 0.15520 0.08300
C 	C 	0.63917 0.65510 0.16440 0.07900
H 	H 	0.63350 0.66500 0.23920 0.01800
C 	C 	0.65454 0.62740 0.94510 -0.15100
H 	H 	0.65970 0.61800 0.86960 0.08600
C 	C 	0.58527 0.57805 0.84350 0.00500
H 	H 	0.59850 0.59100 0.78050 0.02900
C 	C 	0.55600 0.54868 0.83830 0.01100
H 	H 	0.54540 0.53710 0.76970 0.00900
O 	O 	0.23437 0.20938 0.60150 -0.41000
O 	O 	0.19471 0.20904 0.76110 -0.41500
N 	N 	0.04408 0.03819 0.44542 -0.23900
N 	N 	0.09209 0.08551 0.45580 -0.15200
C 	C 	0.06608 0.06080 0.51330 0.10300
H 	H 	0.06410 0.06000 0.59440 -0.03000
C 	C 	0.17462 0.16829 0.60490 -0.14400
C 	C 	0.20343 0.19784 0.66130 0.37400
C 	C 	0.11994 0.11368 0.50620 0.15700
C 	C 	0.18147 0.15496 0.49520 0.08700
H 	H 	0.20490 0.16480 0.45320 0.01500
C 	C 	0.11208 0.12749 0.61430 -0.17600
H 	H 	0.08810 0.11820 0.65520 0.08700
C 	C 	0.13917 0.15510 0.66440 0.08200
H 	H 	0.13350 0.16500 0.73920 0.01700
C 	C 	0.15454 0.12740 0.44510 -0.17600
H 	H 	0.15970 0.11800 0.36960 0.09000
C 	C 	0.08527 0.07805 0.34350 0.00300
H 	H 	0.09850 0.09100 0.28050 0.02400
C 	C 	0.05600 0.04868 0.33830 0.00600
H 	H 	0.04540 0.03710 0.26970 0.00300
O 	O 	0.26563 0.70938 0.10150 -0.41400
O 	O 	0.30529 0.70904 0.26110 -0.41700
N 	N 	0.45592 0.53819 0.94542 -0.22200
N 	N 	0.40791 0.58551 0.95580 -0.13100
C 	C 	0.43392 0.56080 0.01330 0.07200
H 	H 	0.43590 0.56000 0.09440 -0.01900
C 	C 	0.32538 0.66829 0.10490 -0.15700
C 	C 	0.29657 0.69784 0.16130 0.37700
C 	C 	0.38006 0.61368 0.00620 0.12600
C 	C 	0.31853 0.65496 0.99520 0.09900
H 	H 	0.29510 0.66480 0.95320 0.01700
C 	C 	0.38792 0.62749 0.11430 -0.16400
H 	H 	0.41190 0.61820 0.15520 0.08300
C 	C 	0.36083 0.65510 0.16440 0.07900
H 	H 	0.36650 0.66500 0.23920 0.01800
C 	C 	0.34546 0.62740 0.94510 -0.15100
H 	H 	0.34030 0.61800 0.86960 0.08600
C 	C 	0.41473 0.57805 0.84350 0.00500
H 	H 	0.40150 0.59100 0.78050 0.02900
C 	C 	0.44400 0.54868 0.83830 0.01100
H 	H 	0.45460 0.53710 0.76970 0.00900
O 	O 	0.76563 0.20938 0.60150 -0.41000
O 	O 	0.80529 0.20904 0.76110 -0.41400
N 	N 	0.95592 0.03819 0.44542 -0.23500
N 	N 	0.90791 0.08551 0.45580 -0.15200
C 	C 	0.93392 0.06080 0.51330 0.10500
H 	H 	0.93590 0.06000 0.59440 -0.02700
C 	C 	0.82538 0.16829 0.60490 -0.14400
C 	C 	0.79657 0.19784 0.66130 0.37400
C 	C 	0.88006 0.11368 0.50620 0.15900
C 	C 	0.81853 0.15496 0.49520 0.08800
H 	H 	0.79510 0.16480 0.45320 0.01500
C 	C 	0.88792 0.12749 0.61430 -0.17600
H 	H 	0.91190 0.11820 0.65520 0.09000
C 	C 	0.86083 0.15510 0.66440 0.08300
H 	H 	0.86650 0.16500 0.73920 0.01900
C 	C 	0.84546 0.12740 0.44510 -0.17600
H 	H 	0.84030 0.11800 0.36960 0.09100
C 	C 	0.91473 0.07805 0.34350 0.00500
H 	H 	0.90150 0.09100 0.28050 0.02500
C 	C 	0.94400 0.04868 0.33830 0.00800
H 	H 	0.95460 0.03710 0.26970 0.00800
O 	O 	0.73437 0.79062 0.10150 -0.41400
O 	O 	0.69471 0.79096 0.26110 -0.41700
N 	N 	0.54408 0.96181 0.94542 -0.22000
N 	N 	0.59209 0.91449 0.95580 -0.13100
C 	C 	0.56608 0.93920 0.01330 0.07300
H 	H 	0.56410 0.94000 0.09440 -0.01700
C 	C 	0.67462 0.83171 0.10490 -0.15700
C 	C 	0.70343 0.80216 0.16130 0.37700
C 	C 	0.61994 0.88632 0.00620 0.12700
C 	C 	0.68147 0.84504 0.99520 0.09900
H 	H 	0.70490 0.83520 0.95320 0.01800
C 	C 	0.61208 0.87251 0.11430 -0.16400
H 	H 	0.58810 0.88180 0.15520 0.08300
C 	C 	0.63917 0.84490 0.16440 0.07900
H 	H 	0.63350 0.83500 0.23920 0.01800
C 	C 	0.65454 0.87260 0.94510 -0.15100
H 	H 	0.65970 0.88200 0.86960 0.08700
C 	C 	0.58527 0.92195 0.84350 0.00600
H 	H 	0.59850 0.90900 0.78050 0.03000
C 	C 	0.55600 0.95132 0.83830 0.01200
H 	H 	0.54540 0.96290 0.76970 0.01100
O 	O 	0.23437 0.29062 0.60150 -0.41000
O 	O 	0.19471 0.29096 0.76110 -0.41500
N 	N 	0.04408 0.46181 0.44542 -0.23800
N 	N 	0.09209 0.41449 0.45580 -0.15200
C 	C 	0.06608 0.43920 0.51330 0.10400
H 	H 	0.06410 0.44000 0.59440 -0.02900
C 	C 	0.17462 0.33171 0.60490 -0.14400
C 	C 	0.20343 0.30216 0.66130 0.37400
C 	C 	0.11994 0.38632 0.50620 0.15800
C 	C 	0.18147 0.34504 0.49520 0.08700
H 	H 	0.20490 0.33520 0.45320 0.01500
C 	C 	0.11208 0.37251 0.61430 -0.17600
H 	H 	0.08810 0.38180 0.65520 0.08700
C 	C 	0.13917 0.34490 0.66440 0.08200
H 	H 	0.13350 0.33500 0.73920 0.01700
C 	C 	0.15454 0.37260 0.44510 -0.17600
H 	H 	0.15970 0.38200 0.36960 0.09100
C 	C 	0.08527 0.42195 0.34350 0.00400
H 	H 	0.09850 0.40900 0.28050 0.02400
C 	C 	0.05600 0.45132 0.33830 0.00700
H 	H 	0.04540 0.46290 0.26970 0.00400
O 	O 	0.73437 0.20938 0.89850 -0.40500
O 	O 	0.69471 0.20904 0.73890 -0.41500
N 	N 	0.54408 0.03819 0.05458 -0.24900
N 	N 	0.59209 0.08551 0.04420 -0.17200
C 	C 	0.56608 0.06080 0.98670 0.13500
H 	H 	0.56410 0.06000 0.90560 -0.03800
C 	C 	0.67462 0.16829 0.89510 -0.13300
C 	C 	0.70343 0.19784 0.83870 0.37200
C 	C 	0.61994 0.11368 0.99380 0.19000
C 	C 	0.68147 0.15496 0.00480 0.07900
H 	H 	0.70490 0.16480 0.04680 0.01400
C 	C 	0.61208 0.12749 0.88570 -0.18900
H 	H 	0.58810 0.11820 0.84480 0.09300
C 	C 	0.63917 0.15510 0.83560 0.08700
H 	H 	0.63350 0.16500 0.76080 0.01500
C 	C 	0.65454 0.12740 0.05490 -0.20000
H 	H 	0.65970 0.11800 0.13040 0.09700
C 	C 	0.58527 0.07805 0.15650 0.00500
H 	H 	0.59850 0.09100 0.21950 0.02400
C 	C 	0.55600 0.04868 0.16170 0.00500
H 	H 	0.54540 0.03710 0.23030 0.00700
O 	O 	0.23437 0.70938 0.39850 -0.40900
O 	O 	0.19471 0.70904 0.23890 -0.41800
N 	N 	0.04408 0.53819 0.55458 -0.23800
N 	N 	0.09209 0.58551 0.54420 -0.15200
C 	C 	0.06608 0.56080 0.48670 0.10400
H 	H 	0.06410 0.56000 0.40560 -0.03100
C 	C 	0.17462 0.66829 0.39510 -0.14500
C 	C 	0.20343 0.69784 0.33870 0.37500
C 	C 	0.11994 0.61368 0.49380 0.15900
C 	C 	0.18147 0.65496 0.50480 0.08800
H 	H 	0.20490 0.66480 0.54680 0.01700
C 	C 	0.11208 0.62749 0.38570 -0.17700
H 	H 	0.08810 0.61820 0.34480 0.08600
C 	C 	0.13917 0.65510 0.33560 0.08300
H 	H 	0.13350 0.66500 0.26080 0.01400
C 	C 	0.15454 0.62740 0.55490 -0.17600
H 	H 	0.15970 0.61800 0.63040 0.09300
C 	C 	0.08527 0.57805 0.65650 0.00500
H 	H 	0.09850 0.59100 0.71950 0.02800
C 	C 	0.05600 0.54868 0.66170 0.00800
H 	H 	0.04540 0.53710 0.73030 0.00800
O 	O 	0.26563 0.29062 0.89850 -0.40500
O 	O 	0.30529 0.29096 0.73890 -0.41500
N 	N 	0.45592 0.46181 0.05458 -0.24800
N 	N 	0.40791 0.41449 0.04420 -0.17200
C 	C 	0.43392 0.43920 0.98670 0.13700
H 	H 	0.43590 0.44000 0.90560 -0.03700
C 	C 	0.32538 0.33171 0.89510 -0.13400
C 	C 	0.29657 0.30216 0.83870 0.37200
C 	C 	0.38006 0.38632 0.99380 0.19100
C 	C 	0.31853 0.34504 0.00480 0.07900
H 	H 	0.29510 0.33520 0.04680 0.01400
C 	C 	0.38792 0.37251 0.88570 -0.18900
H 	H 	0.41190 0.38180 0.84480 0.09400
C 	C 	0.36083 0.34490 0.83560 0.08800
H 	H 	0.36650 0.33500 0.76080 0.01500
C 	C 	0.34546 0.37260 0.05490 -0.20100
H 	H 	0.34030 0.38200 0.13040 0.09800
C 	C 	0.41473 0.42195 0.15650 0.00600
H 	H 	0.40150 0.40900 0.21950 0.02500
C 	C 	0.44400 0.45132 0.16170 0.00600
H 	H 	0.45460 0.46290 0.23030 0.00900
O 	O 	0.76563 0.79062 0.39850 -0.40800
O 	O 	0.80529 0.79096 0.23890 -0.41700
N 	N 	0.95592 0.96181 0.55458 -0.23100
N 	N 	0.90791 0.91449 0.54420 -0.15200
C 	C 	0.93392 0.93920 0.48670 0.10700
H 	H 	0.93590 0.94000 0.40560 -0.02600
C 	C 	0.82538 0.83171 0.39510 -0.14500
C 	C 	0.79657 0.80216 0.33870 0.37500
C 	C 	0.88006 0.88632 0.49380 0.16200
C 	C 	0.81853 0.84504 0.50480 0.09000
H 	H 	0.79510 0.83520 0.54680 0.01700
C 	C 	0.88792 0.87251 0.38570 -0.17700
H 	H 	0.91190 0.88180 0.34480 0.09000
C 	C 	0.86083 0.84490 0.33560 0.08500
H 	H 	0.86650 0.83500 0.26080 0.01600
C 	C 	0.84546 0.87260 0.55490 -0.17700
H 	H 	0.84030 0.88200 0.63040 0.09500
C 	C 	0.91473 0.92195 0.65650 0.00800
H 	H 	0.90150 0.90900 0.71950 0.03000
C 	C 	0.94400 0.95132 0.66170 0.01100
H 	H 	0.95460 0.96290 0.73030 0.01500
Cu	Cu	0.50000 0.50000 -0.00000 0.84800
Cu	Cu	0.00000 -0.00000 0.50000 0.84500
Cu	Cu	0.50000 0.00000 -0.00000 0.84400
Cu	Cu	-0.00000 0.50000 0.50000 0.84900
Cu	Cu	0.77376 0.25000 0.84324 0.90700
Cu	Cu	0.27376 0.75000 0.34324 0.90700
Cu	Cu	0.22624 0.25000 0.84324 0.90700
Cu	Cu	0.72624 0.75000 0.34324 0.90700
Cu	Cu	0.22624 0.75000 0.15676 0.90500
Cu	Cu	0.72624 0.25000 0.65676 0.90600
Cu	Cu	0.77376 0.75000 0.15676 0.90600
Cu	Cu	0.27376 0.25000 0.65676 0.90600
