data_crystal

_cell_length_a 6.50170
_cell_length_b 10.15500
_cell_length_c 16.35820
_cell_angle_alpha 87.04100
_cell_angle_beta  87.17700
_cell_angle_gamma 81.42700

_symmetry_space_group_name_	'P 1'
_symmetry_space_group_name_H-M	'P 1'

loop_
_symmetry_equiv_pos_as_xyz
  x,y,z

loop_
_atom_site_label
_atom_site_type_symbol
_atom_site_fract_x
_atom_site_fract_y
_atom_site_fract_z
_atom_site_charge
Co	Co	0.86578 0.50211 0.26905 1.10100
Co	Co	0.02927 0.84552 0.99664 1.15200
O 	O 	0.20220 0.00351 0.96482 -0.58500
H 	H 	0.29510 0.00600 0.90490 0.08400
O 	O 	0.15720 0.58969 0.27394 -0.40100
O 	O 	0.85220 0.71101 0.25593 -0.42800
O 	O 	0.73830 0.20621 0.27031 -0.32900
O 	O 	0.00580 0.31412 0.28765 -0.44000
O 	O 	0.41370 0.13503 0.09857 -0.48800
O 	O 	0.07280 0.14191 0.12089 -0.49800
O 	O 	0.47010 0.84145 0.08791 -0.47500
O 	O 	0.13970 0.81151 0.11239 -0.49600
N 	N 	0.77380 0.52990 0.39350 -0.23700
N 	N 	0.68890 0.62920 0.50948 -0.11300
C 	C 	0.70810 0.64450 0.42743 0.08800
H 	H 	0.67870 0.72570 0.39830 0.00200
C 	C 	0.79430 0.43640 0.45792 0.01500
H 	H 	0.83660 0.34540 0.45290 0.01300
C 	C 	0.74360 0.49690 0.52962 -0.01200
H 	H 	0.74570 0.45650 0.58200 0.04000
C 	C 	0.62520 0.73160 0.57008 -0.06100
H 	H 	0.74000 0.73420 0.60540 0.06200
H 	H 	0.50980 0.70620 0.60410 0.05500
C 	C 	0.56080 0.86940 0.53231 -0.06900
C 	C 	0.70600 0.94290 0.49483 0.12900
H 	H 	0.84540 0.90530 0.49110 -0.00700
C 	C 	0.35330 0.92870 0.53702 0.12300
H 	H 	0.25330 0.88150 0.56190 -0.00400
C 	C 	0.14070 0.82750 0.27997 -0.07600
H 	H 	0.18030 0.82140 0.33720 0.06200
C 	C 	0.98350 0.95580 0.26999 -0.05400
H 	H 	0.93340 0.96350 0.21480 0.08600
H 	H 	0.86510 0.95070 0.30790 0.07000
C 	C 	0.08150 0.07950 0.28618 -0.08100
H 	H 	0.11970 0.06960 0.34360 0.04600
C 	C 	0.28500 0.08850 0.23590 -0.20000
H 	H 	0.34970 0.15930 0.25830 0.09900
C 	C 	0.43590 0.95780 0.24743 0.03400
H 	H 	0.55960 0.96270 0.21240 0.03900
H 	H 	0.47810 0.94860 0.30370 0.04100
C 	C 	0.34250 0.83350 0.22760 -0.15000
H 	H 	0.44210 0.75530 0.24370 0.06700
C 	C 	0.04290 0.70340 0.26698 0.29900
C 	C 	0.31240 0.82800 0.13572 0.38200
C 	C 	0.92550 0.20830 0.27927 0.29700
C 	C 	0.25350 0.12530 0.14495 0.38000
Co	Co	0.13422 0.49789 0.73095 1.10900
Co	Co	0.97073 0.15448 0.00336 1.06100
O 	O 	0.79780 0.99649 0.03518 -0.63000
H 	H 	0.70490 0.99400 0.09510 0.10600
O 	O 	0.84280 0.41031 0.72606 -0.39100
O 	O 	0.14780 0.28899 0.74407 -0.41500
O 	O 	0.26170 0.79379 0.72969 -0.30000
O 	O 	0.99420 0.68588 0.71235 -0.43900
O 	O 	0.58630 0.86497 0.90143 -0.40500
O 	O 	0.92720 0.85809 0.87911 -0.44600
O 	O 	0.52990 0.15855 0.91209 -0.42700
O 	O 	0.86030 0.18849 0.88761 -0.44800
N 	N 	0.22620 0.47010 0.60650 -0.23400
N 	N 	0.31110 0.37080 0.49052 -0.09200
C 	C 	0.29190 0.35550 0.57257 0.07800
H 	H 	0.32130 0.27430 0.60170 0.00200
C 	C 	0.20570 0.56360 0.54208 0.01800
H 	H 	0.16340 0.65460 0.54710 0.02100
C 	C 	0.25640 0.50310 0.47038 -0.01800
H 	H 	0.25430 0.54350 0.41800 0.04400
C 	C 	0.37480 0.26840 0.42992 -0.21600
H 	H 	0.26000 0.26580 0.39460 0.10500
H 	H 	0.49020 0.29380 0.39590 0.09700
C 	C 	0.43920 0.13060 0.46769 0.19800
C 	C 	0.29400 0.05710 0.50517 -0.27300
H 	H 	0.15460 0.09470 0.50890 0.11400
C 	C 	0.64670 0.07130 0.46298 -0.28100
H 	H 	0.74670 0.11850 0.43810 0.11500
C 	C 	0.85930 0.17250 0.72003 -0.07000
H 	H 	0.81970 0.17860 0.66280 0.04900
C 	C 	0.01650 0.04420 0.73001 -0.13300
H 	H 	0.06660 0.03650 0.78520 0.08800
H 	H 	0.13490 0.04930 0.69210 0.07000
C 	C 	0.91850 0.92050 0.71382 -0.03500
H 	H 	0.88030 0.93040 0.65640 0.06000
C 	C 	0.71500 0.91150 0.76410 -0.09900
H 	H 	0.65030 0.84070 0.74170 0.08200
C 	C 	0.56410 0.04220 0.75257 -0.09100
H 	H 	0.44040 0.03730 0.78760 0.05700
H 	H 	0.52190 0.05140 0.69630 0.05200
C 	C 	0.65750 0.16650 0.77240 -0.12200
H 	H 	0.55790 0.24470 0.75630 0.06400
C 	C 	0.95710 0.29660 0.73302 0.28900
C 	C 	0.68760 0.17200 0.86428 0.35300
C 	C 	0.07450 0.79170 0.72073 0.30500
C 	C 	0.74650 0.87470 0.85505 0.36300
Co	Co	0.50000 0.00000 -0.00000 1.10300
