data_crystal

_cell_length_a 23.15700
_cell_length_b 27.31700
_cell_length_c 22.59200
_cell_angle_alpha 90.00000
_cell_angle_beta  90.00000
_cell_angle_gamma 90.00000

_symmetry_space_group_name_	'P 1'
_symmetry_space_group_name_H-M	'P 1'

loop_
_symmetry_equiv_pos_as_xyz
  x,y,z

loop_
_atom_site_label
_atom_site_type_symbol
_atom_site_fract_x
_atom_site_fract_y
_atom_site_fract_z
_atom_site_charge
Zn	Zn	0.76532 0.98970 0.63038 1.22100
Zn	Zn	0.45807 0.66477 0.62781 1.22400
Zn	Zn	0.50325 0.82887 0.87269 1.22700
N 	N 	0.76152 0.96148 0.54829 -0.23100
O 	O 	0.77281 0.94375 0.69611 -0.44800
O 	O 	0.62496 0.83749 0.93984 -0.44900
O 	O 	0.66869 0.57147 0.93751 -0.47300
C 	C 	0.78200 0.87375 0.85989 -0.13200
O 	O 	0.83711 0.84307 0.93947 -0.45300
O 	O 	0.54172 0.17046 0.80341 -0.46400
O 	O 	0.56027 0.26569 0.62863 -0.51600
O 	O 	0.66430 0.52893 0.85528 -0.46600
C 	C 	0.63850 0.15237 0.60992 0.11000
H 	H 	0.65360 0.15650 0.57210 0.01600
O 	O 	0.58269 0.73980 0.94279 -0.45100
O 	O 	0.50306 0.66268 0.69738 -0.46400
O 	O 	0.88386 0.86693 0.85896 -0.48500
O 	O 	0.52309 0.75968 0.87087 -0.50300
O 	O 	0.57626 0.86185 0.86004 -0.47900
N 	N 	0.99305 0.84809 0.95092 -0.23600
C 	C 	0.67720 0.89102 0.80426 0.06400
H 	H 	0.64220 0.89680 0.78530 0.04500
O 	O 	0.62069 0.24581 0.55792 -0.47500
C 	C 	0.67740 0.87081 0.86039 -0.13100
C 	C 	0.60152 0.64683 0.89148 0.08500
H 	H 	0.61700 0.65140 0.92900 0.03600
C 	C 	0.73044 0.86277 0.88885 0.07200
H 	H 	0.73120 0.85010 0.92710 0.04700
C 	C 	0.61230 0.60329 0.86038 -0.14600
C 	C 	0.83910 0.86025 0.88890 0.42400
C 	C 	0.54270 0.67595 0.80970 0.07700
H 	H 	0.51950 0.70000 0.79290 0.04000
C 	C 	0.78070 0.89460 0.80408 0.06800
H 	H 	0.81510 0.90320 0.78550 0.04300
C 	C 	0.62200 0.85575 0.88990 0.41700
C 	C 	0.60480 0.18909 0.63453 -0.17000
C 	C 	0.58180 0.18242 0.69050 0.09300
H 	H 	0.55990 0.20710 0.70780 0.03400
C 	C 	0.62530 0.10289 0.69640 0.09200
H 	H 	0.63170 0.07400 0.71720 0.03500
C 	C 	0.55280 0.63265 0.77923 -0.12700
C 	C 	0.58820 0.59709 0.80393 0.07600
H 	H 	0.59610 0.56870 0.78270 0.03900
N 	N 	0.46846 0.84053 0.95110 -0.22800
C 	C 	0.56410 0.13180 0.78130 0.36800
C 	C 	0.72600 0.92621 0.71470 0.35500
C 	C 	0.72881 0.90280 0.77566 -0.11400
O 	O 	0.53330 0.58592 0.69261 -0.29800
O 	O 	0.68029 0.92733 0.68804 -0.30100
C 	C 	0.59110 0.13921 0.72085 -0.13600
C 	C 	0.65130 0.56514 0.88732 0.43400
C 	C 	0.52790 0.62480 0.71860 0.36500
C 	C 	0.56710 0.68349 0.86557 -0.14600
C 	C 	0.65020 0.10940 0.64081 -0.17000
O 	O 	0.56570 0.09260 0.80665 -0.30000
C 	C 	0.55670 0.73170 0.89620 0.44800
C 	C 	0.59370 0.23752 0.60440 0.46000
C 	C 	0.04370 0.86780 0.96850 0.17700
C 	C 	0.75680 0.91311 0.53044 0.06100
C 	C 	0.09190 0.88510 0.93400 -0.21500
H 	H 	0.09250 0.88460 0.89280 0.11500
O 	O 	0.70112 0.07314 0.56195 -0.48300
O 	O 	0.70445 0.03710 0.64889 -0.47800
C 	C 	0.68730 0.07030 0.61490 0.43900
C 	C 	0.75300 0.86980 0.56400 -0.10600
H 	H 	0.75130 0.87000 0.60510 0.06700
C 	C 	0.75190 0.82730 0.53200 -0.01600
H 	H 	0.75120 0.79760 0.55200 0.04000
C 	C 	0.13800 0.90310 0.96880 0.16300
H 	H 	0.17020 0.91560 0.94940 -0.00900
C 	C 	0.42240 0.86820 0.96910 0.04800
C 	C 	0.37780 0.88970 0.93630 -0.05700
H 	H 	0.37830 0.88950 0.89510 0.05200
C 	C 	0.33110 0.91190 0.96870 0.05500
H 	H 	0.30070 0.92640 0.94820 0.02100
C 	C 	0.58930 0.16060 0.02910 -0.05400
C 	C 	0.63940 0.14490 0.06410 -0.08100
C 	C 	0.68480 0.12760 0.03060 -0.02100
H 	H 	0.64040 0.14640 0.10520 0.04500
H 	H 	0.71710 0.11530 0.05010 0.02500
Zn	Zn	0.23468 0.01030 0.63038 1.22000
Zn	Zn	0.54193 0.33523 0.62781 1.22300
Zn	Zn	0.49675 0.17113 0.87269 1.22700
N 	N 	0.23848 0.03852 0.54829 -0.23100
O 	O 	0.22719 0.05625 0.69611 -0.44800
O 	O 	0.37504 0.16251 0.93984 -0.44900
O 	O 	0.33131 0.42853 0.93751 -0.47300
C 	C 	0.21800 0.12625 0.85989 -0.13200
O 	O 	0.16289 0.15693 0.93947 -0.45300
O 	O 	0.45828 0.82954 0.80341 -0.46400
O 	O 	0.43973 0.73431 0.62863 -0.51600
O 	O 	0.33570 0.47107 0.85528 -0.46600
C 	C 	0.36150 0.84763 0.60992 0.11000
H 	H 	0.34640 0.84350 0.57210 0.01600
O 	O 	0.41731 0.26020 0.94279 -0.45100
O 	O 	0.49694 0.33732 0.69738 -0.46400
O 	O 	0.11614 0.13307 0.85896 -0.48500
O 	O 	0.47691 0.24032 0.87087 -0.50300
O 	O 	0.42374 0.13815 0.86004 -0.47900
N 	N 	0.00695 0.15191 0.95092 -0.23600
C 	C 	0.32280 0.10898 0.80426 0.06400
H 	H 	0.35780 0.10320 0.78530 0.04500
O 	O 	0.37931 0.75419 0.55792 -0.47500
C 	C 	0.32260 0.12919 0.86039 -0.13100
C 	C 	0.39848 0.35317 0.89148 0.08500
H 	H 	0.38300 0.34860 0.92900 0.03600
C 	C 	0.26956 0.13723 0.88885 0.07200
H 	H 	0.26880 0.14990 0.92710 0.04700
C 	C 	0.38770 0.39671 0.86038 -0.14600
C 	C 	0.16090 0.13975 0.88890 0.42400
C 	C 	0.45730 0.32405 0.80970 0.07700
H 	H 	0.48050 0.30000 0.79290 0.04000
C 	C 	0.21930 0.10540 0.80408 0.06800
H 	H 	0.18490 0.09680 0.78550 0.04300
C 	C 	0.37800 0.14425 0.88990 0.41700
C 	C 	0.39520 0.81091 0.63453 -0.17000
C 	C 	0.41820 0.81758 0.69050 0.09300
H 	H 	0.44010 0.79290 0.70780 0.03400
C 	C 	0.37470 0.89711 0.69640 0.09200
H 	H 	0.36830 0.92600 0.71720 0.03500
C 	C 	0.44720 0.36735 0.77923 -0.12700
C 	C 	0.41180 0.40291 0.80393 0.07600
H 	H 	0.40390 0.43130 0.78270 0.03900
N 	N 	0.53154 0.15947 0.95110 -0.22800
C 	C 	0.43590 0.86820 0.78130 0.36800
C 	C 	0.27400 0.07379 0.71470 0.35500
C 	C 	0.27119 0.09720 0.77566 -0.11400
O 	O 	0.46670 0.41408 0.69261 -0.29800
O 	O 	0.31971 0.07267 0.68804 -0.30100
C 	C 	0.40890 0.86079 0.72085 -0.13600
C 	C 	0.34870 0.43486 0.88732 0.43400
C 	C 	0.47210 0.37520 0.71860 0.36500
C 	C 	0.43290 0.31651 0.86557 -0.14600
C 	C 	0.34980 0.89060 0.64081 -0.17000
O 	O 	0.43430 0.90740 0.80665 -0.30000
C 	C 	0.44330 0.26830 0.89620 0.44800
C 	C 	0.40630 0.76248 0.60440 0.46000
C 	C 	0.95630 0.13220 0.96850 0.17700
C 	C 	0.24320 0.08689 0.53044 0.06100
C 	C 	0.90810 0.11490 0.93400 -0.21500
H 	H 	0.90750 0.11540 0.89280 0.11500
O 	O 	0.29888 0.92686 0.56195 -0.48300
O 	O 	0.29555 0.96290 0.64889 -0.47800
C 	C 	0.31270 0.92970 0.61490 0.43900
C 	C 	0.24700 0.13020 0.56400 -0.10600
H 	H 	0.24870 0.13000 0.60510 0.06700
C 	C 	0.24810 0.17270 0.53200 -0.01600
H 	H 	0.24880 0.20240 0.55200 0.04000
C 	C 	0.86200 0.09690 0.96880 0.16300
H 	H 	0.82980 0.08440 0.94940 -0.00900
C 	C 	0.57760 0.13180 0.96910 0.04800
C 	C 	0.62220 0.11030 0.93630 -0.05700
H 	H 	0.62170 0.11050 0.89510 0.05200
C 	C 	0.66890 0.08810 0.96870 0.05500
H 	H 	0.69930 0.07360 0.94820 0.02100
C 	C 	0.41070 0.83940 0.02910 -0.05400
C 	C 	0.36060 0.85510 0.06410 -0.08100
C 	C 	0.31520 0.87240 0.03060 -0.02100
H 	H 	0.35960 0.85360 0.10520 0.04500
H 	H 	0.28290 0.88470 0.05010 0.02500
Zn	Zn	0.73468 0.48970 0.86962 1.22200
Zn	Zn	0.04193 0.16477 0.87219 1.22500
Zn	Zn	0.99675 0.32887 0.62731 1.22500
N 	N 	0.73848 0.46148 0.95171 -0.22600
O 	O 	0.72719 0.44375 0.80389 -0.44700
O 	O 	0.87504 0.33749 0.56016 -0.47500
O 	O 	0.83131 0.07147 0.56249 -0.49900
C 	C 	0.71800 0.37375 0.64011 -0.14300
O 	O 	0.66289 0.34307 0.56053 -0.47900
O 	O 	0.95828 0.67046 0.69659 -0.46500
O 	O 	0.93973 0.76569 0.87137 -0.50800
O 	O 	0.83570 0.02893 0.64472 -0.47200
C 	C 	0.86150 0.65237 0.89008 0.10200
H 	H 	0.84640 0.65650 0.92790 0.03000
O 	O 	0.91731 0.23980 0.55721 -0.47700
O 	O 	0.99694 0.16268 0.80262 -0.46300
O 	O 	0.61614 0.36693 0.64104 -0.49100
O 	O 	0.97691 0.25968 0.62913 -0.51000
O 	O 	0.92374 0.36185 0.63996 -0.48500
N 	N 	0.50695 0.34809 0.54908 -0.24300
C 	C 	0.82280 0.39102 0.69574 0.06900
H 	H 	0.85780 0.39680 0.71470 0.04400
O 	O 	0.87931 0.74581 0.94208 -0.44800
C 	C 	0.82260 0.37081 0.63961 -0.14200
C 	C 	0.89848 0.14683 0.60852 0.09200
H 	H 	0.88300 0.15140 0.57100 0.02200
C 	C 	0.76956 0.36277 0.61115 0.07900
H 	H 	0.76880 0.35010 0.57290 0.03400
C 	C 	0.88770 0.10329 0.63962 -0.15700
C 	C 	0.66090 0.36025 0.61110 0.43000
C 	C 	0.95730 0.17595 0.69030 0.08200
H 	H 	0.98050 0.20000 0.70710 0.03800
C 	C 	0.71930 0.39460 0.69592 0.07200
H 	H 	0.68490 0.40320 0.71450 0.04100
C 	C 	0.87800 0.35575 0.61010 0.42300
C 	C 	0.89520 0.68909 0.86547 -0.15800
C 	C 	0.91820 0.68242 0.80950 0.08700
H 	H 	0.94010 0.70710 0.79220 0.03700
C 	C 	0.87470 0.60289 0.80360 0.08700
H 	H 	0.86830 0.57400 0.78280 0.03700
C 	C 	0.94720 0.13265 0.72077 -0.13100
C 	C 	0.91180 0.09709 0.69607 0.08100
H 	H 	0.90390 0.06870 0.71730 0.03700
N 	N 	0.03154 0.34053 0.54890 -0.24200
C 	C 	0.93590 0.63180 0.71870 0.36800
C 	C 	0.77400 0.42621 0.78530 0.35400
C 	C 	0.77119 0.40280 0.72434 -0.11800
O 	O 	0.96670 0.08592 0.80739 -0.29600
O 	O 	0.81971 0.42733 0.81196 -0.29800
C 	C 	0.90890 0.63921 0.77915 -0.13100
C 	C 	0.84870 0.06514 0.61268 0.44100
C 	C 	0.97210 0.12480 0.78140 0.36600
C 	C 	0.93290 0.18349 0.63443 -0.15700
C 	C 	0.84980 0.60940 0.85919 -0.15800
O 	O 	0.93430 0.59260 0.69335 -0.30200
C 	C 	0.94330 0.23170 0.60380 0.45400
C 	C 	0.90630 0.73752 0.89560 0.45500
C 	C 	0.45630 0.36780 0.53150 0.06600
C 	C 	0.74320 0.41311 0.96956 0.20000
C 	C 	0.40810 0.38510 0.56600 -0.10900
H 	H 	0.40750 0.38460 0.60720 0.07400
O 	O 	0.79888 0.57314 0.93805 -0.45600
O 	O 	0.79555 0.53710 0.85111 -0.47300
C 	C 	0.81270 0.57030 0.88510 0.43200
C 	C 	0.74700 0.36980 0.93600 -0.24900
H 	H 	0.74870 0.37000 0.89490 0.12100
C 	C 	0.74810 0.32730 0.96800 0.19400
H 	H 	0.74880 0.29760 0.94800 -0.02000
C 	C 	0.36200 0.40310 0.53120 -0.01800
H 	H 	0.32980 0.41560 0.55060 0.04000
C 	C 	0.07760 0.36820 0.53090 0.03600
C 	C 	0.12220 0.38970 0.56370 -0.01600
H 	H 	0.12170 0.38950 0.60490 0.03600
C 	C 	0.16890 0.41190 0.53130 -0.04500
H 	H 	0.19930 0.42640 0.55180 0.04400
C 	C 	0.91070 0.66060 0.47090 0.02200
C 	C 	0.86060 0.64490 0.43590 -0.09400
C 	C 	0.81520 0.62760 0.46940 0.00600
H 	H 	0.85960 0.64640 0.39480 0.05000
H 	H 	0.78290 0.61530 0.44990 0.02300
Zn	Zn	0.26532 0.51030 0.86962 1.22200
Zn	Zn	0.95807 0.83523 0.87219 1.22500
Zn	Zn	0.00325 0.67113 0.62731 1.22500
N 	N 	0.26152 0.53852 0.95171 -0.22600
O 	O 	0.27281 0.55625 0.80389 -0.44700
O 	O 	0.12496 0.66251 0.56016 -0.47500
O 	O 	0.16869 0.92853 0.56249 -0.49900
C 	C 	0.28200 0.62625 0.64011 -0.14300
O 	O 	0.33711 0.65693 0.56053 -0.47900
O 	O 	0.04172 0.32954 0.69659 -0.46500
O 	O 	0.06027 0.23431 0.87137 -0.50800
O 	O 	0.16430 0.97107 0.64472 -0.47200
C 	C 	0.13850 0.34763 0.89008 0.10200
H 	H 	0.15360 0.34350 0.92790 0.03000
O 	O 	0.08269 0.76020 0.55721 -0.47700
O 	O 	0.00306 0.83732 0.80262 -0.46300
O 	O 	0.38386 0.63307 0.64104 -0.49100
O 	O 	0.02309 0.74032 0.62913 -0.51000
O 	O 	0.07626 0.63815 0.63996 -0.48500
N 	N 	0.49305 0.65191 0.54908 -0.24300
C 	C 	0.17720 0.60898 0.69574 0.06900
H 	H 	0.14220 0.60320 0.71470 0.04400
O 	O 	0.12069 0.25419 0.94208 -0.44800
C 	C 	0.17740 0.62919 0.63961 -0.14200
C 	C 	0.10152 0.85317 0.60852 0.09200
H 	H 	0.11700 0.84860 0.57100 0.02200
C 	C 	0.23044 0.63723 0.61115 0.07900
H 	H 	0.23120 0.64990 0.57290 0.03400
C 	C 	0.11230 0.89671 0.63962 -0.15700
C 	C 	0.33910 0.63975 0.61110 0.43000
C 	C 	0.04270 0.82405 0.69030 0.08200
H 	H 	0.01950 0.80000 0.70710 0.03800
C 	C 	0.28070 0.60540 0.69592 0.07200
H 	H 	0.31510 0.59680 0.71450 0.04100
C 	C 	0.12200 0.64425 0.61010 0.42300
C 	C 	0.10480 0.31091 0.86547 -0.15800
C 	C 	0.08180 0.31758 0.80950 0.08700
H 	H 	0.05990 0.29290 0.79220 0.03700
C 	C 	0.12530 0.39711 0.80360 0.08700
H 	H 	0.13170 0.42600 0.78280 0.03700
C 	C 	0.05280 0.86735 0.72077 -0.13100
C 	C 	0.08820 0.90291 0.69607 0.08100
H 	H 	0.09610 0.93130 0.71730 0.03700
N 	N 	0.96846 0.65947 0.54890 -0.24200
C 	C 	0.06410 0.36820 0.71870 0.36800
C 	C 	0.22600 0.57379 0.78530 0.35400
C 	C 	0.22881 0.59720 0.72434 -0.11800
O 	O 	0.03330 0.91408 0.80739 -0.29600
O 	O 	0.18029 0.57267 0.81196 -0.29800
C 	C 	0.09110 0.36079 0.77915 -0.13100
C 	C 	0.15130 0.93486 0.61268 0.44100
C 	C 	0.02790 0.87520 0.78140 0.36600
C 	C 	0.06710 0.81651 0.63443 -0.15700
C 	C 	0.15020 0.39060 0.85919 -0.15800
O 	O 	0.06570 0.40740 0.69335 -0.30200
C 	C 	0.05670 0.76830 0.60380 0.45400
C 	C 	0.09370 0.26248 0.89560 0.45500
C 	C 	0.54370 0.63220 0.53150 0.06600
C 	C 	0.25680 0.58689 0.96956 0.20000
C 	C 	0.59190 0.61490 0.56600 -0.10900
H 	H 	0.59250 0.61540 0.60720 0.07400
O 	O 	0.20112 0.42686 0.93805 -0.45600
O 	O 	0.20445 0.46290 0.85111 -0.47300
C 	C 	0.18730 0.42970 0.88510 0.43200
C 	C 	0.25300 0.63020 0.93600 -0.24900
H 	H 	0.25130 0.63000 0.89490 0.12100
C 	C 	0.25190 0.67270 0.96800 0.19400
H 	H 	0.25120 0.70240 0.94800 -0.02000
C 	C 	0.63800 0.59690 0.53120 -0.01800
H 	H 	0.67020 0.58440 0.55060 0.04000
C 	C 	0.92240 0.63180 0.53090 0.03600
C 	C 	0.87780 0.61030 0.56370 -0.01600
H 	H 	0.87830 0.61050 0.60490 0.03600
C 	C 	0.83110 0.58810 0.53130 -0.04500
H 	H 	0.80070 0.57360 0.55180 0.04400
C 	C 	0.08930 0.33940 0.47090 0.02200
C 	C 	0.13940 0.35510 0.43590 -0.09400
C 	C 	0.18480 0.37240 0.46940 0.00600
H 	H 	0.14040 0.35360 0.39480 0.05000
H 	H 	0.21710 0.38470 0.44990 0.02300
Zn	Zn	0.23468 0.01030 0.36962 1.22000
Zn	Zn	0.54193 0.33523 0.37219 1.22300
Zn	Zn	0.49675 0.17113 0.12731 1.22400
N 	N 	0.23848 0.03852 0.45171 -0.23100
O 	O 	0.22719 0.05625 0.30389 -0.45000
O 	O 	0.37504 0.16251 0.06016 -0.49200
O 	O 	0.33131 0.42853 0.06249 -0.51600
C 	C 	0.21800 0.12625 0.14011 -0.15400
O 	O 	0.16289 0.15693 0.06053 -0.49500
O 	O 	0.45828 0.82954 0.19659 -0.46700
O 	O 	0.43973 0.73431 0.37137 -0.51700
O 	O 	0.33570 0.47107 0.14472 -0.47700
C 	C 	0.36150 0.84763 0.39008 0.11100
H 	H 	0.34640 0.84350 0.42790 0.01500
O 	O 	0.41731 0.26020 0.05721 -0.49500
O 	O 	0.49694 0.33732 0.30262 -0.46600
O 	O 	0.11614 0.13307 0.14104 -0.49600
O 	O 	0.47691 0.24032 0.12913 -0.51500
O 	O 	0.42374 0.13815 0.13996 -0.49000
N 	N 	0.00695 0.15191 0.04908 -0.23100
C 	C 	0.32280 0.10898 0.19574 0.07500
H 	H 	0.35780 0.10320 0.21470 0.04000
O 	O 	0.37931 0.75419 0.44208 -0.47500
C 	C 	0.32260 0.12919 0.13961 -0.15300
C 	C 	0.39848 0.35317 0.10852 0.09800
H 	H 	0.38300 0.34860 0.07100 0.00800
C 	C 	0.26956 0.13723 0.11115 0.08600
H 	H 	0.26880 0.14990 0.07290 0.02100
C 	C 	0.38770 0.39671 0.13962 -0.16800
C 	C 	0.16090 0.13975 0.11110 0.43400
C 	C 	0.45730 0.32405 0.19030 0.08700
H 	H 	0.48050 0.30000 0.20710 0.03500
C 	C 	0.21930 0.10540 0.19592 0.07800
H 	H 	0.18490 0.09680 0.21450 0.03700
C 	C 	0.37800 0.14425 0.11010 0.42600
C 	C 	0.39520 0.81091 0.36547 -0.17100
C 	C 	0.41820 0.81758 0.30950 0.09400
H 	H 	0.44010 0.79290 0.29220 0.03300
C 	C 	0.37470 0.89711 0.30360 0.09300
H 	H 	0.36830 0.92600 0.28280 0.03300
C 	C 	0.44720 0.36735 0.22077 -0.13800
C 	C 	0.41180 0.40291 0.19607 0.08600
H 	H 	0.40390 0.43130 0.21730 0.03400
N 	N 	0.53154 0.15947 0.04890 -0.23700
C 	C 	0.43590 0.86820 0.21870 0.37000
C 	C 	0.27400 0.07379 0.28530 0.35800
C 	C 	0.27119 0.09720 0.22434 -0.12500
O 	O 	0.46670 0.41408 0.30739 -0.30000
O 	O 	0.31971 0.07267 0.31196 -0.30300
C 	C 	0.40890 0.86079 0.27915 -0.13900
C 	C 	0.34870 0.43486 0.11268 0.44500
C 	C 	0.47210 0.37520 0.28140 0.36800
C 	C 	0.43290 0.31651 0.13443 -0.16800
C 	C 	0.34980 0.89060 0.35919 -0.17100
O 	O 	0.43430 0.90740 0.19335 -0.30600
C 	C 	0.44330 0.26830 0.10380 0.45800
C 	C 	0.40630 0.76248 0.39560 0.46100
C 	C 	0.95630 0.13220 0.03150 -0.04200
C 	C 	0.24320 0.08689 0.46956 0.06100
C 	C 	0.90810 0.11490 0.06600 -0.00200
H 	H 	0.90750 0.11540 0.10720 0.03400
O 	O 	0.29888 0.92686 0.43805 -0.48300
O 	O 	0.29555 0.96290 0.35111 -0.47900
C 	C 	0.31270 0.92970 0.38510 0.43900
C 	C 	0.24700 0.13020 0.43600 -0.10600
H 	H 	0.24870 0.13000 0.39490 0.06700
C 	C 	0.24810 0.17270 0.46800 -0.01600
H 	H 	0.24880 0.20240 0.44800 0.04000
C 	C 	0.86200 0.09690 0.03120 -0.19800
H 	H 	0.82980 0.08440 0.05060 0.08900
C 	C 	0.57760 0.13180 0.03090 0.02900
C 	C 	0.62220 0.11030 0.06370 0.01500
H 	H 	0.62170 0.11050 0.10490 0.02300
C 	C 	0.66890 0.08810 0.03130 -0.14000
H 	H 	0.69930 0.07360 0.05180 0.06500
C 	C 	0.41070 0.83940 0.97090 0.09700
C 	C 	0.36060 0.85510 0.93590 -0.09700
C 	C 	0.31520 0.87240 0.96940 0.02800
H 	H 	0.35960 0.85360 0.89480 0.05300
H 	H 	0.28290 0.88470 0.94990 0.02300
Zn	Zn	0.76532 0.98970 0.36962 1.22000
Zn	Zn	0.45807 0.66477 0.37219 1.22300
Zn	Zn	0.50325 0.82887 0.12731 1.22400
N 	N 	0.76152 0.96148 0.45171 -0.23100
O 	O 	0.77281 0.94375 0.30389 -0.45000
O 	O 	0.62496 0.83749 0.06016 -0.49200
O 	O 	0.66869 0.57147 0.06249 -0.51600
C 	C 	0.78200 0.87375 0.14011 -0.15400
O 	O 	0.83711 0.84307 0.06053 -0.49500
O 	O 	0.54172 0.17046 0.19659 -0.46700
O 	O 	0.56027 0.26569 0.37137 -0.51700
O 	O 	0.66430 0.52893 0.14472 -0.47700
C 	C 	0.63850 0.15237 0.39008 0.11100
H 	H 	0.65360 0.15650 0.42790 0.01500
O 	O 	0.58269 0.73980 0.05721 -0.49500
O 	O 	0.50306 0.66268 0.30262 -0.46600
O 	O 	0.88386 0.86693 0.14104 -0.49600
O 	O 	0.52309 0.75968 0.12913 -0.51500
O 	O 	0.57626 0.86185 0.13996 -0.49000
N 	N 	0.99305 0.84809 0.04908 -0.23100
C 	C 	0.67720 0.89102 0.19574 0.07500
H 	H 	0.64220 0.89680 0.21470 0.04000
O 	O 	0.62069 0.24581 0.44208 -0.47500
C 	C 	0.67740 0.87081 0.13961 -0.15300
C 	C 	0.60152 0.64683 0.10852 0.09800
H 	H 	0.61700 0.65140 0.07100 0.00800
C 	C 	0.73044 0.86277 0.11115 0.08600
H 	H 	0.73120 0.85010 0.07290 0.02100
C 	C 	0.61230 0.60329 0.13962 -0.16800
C 	C 	0.83910 0.86025 0.11110 0.43400
C 	C 	0.54270 0.67595 0.19030 0.08700
H 	H 	0.51950 0.70000 0.20710 0.03500
C 	C 	0.78070 0.89460 0.19592 0.07800
H 	H 	0.81510 0.90320 0.21450 0.03700
C 	C 	0.62200 0.85575 0.11010 0.42600
C 	C 	0.60480 0.18909 0.36547 -0.17100
C 	C 	0.58180 0.18242 0.30950 0.09400
H 	H 	0.55990 0.20710 0.29220 0.03300
C 	C 	0.62530 0.10289 0.30360 0.09300
H 	H 	0.63170 0.07400 0.28280 0.03300
C 	C 	0.55280 0.63265 0.22077 -0.13800
C 	C 	0.58820 0.59709 0.19607 0.08600
H 	H 	0.59610 0.56870 0.21730 0.03400
N 	N 	0.46846 0.84053 0.04890 -0.23700
C 	C 	0.56410 0.13180 0.21870 0.37000
C 	C 	0.72600 0.92621 0.28530 0.35800
C 	C 	0.72881 0.90280 0.22434 -0.12500
O 	O 	0.53330 0.58592 0.30739 -0.30000
O 	O 	0.68029 0.92733 0.31196 -0.30300
C 	C 	0.59110 0.13921 0.27915 -0.13900
C 	C 	0.65130 0.56514 0.11268 0.44500
C 	C 	0.52790 0.62480 0.28140 0.36800
C 	C 	0.56710 0.68349 0.13443 -0.16800
C 	C 	0.65020 0.10940 0.35919 -0.17100
O 	O 	0.56570 0.09260 0.19335 -0.30600
C 	C 	0.55670 0.73170 0.10380 0.45800
C 	C 	0.59370 0.23752 0.39560 0.46100
C 	C 	0.04370 0.86780 0.03150 -0.04200
C 	C 	0.75680 0.91311 0.46956 0.06100
C 	C 	0.09190 0.88510 0.06600 -0.00200
H 	H 	0.09250 0.88460 0.10720 0.03400
O 	O 	0.70112 0.07314 0.43805 -0.48300
O 	O 	0.70445 0.03710 0.35111 -0.47900
C 	C 	0.68730 0.07030 0.38510 0.43900
C 	C 	0.75300 0.86980 0.43600 -0.10600
H 	H 	0.75130 0.87000 0.39490 0.06700
C 	C 	0.75190 0.82730 0.46800 -0.01600
H 	H 	0.75120 0.79760 0.44800 0.04000
C 	C 	0.13800 0.90310 0.03120 -0.19800
H 	H 	0.17020 0.91560 0.05060 0.08900
C 	C 	0.42240 0.86820 0.03090 0.02900
C 	C 	0.37780 0.88970 0.06370 0.01500
H 	H 	0.37830 0.88950 0.10490 0.02300
C 	C 	0.33110 0.91190 0.03130 -0.14000
H 	H 	0.30070 0.92640 0.05180 0.06500
C 	C 	0.58930 0.16060 0.97090 0.09700
C 	C 	0.63940 0.14490 0.93590 -0.09700
C 	C 	0.68480 0.12760 0.96940 0.02800
H 	H 	0.64040 0.14640 0.89480 0.05300
H 	H 	0.71710 0.11530 0.94990 0.02300
Zn	Zn	0.26532 0.51030 0.13038 1.21900
Zn	Zn	0.95807 0.83523 0.12781 1.22200
Zn	Zn	0.00325 0.67113 0.37269 1.22500
N 	N 	0.26152 0.53852 0.04829 -0.21600
O 	O 	0.27281 0.55625 0.19611 -0.45000
O 	O 	0.12496 0.66251 0.43984 -0.47600
O 	O 	0.16869 0.92853 0.43751 -0.50000
C 	C 	0.28200 0.62625 0.35989 -0.14500
O 	O 	0.33711 0.65693 0.43947 -0.47900
O 	O 	0.04172 0.32954 0.30341 -0.46600
O 	O 	0.06027 0.23431 0.12863 -0.52200
O 	O 	0.16430 0.97107 0.35528 -0.47300
C 	C 	0.13850 0.34763 0.10992 0.11800
H 	H 	0.15360 0.34350 0.07210 0.00200
O 	O 	0.08269 0.76020 0.44279 -0.47800
O 	O 	0.00306 0.83732 0.19738 -0.46600
O 	O 	0.38386 0.63307 0.35896 -0.49200
O 	O 	0.02309 0.74032 0.37087 -0.51100
O 	O 	0.07626 0.63815 0.36004 -0.48700
N 	N 	0.49305 0.65191 0.45092 -0.24300
C 	C 	0.17720 0.60898 0.30426 0.07100
H 	H 	0.14220 0.60320 0.28530 0.04100
O 	O 	0.12069 0.25419 0.05792 -0.49200
C 	C 	0.17740 0.62919 0.36039 -0.14400
C 	C 	0.10152 0.85317 0.39148 0.09300
H 	H 	0.11700 0.84860 0.42900 0.02100
C 	C 	0.23044 0.63723 0.38885 0.08100
H 	H 	0.23120 0.64990 0.42710 0.03300
C 	C 	0.11230 0.89671 0.36038 -0.15900
C 	C 	0.33910 0.63975 0.38890 0.43100
C 	C 	0.04270 0.82405 0.30970 0.08300
H 	H 	0.01950 0.80000 0.29290 0.03700
C 	C 	0.28070 0.60540 0.30408 0.07500
H 	H 	0.31510 0.59680 0.28550 0.03900
C 	C 	0.12200 0.64425 0.38990 0.42300
C 	C 	0.10480 0.31091 0.13453 -0.18100
C 	C 	0.08180 0.31758 0.19050 0.09800
H 	H 	0.05990 0.29290 0.20780 0.03100
C 	C 	0.12530 0.39711 0.19640 0.09700
H 	H 	0.13170 0.42600 0.21720 0.03100
C 	C 	0.05280 0.86735 0.27923 -0.13400
C 	C 	0.08820 0.90291 0.30393 0.08200
H 	H 	0.09610 0.93130 0.28270 0.03500
N 	N 	0.96846 0.65947 0.45110 -0.24200
C 	C 	0.06410 0.36820 0.28130 0.37000
C 	C 	0.22600 0.57379 0.21470 0.35900
C 	C 	0.22881 0.59720 0.27566 -0.12200
O 	O 	0.03330 0.91408 0.19261 -0.30000
O 	O 	0.18029 0.57267 0.18804 -0.30500
C 	C 	0.09110 0.36079 0.22085 -0.14300
C 	C 	0.15130 0.93486 0.38732 0.44100
C 	C 	0.02790 0.87520 0.21860 0.36800
C 	C 	0.06710 0.81651 0.36557 -0.15800
C 	C 	0.15020 0.39060 0.14081 -0.18100
O 	O 	0.06570 0.40740 0.30665 -0.30400
C 	C 	0.05670 0.76830 0.39620 0.45400
C 	C 	0.09370 0.26248 0.10440 0.46400
C 	C 	0.54370 0.63220 0.46850 0.06600
C 	C 	0.25680 0.58689 0.03044 -0.07600
C 	C 	0.59190 0.61490 0.43400 -0.10900
H 	H 	0.59250 0.61540 0.39280 0.07400
O 	O 	0.20112 0.42686 0.06195 -0.50000
O 	O 	0.20445 0.46290 0.14889 -0.48200
C 	C 	0.18730 0.42970 0.11490 0.44300
C 	C 	0.25300 0.63020 0.06400 0.03700
H 	H 	0.25130 0.63000 0.10510 0.01400
C 	C 	0.25190 0.67270 0.03200 -0.22500
H 	H 	0.25120 0.70240 0.05200 0.09900
C 	C 	0.63800 0.59690 0.46880 -0.01800
H 	H 	0.67020 0.58440 0.44940 0.04000
C 	C 	0.92240 0.63180 0.46910 0.03700
C 	C 	0.87780 0.61030 0.43630 -0.01600
H 	H 	0.87830 0.61050 0.39510 0.03600
C 	C 	0.83110 0.58810 0.46870 -0.04500
H 	H 	0.80070 0.57360 0.44820 0.04400
C 	C 	0.08930 0.33940 0.52910 0.02300
C 	C 	0.13940 0.35510 0.56410 -0.09400
C 	C 	0.18480 0.37240 0.53060 0.00500
H 	H 	0.14040 0.35360 0.60520 0.05000
H 	H 	0.21710 0.38470 0.55010 0.02400
Zn	Zn	0.73468 0.48970 0.13038 1.21900
Zn	Zn	0.04193 0.16477 0.12781 1.22200
Zn	Zn	0.99675 0.32887 0.37269 1.22500
N 	N 	0.73848 0.46148 0.04829 -0.21600
O 	O 	0.72719 0.44375 0.19611 -0.45000
O 	O 	0.87504 0.33749 0.43984 -0.47600
O 	O 	0.83131 0.07147 0.43751 -0.50000
C 	C 	0.71800 0.37375 0.35989 -0.14500
O 	O 	0.66289 0.34307 0.43947 -0.47900
O 	O 	0.95828 0.67046 0.30341 -0.46600
O 	O 	0.93973 0.76569 0.12863 -0.52200
O 	O 	0.83570 0.02893 0.35528 -0.47300
C 	C 	0.86150 0.65237 0.10992 0.11800
H 	H 	0.84640 0.65650 0.07210 0.00200
O 	O 	0.91731 0.23980 0.44279 -0.47800
O 	O 	0.99694 0.16268 0.19738 -0.46600
O 	O 	0.61614 0.36693 0.35896 -0.49200
O 	O 	0.97691 0.25968 0.37087 -0.51100
O 	O 	0.92374 0.36185 0.36004 -0.48700
N 	N 	0.50695 0.34809 0.45092 -0.24300
C 	C 	0.82280 0.39102 0.30426 0.07100
H 	H 	0.85780 0.39680 0.28530 0.04100
O 	O 	0.87931 0.74581 0.05792 -0.49200
C 	C 	0.82260 0.37081 0.36039 -0.14400
C 	C 	0.89848 0.14683 0.39148 0.09300
H 	H 	0.88300 0.15140 0.42900 0.02100
C 	C 	0.76956 0.36277 0.38885 0.08100
H 	H 	0.76880 0.35010 0.42710 0.03300
C 	C 	0.88770 0.10329 0.36038 -0.15900
C 	C 	0.66090 0.36025 0.38890 0.43100
C 	C 	0.95730 0.17595 0.30970 0.08300
H 	H 	0.98050 0.20000 0.29290 0.03700
C 	C 	0.71930 0.39460 0.30408 0.07500
H 	H 	0.68490 0.40320 0.28550 0.03900
C 	C 	0.87800 0.35575 0.38990 0.42300
C 	C 	0.89520 0.68909 0.13453 -0.18100
C 	C 	0.91820 0.68242 0.19050 0.09800
H 	H 	0.94010 0.70710 0.20780 0.03100
C 	C 	0.87470 0.60289 0.19640 0.09700
H 	H 	0.86830 0.57400 0.21720 0.03100
C 	C 	0.94720 0.13265 0.27923 -0.13400
C 	C 	0.91180 0.09709 0.30393 0.08200
H 	H 	0.90390 0.06870 0.28270 0.03500
N 	N 	0.03154 0.34053 0.45110 -0.24200
C 	C 	0.93590 0.63180 0.28130 0.37000
C 	C 	0.77400 0.42621 0.21470 0.35900
C 	C 	0.77119 0.40280 0.27566 -0.12200
O 	O 	0.96670 0.08592 0.19261 -0.30000
O 	O 	0.81971 0.42733 0.18804 -0.30500
C 	C 	0.90890 0.63921 0.22085 -0.14300
C 	C 	0.84870 0.06514 0.38732 0.44100
C 	C 	0.97210 0.12480 0.21860 0.36800
C 	C 	0.93290 0.18349 0.36557 -0.15800
C 	C 	0.84980 0.60940 0.14081 -0.18100
O 	O 	0.93430 0.59260 0.30665 -0.30400
C 	C 	0.94330 0.23170 0.39620 0.45400
C 	C 	0.90630 0.73752 0.10440 0.46400
C 	C 	0.45630 0.36780 0.46850 0.06600
C 	C 	0.74320 0.41311 0.03044 -0.07600
C 	C 	0.40810 0.38510 0.43400 -0.10900
H 	H 	0.40750 0.38460 0.39280 0.07400
O 	O 	0.79888 0.57314 0.06195 -0.50000
O 	O 	0.79555 0.53710 0.14889 -0.48200
C 	C 	0.81270 0.57030 0.11490 0.44300
C 	C 	0.74700 0.36980 0.06400 0.03700
H 	H 	0.74870 0.37000 0.10510 0.01400
C 	C 	0.74810 0.32730 0.03200 -0.22500
H 	H 	0.74880 0.29760 0.05200 0.09900
C 	C 	0.36200 0.40310 0.46880 -0.01800
H 	H 	0.32980 0.41560 0.44940 0.04000
C 	C 	0.07760 0.36820 0.46910 0.03700
C 	C 	0.12220 0.38970 0.43630 -0.01600
H 	H 	0.12170 0.38950 0.39510 0.03600
C 	C 	0.16890 0.41190 0.46870 -0.04500
H 	H 	0.19930 0.42640 0.44820 0.04400
C 	C 	0.91070 0.66060 0.52910 0.02300
C 	C 	0.86060 0.64490 0.56410 -0.09400
C 	C 	0.81520 0.62760 0.53060 0.00500
H 	H 	0.85960 0.64640 0.60520 0.05000
H 	H 	0.78290 0.61530 0.55010 0.02400
Zn	Zn	0.58050 0.79654 -0.00000 1.20400
Zn	Zn	0.88157 0.80241 -0.00000 1.20300
Zn	Zn	0.73322 0.56886 -0.00000 1.20100
N 	N 	0.49930 0.82972 -0.00000 -0.23900
N 	N 	0.96330 0.83662 -0.00000 -0.23400
Zn	Zn	0.41950 0.20346 -0.00000 1.20400
Zn	Zn	0.11843 0.19759 -0.00000 1.20300
Zn	Zn	0.26678 0.43114 -0.00000 1.20100
N 	N 	0.50070 0.17028 -0.00000 -0.23900
N 	N 	0.03670 0.16338 -0.00000 -0.23400
Zn	Zn	0.91950 0.29654 0.50000 1.22000
Zn	Zn	0.61843 0.30241 0.50000 1.21900
Zn	Zn	0.76678 0.06886 0.50000 1.21700
N 	N 	0.00070 0.32972 0.50000 -0.20800
N 	N 	0.53670 0.33662 0.50000 -0.20300
Zn	Zn	0.08050 0.70346 0.50000 1.22000
Zn	Zn	0.38157 0.69759 0.50000 1.21900
Zn	Zn	0.23322 0.93114 0.50000 1.21700
N 	N 	0.99930 0.67028 0.50000 -0.20800
N 	N 	0.46330 0.66338 0.50000 -0.20300
N 	N 	0.76348 0.98939 0.50000 -0.17200
N 	N 	0.23652 0.01061 0.50000 -0.17200
N 	N 	0.73652 0.48939 -0.00000 -0.20200
N 	N 	0.26348 0.51061 -0.00000 -0.20200
