data_crystal

_cell_length_a 20.26900
_cell_length_b 20.26900
_cell_length_c 39.64500
_cell_angle_alpha 90.00000
_cell_angle_beta  90.00000
_cell_angle_gamma 90.00000

_symmetry_space_group_name_	'P 1'
_symmetry_space_group_name_H-M	'P 1'

loop_
_symmetry_equiv_pos_as_xyz
  x,y,z

loop_
_atom_site_label
_atom_site_type_symbol
_atom_site_fract_x
_atom_site_fract_y
_atom_site_fract_z
_atom_site_charge
Zn	Zn	0.83192 0.14543 0.70088 1.19800
Zn	Zn	0.16808 0.85457 0.20088 1.19800
Zn	Zn	0.85457 0.83192 0.95088 1.20000
Zn	Zn	0.14543 0.16808 0.45088 1.19700
Zn	Zn	0.16808 0.14543 0.29912 1.19700
Zn	Zn	0.83192 0.85457 0.79912 1.20000
Zn	Zn	0.14543 0.83192 0.04912 1.19900
Zn	Zn	0.85457 0.16808 0.54912 1.19900
Zn	Zn	0.83189 0.00000 0.75000 1.24600
Zn	Zn	0.16811 0.00000 0.25000 1.24600
Zn	Zn	-0.00000 0.83189 -0.00000 1.24500
Zn	Zn	0.00000 0.16811 0.50000 1.24600
H 	H 	0.83810 0.88660 0.66140 0.04400
H 	H 	0.85780 0.82370 0.61330 0.06500
H 	H 	0.89760 0.99180 0.56180 0.06200
H 	H 	0.87830 0.05390 0.61070 0.04400
H 	H 	0.89570 0.70370 0.52370 0.09700
H 	H 	0.93410 0.68050 0.42370 0.09200
H 	H 	0.92420 0.86460 0.46480 0.09900
H 	H 	0.84020 0.49320 0.53150 0.07900
H 	H 	0.83440 0.38310 0.54390 0.01600
H 	H 	0.94840 0.34020 0.46400 0.02300
H 	H 	0.96080 0.44860 0.45290 0.08300
H 	H 	0.01750 0.74080 0.33740 0.09300
H 	H 	0.06460 0.76040 0.28570 -0.00000
H 	H 	0.01520 0.95160 0.29290 0.02200
H 	H 	0.96730 0.93240 0.34470 0.08900
H 	H 	0.16190 0.11340 0.16140 0.00100
H 	H 	0.14220 0.17630 0.11330 0.09400
H 	H 	0.10240 0.00820 0.06180 0.09700
H 	H 	0.12170 0.94610 0.11070 -0.02100
H 	H 	0.10430 0.29630 0.02370 0.09400
H 	H 	0.06590 0.31950 0.92370 0.08800
H 	H 	0.07580 0.13540 0.96480 0.09100
H 	H 	0.15980 0.50680 0.03150 0.08000
H 	H 	0.16560 0.61690 0.04390 0.01100
H 	H 	0.05160 0.65980 0.96400 0.01400
H 	H 	0.03920 0.55140 0.95290 0.07900
H 	H 	0.98250 0.25920 0.83740 0.08900
H 	H 	0.93540 0.23960 0.78570 0.00600
H 	H 	0.98480 0.04840 0.79290 0.00400
H 	H 	0.03270 0.06760 0.84470 0.09400
H 	H 	0.11340 0.83810 0.91140 0.00200
H 	H 	0.17630 0.85780 0.86330 0.09800
H 	H 	0.00820 0.89760 0.81180 0.10100
H 	H 	0.94610 0.87830 0.86070 -0.01700
H 	H 	0.29630 0.89570 0.77370 0.09300
H 	H 	0.31950 0.93410 0.67370 0.09000
H 	H 	0.13540 0.92420 0.71480 0.09100
H 	H 	0.50680 0.84020 0.78150 0.07900
H 	H 	0.61690 0.83440 0.79390 0.01600
H 	H 	0.65980 0.94840 0.71400 0.02300
H 	H 	0.55140 0.96080 0.70290 0.08300
H 	H 	0.25920 0.01750 0.58740 0.09400
H 	H 	0.23960 0.06460 0.53570 -0.00200
H 	H 	0.04840 0.01520 0.54290 0.01200
H 	H 	0.06760 0.96730 0.59470 0.08600
H 	H 	0.88660 0.16190 0.41140 0.04300
H 	H 	0.82370 0.14220 0.36330 0.06200
H 	H 	0.99180 0.10240 0.31180 0.05900
H 	H 	0.05390 0.12170 0.36070 0.04000
H 	H 	0.70370 0.10430 0.27370 0.09300
H 	H 	0.68050 0.06590 0.17370 0.08700
H 	H 	0.86460 0.07580 0.21480 0.09600
H 	H 	0.49320 0.15980 0.28150 0.07700
H 	H 	0.38310 0.16560 0.29390 0.01400
H 	H 	0.34020 0.05160 0.21400 0.01700
H 	H 	0.44860 0.03920 0.20290 0.07600
H 	H 	0.74080 0.98250 0.08740 0.08700
H 	H 	0.76040 0.93540 0.03570 0.00800
H 	H 	0.95160 0.98480 0.04290 0.01400
H 	H 	0.93240 0.03270 0.09470 0.09700
H 	H 	0.16190 0.88660 0.33860 0.04300
H 	H 	0.14220 0.82370 0.38670 0.06200
H 	H 	0.10240 0.99180 0.43820 0.05900
H 	H 	0.12170 0.05390 0.38930 0.04000
H 	H 	0.10430 0.70370 0.47630 0.09300
H 	H 	0.06590 0.68050 0.57630 0.08700
H 	H 	0.07580 0.86460 0.53520 0.09600
H 	H 	0.15980 0.49320 0.46850 0.07700
H 	H 	0.16560 0.38310 0.45610 0.01400
H 	H 	0.05160 0.34020 0.53600 0.01700
H 	H 	0.03920 0.44860 0.54710 0.07600
H 	H 	0.98250 0.74080 0.66260 0.08800
H 	H 	0.93540 0.76040 0.71430 0.00800
H 	H 	0.98480 0.95160 0.70710 0.01400
H 	H 	0.03270 0.93240 0.65530 0.09800
H 	H 	0.83810 0.11340 0.83860 0.00100
H 	H 	0.85780 0.17630 0.88670 0.09900
H 	H 	0.89760 0.00820 0.93820 0.10300
H 	H 	0.87830 0.94610 0.88930 -0.01800
H 	H 	0.89570 0.29630 0.97630 0.08900
H 	H 	0.93410 0.31950 0.07630 0.08800
H 	H 	0.92420 0.13540 0.03520 0.08800
H 	H 	0.84020 0.50680 0.96850 0.07600
H 	H 	0.83440 0.61690 0.95610 0.01900
H 	H 	0.94840 0.65980 0.03600 0.02600
H 	H 	0.96080 0.55140 0.04710 0.08000
H 	H 	0.01750 0.25920 0.16260 0.09400
H 	H 	0.06460 0.23960 0.21430 -0.00200
H 	H 	0.01520 0.04840 0.20710 0.01200
H 	H 	0.96730 0.06760 0.15530 0.08600
H 	H 	0.88660 0.83810 0.08860 0.04400
H 	H 	0.82370 0.85780 0.13670 0.06400
H 	H 	0.99180 0.89760 0.18820 0.06200
H 	H 	0.05390 0.87830 0.13930 0.04400
H 	H 	0.70370 0.89570 0.22630 0.09700
H 	H 	0.68050 0.93410 0.32630 0.09200
H 	H 	0.86460 0.92420 0.28520 0.09900
H 	H 	0.49320 0.84020 0.21850 0.07900
H 	H 	0.38310 0.83440 0.20610 0.01600
H 	H 	0.34020 0.94840 0.28600 0.02300
H 	H 	0.44860 0.96080 0.29710 0.08300
H 	H 	0.74080 0.01750 0.41260 0.09300
H 	H 	0.76040 0.06460 0.46430 -0.00000
H 	H 	0.95160 0.01520 0.45710 0.02200
H 	H 	0.93240 0.96730 0.40530 0.08900
H 	H 	0.11340 0.16190 0.58860 0.00100
H 	H 	0.17630 0.14220 0.63670 0.09500
H 	H 	0.00820 0.10240 0.68820 0.09800
H 	H 	0.94610 0.12170 0.63930 -0.02100
H 	H 	0.29630 0.10430 0.72630 0.08900
H 	H 	0.31950 0.06590 0.82630 0.08500
H 	H 	0.13540 0.07580 0.78520 0.08700
H 	H 	0.50680 0.15980 0.71850 0.07700
H 	H 	0.61690 0.16560 0.70610 0.01400
H 	H 	0.65980 0.05160 0.78600 0.01700
H 	H 	0.55140 0.03920 0.79710 0.07600
H 	H 	0.25920 0.98250 0.91260 0.09000
H 	H 	0.23960 0.93540 0.96430 0.00600
H 	H 	0.04840 0.98480 0.95710 0.00400
H 	H 	0.06760 0.03270 0.90530 0.09500
C 	C 	0.84388 0.01444 0.67218 0.36500
C 	C 	0.85580 0.97421 0.64040 -0.06300
C 	C 	0.85019 0.90760 0.64118 0.01300
C 	C 	0.86205 0.86985 0.61265 -0.08600
C 	C 	0.88077 0.90260 0.58249 0.04200
C 	C 	0.88593 0.97040 0.58192 -0.06400
C 	C 	0.87409 0.00774 0.61093 -0.03800
C 	C 	0.89277 0.86365 0.55212 -0.00000
C 	C 	0.90075 0.83150 0.52792 -0.04600
C 	C 	0.91096 0.78930 0.49908 0.11900
C 	C 	0.90600 0.72160 0.50244 -0.17400
C 	C 	0.91570 0.67960 0.47555 0.12100
C 	C 	0.92834 0.70780 0.44270 -0.16200
C 	C 	0.93183 0.77570 0.43967 0.10500
C 	C 	0.92264 0.81851 0.46737 -0.16200
C 	C 	0.90940 0.61520 0.47893 -0.05400
C 	C 	0.90750 0.55600 0.48310 -0.01300
C 	C 	0.89900 0.48330 0.49131 0.08000
C 	C 	0.86290 0.46250 0.51802 -0.14300
C 	C 	0.85970 0.39710 0.52537 0.06800
C 	C 	0.89244 0.35100 0.50626 -0.13400
C 	C 	0.92830 0.37170 0.47802 0.07100
C 	C 	0.93410 0.43480 0.47098 -0.13400
C 	C 	0.88950 0.27770 0.51641 0.39300
C 	C 	0.94820 0.80293 0.40655 -0.02500
C 	C 	0.96387 0.81853 0.37946 -0.03700
C 	C 	0.98873 0.83460 0.34572 0.12800
C 	C 	0.01760 0.78370 0.32837 -0.20000
C 	C 	0.04664 0.79580 0.29799 0.11300
C 	C 	0.05026 0.85740 0.28504 -0.17300
C 	C 	0.01694 0.90924 0.30245 0.06300
C 	C 	0.98776 0.89790 0.33275 -0.14100
C 	C 	0.08670 0.87380 0.25265 0.44100
C 	C 	0.15612 0.98556 0.17218 0.48200
C 	C 	0.14420 0.02579 0.14040 -0.23200
C 	C 	0.14981 0.09240 0.14118 0.13100
C 	C 	0.13795 0.13015 0.11265 -0.18700
C 	C 	0.11923 0.09740 0.08249 0.12300
C 	C 	0.11407 0.02960 0.08192 -0.22000
C 	C 	0.12591 0.99226 0.11093 0.15500
C 	C 	0.10723 0.13635 0.05212 -0.04500
C 	C 	0.09925 0.16850 0.02792 -0.03800
C 	C 	0.08904 0.21070 0.99908 0.11200
C 	C 	0.09400 0.27840 0.00244 -0.18200
C 	C 	0.08430 0.32040 0.97555 0.11900
C 	C 	0.07166 0.29220 0.94270 -0.16600
C 	C 	0.06817 0.22430 0.93967 0.10100
C 	C 	0.07736 0.18149 0.96737 -0.16400
C 	C 	0.09060 0.38480 0.97893 -0.05800
C 	C 	0.09250 0.44400 0.98310 -0.02100
C 	C 	0.10100 0.51670 0.99131 0.08600
C 	C 	0.13710 0.53750 0.01802 -0.15700
C 	C 	0.14030 0.60290 0.02537 0.07600
C 	C 	0.10756 0.64900 0.00626 -0.14700
C 	C 	0.07170 0.62830 0.97802 0.08000
C 	C 	0.06590 0.56520 0.97098 -0.14700
C 	C 	0.11050 0.72230 0.01641 0.39000
C 	C 	0.05180 0.19707 0.90655 -0.03500
C 	C 	0.03613 0.18147 0.87946 -0.04000
C 	C 	0.01127 0.16540 0.84572 0.10000
C 	C 	0.98240 0.21630 0.82837 -0.15600
C 	C 	0.95336 0.20420 0.79799 0.10700
C 	C 	0.94974 0.14260 0.78504 -0.18100
C 	C 	0.98306 0.09076 0.80245 0.11800
C 	C 	0.01224 0.10210 0.83275 -0.19100
C 	C 	0.91330 0.12620 0.75265 0.45000
C 	C 	0.98556 0.84388 0.92218 0.48100
C 	C 	0.02579 0.85580 0.89040 -0.22900
C 	C 	0.09240 0.85019 0.89118 0.13400
C 	C 	0.13015 0.86205 0.86265 -0.18600
C 	C 	0.09740 0.88077 0.83249 0.13000
C 	C 	0.02960 0.88593 0.83192 -0.21800
C 	C 	0.99226 0.87409 0.86093 0.15800
C 	C 	0.13635 0.89277 0.80212 -0.04300
C 	C 	0.16850 0.90075 0.77792 -0.02400
C 	C 	0.21070 0.91096 0.74908 0.10200
C 	C 	0.27840 0.90600 0.75244 -0.16300
C 	C 	0.32040 0.91570 0.72555 0.11400
C 	C 	0.29220 0.92834 0.69270 -0.15700
C 	C 	0.22430 0.93183 0.68967 0.09800
C 	C 	0.18149 0.92264 0.71737 -0.15300
C 	C 	0.38480 0.90940 0.72893 -0.05200
C 	C 	0.44400 0.90750 0.73310 -0.01400
C 	C 	0.51670 0.89900 0.74131 0.08000
C 	C 	0.53750 0.86290 0.76802 -0.14300
C 	C 	0.60290 0.85970 0.77537 0.06900
C 	C 	0.64900 0.89244 0.75626 -0.13300
C 	C 	0.62830 0.92830 0.72802 0.07200
C 	C 	0.56520 0.93410 0.72098 -0.13500
C 	C 	0.72230 0.88950 0.76641 0.39300
C 	C 	0.19707 0.94820 0.65655 -0.02300
C 	C 	0.18147 0.96387 0.62946 -0.04000
C 	C 	0.16540 0.98873 0.59572 0.13100
C 	C 	0.21630 0.01760 0.57837 -0.20400
C 	C 	0.20420 0.04664 0.54799 0.11700
C 	C 	0.14260 0.05026 0.53504 -0.17800
C 	C 	0.09076 0.01694 0.55245 0.06800
C 	C 	0.10210 0.98776 0.58275 -0.14600
C 	C 	0.12620 0.08670 0.50265 0.44600
C 	C 	0.01444 0.15612 0.42218 0.36500
C 	C 	0.97421 0.14420 0.39040 -0.06600
C 	C 	0.90760 0.14981 0.39118 0.01100
C 	C 	0.86985 0.13795 0.36265 -0.08900
C 	C 	0.90260 0.11923 0.33249 0.03800
C 	C 	0.97040 0.11407 0.33192 -0.06700
C 	C 	0.00774 0.12591 0.36093 -0.04000
C 	C 	0.86365 0.10723 0.30212 -0.00600
C 	C 	0.83150 0.09925 0.27792 -0.05100
C 	C 	0.78930 0.08904 0.24908 0.11400
C 	C 	0.72160 0.09400 0.25244 -0.17500
C 	C 	0.67960 0.08430 0.22555 0.11500
C 	C 	0.70780 0.07166 0.19270 -0.16500
C 	C 	0.77570 0.06817 0.18967 0.10200
C 	C 	0.81851 0.07736 0.21737 -0.16500
C 	C 	0.61520 0.09060 0.22893 -0.05800
C 	C 	0.55600 0.09250 0.23310 -0.02000
C 	C 	0.48330 0.10100 0.24131 0.07700
C 	C 	0.46250 0.13710 0.26802 -0.14600
C 	C 	0.39710 0.14030 0.27537 0.06700
C 	C 	0.35100 0.10756 0.25626 -0.13800
C 	C 	0.37170 0.07170 0.22802 0.06900
C 	C 	0.43480 0.06590 0.22098 -0.13900
C 	C 	0.27770 0.11050 0.26641 0.39200
C 	C 	0.80293 0.05180 0.15655 -0.03500
C 	C 	0.81853 0.03613 0.12946 -0.03700
C 	C 	0.83460 0.01127 0.09572 0.09600
C 	C 	0.78370 0.98240 0.07837 -0.15100
C 	C 	0.79580 0.95336 0.04799 0.10000
C 	C 	0.85740 0.94974 0.03504 -0.17300
C 	C 	0.90924 0.98306 0.05245 0.11200
C 	C 	0.89790 0.01224 0.08275 -0.18500
C 	C 	0.87380 0.91330 0.00265 0.43600
C 	C 	0.15612 0.01444 0.32782 0.36500
C 	C 	0.14420 0.97421 0.35960 -0.06600
C 	C 	0.14981 0.90760 0.35882 0.01100
C 	C 	0.13795 0.86985 0.38735 -0.08900
C 	C 	0.11923 0.90260 0.41751 0.03900
C 	C 	0.11407 0.97040 0.41808 -0.06800
C 	C 	0.12591 0.00774 0.38907 -0.04000
C 	C 	0.10723 0.86365 0.44788 -0.00600
C 	C 	0.09925 0.83150 0.47208 -0.05100
C 	C 	0.08904 0.78930 0.50092 0.11400
C 	C 	0.09400 0.72160 0.49756 -0.17500
C 	C 	0.08430 0.67960 0.52445 0.11500
C 	C 	0.07166 0.70780 0.55730 -0.16400
C 	C 	0.06817 0.77570 0.56033 0.10200
C 	C 	0.07736 0.81851 0.53263 -0.16500
C 	C 	0.09060 0.61520 0.52107 -0.05800
C 	C 	0.09250 0.55600 0.51690 -0.02000
C 	C 	0.10100 0.48330 0.50869 0.07700
C 	C 	0.13710 0.46250 0.48198 -0.14600
C 	C 	0.14030 0.39710 0.47463 0.06700
C 	C 	0.10756 0.35100 0.49374 -0.13800
C 	C 	0.07170 0.37170 0.52198 0.06900
C 	C 	0.06590 0.43480 0.52902 -0.13900
C 	C 	0.11050 0.27770 0.48359 0.39200
C 	C 	0.05180 0.80293 0.59345 -0.03500
C 	C 	0.03613 0.81853 0.62054 -0.03800
C 	C 	0.01127 0.83460 0.65428 0.09700
C 	C 	0.98240 0.78370 0.67163 -0.15300
C 	C 	0.95336 0.79580 0.70201 0.10300
C 	C 	0.94974 0.85740 0.71496 -0.17600
C 	C 	0.98306 0.90924 0.69755 0.11400
C 	C 	0.01224 0.89790 0.66725 -0.18700
C 	C 	0.91330 0.87380 0.74735 0.44500
C 	C 	0.84388 0.98556 0.82782 0.48300
C 	C 	0.85580 0.02579 0.85960 -0.23200
C 	C 	0.85019 0.09240 0.85882 0.13600
C 	C 	0.86205 0.13015 0.88735 -0.18900
C 	C 	0.88077 0.09740 0.91751 0.13400
C 	C 	0.88593 0.02960 0.91808 -0.22100
C 	C 	0.87409 0.99226 0.88907 0.16000
C 	C 	0.89277 0.13635 0.94788 -0.04800
C 	C 	0.90075 0.16850 0.97208 -0.01600
C 	C 	0.91096 0.21070 0.00092 0.08800
C 	C 	0.90600 0.27840 0.99756 -0.14800
C 	C 	0.91570 0.32040 0.02445 0.10400
C 	C 	0.92834 0.29220 0.05730 -0.15100
C 	C 	0.93183 0.22430 0.06033 0.09200
C 	C 	0.92264 0.18149 0.03263 -0.14500
C 	C 	0.90940 0.38480 0.02107 -0.04900
C 	C 	0.90750 0.44400 0.01690 -0.01500
C 	C 	0.89900 0.51670 0.00869 0.07300
C 	C 	0.86290 0.53750 0.98198 -0.13300
C 	C 	0.85970 0.60290 0.97463 0.06100
C 	C 	0.89244 0.64900 0.99374 -0.12600
C 	C 	0.92830 0.62830 0.02198 0.06200
C 	C 	0.93410 0.56520 0.02902 -0.12800
C 	C 	0.88950 0.72230 0.98359 0.39400
C 	C 	0.94820 0.19707 0.09345 -0.02100
C 	C 	0.96387 0.18147 0.12054 -0.04200
C 	C 	0.98873 0.16540 0.15428 0.13200
C 	C 	0.01760 0.21630 0.17163 -0.20500
C 	C 	0.04664 0.20420 0.20201 0.11800
C 	C 	0.05026 0.14260 0.21496 -0.17800
C 	C 	0.01694 0.09076 0.19755 0.06800
C 	C 	0.98776 0.10210 0.16725 -0.14700
C 	C 	0.08670 0.12620 0.24735 0.44600
C 	C 	0.01444 0.84388 0.07782 0.36500
C 	C 	0.97421 0.85580 0.10960 -0.06200
C 	C 	0.90760 0.85019 0.10882 0.01200
C 	C 	0.86985 0.86205 0.13735 -0.08600
C 	C 	0.90260 0.88077 0.16751 0.04200
C 	C 	0.97040 0.88593 0.16808 -0.06400
C 	C 	0.00774 0.87409 0.13907 -0.03900
C 	C 	0.86365 0.89277 0.19788 -0.00000
C 	C 	0.83150 0.90075 0.22208 -0.04700
C 	C 	0.78930 0.91096 0.25092 0.11900
C 	C 	0.72160 0.90600 0.24756 -0.17400
C 	C 	0.67960 0.91570 0.27445 0.12100
C 	C 	0.70780 0.92834 0.30730 -0.16200
C 	C 	0.77570 0.93183 0.31033 0.10500
C 	C 	0.81851 0.92264 0.28263 -0.16200
C 	C 	0.61520 0.90940 0.27107 -0.05400
C 	C 	0.55600 0.90750 0.26690 -0.01300
C 	C 	0.48330 0.89900 0.25869 0.08000
C 	C 	0.46250 0.86290 0.23198 -0.14300
C 	C 	0.39710 0.85970 0.22463 0.06800
C 	C 	0.35100 0.89244 0.24374 -0.13400
C 	C 	0.37170 0.92830 0.27198 0.07200
C 	C 	0.43480 0.93410 0.27902 -0.13400
C 	C 	0.27770 0.88950 0.23359 0.39300
C 	C 	0.80293 0.94820 0.34345 -0.02500
C 	C 	0.81853 0.96387 0.37054 -0.03700
C 	C 	0.83460 0.98873 0.40428 0.12800
C 	C 	0.78370 0.01760 0.42163 -0.20000
C 	C 	0.79580 0.04664 0.45201 0.11300
C 	C 	0.85740 0.05026 0.46496 -0.17300
C 	C 	0.90924 0.01694 0.44755 0.06300
C 	C 	0.89790 0.98776 0.41725 -0.14100
C 	C 	0.87380 0.08670 0.49735 0.44100
C 	C 	0.98556 0.15612 0.57782 0.48200
C 	C 	0.02579 0.14420 0.60960 -0.23300
C 	C 	0.09240 0.14981 0.60882 0.13300
C 	C 	0.13015 0.13795 0.63735 -0.18900
C 	C 	0.09740 0.11923 0.66751 0.12700
C 	C 	0.02960 0.11407 0.66808 -0.22200
C 	C 	0.99226 0.12591 0.63907 0.15700
C 	C 	0.13635 0.10723 0.69788 -0.05000
C 	C 	0.16850 0.09925 0.72208 -0.02900
C 	C 	0.21070 0.08904 0.75092 0.09700
C 	C 	0.27840 0.09400 0.74756 -0.16500
C 	C 	0.32040 0.08430 0.77445 0.10800
C 	C 	0.29220 0.07166 0.80730 -0.15900
C 	C 	0.22430 0.06817 0.81033 0.09500
C 	C 	0.18149 0.07736 0.78263 -0.15500
C 	C 	0.38480 0.09060 0.77107 -0.05500
C 	C 	0.44400 0.09250 0.76690 -0.02100
C 	C 	0.51670 0.10100 0.75869 0.07700
C 	C 	0.53750 0.13710 0.73198 -0.14600
C 	C 	0.60290 0.14030 0.72463 0.06800
C 	C 	0.64900 0.10756 0.74374 -0.13800
C 	C 	0.62830 0.07170 0.77198 0.06900
C 	C 	0.56520 0.06590 0.77902 -0.13900
C 	C 	0.72230 0.11050 0.73359 0.39200
C 	C 	0.19707 0.05180 0.84345 -0.03300
C 	C 	0.18147 0.03613 0.87054 -0.04200
C 	C 	0.16540 0.01127 0.90428 0.10200
C 	C 	0.21630 0.98240 0.92163 -0.15900
C 	C 	0.20420 0.95336 0.95201 0.11000
C 	C 	0.14260 0.94974 0.96496 -0.18400
C 	C 	0.09076 0.98306 0.94755 0.12200
C 	C 	0.10210 0.01224 0.91725 -0.19400
C 	C 	0.12620 0.91330 0.99735 0.45900
O 	O 	0.83032 0.98420 0.69834 -0.42500
O 	O 	0.84964 0.07614 0.66866 -0.50700
O 	O 	0.85098 0.26315 0.53889 -0.50500
O 	O 	0.92850 0.23936 0.49992 -0.45900
O 	O 	0.10922 0.82671 0.23726 -0.52100
O 	O 	0.09326 0.93080 0.24296 -0.48800
O 	O 	0.16968 0.01580 0.19834 -0.48000
O 	O 	0.15036 0.92386 0.16866 -0.53500
O 	O 	0.14902 0.73685 0.03889 -0.50700
O 	O 	0.07150 0.76064 0.99992 -0.46300
O 	O 	0.89078 0.17329 0.73726 -0.51900
O 	O 	0.90674 0.06920 0.74296 -0.49700
O 	O 	0.01580 0.83032 0.94834 -0.47900
O 	O 	0.92386 0.84964 0.91866 -0.53000
O 	O 	0.73685 0.85098 0.78889 -0.50300
O 	O 	0.76064 0.92850 0.74992 -0.45900
O 	O 	0.17329 0.10922 0.48726 -0.52300
O 	O 	0.06920 0.09326 0.49296 -0.50000
O 	O 	0.98420 0.16968 0.44834 -0.42500
O 	O 	0.07614 0.15036 0.41866 -0.51200
O 	O 	0.26315 0.14902 0.28889 -0.50800
O 	O 	0.23936 0.07150 0.24992 -0.46700
O 	O 	0.82671 0.89078 0.98726 -0.51200
O 	O 	0.93080 0.90674 0.99296 -0.48100
O 	O 	0.16968 0.98420 0.30166 -0.42500
O 	O 	0.15036 0.07614 0.33134 -0.51200
O 	O 	0.14902 0.26315 0.46111 -0.50800
O 	O 	0.07150 0.23936 0.50008 -0.46700
O 	O 	0.89078 0.82671 0.76274 -0.51700
O 	O 	0.90674 0.93080 0.75704 -0.48600
O 	O 	0.83032 0.01580 0.80166 -0.48000
O 	O 	0.84964 0.92386 0.83134 -0.53000
O 	O 	0.85098 0.73685 0.96111 -0.50300
O 	O 	0.92850 0.76064 0.00008 -0.46200
O 	O 	0.10922 0.17329 0.26274 -0.52300
O 	O 	0.09326 0.06920 0.25704 -0.50000
O 	O 	0.98420 0.83032 0.05166 -0.42500
O 	O 	0.07614 0.84964 0.08134 -0.50700
O 	O 	0.26315 0.85098 0.21111 -0.50500
O 	O 	0.23936 0.92850 0.25008 -0.45900
O 	O 	0.82671 0.10922 0.51274 -0.52100
O 	O 	0.93080 0.09326 0.50704 -0.48800
O 	O 	0.01580 0.16968 0.55166 -0.48100
O 	O 	0.92386 0.15036 0.58134 -0.53500
O 	O 	0.73685 0.14902 0.71111 -0.50600
O 	O 	0.76064 0.07150 0.75008 -0.46700
O 	O 	0.17329 0.89078 0.01274 -0.52400
O 	O 	0.06920 0.90674 0.00704 -0.50200
