data_crystal

_cell_length_a 7.54400
_cell_length_b 14.72970
_cell_length_c 14.72970
_cell_angle_alpha 116.91600
_cell_angle_beta  104.42800
_cell_angle_gamma 75.57210

_symmetry_space_group_name_	'P 1'
_symmetry_space_group_name_H-M	'P 1'

loop_
_symmetry_equiv_pos_as_xyz
  x,y,z

loop_
_atom_site_label
_atom_site_type_symbol
_atom_site_fract_x
_atom_site_fract_y
_atom_site_fract_z
_atom_site_charge
Cd	Cd	0.75157 0.91890 0.13262 1.22400
Cd	Cd	0.25157 0.86738 0.08110 1.22600
H 	H 	0.86140 0.61530 0.83890 0.06800
H 	H 	0.95870 0.44570 0.72650 0.01500
H 	H 	0.21410 0.56970 0.07330 0.04800
H 	H 	0.30630 0.40280 0.96380 0.05300
H 	H 	0.03100 0.28940 0.63220 0.07900
H 	H 	0.93760 0.22170 0.47570 0.07700
H 	H 	0.79670 0.13700 0.30780 -0.00100
H 	H 	0.05850 0.87320 0.30180 -0.01400
H 	H 	0.20420 0.94870 0.46490 0.08000
H 	H 	0.33780 0.02050 0.61290 0.07300
H 	H 	0.57710 0.95110 0.67550 0.05700
H 	H 	0.79550 0.86110 0.76450 0.03600
H 	H 	0.74980 0.10870 0.03210 0.04500
H 	H 	0.53300 0.19820 0.94500 0.06900
H 	H 	0.36140 0.16110 0.38470 0.04000
H 	H 	0.45870 0.27350 0.55430 0.05900
H 	H 	0.71410 0.92670 0.43030 0.02900
H 	H 	0.80630 0.03620 0.59720 0.06600
H 	H 	0.53100 0.36780 0.71060 0.07100
H 	H 	0.43760 0.52430 0.77830 0.07100
H 	H 	0.29670 0.69220 0.86300 0.00600
H 	H 	0.55850 0.69820 0.12680 -0.00800
H 	H 	0.70420 0.53510 0.05130 0.07000
H 	H 	0.83780 0.38710 0.97950 0.06600
H 	H 	0.07710 0.32450 0.04890 0.06600
H 	H 	0.29550 0.23550 0.13890 0.03600
H 	H 	0.24980 0.96790 0.89130 0.03800
H 	H 	0.03300 0.05500 0.80180 0.08000
C 	C 	0.96430 0.72060 0.03700 0.27400
C 	C 	0.02810 0.61090 0.96550 -0.02800
C 	C 	0.95220 0.57300 0.86400 -0.07600
C 	C 	0.00950 0.46990 0.79610 0.00600
C 	C 	0.14100 0.40510 0.83310 -0.01700
C 	C 	0.16270 0.54510 0.00390 -0.02800
C 	C 	0.21680 0.44530 0.93810 -0.04300
C 	C 	0.19940 0.29480 0.76420 0.10100
C 	C 	0.12020 0.24970 0.66130 -0.13400
C 	C 	0.17290 0.14640 0.60220 0.05700
C 	C 	0.08630 0.09500 0.49340 0.08200
C 	C 	0.96400 0.15030 0.44250 -0.14900
C 	C 	0.87940 0.09810 0.34030 0.08700
C 	C 	0.03200 0.94450 0.33670 0.10700
C 	C 	0.11980 0.98980 0.43560 -0.14600
C 	C 	0.30280 0.09090 0.64990 -0.12900
C 	C 	0.38160 0.13830 0.75150 0.08900
C 	C 	0.52660 0.08230 0.80510 0.02700
C 	C 	0.60850 0.98190 0.74690 -0.08600
C 	C 	0.74180 0.92860 0.80100 0.00800
C 	C 	0.79280 0.97600 0.90780 -0.08700
C 	C 	0.71510 0.07600 0.96100 0.00000
C 	C 	0.58240 0.12980 0.90840 -0.07600
C 	C 	0.94350 0.92210 0.96270 0.27800
C 	C 	0.46430 0.96300 0.27940 0.31500
C 	C 	0.52810 0.03450 0.38910 -0.09500
C 	C 	0.45220 0.13600 0.42700 0.02000
C 	C 	0.50950 0.20390 0.53010 -0.08900
C 	C 	0.64100 0.16690 0.59490 0.02800
C 	C 	0.66270 0.99610 0.45490 0.01500
C 	C 	0.71680 0.06190 0.55470 -0.08700
C 	C 	0.69940 0.23580 0.70520 0.08000
C 	C 	0.62020 0.33870 0.75030 -0.12600
C 	C 	0.67290 0.39780 0.85360 0.05600
C 	C 	0.58630 0.50660 0.90500 0.05200
C 	C 	0.46400 0.55750 0.84970 -0.11800
C 	C 	0.37940 0.65970 0.90190 0.07100
C 	C 	0.53200 0.66330 0.05550 0.07900
C 	C 	0.61980 0.56440 0.01020 -0.12100
C 	C 	0.80280 0.35010 0.90910 -0.12300
C 	C 	0.88160 0.24850 0.86170 0.06900
C 	C 	0.02660 0.19490 0.91770 0.05100
C 	C 	0.10850 0.25310 0.01810 -0.09600
C 	C 	0.24180 0.19900 0.07140 0.02300
C 	C 	0.29280 0.09220 0.02400 -0.09700
C 	C 	0.21510 0.03900 0.92400 0.02100
C 	C 	0.08240 0.09160 0.87020 -0.09200
C 	C 	0.44350 0.03730 0.07790 0.30500
N 	N 	0.32690 0.23850 0.80930 -0.13400
N 	N 	0.91160 0.99640 0.28760 -0.25600
N 	N 	0.82690 0.19070 0.76150 -0.13100
N 	N 	0.41160 0.71240 0.00360 -0.24100
O 	O 	0.80570 0.76080 0.01420 -0.40900
O 	O 	0.08270 0.76850 0.11470 -0.40600
O 	O 	0.95780 0.95950 0.06070 -0.48300
O 	O 	0.05330 0.84590 0.91270 -0.34100
O 	O 	0.30570 0.98580 0.23920 -0.41700
O 	O 	0.58270 0.88530 0.23150 -0.42400
O 	O 	0.45780 0.93930 0.04050 -0.48500
O 	O 	0.55330 0.08730 0.15410 -0.35600
