data_crystal

_cell_length_a 23.56190
_cell_length_b 15.67140
_cell_length_c 16.11580
_cell_angle_alpha 90.00000
_cell_angle_beta  124.23800
_cell_angle_gamma 90.00000

_symmetry_space_group_name_	'P 1'
_symmetry_space_group_name_H-M	'P 1'

loop_
_symmetry_equiv_pos_as_xyz
  x,y,z

loop_
_atom_site_label
_atom_site_type_symbol
_atom_site_fract_x
_atom_site_fract_y
_atom_site_fract_z
_atom_site_charge
Gd	Gd	0.68970 0.67213 0.87776 1.50400
C 	C 	0.40250 0.77590 0.47110 -0.05400
C 	C 	0.45560 0.74140 0.56120 -0.02200
H 	H 	0.44700 0.71970 0.60820 0.04400
C 	C 	0.52150 0.73870 0.58230 -0.01400
C 	C 	0.53430 0.77230 0.51420 -0.13400
H 	H 	0.57920 0.77010 0.52810 0.12000
C 	C 	0.48140 0.80870 0.42670 0.19700
C 	C 	0.41520 0.81080 0.40410 -0.11700
H 	H 	0.37900 0.83600 0.34340 0.10100
C 	C 	0.45360 0.90530 0.29790 0.18000
C 	C 	0.39920 0.88960 0.19910 -0.00400
C 	C 	0.35770 0.95560 0.13810 0.02100
H 	H 	0.32110 0.94430 0.07070 0.05500
C 	C 	0.36930 0.03830 0.17480 -0.14100
C 	C 	0.42480 0.05400 0.27250 0.09000
H 	H 	0.43400 0.11060 0.29800 0.01800
C 	C 	0.46670 0.98780 0.33300 -0.18300
H 	H 	0.50480 0.99950 0.39930 0.10800
C 	C 	0.32970 0.77660 0.44210 0.37700
C 	C 	0.58000 0.70300 0.67950 0.28500
C 	C 	0.32150 0.10940 0.11100 0.43200
N 	N 	0.38320 0.80380 0.15620 0.01000
O 	O 	0.28590 0.81640 0.36470 -0.39500
O 	O 	0.31456 0.73732 0.49550 -0.47600
O 	O 	0.56901 0.67856 0.74440 -0.38000
O 	O 	0.63855 0.69990 0.69590 -0.33700
O 	O 	0.40560 0.74240 0.21200 -0.09700
O 	O 	0.34740 0.79740 0.06420 -0.10600
O 	O 	0.27821 0.09352 0.01960 -0.44100
O 	O 	0.32951 0.17843 0.15490 -0.41800
O 	O 	0.49758 0.84220 0.36260 -0.22300
Gd	Gd	0.18970 0.17213 0.87776 1.50100
C 	C 	0.90250 0.27590 0.47110 -0.05300
C 	C 	0.95560 0.24140 0.56120 -0.02100
H 	H 	0.94700 0.21970 0.60820 0.04400
C 	C 	0.02150 0.23870 0.58230 -0.01400
C 	C 	0.03430 0.27230 0.51420 -0.13400
H 	H 	0.07920 0.27010 0.52810 0.12000
C 	C 	0.98140 0.30870 0.42670 0.19700
C 	C 	0.91520 0.31080 0.40410 -0.11700
H 	H 	0.87900 0.33600 0.34340 0.10100
C 	C 	0.95360 0.40530 0.29790 0.18100
C 	C 	0.89920 0.38960 0.19910 -0.00500
C 	C 	0.85770 0.45560 0.13810 0.02300
H 	H 	0.82110 0.44430 0.07070 0.05500
C 	C 	0.86930 0.53830 0.17480 -0.14400
C 	C 	0.92480 0.55400 0.27250 0.09000
H 	H 	0.93400 0.61060 0.29800 0.01700
C 	C 	0.96670 0.48780 0.33300 -0.18300
H 	H 	0.00480 0.49950 0.39930 0.10800
C 	C 	0.82970 0.27660 0.44210 0.37700
C 	C 	0.08000 0.20300 0.67950 0.28500
C 	C 	0.82150 0.60940 0.11100 0.43300
N 	N 	0.88320 0.30380 0.15620 0.01000
O 	O 	0.78590 0.31640 0.36470 -0.39500
O 	O 	0.81456 0.23732 0.49550 -0.47600
O 	O 	0.06901 0.17856 0.74440 -0.38000
O 	O 	0.13855 0.19990 0.69590 -0.33700
O 	O 	0.90560 0.24240 0.21200 -0.09700
O 	O 	0.84740 0.29740 0.06420 -0.10500
O 	O 	0.77821 0.59352 0.01960 -0.44300
O 	O 	0.82951 0.67843 0.15490 -0.41800
O 	O 	0.99758 0.34220 0.36260 -0.22300
Gd	Gd	0.31030 0.67213 0.62224 1.50400
C 	C 	0.59750 0.77590 0.02890 -0.05600
C 	C 	0.54440 0.74140 0.93880 -0.01800
H 	H 	0.55300 0.71970 0.89180 0.04300
C 	C 	0.47850 0.73870 0.91770 -0.01600
C 	C 	0.46570 0.77230 0.98580 -0.13100
H 	H 	0.42080 0.77010 0.97190 0.12000
C 	C 	0.51860 0.80870 0.07330 0.19400
C 	C 	0.58480 0.81080 0.09590 -0.11500
H 	H 	0.62100 0.83600 0.15660 0.10100
C 	C 	0.54640 0.90530 0.20210 0.18100
C 	C 	0.60080 0.88960 0.30090 -0.00500
C 	C 	0.64230 0.95560 0.36190 0.02200
H 	H 	0.67890 0.94430 0.42930 0.05500
C 	C 	0.63070 0.03830 0.32520 -0.14300
C 	C 	0.57520 0.05400 0.22750 0.09200
H 	H 	0.56600 0.11060 0.20200 0.01700
C 	C 	0.53330 0.98780 0.16700 -0.18400
H 	H 	0.49520 0.99950 0.10070 0.10800
C 	C 	0.67030 0.77660 0.05790 0.37800
C 	C 	0.42000 0.70300 0.82050 0.28500
C 	C 	0.67850 0.10940 0.38900 0.43300
N 	N 	0.61680 0.80380 0.34380 0.01000
O 	O 	0.71410 0.81640 0.13530 -0.39500
O 	O 	0.68544 0.73732 0.00450 -0.47700
O 	O 	0.43099 0.67856 0.75560 -0.38000
O 	O 	0.36145 0.69990 0.80410 -0.33700
O 	O 	0.59440 0.74240 0.28800 -0.09700
O 	O 	0.65260 0.79740 0.43580 -0.10500
O 	O 	0.72179 0.09352 0.48040 -0.44200
O 	O 	0.67049 0.17843 0.34510 -0.41800
O 	O 	0.50242 0.84220 0.13740 -0.22300
Gd	Gd	0.81030 0.17213 0.62224 1.50400
C 	C 	0.09750 0.27590 0.02890 -0.04900
C 	C 	0.04440 0.24140 0.93880 -0.02800
H 	H 	0.05300 0.21970 0.89180 0.04500
C 	C 	0.97850 0.23870 0.91770 -0.01000
C 	C 	0.96570 0.27230 0.98580 -0.13700
H 	H 	0.92080 0.27010 0.97190 0.12100
C 	C 	0.01860 0.30870 0.07330 0.20000
C 	C 	0.08480 0.31080 0.09590 -0.12000
H 	H 	0.12100 0.33600 0.15660 0.10200
C 	C 	0.04640 0.40530 0.20210 0.18000
C 	C 	0.10080 0.38960 0.30090 -0.00400
C 	C 	0.14230 0.45560 0.36190 0.02200
H 	H 	0.17890 0.44430 0.42930 0.05500
C 	C 	0.13070 0.53830 0.32520 -0.14300
C 	C 	0.07520 0.55400 0.22750 0.08800
H 	H 	0.06600 0.61060 0.20200 0.01800
C 	C 	0.03330 0.48780 0.16700 -0.18000
H 	H 	0.99520 0.49950 0.10070 0.10700
C 	C 	0.17030 0.27660 0.05790 0.37600
C 	C 	0.92000 0.20300 0.82050 0.28300
C 	C 	0.17850 0.60940 0.38900 0.43200
N 	N 	0.11680 0.30380 0.34380 0.01000
O 	O 	0.21410 0.31640 0.13530 -0.39400
O 	O 	0.18544 0.23732 0.00450 -0.47500
O 	O 	0.93099 0.17856 0.75560 -0.37900
O 	O 	0.86145 0.19990 0.80410 -0.33700
O 	O 	0.09440 0.24240 0.28800 -0.09700
O 	O 	0.15260 0.29740 0.43580 -0.10500
O 	O 	0.22179 0.59352 0.48040 -0.44200
O 	O 	0.17049 0.67843 0.34510 -0.41800
O 	O 	0.00242 0.34220 0.13740 -0.22400
Gd	Gd	0.31030 0.32787 0.12224 1.50500
C 	C 	0.59750 0.22410 0.52890 -0.05300
C 	C 	0.54440 0.25860 0.43880 -0.02200
H 	H 	0.55300 0.28030 0.39180 0.04400
C 	C 	0.47850 0.26130 0.41770 -0.01400
C 	C 	0.46570 0.22770 0.48580 -0.13400
H 	H 	0.42080 0.22990 0.47190 0.12000
C 	C 	0.51860 0.19130 0.57330 0.19700
C 	C 	0.58480 0.18920 0.59590 -0.11700
H 	H 	0.62100 0.16400 0.65660 0.10100
C 	C 	0.54640 0.09470 0.70210 0.18000
C 	C 	0.60080 0.11040 0.80090 -0.00400
C 	C 	0.64230 0.04440 0.86190 0.02100
H 	H 	0.67890 0.05570 0.92930 0.05500
C 	C 	0.63070 0.96170 0.82520 -0.14100
C 	C 	0.57520 0.94600 0.72750 0.09000
H 	H 	0.56600 0.88940 0.70200 0.01800
C 	C 	0.53330 0.01220 0.66700 -0.18300
H 	H 	0.49520 0.00050 0.60070 0.10800
C 	C 	0.67030 0.22340 0.55790 0.37700
C 	C 	0.42000 0.29700 0.32050 0.28500
C 	C 	0.67850 0.89060 0.88900 0.43200
N 	N 	0.61680 0.19620 0.84380 0.01000
O 	O 	0.71410 0.18360 0.63530 -0.39500
O 	O 	0.68544 0.26268 0.50450 -0.47600
O 	O 	0.43099 0.32144 0.25560 -0.38000
O 	O 	0.36145 0.30010 0.30410 -0.33700
O 	O 	0.59440 0.25760 0.78800 -0.09700
O 	O 	0.65260 0.20260 0.93580 -0.10600
O 	O 	0.72179 0.90648 0.98040 -0.44100
O 	O 	0.67049 0.82157 0.84510 -0.41800
O 	O 	0.50242 0.15780 0.63740 -0.22300
Gd	Gd	0.81030 0.82787 0.12224 1.50100
C 	C 	0.09750 0.72410 0.52890 -0.05300
C 	C 	0.04440 0.75860 0.43880 -0.02100
H 	H 	0.05300 0.78030 0.39180 0.04400
C 	C 	0.97850 0.76130 0.41770 -0.01400
C 	C 	0.96570 0.72770 0.48580 -0.13400
H 	H 	0.92080 0.72990 0.47190 0.12000
C 	C 	0.01860 0.69130 0.57330 0.19700
C 	C 	0.08480 0.68920 0.59590 -0.11700
H 	H 	0.12100 0.66400 0.65660 0.10100
C 	C 	0.04640 0.59470 0.70210 0.18100
C 	C 	0.10080 0.61040 0.80090 -0.00500
C 	C 	0.14230 0.54440 0.86190 0.02300
H 	H 	0.17890 0.55570 0.92930 0.05500
C 	C 	0.13070 0.46170 0.82520 -0.14400
C 	C 	0.07520 0.44600 0.72750 0.09000
H 	H 	0.06600 0.38940 0.70200 0.01700
C 	C 	0.03330 0.51220 0.66700 -0.18300
H 	H 	0.99520 0.50050 0.60070 0.10800
C 	C 	0.17030 0.72340 0.55790 0.37700
C 	C 	0.92000 0.79700 0.32050 0.28500
C 	C 	0.17850 0.39060 0.88900 0.43300
N 	N 	0.11680 0.69620 0.84380 0.01000
O 	O 	0.21410 0.68360 0.63530 -0.39500
O 	O 	0.18544 0.76268 0.50450 -0.47600
O 	O 	0.93099 0.82144 0.25560 -0.38000
O 	O 	0.86145 0.80010 0.30410 -0.33700
O 	O 	0.09440 0.75760 0.78800 -0.09700
O 	O 	0.15260 0.70260 0.93580 -0.10500
O 	O 	0.22179 0.40648 0.98040 -0.44300
O 	O 	0.17049 0.32157 0.84510 -0.41800
O 	O 	0.00242 0.65780 0.63740 -0.22300
Gd	Gd	0.68970 0.32787 0.37776 1.50400
C 	C 	0.40250 0.22410 0.97110 -0.05600
C 	C 	0.45560 0.25860 0.06120 -0.01800
H 	H 	0.44700 0.28030 0.10820 0.04300
C 	C 	0.52150 0.26130 0.08230 -0.01600
C 	C 	0.53430 0.22770 0.01420 -0.13100
H 	H 	0.57920 0.22990 0.02810 0.12000
C 	C 	0.48140 0.19130 0.92670 0.19400
C 	C 	0.41520 0.18920 0.90410 -0.11500
H 	H 	0.37900 0.16400 0.84340 0.10100
C 	C 	0.45360 0.09470 0.79790 0.18100
C 	C 	0.39920 0.11040 0.69910 -0.00500
C 	C 	0.35770 0.04440 0.63810 0.02200
H 	H 	0.32110 0.05570 0.57070 0.05500
C 	C 	0.36930 0.96170 0.67480 -0.14300
C 	C 	0.42480 0.94600 0.77250 0.09200
H 	H 	0.43400 0.88940 0.79800 0.01700
C 	C 	0.46670 0.01220 0.83300 -0.18400
H 	H 	0.50480 0.00050 0.89930 0.10800
C 	C 	0.32970 0.22340 0.94210 0.37800
C 	C 	0.58000 0.29700 0.17950 0.28500
C 	C 	0.32150 0.89060 0.61100 0.43300
N 	N 	0.38320 0.19620 0.65620 0.01000
O 	O 	0.28590 0.18360 0.86470 -0.39500
O 	O 	0.31456 0.26268 0.99550 -0.47700
O 	O 	0.56901 0.32144 0.24440 -0.38000
O 	O 	0.63855 0.30010 0.19590 -0.33700
O 	O 	0.40560 0.25760 0.71200 -0.09700
O 	O 	0.34740 0.20260 0.56420 -0.10500
O 	O 	0.27821 0.90648 0.51960 -0.44200
O 	O 	0.32951 0.82157 0.65490 -0.41800
O 	O 	0.49758 0.15780 0.86260 -0.22300
Gd	Gd	0.18970 0.82787 0.37776 1.50400
C 	C 	0.90250 0.72410 0.97110 -0.04900
C 	C 	0.95560 0.75860 0.06120 -0.02800
H 	H 	0.94700 0.78030 0.10820 0.04500
C 	C 	0.02150 0.76130 0.08230 -0.01000
C 	C 	0.03430 0.72770 0.01420 -0.13700
H 	H 	0.07920 0.72990 0.02810 0.12100
C 	C 	0.98140 0.69130 0.92670 0.20000
C 	C 	0.91520 0.68920 0.90410 -0.12000
H 	H 	0.87900 0.66400 0.84340 0.10200
C 	C 	0.95360 0.59470 0.79790 0.18000
C 	C 	0.89920 0.61040 0.69910 -0.00400
C 	C 	0.85770 0.54440 0.63810 0.02200
H 	H 	0.82110 0.55570 0.57070 0.05500
C 	C 	0.86930 0.46170 0.67480 -0.14300
C 	C 	0.92480 0.44600 0.77250 0.08800
H 	H 	0.93400 0.38940 0.79800 0.01800
C 	C 	0.96670 0.51220 0.83300 -0.18000
H 	H 	0.00480 0.50050 0.89930 0.10700
C 	C 	0.82970 0.72340 0.94210 0.37600
C 	C 	0.08000 0.79700 0.17950 0.28300
C 	C 	0.82150 0.39060 0.61100 0.43200
N 	N 	0.88320 0.69620 0.65620 0.01000
O 	O 	0.78590 0.68360 0.86470 -0.39400
O 	O 	0.81456 0.76268 0.99550 -0.47500
O 	O 	0.06901 0.82144 0.24440 -0.37900
O 	O 	0.13855 0.80010 0.19590 -0.33700
O 	O 	0.90560 0.75760 0.71200 -0.09700
O 	O 	0.84740 0.70260 0.56420 -0.10500
O 	O 	0.77821 0.40648 0.51960 -0.44200
O 	O 	0.82951 0.32157 0.65490 -0.41800
O 	O 	0.99758 0.65780 0.86260 -0.22400
