data_crystal

_cell_length_a 7.70920
_cell_length_b 9.11320
_cell_length_c 12.28390
_cell_angle_alpha 90.00000
_cell_angle_beta  90.00000
_cell_angle_gamma 90.00000

_symmetry_space_group_name_	'P 1'
_symmetry_space_group_name_H-M	'P 1'

loop_
_symmetry_equiv_pos_as_xyz
  x,y,z

loop_
_atom_site_label
_atom_site_type_symbol
_atom_site_fract_x
_atom_site_fract_y
_atom_site_fract_z
_atom_site_charge
O 	O 	0.75800 0.63200 0.43870 -0.46500
O 	O 	0.07870 0.64630 0.34410 -0.47700
C 	C 	0.51240 0.71080 0.34030 -0.76800
H 	H 	0.45290 0.66370 0.40150 0.26500
H 	H 	0.47150 0.66790 0.27180 0.23200
H 	H 	0.48750 0.81630 0.34080 0.23900
C 	C 	0.70580 0.68700 0.35080 0.45800
C 	C 	0.81790 0.72520 0.26370 -0.27000
C 	C 	0.00130 0.70350 0.26610 0.31200
C 	C 	0.10690 0.75780 0.17000 -0.59700
H 	H 	0.21050 0.80890 0.19660 0.17900
H 	H 	0.03670 0.82550 0.12650 0.14000
H 	H 	0.14190 0.67410 0.12500 0.15100
C 	C 	0.74110 0.79900 0.17320 0.15300
N 	N 	0.67610 0.85520 0.10110 -0.22800
O 	O 	0.24200 0.36800 0.43870 -0.55000
O 	O 	0.92130 0.35370 0.34410 -0.50100
C 	C 	0.48760 0.28920 0.34030 -0.85400
H 	H 	0.54710 0.33630 0.40150 0.29000
H 	H 	0.52850 0.33210 0.27180 0.25600
H 	H 	0.51250 0.18370 0.34080 0.24600
C 	C 	0.29420 0.31300 0.35080 0.55700
C 	C 	0.18210 0.27480 0.26370 -0.57700
C 	C 	0.99870 0.29650 0.26610 0.66600
C 	C 	0.89310 0.24220 0.17000 -0.90100
H 	H 	0.78950 0.19110 0.19660 0.26200
H 	H 	0.96330 0.17450 0.12650 0.29000
H 	H 	0.85810 0.32590 0.12500 0.27300
C 	C 	0.25890 0.20100 0.17320 0.17000
N 	N 	0.32390 0.14480 0.10110 -0.28100
O 	O 	0.24200 0.63200 0.56130 -0.55100
O 	O 	0.92130 0.64630 0.65590 -0.50500
C 	C 	0.48760 0.71080 0.65970 -0.89600
H 	H 	0.54710 0.66370 0.59850 0.30700
H 	H 	0.52850 0.66790 0.72820 0.27600
H 	H 	0.51250 0.81630 0.65920 0.27800
C 	C 	0.29420 0.68700 0.64920 0.58400
C 	C 	0.18210 0.72520 0.73630 -0.58800
C 	C 	0.99870 0.70350 0.73390 0.70600
C 	C 	0.89310 0.75780 0.83000 -0.98500
H 	H 	0.78950 0.80890 0.80340 0.31000
H 	H 	0.96330 0.82550 0.87350 0.34800
H 	H 	0.85810 0.67410 0.87500 0.32000
C 	C 	0.25890 0.79900 0.82680 0.19900
N 	N 	0.32390 0.85520 0.89890 -0.23900
O 	O 	0.75800 0.36800 0.56130 -0.46700
O 	O 	0.07870 0.35370 0.65590 -0.48200
C 	C 	0.51240 0.28920 0.65970 -0.74700
H 	H 	0.45290 0.33630 0.59850 0.25600
H 	H 	0.47150 0.33210 0.72820 0.22900
H 	H 	0.48750 0.18370 0.65920 0.21500
C 	C 	0.70580 0.31300 0.64920 0.44600
C 	C 	0.81790 0.27480 0.73630 -0.27000
C 	C 	0.00130 0.29650 0.73390 0.31000
C 	C 	0.10690 0.24220 0.83000 -0.60600
H 	H 	0.21050 0.19110 0.80340 0.17300
H 	H 	0.03670 0.17450 0.87350 0.14300
H 	H 	0.14190 0.32590 0.87500 0.17300
C 	C 	0.74110 0.20100 0.82680 0.14700
N 	N 	0.67610 0.14480 0.89890 -0.22300
Eu	Eu	-0.00000 0.50000 0.50000 1.99400
Ag	Ag	0.50000 0.00000 -0.00000 0.47500
