data_crystal

_cell_length_a 51.36300
_cell_length_b 51.36300
_cell_length_c 51.36300
_cell_angle_alpha 90.00000
_cell_angle_beta  90.00000
_cell_angle_gamma 90.00000

_symmetry_space_group_name_	'P 1'
_symmetry_space_group_name_H-M	'P 1'

loop_
_symmetry_equiv_pos_as_xyz
  x,y,z

loop_
_atom_site_label
_atom_site_type_symbol
_atom_site_fract_x
_atom_site_fract_y
_atom_site_fract_z
_atom_site_charge
Al	Al	0.13380 0.32990 0.28050 2.39400
Al	Al	0.03840 0.35580 0.31120 2.38900
Al	Al	0.09530 0.36160 0.22240 2.40000
P 	P 	0.08880 0.37040 0.28110 0.68700
P 	P 	0.13470 0.31620 0.22080 0.70400
P 	P 	0.04600 0.35170 0.18830 0.65100
O 	O 	0.08090 0.37390 0.25040 -0.73800
O 	O 	0.11410 0.38730 0.28700 -0.90000
O 	O 	0.10170 0.34090 0.28130 -0.79800
O 	O 	0.06590 0.37120 0.29880 -0.73200
O 	O 	0.13510 0.30930 0.25320 -0.64800
O 	O 	0.13460 0.29710 0.19960 -0.70300
O 	O 	0.15730 0.33650 0.21810 -0.89000
O 	O 	0.02830 0.33680 0.28590 -0.81400
O 	O 	0.05540 0.33040 0.16780 -0.75000
O 	O 	0.02660 0.38200 0.33000 -0.80000
O 	O 	0.10650 0.32950 0.21710 -0.76100
O 	O 	0.07340 0.36610 0.19960 -0.71200
O 	O 	0.03050 0.34130 0.21170 -0.75700
O 	O 	0.02790 0.37250 0.17830 -0.87000
Al	Al	0.13380 0.82990 0.78050 2.39300
Al	Al	0.03840 0.85580 0.81120 2.38800
Al	Al	0.09530 0.86160 0.72240 2.39900
P 	P 	0.08880 0.87040 0.78110 0.68600
P 	P 	0.13470 0.81620 0.72080 0.70300
P 	P 	0.04600 0.85170 0.68830 0.65000
O 	O 	0.08090 0.87390 0.75040 -0.73900
O 	O 	0.11410 0.88730 0.78700 -0.90100
O 	O 	0.10170 0.84090 0.78130 -0.79900
O 	O 	0.06590 0.87120 0.79880 -0.73200
O 	O 	0.13510 0.80930 0.75320 -0.64800
O 	O 	0.13460 0.79710 0.69960 -0.70300
O 	O 	0.15730 0.83650 0.71810 -0.89000
O 	O 	0.02830 0.83680 0.78590 -0.81400
O 	O 	0.05540 0.83040 0.66780 -0.75000
O 	O 	0.02660 0.88200 0.83000 -0.80000
O 	O 	0.10650 0.82950 0.71710 -0.76100
O 	O 	0.07340 0.86610 0.69960 -0.71200
O 	O 	0.03050 0.84130 0.71170 -0.75700
O 	O 	0.02790 0.87250 0.67830 -0.87000
Al	Al	0.63380 0.32990 0.78050 2.39300
Al	Al	0.53840 0.35580 0.81120 2.38800
Al	Al	0.59530 0.36160 0.72240 2.39900
P 	P 	0.58880 0.37040 0.78110 0.68600
P 	P 	0.63470 0.31620 0.72080 0.70300
P 	P 	0.54600 0.35170 0.68830 0.65000
O 	O 	0.58090 0.37390 0.75040 -0.73900
O 	O 	0.61410 0.38730 0.78700 -0.90100
O 	O 	0.60170 0.34090 0.78130 -0.79900
O 	O 	0.56590 0.37120 0.79880 -0.73200
O 	O 	0.63510 0.30930 0.75320 -0.64800
O 	O 	0.63460 0.29710 0.69960 -0.70300
O 	O 	0.65730 0.33650 0.71810 -0.89000
O 	O 	0.52830 0.33680 0.78590 -0.81400
O 	O 	0.55540 0.33040 0.66780 -0.74900
O 	O 	0.52660 0.38200 0.83000 -0.80000
O 	O 	0.60650 0.32950 0.71710 -0.76100
O 	O 	0.57340 0.36610 0.69960 -0.71200
O 	O 	0.53050 0.34130 0.71170 -0.75600
O 	O 	0.52790 0.37250 0.67830 -0.86900
Al	Al	0.63380 0.82990 0.28050 2.39300
Al	Al	0.53840 0.85580 0.31120 2.38800
Al	Al	0.59530 0.86160 0.22240 2.39900
P 	P 	0.58880 0.87040 0.28110 0.68600
P 	P 	0.63470 0.81620 0.22080 0.70300
P 	P 	0.54600 0.85170 0.18830 0.65000
O 	O 	0.58090 0.87390 0.25040 -0.73800
O 	O 	0.61410 0.88730 0.28700 -0.90100
O 	O 	0.60170 0.84090 0.28130 -0.79900
O 	O 	0.56590 0.87120 0.29880 -0.73200
O 	O 	0.63510 0.80930 0.25320 -0.64800
O 	O 	0.63460 0.79710 0.19960 -0.70300
O 	O 	0.65730 0.83650 0.21810 -0.89000
O 	O 	0.52830 0.83680 0.28590 -0.81400
O 	O 	0.55540 0.83040 0.16780 -0.74900
O 	O 	0.52660 0.88200 0.33000 -0.80000
O 	O 	0.60650 0.82950 0.21710 -0.76100
O 	O 	0.57340 0.86610 0.19960 -0.71200
O 	O 	0.53050 0.84130 0.21170 -0.75600
O 	O 	0.52790 0.87250 0.17830 -0.86900
Al	Al	0.86620 0.67010 0.28050 2.39300
Al	Al	0.96160 0.64420 0.31120 2.38800
Al	Al	0.90470 0.63840 0.22240 2.39900
P 	P 	0.91120 0.62960 0.28110 0.68600
P 	P 	0.86530 0.68380 0.22080 0.70300
P 	P 	0.95400 0.64830 0.18830 0.65000
O 	O 	0.91910 0.62610 0.25040 -0.73800
O 	O 	0.88590 0.61270 0.28700 -0.90100
O 	O 	0.89830 0.65910 0.28130 -0.79800
O 	O 	0.93410 0.62880 0.29880 -0.73200
O 	O 	0.86490 0.69070 0.25320 -0.64800
O 	O 	0.86540 0.70290 0.19960 -0.70300
O 	O 	0.84270 0.66350 0.21810 -0.89000
O 	O 	0.97170 0.66320 0.28590 -0.81200
O 	O 	0.94460 0.66960 0.16780 -0.74900
O 	O 	0.97340 0.61800 0.33000 -0.79700
O 	O 	0.89350 0.67050 0.21710 -0.76100
O 	O 	0.92660 0.63390 0.19960 -0.71200
O 	O 	0.96950 0.65870 0.21170 -0.75400
O 	O 	0.97210 0.62750 0.17830 -0.86800
Al	Al	0.86620 0.17010 0.78050 2.39300
Al	Al	0.96160 0.14420 0.81120 2.38800
Al	Al	0.90470 0.13840 0.72240 2.39900
P 	P 	0.91120 0.12960 0.78110 0.68600
P 	P 	0.86530 0.18380 0.72080 0.70300
P 	P 	0.95400 0.14830 0.68830 0.65000
O 	O 	0.91910 0.12610 0.75040 -0.73800
O 	O 	0.88590 0.11270 0.78700 -0.90100
O 	O 	0.89830 0.15910 0.78130 -0.79800
O 	O 	0.93410 0.12880 0.79880 -0.73200
O 	O 	0.86490 0.19070 0.75320 -0.64800
O 	O 	0.86540 0.20290 0.69960 -0.70300
O 	O 	0.84270 0.16350 0.71810 -0.89000
O 	O 	0.97170 0.16320 0.78590 -0.81200
O 	O 	0.94460 0.16960 0.66780 -0.74900
O 	O 	0.97340 0.11800 0.83000 -0.79700
O 	O 	0.89350 0.17050 0.71710 -0.76100
O 	O 	0.92660 0.13390 0.69960 -0.71200
O 	O 	0.96950 0.15870 0.71170 -0.75400
O 	O 	0.97210 0.12750 0.67830 -0.86800
Al	Al	0.36620 0.67010 0.78050 2.39300
Al	Al	0.46160 0.64420 0.81120 2.38800
Al	Al	0.40470 0.63840 0.72240 2.39900
P 	P 	0.41120 0.62960 0.78110 0.68600
P 	P 	0.36530 0.68380 0.72080 0.70300
P 	P 	0.45400 0.64830 0.68830 0.65000
O 	O 	0.41910 0.62610 0.75040 -0.73900
O 	O 	0.38590 0.61270 0.78700 -0.90100
O 	O 	0.39830 0.65910 0.78130 -0.79900
O 	O 	0.43410 0.62880 0.79880 -0.73200
O 	O 	0.36490 0.69070 0.75320 -0.64800
O 	O 	0.36540 0.70290 0.69960 -0.70300
O 	O 	0.34270 0.66350 0.71810 -0.89000
O 	O 	0.47170 0.66320 0.78590 -0.81400
O 	O 	0.44460 0.66960 0.66780 -0.74900
O 	O 	0.47340 0.61800 0.83000 -0.80000
O 	O 	0.39350 0.67050 0.71710 -0.76100
O 	O 	0.42660 0.63390 0.69960 -0.71200
O 	O 	0.46950 0.65870 0.71170 -0.75600
O 	O 	0.47210 0.62750 0.67830 -0.86900
Al	Al	0.36620 0.17010 0.28050 2.39300
Al	Al	0.46160 0.14420 0.31120 2.38800
Al	Al	0.40470 0.13840 0.22240 2.39900
P 	P 	0.41120 0.12960 0.28110 0.68600
P 	P 	0.36530 0.18380 0.22080 0.70300
P 	P 	0.45400 0.14830 0.18830 0.65000
O 	O 	0.41910 0.12610 0.25040 -0.73900
O 	O 	0.38590 0.11270 0.28700 -0.90100
O 	O 	0.39830 0.15910 0.28130 -0.79900
O 	O 	0.43410 0.12880 0.29880 -0.73200
O 	O 	0.36490 0.19070 0.25320 -0.64800
O 	O 	0.36540 0.20290 0.19960 -0.70300
O 	O 	0.34270 0.16350 0.21810 -0.89000
O 	O 	0.47170 0.16320 0.28590 -0.81400
O 	O 	0.44460 0.16960 0.16780 -0.74900
O 	O 	0.47340 0.11800 0.33000 -0.80000
O 	O 	0.39350 0.17050 0.21710 -0.76100
O 	O 	0.42660 0.13390 0.19960 -0.71200
O 	O 	0.46950 0.15870 0.21170 -0.75600
O 	O 	0.47210 0.12750 0.17830 -0.86900
Al	Al	0.86620 0.32990 0.71950 2.39300
Al	Al	0.96160 0.35580 0.68880 2.38800
Al	Al	0.90470 0.36160 0.77760 2.39900
P 	P 	0.91120 0.37040 0.71890 0.68600
P 	P 	0.86530 0.31620 0.77920 0.70300
P 	P 	0.95400 0.35170 0.81170 0.65000
O 	O 	0.91910 0.37390 0.74960 -0.73800
O 	O 	0.88590 0.38730 0.71300 -0.90100
O 	O 	0.89830 0.34090 0.71870 -0.79800
O 	O 	0.93410 0.37120 0.70120 -0.73200
O 	O 	0.86490 0.30930 0.74680 -0.64800
O 	O 	0.86540 0.29710 0.80040 -0.70300
O 	O 	0.84270 0.33650 0.78190 -0.89000
O 	O 	0.97170 0.33680 0.71410 -0.81200
O 	O 	0.94460 0.33040 0.83220 -0.74900
O 	O 	0.97340 0.38200 0.67000 -0.79700
O 	O 	0.89350 0.32950 0.78290 -0.76100
O 	O 	0.92660 0.36610 0.80040 -0.71200
O 	O 	0.96950 0.34130 0.78830 -0.75400
O 	O 	0.97210 0.37250 0.82170 -0.86700
Al	Al	0.86620 0.82990 0.21950 2.39300
Al	Al	0.96160 0.85580 0.18880 2.38800
Al	Al	0.90470 0.86160 0.27760 2.39900
P 	P 	0.91120 0.87040 0.21890 0.68600
P 	P 	0.86530 0.81620 0.27920 0.70300
P 	P 	0.95400 0.85170 0.31170 0.65000
O 	O 	0.91910 0.87390 0.24960 -0.73800
O 	O 	0.88590 0.88730 0.21300 -0.90100
O 	O 	0.89830 0.84090 0.21870 -0.79800
O 	O 	0.93410 0.87120 0.20120 -0.73200
O 	O 	0.86490 0.80930 0.24680 -0.64800
O 	O 	0.86540 0.79710 0.30040 -0.70300
O 	O 	0.84270 0.83650 0.28190 -0.89000
O 	O 	0.97170 0.83680 0.21410 -0.81200
O 	O 	0.94460 0.83040 0.33220 -0.74900
O 	O 	0.97340 0.88200 0.17000 -0.79700
O 	O 	0.89350 0.82950 0.28290 -0.76100
O 	O 	0.92660 0.86610 0.30040 -0.71200
O 	O 	0.96950 0.84130 0.28830 -0.75400
O 	O 	0.97210 0.87250 0.32170 -0.86700
Al	Al	0.36620 0.32990 0.21950 2.39300
Al	Al	0.46160 0.35580 0.18880 2.38800
Al	Al	0.40470 0.36160 0.27760 2.39900
P 	P 	0.41120 0.37040 0.21890 0.68600
P 	P 	0.36530 0.31620 0.27920 0.70300
P 	P 	0.45400 0.35170 0.31170 0.65000
O 	O 	0.41910 0.37390 0.24960 -0.73800
O 	O 	0.38590 0.38730 0.21300 -0.90100
O 	O 	0.39830 0.34090 0.21870 -0.79900
O 	O 	0.43410 0.37120 0.20120 -0.73200
O 	O 	0.36490 0.30930 0.24680 -0.64800
O 	O 	0.36540 0.29710 0.30040 -0.70300
O 	O 	0.34270 0.33650 0.28190 -0.89000
O 	O 	0.47170 0.33680 0.21410 -0.81400
O 	O 	0.44460 0.33040 0.33220 -0.74900
O 	O 	0.47340 0.38200 0.17000 -0.80000
O 	O 	0.39350 0.32950 0.28290 -0.76100
O 	O 	0.42660 0.36610 0.30040 -0.71200
O 	O 	0.46950 0.34130 0.28830 -0.75600
O 	O 	0.47210 0.37250 0.32170 -0.86900
Al	Al	0.36620 0.82990 0.71950 2.39300
Al	Al	0.46160 0.85580 0.68880 2.38800
Al	Al	0.40470 0.86160 0.77760 2.39900
P 	P 	0.41120 0.87040 0.71890 0.68600
P 	P 	0.36530 0.81620 0.77920 0.70300
P 	P 	0.45400 0.85170 0.81170 0.65000
O 	O 	0.41910 0.87390 0.74960 -0.73800
O 	O 	0.38590 0.88730 0.71300 -0.90100
O 	O 	0.39830 0.84090 0.71870 -0.79900
O 	O 	0.43410 0.87120 0.70120 -0.73200
O 	O 	0.36490 0.80930 0.74680 -0.64800
O 	O 	0.36540 0.79710 0.80040 -0.70300
O 	O 	0.34270 0.83650 0.78190 -0.89000
O 	O 	0.47170 0.83680 0.71410 -0.81400
O 	O 	0.44460 0.83040 0.83220 -0.74900
O 	O 	0.47340 0.88200 0.67000 -0.80000
O 	O 	0.39350 0.82950 0.78290 -0.76100
O 	O 	0.42660 0.86610 0.80040 -0.71200
O 	O 	0.46950 0.84130 0.78830 -0.75600
O 	O 	0.47210 0.87250 0.82170 -0.86900
Al	Al	0.13380 0.67010 0.71950 2.39300
Al	Al	0.03840 0.64420 0.68880 2.38800
Al	Al	0.09530 0.63840 0.77760 2.39900
P 	P 	0.08880 0.62960 0.71890 0.68600
P 	P 	0.13470 0.68380 0.77920 0.70300
P 	P 	0.04600 0.64830 0.81170 0.65000
O 	O 	0.08090 0.62610 0.74960 -0.73900
O 	O 	0.11410 0.61270 0.71300 -0.90100
O 	O 	0.10170 0.65910 0.71870 -0.79900
O 	O 	0.06590 0.62880 0.70120 -0.73200
O 	O 	0.13510 0.69070 0.74680 -0.64800
O 	O 	0.13460 0.70290 0.80040 -0.70300
O 	O 	0.15730 0.66350 0.78190 -0.89000
O 	O 	0.02830 0.66320 0.71410 -0.81400
O 	O 	0.05540 0.66960 0.83220 -0.75000
O 	O 	0.02660 0.61800 0.67000 -0.80000
O 	O 	0.10650 0.67050 0.78290 -0.76100
O 	O 	0.07340 0.63390 0.80040 -0.71200
O 	O 	0.03050 0.65870 0.78830 -0.75700
O 	O 	0.02790 0.62750 0.82170 -0.87000
Al	Al	0.13380 0.17010 0.21950 2.39300
Al	Al	0.03840 0.14420 0.18880 2.38800
Al	Al	0.09530 0.13840 0.27760 2.39900
P 	P 	0.08880 0.12960 0.21890 0.68600
P 	P 	0.13470 0.18380 0.27920 0.70300
P 	P 	0.04600 0.14830 0.31170 0.65000
O 	O 	0.08090 0.12610 0.24960 -0.73900
O 	O 	0.11410 0.11270 0.21300 -0.90100
O 	O 	0.10170 0.15910 0.21870 -0.79900
O 	O 	0.06590 0.12880 0.20120 -0.73300
O 	O 	0.13510 0.19070 0.24680 -0.64800
O 	O 	0.13460 0.20290 0.30040 -0.70300
O 	O 	0.15730 0.16350 0.28190 -0.89000
O 	O 	0.02830 0.16320 0.21410 -0.81400
O 	O 	0.05540 0.16960 0.33220 -0.75000
O 	O 	0.02660 0.11800 0.17000 -0.80000
O 	O 	0.10650 0.17050 0.28290 -0.76100
O 	O 	0.07340 0.13390 0.30040 -0.71200
O 	O 	0.03050 0.15870 0.28830 -0.75700
O 	O 	0.02790 0.12750 0.32170 -0.87000
Al	Al	0.63380 0.67010 0.21950 2.39300
Al	Al	0.53840 0.64420 0.18880 2.38800
Al	Al	0.59530 0.63840 0.27760 2.39900
P 	P 	0.58880 0.62960 0.21890 0.68600
P 	P 	0.63470 0.68380 0.27920 0.70300
P 	P 	0.54600 0.64830 0.31170 0.65000
O 	O 	0.58090 0.62610 0.24960 -0.73900
O 	O 	0.61410 0.61270 0.21300 -0.90100
O 	O 	0.60170 0.65910 0.21870 -0.79900
O 	O 	0.56590 0.62880 0.20120 -0.73200
O 	O 	0.63510 0.69070 0.24680 -0.64800
O 	O 	0.63460 0.70290 0.30040 -0.70300
O 	O 	0.65730 0.66350 0.28190 -0.89000
O 	O 	0.52830 0.66320 0.21410 -0.81400
O 	O 	0.55540 0.66960 0.33220 -0.74900
O 	O 	0.52660 0.61800 0.17000 -0.80000
O 	O 	0.60650 0.67050 0.28290 -0.76100
O 	O 	0.57340 0.63390 0.30040 -0.71200
O 	O 	0.53050 0.65870 0.28830 -0.75600
O 	O 	0.52790 0.62750 0.32170 -0.86900
Al	Al	0.63380 0.17010 0.71950 2.39300
Al	Al	0.53840 0.14420 0.68880 2.38800
Al	Al	0.59530 0.13840 0.77760 2.39900
P 	P 	0.58880 0.12960 0.71890 0.68600
P 	P 	0.63470 0.18380 0.77920 0.70300
P 	P 	0.54600 0.14830 0.81170 0.65000
O 	O 	0.58090 0.12610 0.74960 -0.73900
O 	O 	0.61410 0.11270 0.71300 -0.90100
O 	O 	0.60170 0.15910 0.71870 -0.79900
O 	O 	0.56590 0.12880 0.70120 -0.73200
O 	O 	0.63510 0.19070 0.74680 -0.64800
O 	O 	0.63460 0.20290 0.80040 -0.70300
O 	O 	0.65730 0.16350 0.78190 -0.89000
O 	O 	0.52830 0.16320 0.71410 -0.81400
O 	O 	0.55540 0.16960 0.83220 -0.74900
O 	O 	0.52660 0.11800 0.67000 -0.80000
O 	O 	0.60650 0.17050 0.78290 -0.76100
O 	O 	0.57340 0.13390 0.80040 -0.71200
O 	O 	0.53050 0.15870 0.78830 -0.75600
O 	O 	0.52790 0.12750 0.82170 -0.86900
Al	Al	0.28050 0.13380 0.32990 2.39300
Al	Al	0.31120 0.03840 0.35580 2.38800
Al	Al	0.22240 0.09530 0.36160 2.39900
P 	P 	0.28110 0.08880 0.37040 0.68600
P 	P 	0.22080 0.13470 0.31620 0.70300
P 	P 	0.18830 0.04600 0.35170 0.65000
O 	O 	0.25040 0.08090 0.37390 -0.73900
O 	O 	0.28700 0.11410 0.38730 -0.90100
O 	O 	0.28130 0.10170 0.34090 -0.79900
O 	O 	0.29880 0.06590 0.37120 -0.73200
O 	O 	0.25320 0.13510 0.30930 -0.64800
O 	O 	0.19960 0.13460 0.29710 -0.70300
O 	O 	0.21810 0.15730 0.33650 -0.89000
O 	O 	0.28590 0.02830 0.33680 -0.81400
O 	O 	0.16780 0.05540 0.33040 -0.75000
O 	O 	0.33000 0.02660 0.38200 -0.80000
O 	O 	0.21710 0.10650 0.32950 -0.76100
O 	O 	0.19960 0.07340 0.36610 -0.71200
O 	O 	0.21170 0.03050 0.34130 -0.75700
O 	O 	0.17830 0.02790 0.37250 -0.87000
Al	Al	0.28050 0.63380 0.82990 2.39300
Al	Al	0.31120 0.53840 0.85580 2.38800
Al	Al	0.22240 0.59530 0.86160 2.39900
P 	P 	0.28110 0.58880 0.87040 0.68600
P 	P 	0.22080 0.63470 0.81620 0.70300
P 	P 	0.18830 0.54600 0.85170 0.65000
O 	O 	0.25040 0.58090 0.87390 -0.73800
O 	O 	0.28700 0.61410 0.88730 -0.90100
O 	O 	0.28130 0.60170 0.84090 -0.79900
O 	O 	0.29880 0.56590 0.87120 -0.73200
O 	O 	0.25320 0.63510 0.80930 -0.64800
O 	O 	0.19960 0.63460 0.79710 -0.70300
O 	O 	0.21810 0.65730 0.83650 -0.89000
O 	O 	0.28590 0.52830 0.83680 -0.81400
O 	O 	0.16780 0.55540 0.83040 -0.74900
O 	O 	0.33000 0.52660 0.88200 -0.80000
O 	O 	0.21710 0.60650 0.82950 -0.76100
O 	O 	0.19960 0.57340 0.86610 -0.71200
O 	O 	0.21170 0.53050 0.84130 -0.75600
O 	O 	0.17830 0.52790 0.87250 -0.86900
Al	Al	0.78050 0.13380 0.82990 2.39300
Al	Al	0.81120 0.03840 0.85580 2.38800
Al	Al	0.72240 0.09530 0.86160 2.39900
P 	P 	0.78110 0.08880 0.87040 0.68600
P 	P 	0.72080 0.13470 0.81620 0.70300
P 	P 	0.68830 0.04600 0.85170 0.65000
O 	O 	0.75040 0.08090 0.87390 -0.73900
O 	O 	0.78700 0.11410 0.88730 -0.90100
O 	O 	0.78130 0.10170 0.84090 -0.79900
O 	O 	0.79880 0.06590 0.87120 -0.73200
O 	O 	0.75320 0.13510 0.80930 -0.64800
O 	O 	0.69960 0.13460 0.79710 -0.70300
O 	O 	0.71810 0.15730 0.83650 -0.89000
O 	O 	0.78590 0.02830 0.83680 -0.81400
O 	O 	0.66780 0.05540 0.83040 -0.75000
O 	O 	0.83000 0.02660 0.88200 -0.80000
O 	O 	0.71710 0.10650 0.82950 -0.76100
O 	O 	0.69960 0.07340 0.86610 -0.71200
O 	O 	0.71170 0.03050 0.84130 -0.75700
O 	O 	0.67830 0.02790 0.87250 -0.87000
Al	Al	0.78050 0.63380 0.32990 2.39300
Al	Al	0.81120 0.53840 0.35580 2.38800
Al	Al	0.72240 0.59530 0.36160 2.39900
P 	P 	0.78110 0.58880 0.37040 0.68600
P 	P 	0.72080 0.63470 0.31620 0.70300
P 	P 	0.68830 0.54600 0.35170 0.65000
O 	O 	0.75040 0.58090 0.37390 -0.73900
O 	O 	0.78700 0.61410 0.38730 -0.90100
O 	O 	0.78130 0.60170 0.34090 -0.79900
O 	O 	0.79880 0.56590 0.37120 -0.73200
O 	O 	0.75320 0.63510 0.30930 -0.64800
O 	O 	0.69960 0.63460 0.29710 -0.70300
O 	O 	0.71810 0.65730 0.33650 -0.89000
O 	O 	0.78590 0.52830 0.33680 -0.81400
O 	O 	0.66780 0.55540 0.33040 -0.74900
O 	O 	0.83000 0.52660 0.38200 -0.80000
O 	O 	0.71710 0.60650 0.32950 -0.76100
O 	O 	0.69960 0.57340 0.36610 -0.71200
O 	O 	0.71170 0.53050 0.34130 -0.75600
O 	O 	0.67830 0.52790 0.37250 -0.86900
Al	Al	0.28050 0.86620 0.67010 2.39300
Al	Al	0.31120 0.96160 0.64420 2.38800
Al	Al	0.22240 0.90470 0.63840 2.39900
P 	P 	0.28110 0.91120 0.62960 0.68600
P 	P 	0.22080 0.86530 0.68380 0.70300
P 	P 	0.18830 0.95400 0.64830 0.65000
O 	O 	0.25040 0.91910 0.62610 -0.73800
O 	O 	0.28700 0.88590 0.61270 -0.90100
O 	O 	0.28130 0.89830 0.65910 -0.79800
O 	O 	0.29880 0.93410 0.62880 -0.73200
O 	O 	0.25320 0.86490 0.69070 -0.64800
O 	O 	0.19960 0.86540 0.70290 -0.70300
O 	O 	0.21810 0.84270 0.66350 -0.89000
O 	O 	0.28590 0.97170 0.66320 -0.81200
O 	O 	0.16780 0.94460 0.66960 -0.74900
O 	O 	0.33000 0.97340 0.61800 -0.79700
O 	O 	0.21710 0.89350 0.67050 -0.76100
O 	O 	0.19960 0.92660 0.63390 -0.71200
O 	O 	0.21170 0.96950 0.65870 -0.75400
O 	O 	0.17830 0.97210 0.62750 -0.86800
Al	Al	0.28050 0.36620 0.17010 2.39300
Al	Al	0.31120 0.46160 0.14420 2.38800
Al	Al	0.22240 0.40470 0.13840 2.39900
P 	P 	0.28110 0.41120 0.12960 0.68600
P 	P 	0.22080 0.36530 0.18380 0.70300
P 	P 	0.18830 0.45400 0.14830 0.65000
O 	O 	0.25040 0.41910 0.12610 -0.73900
O 	O 	0.28700 0.38590 0.11270 -0.90100
O 	O 	0.28130 0.39830 0.15910 -0.79900
O 	O 	0.29880 0.43410 0.12880 -0.73200
O 	O 	0.25320 0.36490 0.19070 -0.64800
O 	O 	0.19960 0.36540 0.20290 -0.70300
O 	O 	0.21810 0.34270 0.16350 -0.89000
O 	O 	0.28590 0.47170 0.16320 -0.81400
O 	O 	0.16780 0.44460 0.16960 -0.74900
O 	O 	0.33000 0.47340 0.11800 -0.80000
O 	O 	0.21710 0.39350 0.17050 -0.76100
O 	O 	0.19960 0.42660 0.13390 -0.71200
O 	O 	0.21170 0.46950 0.15870 -0.75600
O 	O 	0.17830 0.47210 0.12750 -0.86900
Al	Al	0.78050 0.86620 0.17010 2.39300
Al	Al	0.81120 0.96160 0.14420 2.38800
Al	Al	0.72240 0.90470 0.13840 2.39900
P 	P 	0.78110 0.91120 0.12960 0.68600
P 	P 	0.72080 0.86530 0.18380 0.70300
P 	P 	0.68830 0.95400 0.14830 0.65000
O 	O 	0.75040 0.91910 0.12610 -0.73800
O 	O 	0.78700 0.88590 0.11270 -0.90100
O 	O 	0.78130 0.89830 0.15910 -0.79800
O 	O 	0.79880 0.93410 0.12880 -0.73200
O 	O 	0.75320 0.86490 0.19070 -0.64800
O 	O 	0.69960 0.86540 0.20290 -0.70300
O 	O 	0.71810 0.84270 0.16350 -0.89000
O 	O 	0.78590 0.97170 0.16320 -0.81200
O 	O 	0.66780 0.94460 0.16960 -0.74900
O 	O 	0.83000 0.97340 0.11800 -0.79700
O 	O 	0.71710 0.89350 0.17050 -0.76100
O 	O 	0.69960 0.92660 0.13390 -0.71200
O 	O 	0.71170 0.96950 0.15870 -0.75400
O 	O 	0.67830 0.97210 0.12750 -0.86800
Al	Al	0.78050 0.36620 0.67010 2.39300
Al	Al	0.81120 0.46160 0.64420 2.38800
Al	Al	0.72240 0.40470 0.63840 2.39900
P 	P 	0.78110 0.41120 0.62960 0.68600
P 	P 	0.72080 0.36530 0.68380 0.70300
P 	P 	0.68830 0.45400 0.64830 0.65000
O 	O 	0.75040 0.41910 0.62610 -0.73900
O 	O 	0.78700 0.38590 0.61270 -0.90100
O 	O 	0.78130 0.39830 0.65910 -0.79900
O 	O 	0.79880 0.43410 0.62880 -0.73200
O 	O 	0.75320 0.36490 0.69070 -0.64800
O 	O 	0.69960 0.36540 0.70290 -0.70300
O 	O 	0.71810 0.34270 0.66350 -0.89000
O 	O 	0.78590 0.47170 0.66320 -0.81400
O 	O 	0.66780 0.44460 0.66960 -0.74900
O 	O 	0.83000 0.47340 0.61800 -0.80000
O 	O 	0.71710 0.39350 0.67050 -0.76100
O 	O 	0.69960 0.42660 0.63390 -0.71200
O 	O 	0.71170 0.46950 0.65870 -0.75600
O 	O 	0.67830 0.47210 0.62750 -0.86900
Al	Al	0.71950 0.86620 0.32990 2.39300
Al	Al	0.68880 0.96160 0.35580 2.38800
Al	Al	0.77760 0.90470 0.36160 2.39900
P 	P 	0.71890 0.91120 0.37040 0.68600
P 	P 	0.77920 0.86530 0.31620 0.70300
P 	P 	0.81170 0.95400 0.35170 0.65000
O 	O 	0.74960 0.91910 0.37390 -0.73800
O 	O 	0.71300 0.88590 0.38730 -0.90100
O 	O 	0.71870 0.89830 0.34090 -0.79800
O 	O 	0.70120 0.93410 0.37120 -0.73200
O 	O 	0.74680 0.86490 0.30930 -0.64800
O 	O 	0.80040 0.86540 0.29710 -0.70300
O 	O 	0.78190 0.84270 0.33650 -0.89000
O 	O 	0.71410 0.97170 0.33680 -0.81200
O 	O 	0.83220 0.94460 0.33040 -0.74900
O 	O 	0.67000 0.97340 0.38200 -0.79700
O 	O 	0.78290 0.89350 0.32950 -0.76100
O 	O 	0.80040 0.92660 0.36610 -0.71200
O 	O 	0.78830 0.96950 0.34130 -0.75400
O 	O 	0.82170 0.97210 0.37250 -0.86700
Al	Al	0.71950 0.36620 0.82990 2.39300
Al	Al	0.68880 0.46160 0.85580 2.38800
Al	Al	0.77760 0.40470 0.86160 2.39900
P 	P 	0.71890 0.41120 0.87040 0.68600
P 	P 	0.77920 0.36530 0.81620 0.70300
P 	P 	0.81170 0.45400 0.85170 0.65000
O 	O 	0.74960 0.41910 0.87390 -0.73800
O 	O 	0.71300 0.38590 0.88730 -0.90100
O 	O 	0.71870 0.39830 0.84090 -0.79900
O 	O 	0.70120 0.43410 0.87120 -0.73200
O 	O 	0.74680 0.36490 0.80930 -0.64800
O 	O 	0.80040 0.36540 0.79710 -0.70300
O 	O 	0.78190 0.34270 0.83650 -0.89000
O 	O 	0.71410 0.47170 0.83680 -0.81400
O 	O 	0.83220 0.44460 0.83040 -0.74900
O 	O 	0.67000 0.47340 0.88200 -0.80000
O 	O 	0.78290 0.39350 0.82950 -0.76100
O 	O 	0.80040 0.42660 0.86610 -0.71200
O 	O 	0.78830 0.46950 0.84130 -0.75600
O 	O 	0.82170 0.47210 0.87250 -0.86900
Al	Al	0.21950 0.86620 0.82990 2.39300
Al	Al	0.18880 0.96160 0.85580 2.38800
Al	Al	0.27760 0.90470 0.86160 2.39900
P 	P 	0.21890 0.91120 0.87040 0.68600
P 	P 	0.27920 0.86530 0.81620 0.70300
P 	P 	0.31170 0.95400 0.85170 0.65000
O 	O 	0.24960 0.91910 0.87390 -0.73800
O 	O 	0.21300 0.88590 0.88730 -0.90100
O 	O 	0.21870 0.89830 0.84090 -0.79800
O 	O 	0.20120 0.93410 0.87120 -0.73200
O 	O 	0.24680 0.86490 0.80930 -0.64800
O 	O 	0.30040 0.86540 0.79710 -0.70300
O 	O 	0.28190 0.84270 0.83650 -0.89000
O 	O 	0.21410 0.97170 0.83680 -0.81200
O 	O 	0.33220 0.94460 0.83040 -0.74900
O 	O 	0.17000 0.97340 0.88200 -0.79700
O 	O 	0.28290 0.89350 0.82950 -0.76100
O 	O 	0.30040 0.92660 0.86610 -0.71200
O 	O 	0.28830 0.96950 0.84130 -0.75400
O 	O 	0.32170 0.97210 0.87250 -0.86700
Al	Al	0.21950 0.36620 0.32990 2.39300
Al	Al	0.18880 0.46160 0.35580 2.38800
Al	Al	0.27760 0.40470 0.36160 2.39900
P 	P 	0.21890 0.41120 0.37040 0.68600
P 	P 	0.27920 0.36530 0.31620 0.70300
P 	P 	0.31170 0.45400 0.35170 0.65000
O 	O 	0.24960 0.41910 0.37390 -0.73800
O 	O 	0.21300 0.38590 0.38730 -0.90100
O 	O 	0.21870 0.39830 0.34090 -0.79900
O 	O 	0.20120 0.43410 0.37120 -0.73200
O 	O 	0.24680 0.36490 0.30930 -0.64800
O 	O 	0.30040 0.36540 0.29710 -0.70300
O 	O 	0.28190 0.34270 0.33650 -0.89000
O 	O 	0.21410 0.47170 0.33680 -0.81400
O 	O 	0.33220 0.44460 0.33040 -0.74900
O 	O 	0.17000 0.47340 0.38200 -0.80000
O 	O 	0.28290 0.39350 0.32950 -0.76100
O 	O 	0.30040 0.42660 0.36610 -0.71200
O 	O 	0.28830 0.46950 0.34130 -0.75600
O 	O 	0.32170 0.47210 0.37250 -0.86900
Al	Al	0.71950 0.13380 0.67010 2.39300
Al	Al	0.68880 0.03840 0.64420 2.38800
Al	Al	0.77760 0.09530 0.63840 2.39900
P 	P 	0.71890 0.08880 0.62960 0.68600
P 	P 	0.77920 0.13470 0.68380 0.70300
P 	P 	0.81170 0.04600 0.64830 0.65000
O 	O 	0.74960 0.08090 0.62610 -0.73900
O 	O 	0.71300 0.11410 0.61270 -0.90100
O 	O 	0.71870 0.10170 0.65910 -0.79900
O 	O 	0.70120 0.06590 0.62880 -0.73200
O 	O 	0.74680 0.13510 0.69070 -0.64800
O 	O 	0.80040 0.13460 0.70290 -0.70300
O 	O 	0.78190 0.15730 0.66350 -0.89000
O 	O 	0.71410 0.02830 0.66320 -0.81400
O 	O 	0.83220 0.05540 0.66960 -0.75000
O 	O 	0.67000 0.02660 0.61800 -0.80000
O 	O 	0.78290 0.10650 0.67050 -0.76100
O 	O 	0.80040 0.07340 0.63390 -0.71200
O 	O 	0.78830 0.03050 0.65870 -0.75700
O 	O 	0.82170 0.02790 0.62750 -0.87000
Al	Al	0.71950 0.63380 0.17010 2.39300
Al	Al	0.68880 0.53840 0.14420 2.38800
Al	Al	0.77760 0.59530 0.13840 2.39900
P 	P 	0.71890 0.58880 0.12960 0.68600
P 	P 	0.77920 0.63470 0.18380 0.70300
P 	P 	0.81170 0.54600 0.14830 0.65000
O 	O 	0.74960 0.58090 0.12610 -0.73900
O 	O 	0.71300 0.61410 0.11270 -0.90100
O 	O 	0.71870 0.60170 0.15910 -0.79900
O 	O 	0.70120 0.56590 0.12880 -0.73200
O 	O 	0.74680 0.63510 0.19070 -0.64800
O 	O 	0.80040 0.63460 0.20290 -0.70300
O 	O 	0.78190 0.65730 0.16350 -0.89000
O 	O 	0.71410 0.52830 0.16320 -0.81400
O 	O 	0.83220 0.55540 0.16960 -0.74900
O 	O 	0.67000 0.52660 0.11800 -0.80000
O 	O 	0.78290 0.60650 0.17050 -0.76100
O 	O 	0.80040 0.57340 0.13390 -0.71200
O 	O 	0.78830 0.53050 0.15870 -0.75600
O 	O 	0.82170 0.52790 0.12750 -0.86900
Al	Al	0.21950 0.13380 0.17010 2.39300
Al	Al	0.18880 0.03840 0.14420 2.38800
Al	Al	0.27760 0.09530 0.13840 2.39900
P 	P 	0.21890 0.08880 0.12960 0.68600
P 	P 	0.27920 0.13470 0.18380 0.70300
P 	P 	0.31170 0.04600 0.14830 0.65000
O 	O 	0.24960 0.08090 0.12610 -0.73900
O 	O 	0.21300 0.11410 0.11270 -0.90100
O 	O 	0.21870 0.10170 0.15910 -0.79900
O 	O 	0.20120 0.06590 0.12880 -0.73300
O 	O 	0.24680 0.13510 0.19070 -0.64800
O 	O 	0.30040 0.13460 0.20290 -0.70300
O 	O 	0.28190 0.15730 0.16350 -0.89000
O 	O 	0.21410 0.02830 0.16320 -0.81400
O 	O 	0.33220 0.05540 0.16960 -0.75000
O 	O 	0.17000 0.02660 0.11800 -0.80000
O 	O 	0.28290 0.10650 0.17050 -0.76100
O 	O 	0.30040 0.07340 0.13390 -0.71200
O 	O 	0.28830 0.03050 0.15870 -0.75700
O 	O 	0.32170 0.02790 0.12750 -0.87000
Al	Al	0.21950 0.63380 0.67010 2.39300
Al	Al	0.18880 0.53840 0.64420 2.38800
Al	Al	0.27760 0.59530 0.63840 2.39900
P 	P 	0.21890 0.58880 0.62960 0.68600
P 	P 	0.27920 0.63470 0.68380 0.70300
P 	P 	0.31170 0.54600 0.64830 0.65000
O 	O 	0.24960 0.58090 0.62610 -0.73900
O 	O 	0.21300 0.61410 0.61270 -0.90100
O 	O 	0.21870 0.60170 0.65910 -0.79900
O 	O 	0.20120 0.56590 0.62880 -0.73200
O 	O 	0.24680 0.63510 0.69070 -0.64800
O 	O 	0.30040 0.63460 0.70290 -0.70300
O 	O 	0.28190 0.65730 0.66350 -0.89000
O 	O 	0.21410 0.52830 0.66320 -0.81400
O 	O 	0.33220 0.55540 0.66960 -0.74900
O 	O 	0.17000 0.52660 0.61800 -0.80000
O 	O 	0.28290 0.60650 0.67050 -0.76100
O 	O 	0.30040 0.57340 0.63390 -0.71200
O 	O 	0.28830 0.53050 0.65870 -0.75600
O 	O 	0.32170 0.52790 0.62750 -0.86900
Al	Al	0.32990 0.28050 0.13380 2.39300
Al	Al	0.35580 0.31120 0.03840 2.38800
Al	Al	0.36160 0.22240 0.09530 2.39900
P 	P 	0.37040 0.28110 0.08880 0.68600
P 	P 	0.31620 0.22080 0.13470 0.70300
P 	P 	0.35170 0.18830 0.04600 0.65000
O 	O 	0.37390 0.25040 0.08090 -0.73900
O 	O 	0.38730 0.28700 0.11410 -0.90100
O 	O 	0.34090 0.28130 0.10170 -0.79900
O 	O 	0.37120 0.29880 0.06590 -0.73200
O 	O 	0.30930 0.25320 0.13510 -0.64800
O 	O 	0.29710 0.19960 0.13460 -0.70300
O 	O 	0.33650 0.21810 0.15730 -0.89000
O 	O 	0.33680 0.28590 0.02830 -0.81400
O 	O 	0.33040 0.16780 0.05540 -0.75000
O 	O 	0.38200 0.33000 0.02660 -0.80000
O 	O 	0.32950 0.21710 0.10650 -0.76100
O 	O 	0.36610 0.19960 0.07340 -0.71200
O 	O 	0.34130 0.21170 0.03050 -0.75700
O 	O 	0.37250 0.17830 0.02790 -0.87000
Al	Al	0.32990 0.78050 0.63380 2.39300
Al	Al	0.35580 0.81120 0.53840 2.38800
Al	Al	0.36160 0.72240 0.59530 2.39900
P 	P 	0.37040 0.78110 0.58880 0.68600
P 	P 	0.31620 0.72080 0.63470 0.70300
P 	P 	0.35170 0.68830 0.54600 0.65000
O 	O 	0.37390 0.75040 0.58090 -0.73900
O 	O 	0.38730 0.78700 0.61410 -0.90100
O 	O 	0.34090 0.78130 0.60170 -0.79900
O 	O 	0.37120 0.79880 0.56590 -0.73200
O 	O 	0.30930 0.75320 0.63510 -0.64800
O 	O 	0.29710 0.69960 0.63460 -0.70300
O 	O 	0.33650 0.71810 0.65730 -0.89000
O 	O 	0.33680 0.78590 0.52830 -0.81400
O 	O 	0.33040 0.66780 0.55540 -0.74900
O 	O 	0.38200 0.83000 0.52660 -0.80000
O 	O 	0.32950 0.71710 0.60650 -0.76100
O 	O 	0.36610 0.69960 0.57340 -0.71200
O 	O 	0.34130 0.71170 0.53050 -0.75600
O 	O 	0.37250 0.67830 0.52790 -0.86900
Al	Al	0.82990 0.28050 0.63380 2.39300
Al	Al	0.85580 0.31120 0.53840 2.38800
Al	Al	0.86160 0.22240 0.59530 2.39900
P 	P 	0.87040 0.28110 0.58880 0.68600
P 	P 	0.81620 0.22080 0.63470 0.70300
P 	P 	0.85170 0.18830 0.54600 0.65000
O 	O 	0.87390 0.25040 0.58090 -0.73800
O 	O 	0.88730 0.28700 0.61410 -0.90100
O 	O 	0.84090 0.28130 0.60170 -0.79900
O 	O 	0.87120 0.29880 0.56590 -0.73200
O 	O 	0.80930 0.25320 0.63510 -0.64800
O 	O 	0.79710 0.19960 0.63460 -0.70300
O 	O 	0.83650 0.21810 0.65730 -0.89000
O 	O 	0.83680 0.28590 0.52830 -0.81400
O 	O 	0.83040 0.16780 0.55540 -0.74900
O 	O 	0.88200 0.33000 0.52660 -0.80000
O 	O 	0.82950 0.21710 0.60650 -0.76100
O 	O 	0.86610 0.19960 0.57340 -0.71200
O 	O 	0.84130 0.21170 0.53050 -0.75600
O 	O 	0.87250 0.17830 0.52790 -0.86900
Al	Al	0.82990 0.78050 0.13380 2.39300
Al	Al	0.85580 0.81120 0.03840 2.38800
Al	Al	0.86160 0.72240 0.09530 2.39900
P 	P 	0.87040 0.78110 0.08880 0.68600
P 	P 	0.81620 0.72080 0.13470 0.70300
P 	P 	0.85170 0.68830 0.04600 0.65000
O 	O 	0.87390 0.75040 0.08090 -0.73900
O 	O 	0.88730 0.78700 0.11410 -0.90100
O 	O 	0.84090 0.78130 0.10170 -0.79900
O 	O 	0.87120 0.79880 0.06590 -0.73200
O 	O 	0.80930 0.75320 0.13510 -0.64800
O 	O 	0.79710 0.69960 0.13460 -0.70300
O 	O 	0.83650 0.71810 0.15730 -0.89000
O 	O 	0.83680 0.78590 0.02830 -0.81400
O 	O 	0.83040 0.66780 0.05540 -0.75000
O 	O 	0.88200 0.83000 0.02660 -0.80000
O 	O 	0.82950 0.71710 0.10650 -0.76100
O 	O 	0.86610 0.69960 0.07340 -0.71200
O 	O 	0.84130 0.71170 0.03050 -0.75700
O 	O 	0.87250 0.67830 0.02790 -0.87000
Al	Al	0.67010 0.28050 0.86620 2.39300
Al	Al	0.64420 0.31120 0.96160 2.38800
Al	Al	0.63840 0.22240 0.90470 2.39900
P 	P 	0.62960 0.28110 0.91120 0.68600
P 	P 	0.68380 0.22080 0.86530 0.70300
P 	P 	0.64830 0.18830 0.95400 0.65000
O 	O 	0.62610 0.25040 0.91910 -0.73800
O 	O 	0.61270 0.28700 0.88590 -0.90100
O 	O 	0.65910 0.28130 0.89830 -0.79800
O 	O 	0.62880 0.29880 0.93410 -0.73200
O 	O 	0.69070 0.25320 0.86490 -0.64800
O 	O 	0.70290 0.19960 0.86540 -0.70300
O 	O 	0.66350 0.21810 0.84270 -0.89000
O 	O 	0.66320 0.28590 0.97170 -0.81200
O 	O 	0.66960 0.16780 0.94460 -0.74900
O 	O 	0.61800 0.33000 0.97340 -0.79700
O 	O 	0.67050 0.21710 0.89350 -0.76100
O 	O 	0.63390 0.19960 0.92660 -0.71200
O 	O 	0.65870 0.21170 0.96950 -0.75400
O 	O 	0.62750 0.17830 0.97210 -0.86800
Al	Al	0.67010 0.78050 0.36620 2.39300
Al	Al	0.64420 0.81120 0.46160 2.38800
Al	Al	0.63840 0.72240 0.40470 2.39900
P 	P 	0.62960 0.78110 0.41120 0.68600
P 	P 	0.68380 0.72080 0.36530 0.70300
P 	P 	0.64830 0.68830 0.45400 0.65000
O 	O 	0.62610 0.75040 0.41910 -0.73900
O 	O 	0.61270 0.78700 0.38590 -0.90100
O 	O 	0.65910 0.78130 0.39830 -0.79900
O 	O 	0.62880 0.79880 0.43410 -0.73200
O 	O 	0.69070 0.75320 0.36490 -0.64800
O 	O 	0.70290 0.69960 0.36540 -0.70300
O 	O 	0.66350 0.71810 0.34270 -0.89000
O 	O 	0.66320 0.78590 0.47170 -0.81400
O 	O 	0.66960 0.66780 0.44460 -0.74900
O 	O 	0.61800 0.83000 0.47340 -0.80000
O 	O 	0.67050 0.71710 0.39350 -0.76100
O 	O 	0.63390 0.69960 0.42660 -0.71200
O 	O 	0.65870 0.71170 0.46950 -0.75600
O 	O 	0.62750 0.67830 0.47210 -0.86900
Al	Al	0.17010 0.28050 0.36620 2.39300
Al	Al	0.14420 0.31120 0.46160 2.38800
Al	Al	0.13840 0.22240 0.40470 2.39900
P 	P 	0.12960 0.28110 0.41120 0.68600
P 	P 	0.18380 0.22080 0.36530 0.70300
P 	P 	0.14830 0.18830 0.45400 0.65000
O 	O 	0.12610 0.25040 0.41910 -0.73900
O 	O 	0.11270 0.28700 0.38590 -0.90100
O 	O 	0.15910 0.28130 0.39830 -0.79900
O 	O 	0.12880 0.29880 0.43410 -0.73200
O 	O 	0.19070 0.25320 0.36490 -0.64800
O 	O 	0.20290 0.19960 0.36540 -0.70300
O 	O 	0.16350 0.21810 0.34270 -0.89000
O 	O 	0.16320 0.28590 0.47170 -0.81400
O 	O 	0.16960 0.16780 0.44460 -0.74900
O 	O 	0.11800 0.33000 0.47340 -0.80000
O 	O 	0.17050 0.21710 0.39350 -0.76100
O 	O 	0.13390 0.19960 0.42660 -0.71200
O 	O 	0.15870 0.21170 0.46950 -0.75600
O 	O 	0.12750 0.17830 0.47210 -0.86900
Al	Al	0.17010 0.78050 0.86620 2.39300
Al	Al	0.14420 0.81120 0.96160 2.38800
Al	Al	0.13840 0.72240 0.90470 2.39900
P 	P 	0.12960 0.78110 0.91120 0.68600
P 	P 	0.18380 0.72080 0.86530 0.70300
P 	P 	0.14830 0.68830 0.95400 0.65000
O 	O 	0.12610 0.75040 0.91910 -0.73800
O 	O 	0.11270 0.78700 0.88590 -0.90100
O 	O 	0.15910 0.78130 0.89830 -0.79800
O 	O 	0.12880 0.79880 0.93410 -0.73200
O 	O 	0.19070 0.75320 0.86490 -0.64800
O 	O 	0.20290 0.69960 0.86540 -0.70300
O 	O 	0.16350 0.71810 0.84270 -0.89000
O 	O 	0.16320 0.78590 0.97170 -0.81200
O 	O 	0.16960 0.66780 0.94460 -0.74900
O 	O 	0.11800 0.83000 0.97340 -0.79700
O 	O 	0.17050 0.71710 0.89350 -0.76100
O 	O 	0.13390 0.69960 0.92660 -0.71200
O 	O 	0.15870 0.71170 0.96950 -0.75400
O 	O 	0.12750 0.67830 0.97210 -0.86800
Al	Al	0.32990 0.71950 0.86620 2.39300
Al	Al	0.35580 0.68880 0.96160 2.38800
Al	Al	0.36160 0.77760 0.90470 2.39900
P 	P 	0.37040 0.71890 0.91120 0.68600
P 	P 	0.31620 0.77920 0.86530 0.70300
P 	P 	0.35170 0.81170 0.95400 0.65000
O 	O 	0.37390 0.74960 0.91910 -0.73800
O 	O 	0.38730 0.71300 0.88590 -0.90100
O 	O 	0.34090 0.71870 0.89830 -0.79800
O 	O 	0.37120 0.70120 0.93410 -0.73200
O 	O 	0.30930 0.74680 0.86490 -0.64800
O 	O 	0.29710 0.80040 0.86540 -0.70300
O 	O 	0.33650 0.78190 0.84270 -0.89000
O 	O 	0.33680 0.71410 0.97170 -0.81200
O 	O 	0.33040 0.83220 0.94460 -0.74900
O 	O 	0.38200 0.67000 0.97340 -0.79700
O 	O 	0.32950 0.78290 0.89350 -0.76100
O 	O 	0.36610 0.80040 0.92660 -0.71200
O 	O 	0.34130 0.78830 0.96950 -0.75400
O 	O 	0.37250 0.82170 0.97210 -0.86700
Al	Al	0.32990 0.21950 0.36620 2.39300
Al	Al	0.35580 0.18880 0.46160 2.38800
Al	Al	0.36160 0.27760 0.40470 2.39900
P 	P 	0.37040 0.21890 0.41120 0.68600
P 	P 	0.31620 0.27920 0.36530 0.70300
P 	P 	0.35170 0.31170 0.45400 0.65000
O 	O 	0.37390 0.24960 0.41910 -0.73800
O 	O 	0.38730 0.21300 0.38590 -0.90100
O 	O 	0.34090 0.21870 0.39830 -0.79900
O 	O 	0.37120 0.20120 0.43410 -0.73200
O 	O 	0.30930 0.24680 0.36490 -0.64800
O 	O 	0.29710 0.30040 0.36540 -0.70300
O 	O 	0.33650 0.28190 0.34270 -0.89000
O 	O 	0.33680 0.21410 0.47170 -0.81400
O 	O 	0.33040 0.33220 0.44460 -0.74900
O 	O 	0.38200 0.17000 0.47340 -0.80000
O 	O 	0.32950 0.28290 0.39350 -0.76100
O 	O 	0.36610 0.30040 0.42660 -0.71200
O 	O 	0.34130 0.28830 0.46950 -0.75600
O 	O 	0.37250 0.32170 0.47210 -0.86900
Al	Al	0.82990 0.71950 0.36620 2.39300
Al	Al	0.85580 0.68880 0.46160 2.38800
Al	Al	0.86160 0.77760 0.40470 2.39900
P 	P 	0.87040 0.71890 0.41120 0.68600
P 	P 	0.81620 0.77920 0.36530 0.70300
P 	P 	0.85170 0.81170 0.45400 0.65000
O 	O 	0.87390 0.74960 0.41910 -0.73800
O 	O 	0.88730 0.71300 0.38590 -0.90100
O 	O 	0.84090 0.71870 0.39830 -0.79900
O 	O 	0.87120 0.70120 0.43410 -0.73200
O 	O 	0.80930 0.74680 0.36490 -0.64800
O 	O 	0.79710 0.80040 0.36540 -0.70300
O 	O 	0.83650 0.78190 0.34270 -0.89000
O 	O 	0.83680 0.71410 0.47170 -0.81400
O 	O 	0.83040 0.83220 0.44460 -0.74900
O 	O 	0.88200 0.67000 0.47340 -0.80000
O 	O 	0.82950 0.78290 0.39350 -0.76100
O 	O 	0.86610 0.80040 0.42660 -0.71200
O 	O 	0.84130 0.78830 0.46950 -0.75600
O 	O 	0.87250 0.82170 0.47210 -0.86900
Al	Al	0.82990 0.21950 0.86620 2.39300
Al	Al	0.85580 0.18880 0.96160 2.38800
Al	Al	0.86160 0.27760 0.90470 2.39900
P 	P 	0.87040 0.21890 0.91120 0.68600
P 	P 	0.81620 0.27920 0.86530 0.70300
P 	P 	0.85170 0.31170 0.95400 0.65000
O 	O 	0.87390 0.24960 0.91910 -0.73800
O 	O 	0.88730 0.21300 0.88590 -0.90100
O 	O 	0.84090 0.21870 0.89830 -0.79800
O 	O 	0.87120 0.20120 0.93410 -0.73200
O 	O 	0.80930 0.24680 0.86490 -0.64800
O 	O 	0.79710 0.30040 0.86540 -0.70300
O 	O 	0.83650 0.28190 0.84270 -0.89000
O 	O 	0.83680 0.21410 0.97170 -0.81200
O 	O 	0.83040 0.33220 0.94460 -0.74900
O 	O 	0.88200 0.17000 0.97340 -0.79700
O 	O 	0.82950 0.28290 0.89350 -0.76100
O 	O 	0.86610 0.30040 0.92660 -0.71200
O 	O 	0.84130 0.28830 0.96950 -0.75400
O 	O 	0.87250 0.32170 0.97210 -0.86700
Al	Al	0.67010 0.71950 0.13380 2.39300
Al	Al	0.64420 0.68880 0.03840 2.38800
Al	Al	0.63840 0.77760 0.09530 2.39900
P 	P 	0.62960 0.71890 0.08880 0.68600
P 	P 	0.68380 0.77920 0.13470 0.70300
P 	P 	0.64830 0.81170 0.04600 0.65000
O 	O 	0.62610 0.74960 0.08090 -0.73900
O 	O 	0.61270 0.71300 0.11410 -0.90100
O 	O 	0.65910 0.71870 0.10170 -0.79900
O 	O 	0.62880 0.70120 0.06590 -0.73200
O 	O 	0.69070 0.74680 0.13510 -0.64800
O 	O 	0.70290 0.80040 0.13460 -0.70300
O 	O 	0.66350 0.78190 0.15730 -0.89000
O 	O 	0.66320 0.71410 0.02830 -0.81400
O 	O 	0.66960 0.83220 0.05540 -0.75000
O 	O 	0.61800 0.67000 0.02660 -0.80000
O 	O 	0.67050 0.78290 0.10650 -0.76100
O 	O 	0.63390 0.80040 0.07340 -0.71200
O 	O 	0.65870 0.78830 0.03050 -0.75700
O 	O 	0.62750 0.82170 0.02790 -0.87000
Al	Al	0.67010 0.21950 0.63380 2.39300
Al	Al	0.64420 0.18880 0.53840 2.38800
Al	Al	0.63840 0.27760 0.59530 2.39900
P 	P 	0.62960 0.21890 0.58880 0.68600
P 	P 	0.68380 0.27920 0.63470 0.70300
P 	P 	0.64830 0.31170 0.54600 0.65000
O 	O 	0.62610 0.24960 0.58090 -0.73900
O 	O 	0.61270 0.21300 0.61410 -0.90100
O 	O 	0.65910 0.21870 0.60170 -0.79900
O 	O 	0.62880 0.20120 0.56590 -0.73200
O 	O 	0.69070 0.24680 0.63510 -0.64800
O 	O 	0.70290 0.30040 0.63460 -0.70300
O 	O 	0.66350 0.28190 0.65730 -0.89000
O 	O 	0.66320 0.21410 0.52830 -0.81400
O 	O 	0.66960 0.33220 0.55540 -0.74900
O 	O 	0.61800 0.17000 0.52660 -0.80000
O 	O 	0.67050 0.28290 0.60650 -0.76100
O 	O 	0.63390 0.30040 0.57340 -0.71200
O 	O 	0.65870 0.28830 0.53050 -0.75600
O 	O 	0.62750 0.32170 0.52790 -0.86900
Al	Al	0.17010 0.71950 0.63380 2.39300
Al	Al	0.14420 0.68880 0.53840 2.38800
Al	Al	0.13840 0.77760 0.59530 2.39900
P 	P 	0.12960 0.71890 0.58880 0.68600
P 	P 	0.18380 0.77920 0.63470 0.70300
P 	P 	0.14830 0.81170 0.54600 0.65000
O 	O 	0.12610 0.74960 0.58090 -0.73900
O 	O 	0.11270 0.71300 0.61410 -0.90100
O 	O 	0.15910 0.71870 0.60170 -0.79900
O 	O 	0.12880 0.70120 0.56590 -0.73200
O 	O 	0.19070 0.74680 0.63510 -0.64800
O 	O 	0.20290 0.80040 0.63460 -0.70300
O 	O 	0.16350 0.78190 0.65730 -0.89000
O 	O 	0.16320 0.71410 0.52830 -0.81400
O 	O 	0.16960 0.83220 0.55540 -0.74900
O 	O 	0.11800 0.67000 0.52660 -0.80000
O 	O 	0.17050 0.78290 0.60650 -0.76100
O 	O 	0.13390 0.80040 0.57340 -0.71200
O 	O 	0.15870 0.78830 0.53050 -0.75600
O 	O 	0.12750 0.82170 0.52790 -0.86900
Al	Al	0.17010 0.21950 0.13380 2.39300
Al	Al	0.14420 0.18880 0.03840 2.38800
Al	Al	0.13840 0.27760 0.09530 2.39900
P 	P 	0.12960 0.21890 0.08880 0.68600
P 	P 	0.18380 0.27920 0.13470 0.70300
P 	P 	0.14830 0.31170 0.04600 0.65000
O 	O 	0.12610 0.24960 0.08090 -0.73900
O 	O 	0.11270 0.21300 0.11410 -0.90100
O 	O 	0.15910 0.21870 0.10170 -0.79900
O 	O 	0.12880 0.20120 0.06590 -0.73300
O 	O 	0.19070 0.24680 0.13510 -0.64800
O 	O 	0.20290 0.30040 0.13460 -0.70300
O 	O 	0.16350 0.28190 0.15730 -0.89000
O 	O 	0.16320 0.21410 0.02830 -0.81400
O 	O 	0.16960 0.33220 0.05540 -0.75000
O 	O 	0.11800 0.17000 0.02660 -0.80000
O 	O 	0.17050 0.28290 0.10650 -0.76100
O 	O 	0.13390 0.30040 0.07340 -0.71200
O 	O 	0.15870 0.28830 0.03050 -0.75700
O 	O 	0.12750 0.32170 0.02790 -0.87000
Al	Al	0.82990 0.63380 0.21950 2.39300
Al	Al	0.85580 0.53840 0.18880 2.38800
Al	Al	0.86160 0.59530 0.27760 2.39900
P 	P 	0.87040 0.58880 0.21890 0.68600
P 	P 	0.81620 0.63470 0.27920 0.70300
P 	P 	0.85170 0.54600 0.31170 0.65000
O 	O 	0.87390 0.58090 0.24960 -0.73800
O 	O 	0.88730 0.61410 0.21300 -0.90100
O 	O 	0.84090 0.60170 0.21870 -0.79900
O 	O 	0.87120 0.56590 0.20120 -0.73200
O 	O 	0.80930 0.63510 0.24680 -0.64800
O 	O 	0.79710 0.63460 0.30040 -0.70300
O 	O 	0.83650 0.65730 0.28190 -0.89000
O 	O 	0.83680 0.52830 0.21410 -0.81400
O 	O 	0.83040 0.55540 0.33220 -0.74900
O 	O 	0.88200 0.52660 0.17000 -0.80000
O 	O 	0.82950 0.60650 0.28290 -0.76100
O 	O 	0.86610 0.57340 0.30040 -0.71200
O 	O 	0.84130 0.53050 0.28830 -0.75600
O 	O 	0.87250 0.52790 0.32170 -0.86900
Al	Al	0.82990 0.13380 0.71950 2.39300
Al	Al	0.85580 0.03840 0.68880 2.38800
Al	Al	0.86160 0.09530 0.77760 2.39900
P 	P 	0.87040 0.08880 0.71890 0.68600
P 	P 	0.81620 0.13470 0.77920 0.70300
P 	P 	0.85170 0.04600 0.81170 0.65000
O 	O 	0.87390 0.08090 0.74960 -0.73900
O 	O 	0.88730 0.11410 0.71300 -0.90100
O 	O 	0.84090 0.10170 0.71870 -0.79900
O 	O 	0.87120 0.06590 0.70120 -0.73200
O 	O 	0.80930 0.13510 0.74680 -0.64800
O 	O 	0.79710 0.13460 0.80040 -0.70300
O 	O 	0.83650 0.15730 0.78190 -0.89000
O 	O 	0.83680 0.02830 0.71410 -0.81400
O 	O 	0.83040 0.05540 0.83220 -0.75000
O 	O 	0.88200 0.02660 0.67000 -0.80000
O 	O 	0.82950 0.10650 0.78290 -0.76100
O 	O 	0.86610 0.07340 0.80040 -0.71200
O 	O 	0.84130 0.03050 0.78830 -0.75700
O 	O 	0.87250 0.02790 0.82170 -0.87000
Al	Al	0.32990 0.63380 0.71950 2.39300
Al	Al	0.35580 0.53840 0.68880 2.38800
Al	Al	0.36160 0.59530 0.77760 2.39900
P 	P 	0.37040 0.58880 0.71890 0.68600
P 	P 	0.31620 0.63470 0.77920 0.70300
P 	P 	0.35170 0.54600 0.81170 0.65000
O 	O 	0.37390 0.58090 0.74960 -0.73900
O 	O 	0.38730 0.61410 0.71300 -0.90100
O 	O 	0.34090 0.60170 0.71870 -0.79900
O 	O 	0.37120 0.56590 0.70120 -0.73200
O 	O 	0.30930 0.63510 0.74680 -0.64800
O 	O 	0.29710 0.63460 0.80040 -0.70300
O 	O 	0.33650 0.65730 0.78190 -0.89000
O 	O 	0.33680 0.52830 0.71410 -0.81400
O 	O 	0.33040 0.55540 0.83220 -0.74900
O 	O 	0.38200 0.52660 0.67000 -0.80000
O 	O 	0.32950 0.60650 0.78290 -0.76100
O 	O 	0.36610 0.57340 0.80040 -0.71200
O 	O 	0.34130 0.53050 0.78830 -0.75600
O 	O 	0.37250 0.52790 0.82170 -0.86900
Al	Al	0.32990 0.13380 0.21950 2.39300
Al	Al	0.35580 0.03840 0.18880 2.38800
Al	Al	0.36160 0.09530 0.27760 2.39900
P 	P 	0.37040 0.08880 0.21890 0.68600
P 	P 	0.31620 0.13470 0.27920 0.70300
P 	P 	0.35170 0.04600 0.31170 0.65000
O 	O 	0.37390 0.08090 0.24960 -0.73900
O 	O 	0.38730 0.11410 0.21300 -0.90100
O 	O 	0.34090 0.10170 0.21870 -0.79900
O 	O 	0.37120 0.06590 0.20120 -0.73200
O 	O 	0.30930 0.13510 0.24680 -0.64800
O 	O 	0.29710 0.13460 0.30040 -0.70300
O 	O 	0.33650 0.15730 0.28190 -0.89000
O 	O 	0.33680 0.02830 0.21410 -0.81400
O 	O 	0.33040 0.05540 0.33220 -0.75000
O 	O 	0.38200 0.02660 0.17000 -0.80000
O 	O 	0.32950 0.10650 0.28290 -0.76100
O 	O 	0.36610 0.07340 0.30040 -0.71200
O 	O 	0.34130 0.03050 0.28830 -0.75700
O 	O 	0.37250 0.02790 0.32170 -0.87000
Al	Al	0.17010 0.36620 0.21950 2.39300
Al	Al	0.14420 0.46160 0.18880 2.38800
Al	Al	0.13840 0.40470 0.27760 2.39900
P 	P 	0.12960 0.41120 0.21890 0.68600
P 	P 	0.18380 0.36530 0.27920 0.70300
P 	P 	0.14830 0.45400 0.31170 0.65000
O 	O 	0.12610 0.41910 0.24960 -0.73900
O 	O 	0.11270 0.38590 0.21300 -0.90100
O 	O 	0.15910 0.39830 0.21870 -0.79900
O 	O 	0.12880 0.43410 0.20120 -0.73200
O 	O 	0.19070 0.36490 0.24680 -0.64800
O 	O 	0.20290 0.36540 0.30040 -0.70300
O 	O 	0.16350 0.34270 0.28190 -0.89000
O 	O 	0.16320 0.47170 0.21410 -0.81400
O 	O 	0.16960 0.44460 0.33220 -0.74900
O 	O 	0.11800 0.47340 0.17000 -0.80000
O 	O 	0.17050 0.39350 0.28290 -0.76100
O 	O 	0.13390 0.42660 0.30040 -0.71200
O 	O 	0.15870 0.46950 0.28830 -0.75600
O 	O 	0.12750 0.47210 0.32170 -0.86900
Al	Al	0.17010 0.86620 0.71950 2.39300
Al	Al	0.14420 0.96160 0.68880 2.38800
Al	Al	0.13840 0.90470 0.77760 2.39900
P 	P 	0.12960 0.91120 0.71890 0.68600
P 	P 	0.18380 0.86530 0.77920 0.70300
P 	P 	0.14830 0.95400 0.81170 0.65000
O 	O 	0.12610 0.91910 0.74960 -0.73800
O 	O 	0.11270 0.88590 0.71300 -0.90100
O 	O 	0.15910 0.89830 0.71870 -0.79800
O 	O 	0.12880 0.93410 0.70120 -0.73200
O 	O 	0.19070 0.86490 0.74680 -0.64800
O 	O 	0.20290 0.86540 0.80040 -0.70300
O 	O 	0.16350 0.84270 0.78190 -0.89000
O 	O 	0.16320 0.97170 0.71410 -0.81200
O 	O 	0.16960 0.94460 0.83220 -0.74900
O 	O 	0.11800 0.97340 0.67000 -0.79800
O 	O 	0.17050 0.89350 0.78290 -0.76100
O 	O 	0.13390 0.92660 0.80040 -0.71200
O 	O 	0.15870 0.96950 0.78830 -0.75500
O 	O 	0.12750 0.97210 0.82170 -0.86800
Al	Al	0.67010 0.36620 0.71950 2.39300
Al	Al	0.64420 0.46160 0.68880 2.38800
Al	Al	0.63840 0.40470 0.77760 2.39900
P 	P 	0.62960 0.41120 0.71890 0.68600
P 	P 	0.68380 0.36530 0.77920 0.70300
P 	P 	0.64830 0.45400 0.81170 0.65000
O 	O 	0.62610 0.41910 0.74960 -0.73900
O 	O 	0.61270 0.38590 0.71300 -0.90100
O 	O 	0.65910 0.39830 0.71870 -0.79900
O 	O 	0.62880 0.43410 0.70120 -0.73200
O 	O 	0.69070 0.36490 0.74680 -0.64800
O 	O 	0.70290 0.36540 0.80040 -0.70300
O 	O 	0.66350 0.34270 0.78190 -0.89000
O 	O 	0.66320 0.47170 0.71410 -0.81400
O 	O 	0.66960 0.44460 0.83220 -0.74900
O 	O 	0.61800 0.47340 0.67000 -0.80000
O 	O 	0.67050 0.39350 0.78290 -0.76100
O 	O 	0.63390 0.42660 0.80040 -0.71200
O 	O 	0.65870 0.46950 0.78830 -0.75600
O 	O 	0.62750 0.47210 0.82170 -0.86900
Al	Al	0.67010 0.86620 0.21950 2.39300
Al	Al	0.64420 0.96160 0.18880 2.38800
Al	Al	0.63840 0.90470 0.27760 2.39900
P 	P 	0.62960 0.91120 0.21890 0.68600
P 	P 	0.68380 0.86530 0.27920 0.70300
P 	P 	0.64830 0.95400 0.31170 0.65000
O 	O 	0.62610 0.91910 0.24960 -0.73800
O 	O 	0.61270 0.88590 0.21300 -0.90100
O 	O 	0.65910 0.89830 0.21870 -0.79800
O 	O 	0.62880 0.93410 0.20120 -0.73200
O 	O 	0.69070 0.86490 0.24680 -0.64800
O 	O 	0.70290 0.86540 0.30040 -0.70300
O 	O 	0.66350 0.84270 0.28190 -0.89000
O 	O 	0.66320 0.97170 0.21410 -0.81200
O 	O 	0.66960 0.94460 0.33220 -0.74900
O 	O 	0.61800 0.97340 0.17000 -0.79700
O 	O 	0.67050 0.89350 0.28290 -0.76100
O 	O 	0.63390 0.92660 0.30040 -0.71200
O 	O 	0.65870 0.96950 0.28830 -0.75400
O 	O 	0.62750 0.97210 0.32170 -0.86800
Al	Al	0.82990 0.36620 0.78050 2.39300
Al	Al	0.85580 0.46160 0.81120 2.38800
Al	Al	0.86160 0.40470 0.72240 2.39900
P 	P 	0.87040 0.41120 0.78110 0.68600
P 	P 	0.81620 0.36530 0.72080 0.70300
P 	P 	0.85170 0.45400 0.68830 0.65000
O 	O 	0.87390 0.41910 0.75040 -0.73800
O 	O 	0.88730 0.38590 0.78700 -0.90100
O 	O 	0.84090 0.39830 0.78130 -0.79900
O 	O 	0.87120 0.43410 0.79880 -0.73200
O 	O 	0.80930 0.36490 0.75320 -0.64800
O 	O 	0.79710 0.36540 0.69960 -0.70300
O 	O 	0.83650 0.34270 0.71810 -0.89000
O 	O 	0.83680 0.47170 0.78590 -0.81400
O 	O 	0.83040 0.44460 0.66780 -0.74900
O 	O 	0.88200 0.47340 0.83000 -0.80000
O 	O 	0.82950 0.39350 0.71710 -0.76100
O 	O 	0.86610 0.42660 0.69960 -0.71200
O 	O 	0.84130 0.46950 0.71170 -0.75600
O 	O 	0.87250 0.47210 0.67830 -0.86900
Al	Al	0.82990 0.86620 0.28050 2.39300
Al	Al	0.85580 0.96160 0.31120 2.38800
Al	Al	0.86160 0.90470 0.22240 2.39900
P 	P 	0.87040 0.91120 0.28110 0.68600
P 	P 	0.81620 0.86530 0.22080 0.70300
P 	P 	0.85170 0.95400 0.18830 0.65000
O 	O 	0.87390 0.91910 0.25040 -0.73800
O 	O 	0.88730 0.88590 0.28700 -0.90100
O 	O 	0.84090 0.89830 0.28130 -0.79800
O 	O 	0.87120 0.93410 0.29880 -0.73200
O 	O 	0.80930 0.86490 0.25320 -0.64800
O 	O 	0.79710 0.86540 0.19960 -0.70300
O 	O 	0.83650 0.84270 0.21810 -0.89000
O 	O 	0.83680 0.97170 0.28590 -0.81200
O 	O 	0.83040 0.94460 0.16780 -0.74900
O 	O 	0.88200 0.97340 0.33000 -0.79700
O 	O 	0.82950 0.89350 0.21710 -0.76100
O 	O 	0.86610 0.92660 0.19960 -0.71200
O 	O 	0.84130 0.96950 0.21170 -0.75400
O 	O 	0.87250 0.97210 0.17830 -0.86700
Al	Al	0.32990 0.36620 0.28050 2.39300
Al	Al	0.35580 0.46160 0.31120 2.38800
Al	Al	0.36160 0.40470 0.22240 2.39900
P 	P 	0.37040 0.41120 0.28110 0.68600
P 	P 	0.31620 0.36530 0.22080 0.70300
P 	P 	0.35170 0.45400 0.18830 0.65000
O 	O 	0.37390 0.41910 0.25040 -0.73800
O 	O 	0.38730 0.38590 0.28700 -0.90100
O 	O 	0.34090 0.39830 0.28130 -0.79900
O 	O 	0.37120 0.43410 0.29880 -0.73200
O 	O 	0.30930 0.36490 0.25320 -0.64800
O 	O 	0.29710 0.36540 0.19960 -0.70300
O 	O 	0.33650 0.34270 0.21810 -0.89000
O 	O 	0.33680 0.47170 0.28590 -0.81400
O 	O 	0.33040 0.44460 0.16780 -0.74900
O 	O 	0.38200 0.47340 0.33000 -0.80000
O 	O 	0.32950 0.39350 0.21710 -0.76100
O 	O 	0.36610 0.42660 0.19960 -0.71200
O 	O 	0.34130 0.46950 0.21170 -0.75600
O 	O 	0.37250 0.47210 0.17830 -0.86900
Al	Al	0.32990 0.86620 0.78050 2.39300
Al	Al	0.35580 0.96160 0.81120 2.38800
Al	Al	0.36160 0.90470 0.72240 2.39900
P 	P 	0.37040 0.91120 0.78110 0.68600
P 	P 	0.31620 0.86530 0.72080 0.70300
P 	P 	0.35170 0.95400 0.68830 0.65000
O 	O 	0.37390 0.91910 0.75040 -0.73800
O 	O 	0.38730 0.88590 0.78700 -0.90100
O 	O 	0.34090 0.89830 0.78130 -0.79800
O 	O 	0.37120 0.93410 0.79880 -0.73200
O 	O 	0.30930 0.86490 0.75320 -0.64800
O 	O 	0.29710 0.86540 0.69960 -0.70300
O 	O 	0.33650 0.84270 0.71810 -0.89000
O 	O 	0.33680 0.97170 0.78590 -0.81200
O 	O 	0.33040 0.94460 0.66780 -0.74900
O 	O 	0.38200 0.97340 0.83000 -0.79700
O 	O 	0.32950 0.89350 0.71710 -0.76100
O 	O 	0.36610 0.92660 0.69960 -0.71200
O 	O 	0.34130 0.96950 0.71170 -0.75400
O 	O 	0.37250 0.97210 0.67830 -0.86800
Al	Al	0.17010 0.63380 0.78050 2.39300
Al	Al	0.14420 0.53840 0.81120 2.38800
Al	Al	0.13840 0.59530 0.72240 2.39900
P 	P 	0.12960 0.58880 0.78110 0.68600
P 	P 	0.18380 0.63470 0.72080 0.70300
P 	P 	0.14830 0.54600 0.68830 0.65000
O 	O 	0.12610 0.58090 0.75040 -0.73900
O 	O 	0.11270 0.61410 0.78700 -0.90100
O 	O 	0.15910 0.60170 0.78130 -0.79900
O 	O 	0.12880 0.56590 0.79880 -0.73200
O 	O 	0.19070 0.63510 0.75320 -0.64800
O 	O 	0.20290 0.63460 0.69960 -0.70300
O 	O 	0.16350 0.65730 0.71810 -0.89000
O 	O 	0.16320 0.52830 0.78590 -0.81400
O 	O 	0.16960 0.55540 0.66780 -0.74900
O 	O 	0.11800 0.52660 0.83000 -0.80000
O 	O 	0.17050 0.60650 0.71710 -0.76100
O 	O 	0.13390 0.57340 0.69960 -0.71200
O 	O 	0.15870 0.53050 0.71170 -0.75600
O 	O 	0.12750 0.52790 0.67830 -0.86900
Al	Al	0.17010 0.13380 0.28050 2.39300
Al	Al	0.14420 0.03840 0.31120 2.38800
Al	Al	0.13840 0.09530 0.22240 2.39900
P 	P 	0.12960 0.08880 0.28110 0.68600
P 	P 	0.18380 0.13470 0.22080 0.70300
P 	P 	0.14830 0.04600 0.18830 0.65000
O 	O 	0.12610 0.08090 0.25040 -0.73900
O 	O 	0.11270 0.11410 0.28700 -0.90100
O 	O 	0.15910 0.10170 0.28130 -0.79900
O 	O 	0.12880 0.06590 0.29880 -0.73300
O 	O 	0.19070 0.13510 0.25320 -0.64800
O 	O 	0.20290 0.13460 0.19960 -0.70300
O 	O 	0.16350 0.15730 0.21810 -0.89000
O 	O 	0.16320 0.02830 0.28590 -0.81400
O 	O 	0.16960 0.05540 0.16780 -0.75000
O 	O 	0.11800 0.02660 0.33000 -0.80000
O 	O 	0.17050 0.10650 0.21710 -0.76100
O 	O 	0.13390 0.07340 0.19960 -0.71200
O 	O 	0.15870 0.03050 0.21170 -0.75700
O 	O 	0.12750 0.02790 0.17830 -0.87000
Al	Al	0.67010 0.63380 0.28050 2.39300
Al	Al	0.64420 0.53840 0.31120 2.38800
Al	Al	0.63840 0.59530 0.22240 2.39900
P 	P 	0.62960 0.58880 0.28110 0.68600
P 	P 	0.68380 0.63470 0.22080 0.70300
P 	P 	0.64830 0.54600 0.18830 0.65000
O 	O 	0.62610 0.58090 0.25040 -0.73900
O 	O 	0.61270 0.61410 0.28700 -0.90100
O 	O 	0.65910 0.60170 0.28130 -0.79900
O 	O 	0.62880 0.56590 0.29880 -0.73200
O 	O 	0.69070 0.63510 0.25320 -0.64800
O 	O 	0.70290 0.63460 0.19960 -0.70300
O 	O 	0.66350 0.65730 0.21810 -0.89000
O 	O 	0.66320 0.52830 0.28590 -0.81400
O 	O 	0.66960 0.55540 0.16780 -0.74900
O 	O 	0.61800 0.52660 0.33000 -0.80000
O 	O 	0.67050 0.60650 0.21710 -0.76100
O 	O 	0.63390 0.57340 0.19960 -0.71200
O 	O 	0.65870 0.53050 0.21170 -0.75600
O 	O 	0.62750 0.52790 0.17830 -0.86900
Al	Al	0.67010 0.13380 0.78050 2.39300
Al	Al	0.64420 0.03840 0.81120 2.38800
Al	Al	0.63840 0.09530 0.72240 2.39900
P 	P 	0.62960 0.08880 0.78110 0.68600
P 	P 	0.68380 0.13470 0.72080 0.70300
P 	P 	0.64830 0.04600 0.68830 0.65000
O 	O 	0.62610 0.08090 0.75040 -0.73900
O 	O 	0.61270 0.11410 0.78700 -0.90100
O 	O 	0.65910 0.10170 0.78130 -0.79900
O 	O 	0.62880 0.06590 0.79880 -0.73200
O 	O 	0.69070 0.13510 0.75320 -0.64800
O 	O 	0.70290 0.13460 0.69960 -0.70300
O 	O 	0.66350 0.15730 0.71810 -0.89000
O 	O 	0.66320 0.02830 0.78590 -0.81400
O 	O 	0.66960 0.05540 0.66780 -0.75000
O 	O 	0.61800 0.02660 0.83000 -0.80000
O 	O 	0.67050 0.10650 0.71710 -0.76100
O 	O 	0.63390 0.07340 0.69960 -0.71200
O 	O 	0.65870 0.03050 0.71170 -0.75700
O 	O 	0.62750 0.02790 0.67830 -0.87000
Al	Al	0.63380 0.78050 0.17010 2.39300
Al	Al	0.53840 0.81120 0.14420 2.38800
Al	Al	0.59530 0.72240 0.13840 2.39900
P 	P 	0.58880 0.78110 0.12960 0.68600
P 	P 	0.63470 0.72080 0.18380 0.70300
P 	P 	0.54600 0.68830 0.14830 0.65000
O 	O 	0.58090 0.75040 0.12610 -0.73900
O 	O 	0.61410 0.78700 0.11270 -0.90100
O 	O 	0.60170 0.78130 0.15910 -0.79900
O 	O 	0.56590 0.79880 0.12880 -0.73200
O 	O 	0.63510 0.75320 0.19070 -0.64800
O 	O 	0.63460 0.69960 0.20290 -0.70300
O 	O 	0.65730 0.71810 0.16350 -0.89000
O 	O 	0.52830 0.78590 0.16320 -0.81400
O 	O 	0.55540 0.66780 0.16960 -0.74900
O 	O 	0.52660 0.83000 0.11800 -0.80000
O 	O 	0.60650 0.71710 0.17050 -0.76100
O 	O 	0.57340 0.69960 0.13390 -0.71200
O 	O 	0.53050 0.71170 0.15870 -0.75600
O 	O 	0.52790 0.67830 0.12750 -0.86900
Al	Al	0.63380 0.28050 0.67010 2.39300
Al	Al	0.53840 0.31120 0.64420 2.38800
Al	Al	0.59530 0.22240 0.63840 2.39900
P 	P 	0.58880 0.28110 0.62960 0.68600
P 	P 	0.63470 0.22080 0.68380 0.70300
P 	P 	0.54600 0.18830 0.64830 0.65000
O 	O 	0.58090 0.25040 0.62610 -0.73900
O 	O 	0.61410 0.28700 0.61270 -0.90100
O 	O 	0.60170 0.28130 0.65910 -0.79900
O 	O 	0.56590 0.29880 0.62880 -0.73200
O 	O 	0.63510 0.25320 0.69070 -0.64800
O 	O 	0.63460 0.19960 0.70290 -0.70300
O 	O 	0.65730 0.21810 0.66350 -0.89000
O 	O 	0.52830 0.28590 0.66320 -0.81400
O 	O 	0.55540 0.16780 0.66960 -0.74900
O 	O 	0.52660 0.33000 0.61800 -0.80000
O 	O 	0.60650 0.21710 0.67050 -0.76100
O 	O 	0.57340 0.19960 0.63390 -0.71200
O 	O 	0.53050 0.21170 0.65870 -0.75600
O 	O 	0.52790 0.17830 0.62750 -0.86900
Al	Al	0.13380 0.78050 0.67010 2.39300
Al	Al	0.03840 0.81120 0.64420 2.38800
Al	Al	0.09530 0.72240 0.63840 2.39900
P 	P 	0.08880 0.78110 0.62960 0.68600
P 	P 	0.13470 0.72080 0.68380 0.70300
P 	P 	0.04600 0.68830 0.64830 0.65000
O 	O 	0.08090 0.75040 0.62610 -0.73900
O 	O 	0.11410 0.78700 0.61270 -0.90100
O 	O 	0.10170 0.78130 0.65910 -0.79900
O 	O 	0.06590 0.79880 0.62880 -0.73200
O 	O 	0.13510 0.75320 0.69070 -0.64800
O 	O 	0.13460 0.69960 0.70290 -0.70300
O 	O 	0.15730 0.71810 0.66350 -0.89000
O 	O 	0.02830 0.78590 0.66320 -0.81400
O 	O 	0.05540 0.66780 0.66960 -0.75000
O 	O 	0.02660 0.83000 0.61800 -0.80000
O 	O 	0.10650 0.71710 0.67050 -0.76100
O 	O 	0.07340 0.69960 0.63390 -0.71200
O 	O 	0.03050 0.71170 0.65870 -0.75700
O 	O 	0.02790 0.67830 0.62750 -0.87000
Al	Al	0.13380 0.28050 0.17010 2.39300
Al	Al	0.03840 0.31120 0.14420 2.38800
Al	Al	0.09530 0.22240 0.13840 2.39900
P 	P 	0.08880 0.28110 0.12960 0.68600
P 	P 	0.13470 0.22080 0.18380 0.70300
P 	P 	0.04600 0.18830 0.14830 0.65000
O 	O 	0.08090 0.25040 0.12610 -0.73900
O 	O 	0.11410 0.28700 0.11270 -0.90100
O 	O 	0.10170 0.28130 0.15910 -0.79900
O 	O 	0.06590 0.29880 0.12880 -0.73300
O 	O 	0.13510 0.25320 0.19070 -0.64800
O 	O 	0.13460 0.19960 0.20290 -0.70300
O 	O 	0.15730 0.21810 0.16350 -0.89000
O 	O 	0.02830 0.28590 0.16320 -0.81400
O 	O 	0.05540 0.16780 0.16960 -0.75000
O 	O 	0.02660 0.33000 0.11800 -0.80000
O 	O 	0.10650 0.21710 0.17050 -0.76100
O 	O 	0.07340 0.19960 0.13390 -0.71200
O 	O 	0.03050 0.21170 0.15870 -0.75700
O 	O 	0.02790 0.17830 0.12750 -0.87000
Al	Al	0.36620 0.78050 0.82990 2.39300
Al	Al	0.46160 0.81120 0.85580 2.38800
Al	Al	0.40470 0.72240 0.86160 2.39900
P 	P 	0.41120 0.78110 0.87040 0.68600
P 	P 	0.36530 0.72080 0.81620 0.70300
P 	P 	0.45400 0.68830 0.85170 0.65000
O 	O 	0.41910 0.75040 0.87390 -0.73800
O 	O 	0.38590 0.78700 0.88730 -0.90100
O 	O 	0.39830 0.78130 0.84090 -0.79900
O 	O 	0.43410 0.79880 0.87120 -0.73200
O 	O 	0.36490 0.75320 0.80930 -0.64800
O 	O 	0.36540 0.69960 0.79710 -0.70300
O 	O 	0.34270 0.71810 0.83650 -0.89000
O 	O 	0.47170 0.78590 0.83680 -0.81400
O 	O 	0.44460 0.66780 0.83040 -0.74900
O 	O 	0.47340 0.83000 0.88200 -0.80000
O 	O 	0.39350 0.71710 0.82950 -0.76100
O 	O 	0.42660 0.69960 0.86610 -0.71200
O 	O 	0.46950 0.71170 0.84130 -0.75600
O 	O 	0.47210 0.67830 0.87250 -0.86900
Al	Al	0.36620 0.28050 0.32990 2.39300
Al	Al	0.46160 0.31120 0.35580 2.38800
Al	Al	0.40470 0.22240 0.36160 2.39900
P 	P 	0.41120 0.28110 0.37040 0.68600
P 	P 	0.36530 0.22080 0.31620 0.70300
P 	P 	0.45400 0.18830 0.35170 0.65000
O 	O 	0.41910 0.25040 0.37390 -0.73800
O 	O 	0.38590 0.28700 0.38730 -0.90100
O 	O 	0.39830 0.28130 0.34090 -0.79900
O 	O 	0.43410 0.29880 0.37120 -0.73200
O 	O 	0.36490 0.25320 0.30930 -0.64800
O 	O 	0.36540 0.19960 0.29710 -0.70300
O 	O 	0.34270 0.21810 0.33650 -0.89000
O 	O 	0.47170 0.28590 0.33680 -0.81400
O 	O 	0.44460 0.16780 0.33040 -0.74900
O 	O 	0.47340 0.33000 0.38200 -0.80000
O 	O 	0.39350 0.21710 0.32950 -0.76100
O 	O 	0.42660 0.19960 0.36610 -0.71200
O 	O 	0.46950 0.21170 0.34130 -0.75600
O 	O 	0.47210 0.17830 0.37250 -0.86900
Al	Al	0.86620 0.78050 0.32990 2.39300
Al	Al	0.96160 0.81120 0.35580 2.38800
Al	Al	0.90470 0.72240 0.36160 2.39900
P 	P 	0.91120 0.78110 0.37040 0.68600
P 	P 	0.86530 0.72080 0.31620 0.70300
P 	P 	0.95400 0.68830 0.35170 0.65000
O 	O 	0.91910 0.75040 0.37390 -0.73800
O 	O 	0.88590 0.78700 0.38730 -0.90100
O 	O 	0.89830 0.78130 0.34090 -0.79800
O 	O 	0.93410 0.79880 0.37120 -0.73200
O 	O 	0.86490 0.75320 0.30930 -0.64800
O 	O 	0.86540 0.69960 0.29710 -0.70300
O 	O 	0.84270 0.71810 0.33650 -0.89000
O 	O 	0.97170 0.78590 0.33680 -0.81200
O 	O 	0.94460 0.66780 0.33040 -0.74900
O 	O 	0.97340 0.83000 0.38200 -0.79700
O 	O 	0.89350 0.71710 0.32950 -0.76100
O 	O 	0.92660 0.69960 0.36610 -0.71200
O 	O 	0.96950 0.71170 0.34130 -0.75400
O 	O 	0.97210 0.67830 0.37250 -0.86800
Al	Al	0.86620 0.28050 0.82990 2.39300
Al	Al	0.96160 0.31120 0.85580 2.38800
Al	Al	0.90470 0.22240 0.86160 2.39900
P 	P 	0.91120 0.28110 0.87040 0.68600
P 	P 	0.86530 0.22080 0.81620 0.70300
P 	P 	0.95400 0.18830 0.85170 0.65000
O 	O 	0.91910 0.25040 0.87390 -0.73800
O 	O 	0.88590 0.28700 0.88730 -0.90100
O 	O 	0.89830 0.28130 0.84090 -0.79800
O 	O 	0.93410 0.29880 0.87120 -0.73200
O 	O 	0.86490 0.25320 0.80930 -0.64800
O 	O 	0.86540 0.19960 0.79710 -0.70300
O 	O 	0.84270 0.21810 0.83650 -0.89000
O 	O 	0.97170 0.28590 0.83680 -0.81200
O 	O 	0.94460 0.16780 0.83040 -0.74900
O 	O 	0.97340 0.33000 0.88200 -0.79700
O 	O 	0.89350 0.21710 0.82950 -0.76100
O 	O 	0.92660 0.19960 0.86610 -0.71200
O 	O 	0.96950 0.21170 0.84130 -0.75400
O 	O 	0.97210 0.17830 0.87250 -0.86700
Al	Al	0.36620 0.21950 0.17010 2.39300
Al	Al	0.46160 0.18880 0.14420 2.38800
Al	Al	0.40470 0.27760 0.13840 2.39900
P 	P 	0.41120 0.21890 0.12960 0.68600
P 	P 	0.36530 0.27920 0.18380 0.70300
P 	P 	0.45400 0.31170 0.14830 0.65000
O 	O 	0.41910 0.24960 0.12610 -0.73900
O 	O 	0.38590 0.21300 0.11270 -0.90100
O 	O 	0.39830 0.21870 0.15910 -0.79900
O 	O 	0.43410 0.20120 0.12880 -0.73200
O 	O 	0.36490 0.24680 0.19070 -0.64800
O 	O 	0.36540 0.30040 0.20290 -0.70300
O 	O 	0.34270 0.28190 0.16350 -0.89000
O 	O 	0.47170 0.21410 0.16320 -0.81400
O 	O 	0.44460 0.33220 0.16960 -0.74900
O 	O 	0.47340 0.17000 0.11800 -0.80000
O 	O 	0.39350 0.28290 0.17050 -0.76100
O 	O 	0.42660 0.30040 0.13390 -0.71200
O 	O 	0.46950 0.28830 0.15870 -0.75600
O 	O 	0.47210 0.32170 0.12750 -0.86900
Al	Al	0.36620 0.71950 0.67010 2.39300
Al	Al	0.46160 0.68880 0.64420 2.38800
Al	Al	0.40470 0.77760 0.63840 2.39900
P 	P 	0.41120 0.71890 0.62960 0.68600
P 	P 	0.36530 0.77920 0.68380 0.70300
P 	P 	0.45400 0.81170 0.64830 0.65000
O 	O 	0.41910 0.74960 0.62610 -0.73900
O 	O 	0.38590 0.71300 0.61270 -0.90100
O 	O 	0.39830 0.71870 0.65910 -0.79900
O 	O 	0.43410 0.70120 0.62880 -0.73200
O 	O 	0.36490 0.74680 0.69070 -0.64800
O 	O 	0.36540 0.80040 0.70290 -0.70300
O 	O 	0.34270 0.78190 0.66350 -0.89000
O 	O 	0.47170 0.71410 0.66320 -0.81400
O 	O 	0.44460 0.83220 0.66960 -0.74900
O 	O 	0.47340 0.67000 0.61800 -0.80000
O 	O 	0.39350 0.78290 0.67050 -0.76100
O 	O 	0.42660 0.80040 0.63390 -0.71200
O 	O 	0.46950 0.78830 0.65870 -0.75600
O 	O 	0.47210 0.82170 0.62750 -0.86900
Al	Al	0.86620 0.21950 0.67010 2.39300
Al	Al	0.96160 0.18880 0.64420 2.38800
Al	Al	0.90470 0.27760 0.63840 2.39900
P 	P 	0.91120 0.21890 0.62960 0.68600
P 	P 	0.86530 0.27920 0.68380 0.70300
P 	P 	0.95400 0.31170 0.64830 0.65000
O 	O 	0.91910 0.24960 0.62610 -0.73800
O 	O 	0.88590 0.21300 0.61270 -0.90100
O 	O 	0.89830 0.21870 0.65910 -0.79800
O 	O 	0.93410 0.20120 0.62880 -0.73200
O 	O 	0.86490 0.24680 0.69070 -0.64800
O 	O 	0.86540 0.30040 0.70290 -0.70300
O 	O 	0.84270 0.28190 0.66350 -0.89000
O 	O 	0.97170 0.21410 0.66320 -0.81200
O 	O 	0.94460 0.33220 0.66960 -0.74900
O 	O 	0.97340 0.17000 0.61800 -0.79700
O 	O 	0.89350 0.28290 0.67050 -0.76100
O 	O 	0.92660 0.30040 0.63390 -0.71200
O 	O 	0.96950 0.28830 0.65870 -0.75400
O 	O 	0.97210 0.32170 0.62750 -0.86800
Al	Al	0.86620 0.71950 0.17010 2.39300
Al	Al	0.96160 0.68880 0.14420 2.38800
Al	Al	0.90470 0.77760 0.13840 2.39900
P 	P 	0.91120 0.71890 0.12960 0.68600
P 	P 	0.86530 0.77920 0.18380 0.70300
P 	P 	0.95400 0.81170 0.14830 0.65000
O 	O 	0.91910 0.74960 0.12610 -0.73800
O 	O 	0.88590 0.71300 0.11270 -0.90100
O 	O 	0.89830 0.71870 0.15910 -0.79800
O 	O 	0.93410 0.70120 0.12880 -0.73200
O 	O 	0.86490 0.74680 0.19070 -0.64800
O 	O 	0.86540 0.80040 0.20290 -0.70300
O 	O 	0.84270 0.78190 0.16350 -0.89000
O 	O 	0.97170 0.71410 0.16320 -0.81200
O 	O 	0.94460 0.83220 0.16960 -0.74900
O 	O 	0.97340 0.67000 0.11800 -0.79800
O 	O 	0.89350 0.78290 0.17050 -0.76100
O 	O 	0.92660 0.80040 0.13390 -0.71200
O 	O 	0.96950 0.78830 0.15870 -0.75500
O 	O 	0.97210 0.82170 0.12750 -0.86800
Al	Al	0.63380 0.21950 0.82990 2.39300
Al	Al	0.53840 0.18880 0.85580 2.38800
Al	Al	0.59530 0.27760 0.86160 2.39900
P 	P 	0.58880 0.21890 0.87040 0.68600
P 	P 	0.63470 0.27920 0.81620 0.70300
P 	P 	0.54600 0.31170 0.85170 0.65000
O 	O 	0.58090 0.24960 0.87390 -0.73800
O 	O 	0.61410 0.21300 0.88730 -0.90100
O 	O 	0.60170 0.21870 0.84090 -0.79900
O 	O 	0.56590 0.20120 0.87120 -0.73200
O 	O 	0.63510 0.24680 0.80930 -0.64800
O 	O 	0.63460 0.30040 0.79710 -0.70300
O 	O 	0.65730 0.28190 0.83650 -0.89000
O 	O 	0.52830 0.21410 0.83680 -0.81400
O 	O 	0.55540 0.33220 0.83040 -0.74900
O 	O 	0.52660 0.17000 0.88200 -0.80000
O 	O 	0.60650 0.28290 0.82950 -0.76100
O 	O 	0.57340 0.30040 0.86610 -0.71200
O 	O 	0.53050 0.28830 0.84130 -0.75600
O 	O 	0.52790 0.32170 0.87250 -0.86900
Al	Al	0.63380 0.71950 0.32990 2.39300
Al	Al	0.53840 0.68880 0.35580 2.38800
Al	Al	0.59530 0.77760 0.36160 2.39900
P 	P 	0.58880 0.71890 0.37040 0.68600
P 	P 	0.63470 0.77920 0.31620 0.70300
P 	P 	0.54600 0.81170 0.35170 0.65000
O 	O 	0.58090 0.74960 0.37390 -0.73900
O 	O 	0.61410 0.71300 0.38730 -0.90100
O 	O 	0.60170 0.71870 0.34090 -0.79900
O 	O 	0.56590 0.70120 0.37120 -0.73200
O 	O 	0.63510 0.74680 0.30930 -0.64800
O 	O 	0.63460 0.80040 0.29710 -0.70300
O 	O 	0.65730 0.78190 0.33650 -0.89000
O 	O 	0.52830 0.71410 0.33680 -0.81400
O 	O 	0.55540 0.83220 0.33040 -0.74900
O 	O 	0.52660 0.67000 0.38200 -0.80000
O 	O 	0.60650 0.78290 0.32950 -0.76100
O 	O 	0.57340 0.80040 0.36610 -0.71200
O 	O 	0.53050 0.78830 0.34130 -0.75600
O 	O 	0.52790 0.82170 0.37250 -0.86900
Al	Al	0.13380 0.21950 0.32990 2.39300
Al	Al	0.03840 0.18880 0.35580 2.38800
Al	Al	0.09530 0.27760 0.36160 2.39900
P 	P 	0.08880 0.21890 0.37040 0.68600
P 	P 	0.13470 0.27920 0.31620 0.70300
P 	P 	0.04600 0.31170 0.35170 0.65000
O 	O 	0.08090 0.24960 0.37390 -0.73900
O 	O 	0.11410 0.21300 0.38730 -0.90100
O 	O 	0.10170 0.21870 0.34090 -0.79900
O 	O 	0.06590 0.20120 0.37120 -0.73200
O 	O 	0.13510 0.24680 0.30930 -0.64800
O 	O 	0.13460 0.30040 0.29710 -0.70300
O 	O 	0.15730 0.28190 0.33650 -0.89000
O 	O 	0.02830 0.21410 0.33680 -0.81400
O 	O 	0.05540 0.33220 0.33040 -0.75000
O 	O 	0.02660 0.17000 0.38200 -0.80000
O 	O 	0.10650 0.28290 0.32950 -0.76100
O 	O 	0.07340 0.30040 0.36610 -0.71200
O 	O 	0.03050 0.28830 0.34130 -0.75700
O 	O 	0.02790 0.32170 0.37250 -0.87000
Al	Al	0.13380 0.71950 0.82990 2.39300
Al	Al	0.03840 0.68880 0.85580 2.38800
Al	Al	0.09530 0.77760 0.86160 2.39900
P 	P 	0.08880 0.71890 0.87040 0.68600
P 	P 	0.13470 0.77920 0.81620 0.70300
P 	P 	0.04600 0.81170 0.85170 0.65000
O 	O 	0.08090 0.74960 0.87390 -0.73900
O 	O 	0.11410 0.71300 0.88730 -0.90100
O 	O 	0.10170 0.71870 0.84090 -0.79900
O 	O 	0.06590 0.70120 0.87120 -0.73200
O 	O 	0.13510 0.74680 0.80930 -0.64800
O 	O 	0.13460 0.80040 0.79710 -0.70300
O 	O 	0.15730 0.78190 0.83650 -0.89000
O 	O 	0.02830 0.71410 0.83680 -0.81400
O 	O 	0.05540 0.83220 0.83040 -0.75000
O 	O 	0.02660 0.67000 0.88200 -0.80000
O 	O 	0.10650 0.78290 0.82950 -0.76100
O 	O 	0.07340 0.80040 0.86610 -0.71200
O 	O 	0.03050 0.78830 0.84130 -0.75700
O 	O 	0.02790 0.82170 0.87250 -0.87000
Al	Al	0.78050 0.82990 0.36620 2.39300
Al	Al	0.81120 0.85580 0.46160 2.38800
Al	Al	0.72240 0.86160 0.40470 2.39900
P 	P 	0.78110 0.87040 0.41120 0.68600
P 	P 	0.72080 0.81620 0.36530 0.70300
P 	P 	0.68830 0.85170 0.45400 0.65000
O 	O 	0.75040 0.87390 0.41910 -0.73800
O 	O 	0.78700 0.88730 0.38590 -0.90100
O 	O 	0.78130 0.84090 0.39830 -0.79900
O 	O 	0.79880 0.87120 0.43410 -0.73200
O 	O 	0.75320 0.80930 0.36490 -0.64800
O 	O 	0.69960 0.79710 0.36540 -0.70300
O 	O 	0.71810 0.83650 0.34270 -0.89000
O 	O 	0.78590 0.83680 0.47170 -0.81400
O 	O 	0.66780 0.83040 0.44460 -0.74900
O 	O 	0.83000 0.88200 0.47340 -0.80000
O 	O 	0.71710 0.82950 0.39350 -0.76100
O 	O 	0.69960 0.86610 0.42660 -0.71200
O 	O 	0.71170 0.84130 0.46950 -0.75600
O 	O 	0.67830 0.87250 0.47210 -0.86900
Al	Al	0.78050 0.32990 0.86620 2.39300
Al	Al	0.81120 0.35580 0.96160 2.38800
Al	Al	0.72240 0.36160 0.90470 2.39900
P 	P 	0.78110 0.37040 0.91120 0.68600
P 	P 	0.72080 0.31620 0.86530 0.70300
P 	P 	0.68830 0.35170 0.95400 0.65000
O 	O 	0.75040 0.37390 0.91910 -0.73800
O 	O 	0.78700 0.38730 0.88590 -0.90100
O 	O 	0.78130 0.34090 0.89830 -0.79800
O 	O 	0.79880 0.37120 0.93410 -0.73200
O 	O 	0.75320 0.30930 0.86490 -0.64800
O 	O 	0.69960 0.29710 0.86540 -0.70300
O 	O 	0.71810 0.33650 0.84270 -0.89000
O 	O 	0.78590 0.33680 0.97170 -0.81200
O 	O 	0.66780 0.33040 0.94460 -0.74900
O 	O 	0.83000 0.38200 0.97340 -0.79700
O 	O 	0.71710 0.32950 0.89350 -0.76100
O 	O 	0.69960 0.36610 0.92660 -0.71200
O 	O 	0.71170 0.34130 0.96950 -0.75400
O 	O 	0.67830 0.37250 0.97210 -0.86800
Al	Al	0.28050 0.82990 0.86620 2.39300
Al	Al	0.31120 0.85580 0.96160 2.38800
Al	Al	0.22240 0.86160 0.90470 2.39900
P 	P 	0.28110 0.87040 0.91120 0.68600
P 	P 	0.22080 0.81620 0.86530 0.70300
P 	P 	0.18830 0.85170 0.95400 0.65000
O 	O 	0.25040 0.87390 0.91910 -0.73800
O 	O 	0.28700 0.88730 0.88590 -0.90100
O 	O 	0.28130 0.84090 0.89830 -0.79800
O 	O 	0.29880 0.87120 0.93410 -0.73200
O 	O 	0.25320 0.80930 0.86490 -0.64800
O 	O 	0.19960 0.79710 0.86540 -0.70300
O 	O 	0.21810 0.83650 0.84270 -0.89000
O 	O 	0.28590 0.83680 0.97170 -0.81200
O 	O 	0.16780 0.83040 0.94460 -0.74900
O 	O 	0.33000 0.88200 0.97340 -0.79700
O 	O 	0.21710 0.82950 0.89350 -0.76100
O 	O 	0.19960 0.86610 0.92660 -0.71200
O 	O 	0.21170 0.84130 0.96950 -0.75400
O 	O 	0.17830 0.87250 0.97210 -0.86700
Al	Al	0.28050 0.32990 0.36620 2.39300
Al	Al	0.31120 0.35580 0.46160 2.38800
Al	Al	0.22240 0.36160 0.40470 2.39900
P 	P 	0.28110 0.37040 0.41120 0.68600
P 	P 	0.22080 0.31620 0.36530 0.70300
P 	P 	0.18830 0.35170 0.45400 0.65000
O 	O 	0.25040 0.37390 0.41910 -0.73800
O 	O 	0.28700 0.38730 0.38590 -0.90100
O 	O 	0.28130 0.34090 0.39830 -0.79900
O 	O 	0.29880 0.37120 0.43410 -0.73200
O 	O 	0.25320 0.30930 0.36490 -0.64800
O 	O 	0.19960 0.29710 0.36540 -0.70300
O 	O 	0.21810 0.33650 0.34270 -0.89000
O 	O 	0.28590 0.33680 0.47170 -0.81400
O 	O 	0.16780 0.33040 0.44460 -0.74900
O 	O 	0.33000 0.38200 0.47340 -0.80000
O 	O 	0.21710 0.32950 0.39350 -0.76100
O 	O 	0.19960 0.36610 0.42660 -0.71200
O 	O 	0.21170 0.34130 0.46950 -0.75600
O 	O 	0.17830 0.37250 0.47210 -0.86900
Al	Al	0.78050 0.17010 0.63380 2.39300
Al	Al	0.81120 0.14420 0.53840 2.38800
Al	Al	0.72240 0.13840 0.59530 2.39900
P 	P 	0.78110 0.12960 0.58880 0.68600
P 	P 	0.72080 0.18380 0.63470 0.70300
P 	P 	0.68830 0.14830 0.54600 0.65000
O 	O 	0.75040 0.12610 0.58090 -0.73900
O 	O 	0.78700 0.11270 0.61410 -0.90100
O 	O 	0.78130 0.15910 0.60170 -0.79900
O 	O 	0.79880 0.12880 0.56590 -0.73200
O 	O 	0.75320 0.19070 0.63510 -0.64800
O 	O 	0.69960 0.20290 0.63460 -0.70300
O 	O 	0.71810 0.16350 0.65730 -0.89000
O 	O 	0.78590 0.16320 0.52830 -0.81400
O 	O 	0.66780 0.16960 0.55540 -0.74900
O 	O 	0.83000 0.11800 0.52660 -0.80000
O 	O 	0.71710 0.17050 0.60650 -0.76100
O 	O 	0.69960 0.13390 0.57340 -0.71200
O 	O 	0.71170 0.15870 0.53050 -0.75600
O 	O 	0.67830 0.12750 0.52790 -0.86900
Al	Al	0.78050 0.67010 0.13380 2.39300
Al	Al	0.81120 0.64420 0.03840 2.38800
Al	Al	0.72240 0.63840 0.09530 2.39900
P 	P 	0.78110 0.62960 0.08880 0.68600
P 	P 	0.72080 0.68380 0.13470 0.70300
P 	P 	0.68830 0.64830 0.04600 0.65000
O 	O 	0.75040 0.62610 0.08090 -0.73900
O 	O 	0.78700 0.61270 0.11410 -0.90100
O 	O 	0.78130 0.65910 0.10170 -0.79900
O 	O 	0.79880 0.62880 0.06590 -0.73200
O 	O 	0.75320 0.69070 0.13510 -0.64800
O 	O 	0.69960 0.70290 0.13460 -0.70300
O 	O 	0.71810 0.66350 0.15730 -0.89000
O 	O 	0.78590 0.66320 0.02830 -0.81400
O 	O 	0.66780 0.66960 0.05540 -0.75000
O 	O 	0.83000 0.61800 0.02660 -0.80000
O 	O 	0.71710 0.67050 0.10650 -0.76100
O 	O 	0.69960 0.63390 0.07340 -0.71200
O 	O 	0.71170 0.65870 0.03050 -0.75700
O 	O 	0.67830 0.62750 0.02790 -0.87000
Al	Al	0.28050 0.17010 0.13380 2.39300
Al	Al	0.31120 0.14420 0.03840 2.38800
Al	Al	0.22240 0.13840 0.09530 2.39900
P 	P 	0.28110 0.12960 0.08880 0.68600
P 	P 	0.22080 0.18380 0.13470 0.70300
P 	P 	0.18830 0.14830 0.04600 0.65000
O 	O 	0.25040 0.12610 0.08090 -0.73900
O 	O 	0.28700 0.11270 0.11410 -0.90100
O 	O 	0.28130 0.15910 0.10170 -0.79900
O 	O 	0.29880 0.12880 0.06590 -0.73300
O 	O 	0.25320 0.19070 0.13510 -0.64800
O 	O 	0.19960 0.20290 0.13460 -0.70300
O 	O 	0.21810 0.16350 0.15730 -0.89000
O 	O 	0.28590 0.16320 0.02830 -0.81400
O 	O 	0.16780 0.16960 0.05540 -0.75000
O 	O 	0.33000 0.11800 0.02660 -0.80000
O 	O 	0.21710 0.17050 0.10650 -0.76100
O 	O 	0.19960 0.13390 0.07340 -0.71200
O 	O 	0.21170 0.15870 0.03050 -0.75700
O 	O 	0.17830 0.12750 0.02790 -0.87000
Al	Al	0.28050 0.67010 0.63380 2.39300
Al	Al	0.31120 0.64420 0.53840 2.38800
Al	Al	0.22240 0.63840 0.59530 2.39900
P 	P 	0.28110 0.62960 0.58880 0.68600
P 	P 	0.22080 0.68380 0.63470 0.70300
P 	P 	0.18830 0.64830 0.54600 0.65000
O 	O 	0.25040 0.62610 0.58090 -0.73900
O 	O 	0.28700 0.61270 0.61410 -0.90100
O 	O 	0.28130 0.65910 0.60170 -0.79900
O 	O 	0.29880 0.62880 0.56590 -0.73200
O 	O 	0.25320 0.69070 0.63510 -0.64800
O 	O 	0.19960 0.70290 0.63460 -0.70300
O 	O 	0.21810 0.66350 0.65730 -0.89000
O 	O 	0.28590 0.66320 0.52830 -0.81400
O 	O 	0.16780 0.66960 0.55540 -0.74900
O 	O 	0.33000 0.61800 0.52660 -0.80000
O 	O 	0.21710 0.67050 0.60650 -0.76100
O 	O 	0.19960 0.63390 0.57340 -0.71200
O 	O 	0.21170 0.65870 0.53050 -0.75600
O 	O 	0.17830 0.62750 0.52790 -0.86900
Al	Al	0.21950 0.82990 0.63380 2.39300
Al	Al	0.18880 0.85580 0.53840 2.38800
Al	Al	0.27760 0.86160 0.59530 2.39900
P 	P 	0.21890 0.87040 0.58880 0.68600
P 	P 	0.27920 0.81620 0.63470 0.70300
P 	P 	0.31170 0.85170 0.54600 0.65000
O 	O 	0.24960 0.87390 0.58090 -0.73800
O 	O 	0.21300 0.88730 0.61410 -0.90100
O 	O 	0.21870 0.84090 0.60170 -0.79900
O 	O 	0.20120 0.87120 0.56590 -0.73200
O 	O 	0.24680 0.80930 0.63510 -0.64800
O 	O 	0.30040 0.79710 0.63460 -0.70300
O 	O 	0.28190 0.83650 0.65730 -0.89000
O 	O 	0.21410 0.83680 0.52830 -0.81400
O 	O 	0.33220 0.83040 0.55540 -0.74900
O 	O 	0.17000 0.88200 0.52660 -0.80000
O 	O 	0.28290 0.82950 0.60650 -0.76100
O 	O 	0.30040 0.86610 0.57340 -0.71200
O 	O 	0.28830 0.84130 0.53050 -0.75600
O 	O 	0.32170 0.87250 0.52790 -0.86900
Al	Al	0.21950 0.32990 0.13380 2.39300
Al	Al	0.18880 0.35580 0.03840 2.38800
Al	Al	0.27760 0.36160 0.09530 2.39900
P 	P 	0.21890 0.37040 0.08880 0.68600
P 	P 	0.27920 0.31620 0.13470 0.70300
P 	P 	0.31170 0.35170 0.04600 0.65000
O 	O 	0.24960 0.37390 0.08090 -0.73900
O 	O 	0.21300 0.38730 0.11410 -0.90100
O 	O 	0.21870 0.34090 0.10170 -0.79900
O 	O 	0.20120 0.37120 0.06590 -0.73200
O 	O 	0.24680 0.30930 0.13510 -0.64800
O 	O 	0.30040 0.29710 0.13460 -0.70300
O 	O 	0.28190 0.33650 0.15730 -0.89000
O 	O 	0.21410 0.33680 0.02830 -0.81400
O 	O 	0.33220 0.33040 0.05540 -0.75000
O 	O 	0.17000 0.38200 0.02660 -0.80000
O 	O 	0.28290 0.32950 0.10650 -0.76100
O 	O 	0.30040 0.36610 0.07340 -0.71200
O 	O 	0.28830 0.34130 0.03050 -0.75700
O 	O 	0.32170 0.37250 0.02790 -0.87000
Al	Al	0.71950 0.82990 0.13380 2.39300
Al	Al	0.68880 0.85580 0.03840 2.38800
Al	Al	0.77760 0.86160 0.09530 2.39900
P 	P 	0.71890 0.87040 0.08880 0.68600
P 	P 	0.77920 0.81620 0.13470 0.70300
P 	P 	0.81170 0.85170 0.04600 0.65000
O 	O 	0.74960 0.87390 0.08090 -0.73900
O 	O 	0.71300 0.88730 0.11410 -0.90100
O 	O 	0.71870 0.84090 0.10170 -0.79900
O 	O 	0.70120 0.87120 0.06590 -0.73200
O 	O 	0.74680 0.80930 0.13510 -0.64800
O 	O 	0.80040 0.79710 0.13460 -0.70300
O 	O 	0.78190 0.83650 0.15730 -0.89000
O 	O 	0.71410 0.83680 0.02830 -0.81400
O 	O 	0.83220 0.83040 0.05540 -0.75000
O 	O 	0.67000 0.88200 0.02660 -0.80000
O 	O 	0.78290 0.82950 0.10650 -0.76100
O 	O 	0.80040 0.86610 0.07340 -0.71200
O 	O 	0.78830 0.84130 0.03050 -0.75700
O 	O 	0.82170 0.87250 0.02790 -0.87000
Al	Al	0.71950 0.32990 0.63380 2.39300
Al	Al	0.68880 0.35580 0.53840 2.38800
Al	Al	0.77760 0.36160 0.59530 2.39900
P 	P 	0.71890 0.37040 0.58880 0.68600
P 	P 	0.77920 0.31620 0.63470 0.70300
P 	P 	0.81170 0.35170 0.54600 0.65000
O 	O 	0.74960 0.37390 0.58090 -0.73900
O 	O 	0.71300 0.38730 0.61410 -0.90100
O 	O 	0.71870 0.34090 0.60170 -0.79900
O 	O 	0.70120 0.37120 0.56590 -0.73200
O 	O 	0.74680 0.30930 0.63510 -0.64800
O 	O 	0.80040 0.29710 0.63460 -0.70300
O 	O 	0.78190 0.33650 0.65730 -0.89000
O 	O 	0.71410 0.33680 0.52830 -0.81400
O 	O 	0.83220 0.33040 0.55540 -0.74900
O 	O 	0.67000 0.38200 0.52660 -0.80000
O 	O 	0.78290 0.32950 0.60650 -0.76100
O 	O 	0.80040 0.36610 0.57340 -0.71200
O 	O 	0.78830 0.34130 0.53050 -0.75600
O 	O 	0.82170 0.37250 0.52790 -0.86900
Al	Al	0.21950 0.17010 0.36620 2.39300
Al	Al	0.18880 0.14420 0.46160 2.38800
Al	Al	0.27760 0.13840 0.40470 2.39900
P 	P 	0.21890 0.12960 0.41120 0.68600
P 	P 	0.27920 0.18380 0.36530 0.70300
P 	P 	0.31170 0.14830 0.45400 0.65000
O 	O 	0.24960 0.12610 0.41910 -0.73900
O 	O 	0.21300 0.11270 0.38590 -0.90100
O 	O 	0.21870 0.15910 0.39830 -0.79900
O 	O 	0.20120 0.12880 0.43410 -0.73200
O 	O 	0.24680 0.19070 0.36490 -0.64800
O 	O 	0.30040 0.20290 0.36540 -0.70300
O 	O 	0.28190 0.16350 0.34270 -0.89000
O 	O 	0.21410 0.16320 0.47170 -0.81400
O 	O 	0.33220 0.16960 0.44460 -0.74900
O 	O 	0.17000 0.11800 0.47340 -0.80000
O 	O 	0.28290 0.17050 0.39350 -0.76100
O 	O 	0.30040 0.13390 0.42660 -0.71200
O 	O 	0.28830 0.15870 0.46950 -0.75600
O 	O 	0.32170 0.12750 0.47210 -0.86900
Al	Al	0.21950 0.67010 0.86620 2.39300
Al	Al	0.18880 0.64420 0.96160 2.38800
Al	Al	0.27760 0.63840 0.90470 2.39900
P 	P 	0.21890 0.62960 0.91120 0.68600
P 	P 	0.27920 0.68380 0.86530 0.70300
P 	P 	0.31170 0.64830 0.95400 0.65000
O 	O 	0.24960 0.62610 0.91910 -0.73800
O 	O 	0.21300 0.61270 0.88590 -0.90100
O 	O 	0.21870 0.65910 0.89830 -0.79800
O 	O 	0.20120 0.62880 0.93410 -0.73200
O 	O 	0.24680 0.69070 0.86490 -0.64800
O 	O 	0.30040 0.70290 0.86540 -0.70300
O 	O 	0.28190 0.66350 0.84270 -0.89000
O 	O 	0.21410 0.66320 0.97170 -0.81200
O 	O 	0.33220 0.66960 0.94460 -0.74900
O 	O 	0.17000 0.61800 0.97340 -0.79700
O 	O 	0.28290 0.67050 0.89350 -0.76100
O 	O 	0.30040 0.63390 0.92660 -0.71200
O 	O 	0.28830 0.65870 0.96950 -0.75400
O 	O 	0.32170 0.62750 0.97210 -0.86800
Al	Al	0.71950 0.17010 0.86620 2.39300
Al	Al	0.68880 0.14420 0.96160 2.38800
Al	Al	0.77760 0.13840 0.90470 2.39900
P 	P 	0.71890 0.12960 0.91120 0.68600
P 	P 	0.77920 0.18380 0.86530 0.70300
P 	P 	0.81170 0.14830 0.95400 0.65000
O 	O 	0.74960 0.12610 0.91910 -0.73800
O 	O 	0.71300 0.11270 0.88590 -0.90100
O 	O 	0.71870 0.15910 0.89830 -0.79800
O 	O 	0.70120 0.12880 0.93410 -0.73200
O 	O 	0.74680 0.19070 0.86490 -0.64800
O 	O 	0.80040 0.20290 0.86540 -0.70300
O 	O 	0.78190 0.16350 0.84270 -0.89000
O 	O 	0.71410 0.16320 0.97170 -0.81200
O 	O 	0.83220 0.16960 0.94460 -0.74900
O 	O 	0.67000 0.11800 0.97340 -0.79800
O 	O 	0.78290 0.17050 0.89350 -0.76100
O 	O 	0.80040 0.13390 0.92660 -0.71200
O 	O 	0.78830 0.15870 0.96950 -0.75500
O 	O 	0.82170 0.12750 0.97210 -0.86800
Al	Al	0.71950 0.67010 0.36620 2.39300
Al	Al	0.68880 0.64420 0.46160 2.38800
Al	Al	0.77760 0.63840 0.40470 2.39900
P 	P 	0.71890 0.62960 0.41120 0.68600
P 	P 	0.77920 0.68380 0.36530 0.70300
P 	P 	0.81170 0.64830 0.45400 0.65000
O 	O 	0.74960 0.62610 0.41910 -0.73900
O 	O 	0.71300 0.61270 0.38590 -0.90100
O 	O 	0.71870 0.65910 0.39830 -0.79900
O 	O 	0.70120 0.62880 0.43410 -0.73200
O 	O 	0.74680 0.69070 0.36490 -0.64800
O 	O 	0.80040 0.70290 0.36540 -0.70300
O 	O 	0.78190 0.66350 0.34270 -0.89000
O 	O 	0.71410 0.66320 0.47170 -0.81400
O 	O 	0.83220 0.66960 0.44460 -0.74900
O 	O 	0.67000 0.61800 0.47340 -0.80000
O 	O 	0.78290 0.67050 0.39350 -0.76100
O 	O 	0.80040 0.63390 0.42660 -0.71200
O 	O 	0.78830 0.65870 0.46950 -0.75600
O 	O 	0.82170 0.62750 0.47210 -0.86900
Al	Al	0.86620 0.67010 0.71950 2.39300
Al	Al	0.96160 0.64420 0.68880 2.38800
Al	Al	0.90470 0.63840 0.77760 2.39900
P 	P 	0.91120 0.62960 0.71890 0.68600
P 	P 	0.86530 0.68380 0.77920 0.70300
P 	P 	0.95400 0.64830 0.81170 0.65000
O 	O 	0.91910 0.62610 0.74960 -0.73800
O 	O 	0.88590 0.61270 0.71300 -0.90100
O 	O 	0.89830 0.65910 0.71870 -0.79800
O 	O 	0.93410 0.62880 0.70120 -0.73200
O 	O 	0.86490 0.69070 0.74680 -0.64800
O 	O 	0.86540 0.70290 0.80040 -0.70300
O 	O 	0.84270 0.66350 0.78190 -0.89000
O 	O 	0.97170 0.66320 0.71410 -0.81200
O 	O 	0.94460 0.66960 0.83220 -0.74900
O 	O 	0.97340 0.61800 0.67000 -0.79700
O 	O 	0.89350 0.67050 0.78290 -0.76100
O 	O 	0.92660 0.63390 0.80040 -0.71200
O 	O 	0.96950 0.65870 0.78830 -0.75400
O 	O 	0.97210 0.62750 0.82170 -0.86800
Al	Al	0.86620 0.17010 0.21950 2.39300
Al	Al	0.96160 0.14420 0.18880 2.38800
Al	Al	0.90470 0.13840 0.27760 2.39900
P 	P 	0.91120 0.12960 0.21890 0.68600
P 	P 	0.86530 0.18380 0.27920 0.70300
P 	P 	0.95400 0.14830 0.31170 0.65000
O 	O 	0.91910 0.12610 0.24960 -0.73800
O 	O 	0.88590 0.11270 0.21300 -0.90100
O 	O 	0.89830 0.15910 0.21870 -0.79800
O 	O 	0.93410 0.12880 0.20120 -0.73200
O 	O 	0.86490 0.19070 0.24680 -0.64800
O 	O 	0.86540 0.20290 0.30040 -0.70300
O 	O 	0.84270 0.16350 0.28190 -0.89000
O 	O 	0.97170 0.16320 0.21410 -0.81200
O 	O 	0.94460 0.16960 0.33220 -0.74900
O 	O 	0.97340 0.11800 0.17000 -0.79800
O 	O 	0.89350 0.17050 0.28290 -0.76100
O 	O 	0.92660 0.13390 0.30040 -0.71200
O 	O 	0.96950 0.15870 0.28830 -0.75400
O 	O 	0.97210 0.12750 0.32170 -0.86800
Al	Al	0.36620 0.67010 0.21950 2.39300
Al	Al	0.46160 0.64420 0.18880 2.38800
Al	Al	0.40470 0.63840 0.27760 2.39900
P 	P 	0.41120 0.62960 0.21890 0.68600
P 	P 	0.36530 0.68380 0.27920 0.70300
P 	P 	0.45400 0.64830 0.31170 0.65000
O 	O 	0.41910 0.62610 0.24960 -0.73900
O 	O 	0.38590 0.61270 0.21300 -0.90100
O 	O 	0.39830 0.65910 0.21870 -0.79900
O 	O 	0.43410 0.62880 0.20120 -0.73200
O 	O 	0.36490 0.69070 0.24680 -0.64800
O 	O 	0.36540 0.70290 0.30040 -0.70300
O 	O 	0.34270 0.66350 0.28190 -0.89000
O 	O 	0.47170 0.66320 0.21410 -0.81400
O 	O 	0.44460 0.66960 0.33220 -0.74900
O 	O 	0.47340 0.61800 0.17000 -0.80000
O 	O 	0.39350 0.67050 0.28290 -0.76100
O 	O 	0.42660 0.63390 0.30040 -0.71200
O 	O 	0.46950 0.65870 0.28830 -0.75600
O 	O 	0.47210 0.62750 0.32170 -0.86900
Al	Al	0.36620 0.17010 0.71950 2.39300
Al	Al	0.46160 0.14420 0.68880 2.38800
Al	Al	0.40470 0.13840 0.77760 2.39900
P 	P 	0.41120 0.12960 0.71890 0.68600
P 	P 	0.36530 0.18380 0.77920 0.70300
P 	P 	0.45400 0.14830 0.81170 0.65000
O 	O 	0.41910 0.12610 0.74960 -0.73900
O 	O 	0.38590 0.11270 0.71300 -0.90100
O 	O 	0.39830 0.15910 0.71870 -0.79900
O 	O 	0.43410 0.12880 0.70120 -0.73200
O 	O 	0.36490 0.19070 0.74680 -0.64800
O 	O 	0.36540 0.20290 0.80040 -0.70300
O 	O 	0.34270 0.16350 0.78190 -0.89000
O 	O 	0.47170 0.16320 0.71410 -0.81400
O 	O 	0.44460 0.16960 0.83220 -0.74900
O 	O 	0.47340 0.11800 0.67000 -0.80000
O 	O 	0.39350 0.17050 0.78290 -0.76100
O 	O 	0.42660 0.13390 0.80040 -0.71200
O 	O 	0.46950 0.15870 0.78830 -0.75600
O 	O 	0.47210 0.12750 0.82170 -0.86900
Al	Al	0.13380 0.32990 0.71950 2.39300
Al	Al	0.03840 0.35580 0.68880 2.38800
Al	Al	0.09530 0.36160 0.77760 2.39900
P 	P 	0.08880 0.37040 0.71890 0.68600
P 	P 	0.13470 0.31620 0.77920 0.70300
P 	P 	0.04600 0.35170 0.81170 0.65000
O 	O 	0.08090 0.37390 0.74960 -0.73900
O 	O 	0.11410 0.38730 0.71300 -0.90100
O 	O 	0.10170 0.34090 0.71870 -0.79900
O 	O 	0.06590 0.37120 0.70120 -0.73200
O 	O 	0.13510 0.30930 0.74680 -0.64800
O 	O 	0.13460 0.29710 0.80040 -0.70300
O 	O 	0.15730 0.33650 0.78190 -0.89000
O 	O 	0.02830 0.33680 0.71410 -0.81400
O 	O 	0.05540 0.33040 0.83220 -0.75000
O 	O 	0.02660 0.38200 0.67000 -0.80000
O 	O 	0.10650 0.32950 0.78290 -0.76100
O 	O 	0.07340 0.36610 0.80040 -0.71200
O 	O 	0.03050 0.34130 0.78830 -0.75700
O 	O 	0.02790 0.37250 0.82170 -0.87000
Al	Al	0.13380 0.82990 0.21950 2.39300
Al	Al	0.03840 0.85580 0.18880 2.38800
Al	Al	0.09530 0.86160 0.27760 2.39900
P 	P 	0.08880 0.87040 0.21890 0.68600
P 	P 	0.13470 0.81620 0.27920 0.70300
P 	P 	0.04600 0.85170 0.31170 0.65000
O 	O 	0.08090 0.87390 0.24960 -0.73900
O 	O 	0.11410 0.88730 0.21300 -0.90100
O 	O 	0.10170 0.84090 0.21870 -0.79900
O 	O 	0.06590 0.87120 0.20120 -0.73200
O 	O 	0.13510 0.80930 0.24680 -0.64800
O 	O 	0.13460 0.79710 0.30040 -0.70300
O 	O 	0.15730 0.83650 0.28190 -0.89000
O 	O 	0.02830 0.83680 0.21410 -0.81400
O 	O 	0.05540 0.83040 0.33220 -0.75000
O 	O 	0.02660 0.88200 0.17000 -0.80000
O 	O 	0.10650 0.82950 0.28290 -0.76100
O 	O 	0.07340 0.86610 0.30040 -0.71200
O 	O 	0.03050 0.84130 0.28830 -0.75700
O 	O 	0.02790 0.87250 0.32170 -0.87000
Al	Al	0.63380 0.32990 0.21950 2.39300
Al	Al	0.53840 0.35580 0.18880 2.38800
Al	Al	0.59530 0.36160 0.27760 2.39900
P 	P 	0.58880 0.37040 0.21890 0.68600
P 	P 	0.63470 0.31620 0.27920 0.70300
P 	P 	0.54600 0.35170 0.31170 0.65000
O 	O 	0.58090 0.37390 0.24960 -0.73800
O 	O 	0.61410 0.38730 0.21300 -0.90100
O 	O 	0.60170 0.34090 0.21870 -0.79900
O 	O 	0.56590 0.37120 0.20120 -0.73200
O 	O 	0.63510 0.30930 0.24680 -0.64800
O 	O 	0.63460 0.29710 0.30040 -0.70300
O 	O 	0.65730 0.33650 0.28190 -0.89000
O 	O 	0.52830 0.33680 0.21410 -0.81400
O 	O 	0.55540 0.33040 0.33220 -0.74900
O 	O 	0.52660 0.38200 0.17000 -0.80000
O 	O 	0.60650 0.32950 0.28290 -0.76100
O 	O 	0.57340 0.36610 0.30040 -0.71200
O 	O 	0.53050 0.34130 0.28830 -0.75600
O 	O 	0.52790 0.37250 0.32170 -0.86900
Al	Al	0.63380 0.82990 0.71950 2.39300
Al	Al	0.53840 0.85580 0.68880 2.38800
Al	Al	0.59530 0.86160 0.77760 2.39900
P 	P 	0.58880 0.87040 0.71890 0.68600
P 	P 	0.63470 0.81620 0.77920 0.70300
P 	P 	0.54600 0.85170 0.81170 0.65000
O 	O 	0.58090 0.87390 0.74960 -0.73800
O 	O 	0.61410 0.88730 0.71300 -0.90100
O 	O 	0.60170 0.84090 0.71870 -0.79900
O 	O 	0.56590 0.87120 0.70120 -0.73200
O 	O 	0.63510 0.80930 0.74680 -0.64800
O 	O 	0.63460 0.79710 0.80040 -0.70300
O 	O 	0.65730 0.83650 0.78190 -0.89000
O 	O 	0.52830 0.83680 0.71410 -0.81400
O 	O 	0.55540 0.83040 0.83220 -0.74900
O 	O 	0.52660 0.88200 0.67000 -0.80000
O 	O 	0.60650 0.82950 0.78290 -0.76100
O 	O 	0.57340 0.86610 0.80040 -0.71200
O 	O 	0.53050 0.84130 0.78830 -0.75600
O 	O 	0.52790 0.87250 0.82170 -0.86900
Al	Al	0.13380 0.67010 0.28050 2.39300
Al	Al	0.03840 0.64420 0.31120 2.38800
Al	Al	0.09530 0.63840 0.22240 2.39900
P 	P 	0.08880 0.62960 0.28110 0.68600
P 	P 	0.13470 0.68380 0.22080 0.70300
P 	P 	0.04600 0.64830 0.18830 0.65000
O 	O 	0.08090 0.62610 0.25040 -0.73900
O 	O 	0.11410 0.61270 0.28700 -0.90100
O 	O 	0.10170 0.65910 0.28130 -0.79900
O 	O 	0.06590 0.62880 0.29880 -0.73200
O 	O 	0.13510 0.69070 0.25320 -0.64800
O 	O 	0.13460 0.70290 0.19960 -0.70300
O 	O 	0.15730 0.66350 0.21810 -0.89000
O 	O 	0.02830 0.66320 0.28590 -0.81400
O 	O 	0.05540 0.66960 0.16780 -0.75000
O 	O 	0.02660 0.61800 0.33000 -0.80000
O 	O 	0.10650 0.67050 0.21710 -0.76100
O 	O 	0.07340 0.63390 0.19960 -0.71200
O 	O 	0.03050 0.65870 0.21170 -0.75700
O 	O 	0.02790 0.62750 0.17830 -0.87000
Al	Al	0.13380 0.17010 0.78050 2.39300
Al	Al	0.03840 0.14420 0.81120 2.38800
Al	Al	0.09530 0.13840 0.72240 2.39900
P 	P 	0.08880 0.12960 0.78110 0.68600
P 	P 	0.13470 0.18380 0.72080 0.70300
P 	P 	0.04600 0.14830 0.68830 0.65000
O 	O 	0.08090 0.12610 0.75040 -0.73900
O 	O 	0.11410 0.11270 0.78700 -0.90100
O 	O 	0.10170 0.15910 0.78130 -0.79900
O 	O 	0.06590 0.12880 0.79880 -0.73200
O 	O 	0.13510 0.19070 0.75320 -0.64800
O 	O 	0.13460 0.20290 0.69960 -0.70300
O 	O 	0.15730 0.16350 0.71810 -0.89000
O 	O 	0.02830 0.16320 0.78590 -0.81400
O 	O 	0.05540 0.16960 0.66780 -0.75000
O 	O 	0.02660 0.11800 0.83000 -0.80000
O 	O 	0.10650 0.17050 0.71710 -0.76100
O 	O 	0.07340 0.13390 0.69960 -0.71200
O 	O 	0.03050 0.15870 0.71170 -0.75700
O 	O 	0.02790 0.12750 0.67830 -0.87000
Al	Al	0.63380 0.67010 0.78050 2.39300
Al	Al	0.53840 0.64420 0.81120 2.38800
Al	Al	0.59530 0.63840 0.72240 2.39900
P 	P 	0.58880 0.62960 0.78110 0.68600
P 	P 	0.63470 0.68380 0.72080 0.70300
P 	P 	0.54600 0.64830 0.68830 0.65000
O 	O 	0.58090 0.62610 0.75040 -0.73900
O 	O 	0.61410 0.61270 0.78700 -0.90100
O 	O 	0.60170 0.65910 0.78130 -0.79900
O 	O 	0.56590 0.62880 0.79880 -0.73200
O 	O 	0.63510 0.69070 0.75320 -0.64800
O 	O 	0.63460 0.70290 0.69960 -0.70300
O 	O 	0.65730 0.66350 0.71810 -0.89000
O 	O 	0.52830 0.66320 0.78590 -0.81400
O 	O 	0.55540 0.66960 0.66780 -0.74900
O 	O 	0.52660 0.61800 0.83000 -0.80000
O 	O 	0.60650 0.67050 0.71710 -0.76100
O 	O 	0.57340 0.63390 0.69960 -0.71200
O 	O 	0.53050 0.65870 0.71170 -0.75600
O 	O 	0.52790 0.62750 0.67830 -0.86900
Al	Al	0.63380 0.17010 0.28050 2.39300
Al	Al	0.53840 0.14420 0.31120 2.38800
Al	Al	0.59530 0.13840 0.22240 2.39900
P 	P 	0.58880 0.12960 0.28110 0.68600
P 	P 	0.63470 0.18380 0.22080 0.70300
P 	P 	0.54600 0.14830 0.18830 0.65000
O 	O 	0.58090 0.12610 0.25040 -0.73900
O 	O 	0.61410 0.11270 0.28700 -0.90100
O 	O 	0.60170 0.15910 0.28130 -0.79900
O 	O 	0.56590 0.12880 0.29880 -0.73200
O 	O 	0.63510 0.19070 0.25320 -0.64800
O 	O 	0.63460 0.20290 0.19960 -0.70300
O 	O 	0.65730 0.16350 0.21810 -0.89000
O 	O 	0.52830 0.16320 0.28590 -0.81400
O 	O 	0.55540 0.16960 0.16780 -0.74900
O 	O 	0.52660 0.11800 0.33000 -0.80000
O 	O 	0.60650 0.17050 0.21710 -0.76100
O 	O 	0.57340 0.13390 0.19960 -0.71200
O 	O 	0.53050 0.15870 0.21170 -0.75600
O 	O 	0.52790 0.12750 0.17830 -0.86900
Al	Al	0.86620 0.32990 0.28050 2.39300
Al	Al	0.96160 0.35580 0.31120 2.38800
Al	Al	0.90470 0.36160 0.22240 2.39900
P 	P 	0.91120 0.37040 0.28110 0.68600
P 	P 	0.86530 0.31620 0.22080 0.70300
P 	P 	0.95400 0.35170 0.18830 0.65000
O 	O 	0.91910 0.37390 0.25040 -0.73800
O 	O 	0.88590 0.38730 0.28700 -0.90100
O 	O 	0.89830 0.34090 0.28130 -0.79800
O 	O 	0.93410 0.37120 0.29880 -0.73200
O 	O 	0.86490 0.30930 0.25320 -0.64800
O 	O 	0.86540 0.29710 0.19960 -0.70300
O 	O 	0.84270 0.33650 0.21810 -0.89000
O 	O 	0.97170 0.33680 0.28590 -0.81200
O 	O 	0.94460 0.33040 0.16780 -0.74900
O 	O 	0.97340 0.38200 0.33000 -0.79700
O 	O 	0.89350 0.32950 0.21710 -0.76100
O 	O 	0.92660 0.36610 0.19960 -0.71200
O 	O 	0.96950 0.34130 0.21170 -0.75400
O 	O 	0.97210 0.37250 0.17830 -0.86800
Al	Al	0.86620 0.82990 0.78050 2.39300
Al	Al	0.96160 0.85580 0.81120 2.38800
Al	Al	0.90470 0.86160 0.72240 2.39900
P 	P 	0.91120 0.87040 0.78110 0.68600
P 	P 	0.86530 0.81620 0.72080 0.70300
P 	P 	0.95400 0.85170 0.68830 0.65000
O 	O 	0.91910 0.87390 0.75040 -0.73800
O 	O 	0.88590 0.88730 0.78700 -0.90100
O 	O 	0.89830 0.84090 0.78130 -0.79800
O 	O 	0.93410 0.87120 0.79880 -0.73200
O 	O 	0.86490 0.80930 0.75320 -0.64800
O 	O 	0.86540 0.79710 0.69960 -0.70300
O 	O 	0.84270 0.83650 0.71810 -0.89000
O 	O 	0.97170 0.83680 0.78590 -0.81200
O 	O 	0.94460 0.83040 0.66780 -0.74900
O 	O 	0.97340 0.88200 0.83000 -0.79700
O 	O 	0.89350 0.82950 0.71710 -0.76100
O 	O 	0.92660 0.86610 0.69960 -0.71200
O 	O 	0.96950 0.84130 0.71170 -0.75400
O 	O 	0.97210 0.87250 0.67830 -0.86700
Al	Al	0.36620 0.32990 0.78050 2.39300
Al	Al	0.46160 0.35580 0.81120 2.38800
Al	Al	0.40470 0.36160 0.72240 2.39900
P 	P 	0.41120 0.37040 0.78110 0.68600
P 	P 	0.36530 0.31620 0.72080 0.70300
P 	P 	0.45400 0.35170 0.68830 0.65000
O 	O 	0.41910 0.37390 0.75040 -0.73900
O 	O 	0.38590 0.38730 0.78700 -0.90100
O 	O 	0.39830 0.34090 0.78130 -0.79900
O 	O 	0.43410 0.37120 0.79880 -0.73200
O 	O 	0.36490 0.30930 0.75320 -0.64800
O 	O 	0.36540 0.29710 0.69960 -0.70300
O 	O 	0.34270 0.33650 0.71810 -0.89000
O 	O 	0.47170 0.33680 0.78590 -0.81400
O 	O 	0.44460 0.33040 0.66780 -0.74900
O 	O 	0.47340 0.38200 0.83000 -0.80000
O 	O 	0.39350 0.32950 0.71710 -0.76100
O 	O 	0.42660 0.36610 0.69960 -0.71200
O 	O 	0.46950 0.34130 0.71170 -0.75600
O 	O 	0.47210 0.37250 0.67830 -0.86900
Al	Al	0.36620 0.82990 0.28050 2.39300
Al	Al	0.46160 0.85580 0.31120 2.38800
Al	Al	0.40470 0.86160 0.22240 2.39900
P 	P 	0.41120 0.87040 0.28110 0.68600
P 	P 	0.36530 0.81620 0.22080 0.70300
P 	P 	0.45400 0.85170 0.18830 0.65000
O 	O 	0.41910 0.87390 0.25040 -0.73800
O 	O 	0.38590 0.88730 0.28700 -0.90100
O 	O 	0.39830 0.84090 0.28130 -0.79900
O 	O 	0.43410 0.87120 0.29880 -0.73200
O 	O 	0.36490 0.80930 0.25320 -0.64800
O 	O 	0.36540 0.79710 0.19960 -0.70300
O 	O 	0.34270 0.83650 0.21810 -0.89000
O 	O 	0.47170 0.83680 0.28590 -0.81400
O 	O 	0.44460 0.83040 0.16780 -0.74900
O 	O 	0.47340 0.88200 0.33000 -0.80000
O 	O 	0.39350 0.82950 0.21710 -0.76100
O 	O 	0.42660 0.86610 0.19960 -0.71200
O 	O 	0.46950 0.84130 0.21170 -0.75600
O 	O 	0.47210 0.87250 0.17830 -0.86900
Al	Al	0.71950 0.86620 0.67010 2.39300
Al	Al	0.68880 0.96160 0.64420 2.38800
Al	Al	0.77760 0.90470 0.63840 2.39900
P 	P 	0.71890 0.91120 0.62960 0.68600
P 	P 	0.77920 0.86530 0.68380 0.70300
P 	P 	0.81170 0.95400 0.64830 0.65000
O 	O 	0.74960 0.91910 0.62610 -0.73800
O 	O 	0.71300 0.88590 0.61270 -0.90100
O 	O 	0.71870 0.89830 0.65910 -0.79800
O 	O 	0.70120 0.93410 0.62880 -0.73200
O 	O 	0.74680 0.86490 0.69070 -0.64800
O 	O 	0.80040 0.86540 0.70290 -0.70300
O 	O 	0.78190 0.84270 0.66350 -0.89000
O 	O 	0.71410 0.97170 0.66320 -0.81200
O 	O 	0.83220 0.94460 0.66960 -0.74900
O 	O 	0.67000 0.97340 0.61800 -0.79700
O 	O 	0.78290 0.89350 0.67050 -0.76100
O 	O 	0.80040 0.92660 0.63390 -0.71200
O 	O 	0.78830 0.96950 0.65870 -0.75400
O 	O 	0.82170 0.97210 0.62750 -0.86800
Al	Al	0.71950 0.36620 0.17010 2.39300
Al	Al	0.68880 0.46160 0.14420 2.38800
Al	Al	0.77760 0.40470 0.13840 2.39900
P 	P 	0.71890 0.41120 0.12960 0.68600
P 	P 	0.77920 0.36530 0.18380 0.70300
P 	P 	0.81170 0.45400 0.14830 0.65000
O 	O 	0.74960 0.41910 0.12610 -0.73900
O 	O 	0.71300 0.38590 0.11270 -0.90100
O 	O 	0.71870 0.39830 0.15910 -0.79900
O 	O 	0.70120 0.43410 0.12880 -0.73200
O 	O 	0.74680 0.36490 0.19070 -0.64800
O 	O 	0.80040 0.36540 0.20290 -0.70300
O 	O 	0.78190 0.34270 0.16350 -0.89000
O 	O 	0.71410 0.47170 0.16320 -0.81400
O 	O 	0.83220 0.44460 0.16960 -0.74900
O 	O 	0.67000 0.47340 0.11800 -0.80000
O 	O 	0.78290 0.39350 0.17050 -0.76100
O 	O 	0.80040 0.42660 0.13390 -0.71200
O 	O 	0.78830 0.46950 0.15870 -0.75600
O 	O 	0.82170 0.47210 0.12750 -0.86900
Al	Al	0.21950 0.86620 0.17010 2.39300
Al	Al	0.18880 0.96160 0.14420 2.38800
Al	Al	0.27760 0.90470 0.13840 2.39900
P 	P 	0.21890 0.91120 0.12960 0.68600
P 	P 	0.27920 0.86530 0.18380 0.70300
P 	P 	0.31170 0.95400 0.14830 0.65000
O 	O 	0.24960 0.91910 0.12610 -0.73800
O 	O 	0.21300 0.88590 0.11270 -0.90100
O 	O 	0.21870 0.89830 0.15910 -0.79800
O 	O 	0.20120 0.93410 0.12880 -0.73200
O 	O 	0.24680 0.86490 0.19070 -0.64800
O 	O 	0.30040 0.86540 0.20290 -0.70300
O 	O 	0.28190 0.84270 0.16350 -0.89000
O 	O 	0.21410 0.97170 0.16320 -0.81200
O 	O 	0.33220 0.94460 0.16960 -0.74900
O 	O 	0.17000 0.97340 0.11800 -0.79800
O 	O 	0.28290 0.89350 0.17050 -0.76100
O 	O 	0.30040 0.92660 0.13390 -0.71200
O 	O 	0.28830 0.96950 0.15870 -0.75400
O 	O 	0.32170 0.97210 0.12750 -0.86800
Al	Al	0.21950 0.36620 0.67010 2.39300
Al	Al	0.18880 0.46160 0.64420 2.38800
Al	Al	0.27760 0.40470 0.63840 2.39900
P 	P 	0.21890 0.41120 0.62960 0.68600
P 	P 	0.27920 0.36530 0.68380 0.70300
P 	P 	0.31170 0.45400 0.64830 0.65000
O 	O 	0.24960 0.41910 0.62610 -0.73900
O 	O 	0.21300 0.38590 0.61270 -0.90100
O 	O 	0.21870 0.39830 0.65910 -0.79900
O 	O 	0.20120 0.43410 0.62880 -0.73200
O 	O 	0.24680 0.36490 0.69070 -0.64800
O 	O 	0.30040 0.36540 0.70290 -0.70300
O 	O 	0.28190 0.34270 0.66350 -0.89000
O 	O 	0.21410 0.47170 0.66320 -0.81400
O 	O 	0.33220 0.44460 0.66960 -0.74900
O 	O 	0.17000 0.47340 0.61800 -0.80000
O 	O 	0.28290 0.39350 0.67050 -0.76100
O 	O 	0.30040 0.42660 0.63390 -0.71200
O 	O 	0.28830 0.46950 0.65870 -0.75600
O 	O 	0.32170 0.47210 0.62750 -0.86900
Al	Al	0.71950 0.13380 0.32990 2.39300
Al	Al	0.68880 0.03840 0.35580 2.38800
Al	Al	0.77760 0.09530 0.36160 2.39900
P 	P 	0.71890 0.08880 0.37040 0.68600
P 	P 	0.77920 0.13470 0.31620 0.70300
P 	P 	0.81170 0.04600 0.35170 0.65000
O 	O 	0.74960 0.08090 0.37390 -0.73900
O 	O 	0.71300 0.11410 0.38730 -0.90100
O 	O 	0.71870 0.10170 0.34090 -0.79900
O 	O 	0.70120 0.06590 0.37120 -0.73200
O 	O 	0.74680 0.13510 0.30930 -0.64800
O 	O 	0.80040 0.13460 0.29710 -0.70300
O 	O 	0.78190 0.15730 0.33650 -0.89000
O 	O 	0.71410 0.02830 0.33680 -0.81400
O 	O 	0.83220 0.05540 0.33040 -0.75000
O 	O 	0.67000 0.02660 0.38200 -0.80000
O 	O 	0.78290 0.10650 0.32950 -0.76100
O 	O 	0.80040 0.07340 0.36610 -0.71200
O 	O 	0.78830 0.03050 0.34130 -0.75700
O 	O 	0.82170 0.02790 0.37250 -0.87000
Al	Al	0.71950 0.63380 0.82990 2.39300
Al	Al	0.68880 0.53840 0.85580 2.38800
Al	Al	0.77760 0.59530 0.86160 2.39900
P 	P 	0.71890 0.58880 0.87040 0.68600
P 	P 	0.77920 0.63470 0.81620 0.70300
P 	P 	0.81170 0.54600 0.85170 0.65000
O 	O 	0.74960 0.58090 0.87390 -0.73800
O 	O 	0.71300 0.61410 0.88730 -0.90100
O 	O 	0.71870 0.60170 0.84090 -0.79900
O 	O 	0.70120 0.56590 0.87120 -0.73200
O 	O 	0.74680 0.63510 0.80930 -0.64800
O 	O 	0.80040 0.63460 0.79710 -0.70300
O 	O 	0.78190 0.65730 0.83650 -0.89000
O 	O 	0.71410 0.52830 0.83680 -0.81400
O 	O 	0.83220 0.55540 0.83040 -0.74900
O 	O 	0.67000 0.52660 0.88200 -0.80000
O 	O 	0.78290 0.60650 0.82950 -0.76100
O 	O 	0.80040 0.57340 0.86610 -0.71200
O 	O 	0.78830 0.53050 0.84130 -0.75600
O 	O 	0.82170 0.52790 0.87250 -0.86900
Al	Al	0.21950 0.13380 0.82990 2.39300
Al	Al	0.18880 0.03840 0.85580 2.38800
Al	Al	0.27760 0.09530 0.86160 2.39900
P 	P 	0.21890 0.08880 0.87040 0.68600
P 	P 	0.27920 0.13470 0.81620 0.70300
P 	P 	0.31170 0.04600 0.85170 0.65000
O 	O 	0.24960 0.08090 0.87390 -0.73900
O 	O 	0.21300 0.11410 0.88730 -0.90100
O 	O 	0.21870 0.10170 0.84090 -0.79900
O 	O 	0.20120 0.06590 0.87120 -0.73200
O 	O 	0.24680 0.13510 0.80930 -0.64800
O 	O 	0.30040 0.13460 0.79710 -0.70300
O 	O 	0.28190 0.15730 0.83650 -0.89000
O 	O 	0.21410 0.02830 0.83680 -0.81400
O 	O 	0.33220 0.05540 0.83040 -0.75000
O 	O 	0.17000 0.02660 0.88200 -0.80000
O 	O 	0.28290 0.10650 0.82950 -0.76100
O 	O 	0.30040 0.07340 0.86610 -0.71200
O 	O 	0.28830 0.03050 0.84130 -0.75700
O 	O 	0.32170 0.02790 0.87250 -0.87000
Al	Al	0.21950 0.63380 0.32990 2.39300
Al	Al	0.18880 0.53840 0.35580 2.38800
Al	Al	0.27760 0.59530 0.36160 2.39900
P 	P 	0.21890 0.58880 0.37040 0.68600
P 	P 	0.27920 0.63470 0.31620 0.70300
P 	P 	0.31170 0.54600 0.35170 0.65000
O 	O 	0.24960 0.58090 0.37390 -0.73800
O 	O 	0.21300 0.61410 0.38730 -0.90100
O 	O 	0.21870 0.60170 0.34090 -0.79900
O 	O 	0.20120 0.56590 0.37120 -0.73200
O 	O 	0.24680 0.63510 0.30930 -0.64800
O 	O 	0.30040 0.63460 0.29710 -0.70300
O 	O 	0.28190 0.65730 0.33650 -0.89000
O 	O 	0.21410 0.52830 0.33680 -0.81400
O 	O 	0.33220 0.55540 0.33040 -0.74900
O 	O 	0.17000 0.52660 0.38200 -0.80000
O 	O 	0.28290 0.60650 0.32950 -0.76100
O 	O 	0.30040 0.57340 0.36610 -0.71200
O 	O 	0.28830 0.53050 0.34130 -0.75600
O 	O 	0.32170 0.52790 0.37250 -0.86900
Al	Al	0.28050 0.13380 0.67010 2.39300
Al	Al	0.31120 0.03840 0.64420 2.38800
Al	Al	0.22240 0.09530 0.63840 2.39900
P 	P 	0.28110 0.08880 0.62960 0.68600
P 	P 	0.22080 0.13470 0.68380 0.70300
P 	P 	0.18830 0.04600 0.64830 0.65000
O 	O 	0.25040 0.08090 0.62610 -0.73900
O 	O 	0.28700 0.11410 0.61270 -0.90100
O 	O 	0.28130 0.10170 0.65910 -0.79900
O 	O 	0.29880 0.06590 0.62880 -0.73200
O 	O 	0.25320 0.13510 0.69070 -0.64800
O 	O 	0.19960 0.13460 0.70290 -0.70300
O 	O 	0.21810 0.15730 0.66350 -0.89000
O 	O 	0.28590 0.02830 0.66320 -0.81400
O 	O 	0.16780 0.05540 0.66960 -0.75000
O 	O 	0.33000 0.02660 0.61800 -0.80000
O 	O 	0.21710 0.10650 0.67050 -0.76100
O 	O 	0.19960 0.07340 0.63390 -0.71200
O 	O 	0.21170 0.03050 0.65870 -0.75700
O 	O 	0.17830 0.02790 0.62750 -0.87000
Al	Al	0.28050 0.63380 0.17010 2.39300
Al	Al	0.31120 0.53840 0.14420 2.38800
Al	Al	0.22240 0.59530 0.13840 2.39900
P 	P 	0.28110 0.58880 0.12960 0.68600
P 	P 	0.22080 0.63470 0.18380 0.70300
P 	P 	0.18830 0.54600 0.14830 0.65000
O 	O 	0.25040 0.58090 0.12610 -0.73900
O 	O 	0.28700 0.61410 0.11270 -0.90100
O 	O 	0.28130 0.60170 0.15910 -0.79900
O 	O 	0.29880 0.56590 0.12880 -0.73200
O 	O 	0.25320 0.63510 0.19070 -0.64800
O 	O 	0.19960 0.63460 0.20290 -0.70300
O 	O 	0.21810 0.65730 0.16350 -0.89000
O 	O 	0.28590 0.52830 0.16320 -0.81400
O 	O 	0.16780 0.55540 0.16960 -0.74900
O 	O 	0.33000 0.52660 0.11800 -0.80000
O 	O 	0.21710 0.60650 0.17050 -0.76100
O 	O 	0.19960 0.57340 0.13390 -0.71200
O 	O 	0.21170 0.53050 0.15870 -0.75600
O 	O 	0.17830 0.52790 0.12750 -0.86900
Al	Al	0.78050 0.13380 0.17010 2.39300
Al	Al	0.81120 0.03840 0.14420 2.38800
Al	Al	0.72240 0.09530 0.13840 2.39900
P 	P 	0.78110 0.08880 0.12960 0.68600
P 	P 	0.72080 0.13470 0.18380 0.70300
P 	P 	0.68830 0.04600 0.14830 0.65000
O 	O 	0.75040 0.08090 0.12610 -0.73900
O 	O 	0.78700 0.11410 0.11270 -0.90100
O 	O 	0.78130 0.10170 0.15910 -0.79900
O 	O 	0.79880 0.06590 0.12880 -0.73200
O 	O 	0.75320 0.13510 0.19070 -0.64800
O 	O 	0.69960 0.13460 0.20290 -0.70300
O 	O 	0.71810 0.15730 0.16350 -0.89000
O 	O 	0.78590 0.02830 0.16320 -0.81400
O 	O 	0.66780 0.05540 0.16960 -0.75000
O 	O 	0.83000 0.02660 0.11800 -0.80000
O 	O 	0.71710 0.10650 0.17050 -0.76100
O 	O 	0.69960 0.07340 0.13390 -0.71200
O 	O 	0.71170 0.03050 0.15870 -0.75700
O 	O 	0.67830 0.02790 0.12750 -0.87000
Al	Al	0.78050 0.63380 0.67010 2.39300
Al	Al	0.81120 0.53840 0.64420 2.38800
Al	Al	0.72240 0.59530 0.63840 2.39900
P 	P 	0.78110 0.58880 0.62960 0.68600
P 	P 	0.72080 0.63470 0.68380 0.70300
P 	P 	0.68830 0.54600 0.64830 0.65000
O 	O 	0.75040 0.58090 0.62610 -0.73900
O 	O 	0.78700 0.61410 0.61270 -0.90100
O 	O 	0.78130 0.60170 0.65910 -0.79900
O 	O 	0.79880 0.56590 0.62880 -0.73200
O 	O 	0.75320 0.63510 0.69070 -0.64800
O 	O 	0.69960 0.63460 0.70290 -0.70300
O 	O 	0.71810 0.65730 0.66350 -0.89000
O 	O 	0.78590 0.52830 0.66320 -0.81400
O 	O 	0.66780 0.55540 0.66960 -0.74900
O 	O 	0.83000 0.52660 0.61800 -0.80000
O 	O 	0.71710 0.60650 0.67050 -0.76100
O 	O 	0.69960 0.57340 0.63390 -0.71200
O 	O 	0.71170 0.53050 0.65870 -0.75600
O 	O 	0.67830 0.52790 0.62750 -0.86900
Al	Al	0.28050 0.86620 0.32990 2.39300
Al	Al	0.31120 0.96160 0.35580 2.38800
Al	Al	0.22240 0.90470 0.36160 2.39900
P 	P 	0.28110 0.91120 0.37040 0.68600
P 	P 	0.22080 0.86530 0.31620 0.70300
P 	P 	0.18830 0.95400 0.35170 0.65000
O 	O 	0.25040 0.91910 0.37390 -0.73800
O 	O 	0.28700 0.88590 0.38730 -0.90100
O 	O 	0.28130 0.89830 0.34090 -0.79800
O 	O 	0.29880 0.93410 0.37120 -0.73200
O 	O 	0.25320 0.86490 0.30930 -0.64800
O 	O 	0.19960 0.86540 0.29710 -0.70300
O 	O 	0.21810 0.84270 0.33650 -0.89000
O 	O 	0.28590 0.97170 0.33680 -0.81200
O 	O 	0.16780 0.94460 0.33040 -0.74900
O 	O 	0.33000 0.97340 0.38200 -0.79700
O 	O 	0.21710 0.89350 0.32950 -0.76100
O 	O 	0.19960 0.92660 0.36610 -0.71200
O 	O 	0.21170 0.96950 0.34130 -0.75400
O 	O 	0.17830 0.97210 0.37250 -0.86800
Al	Al	0.28050 0.36620 0.82990 2.39300
Al	Al	0.31120 0.46160 0.85580 2.38800
Al	Al	0.22240 0.40470 0.86160 2.39900
P 	P 	0.28110 0.41120 0.87040 0.68600
P 	P 	0.22080 0.36530 0.81620 0.70300
P 	P 	0.18830 0.45400 0.85170 0.65000
O 	O 	0.25040 0.41910 0.87390 -0.73800
O 	O 	0.28700 0.38590 0.88730 -0.90100
O 	O 	0.28130 0.39830 0.84090 -0.79900
O 	O 	0.29880 0.43410 0.87120 -0.73200
O 	O 	0.25320 0.36490 0.80930 -0.64800
O 	O 	0.19960 0.36540 0.79710 -0.70300
O 	O 	0.21810 0.34270 0.83650 -0.89000
O 	O 	0.28590 0.47170 0.83680 -0.81400
O 	O 	0.16780 0.44460 0.83040 -0.74900
O 	O 	0.33000 0.47340 0.88200 -0.80000
O 	O 	0.21710 0.39350 0.82950 -0.76100
O 	O 	0.19960 0.42660 0.86610 -0.71200
O 	O 	0.21170 0.46950 0.84130 -0.75600
O 	O 	0.17830 0.47210 0.87250 -0.86900
Al	Al	0.78050 0.86620 0.82990 2.39300
Al	Al	0.81120 0.96160 0.85580 2.38800
Al	Al	0.72240 0.90470 0.86160 2.39900
P 	P 	0.78110 0.91120 0.87040 0.68600
P 	P 	0.72080 0.86530 0.81620 0.70300
P 	P 	0.68830 0.95400 0.85170 0.65000
O 	O 	0.75040 0.91910 0.87390 -0.73800
O 	O 	0.78700 0.88590 0.88730 -0.90100
O 	O 	0.78130 0.89830 0.84090 -0.79800
O 	O 	0.79880 0.93410 0.87120 -0.73200
O 	O 	0.75320 0.86490 0.80930 -0.64800
O 	O 	0.69960 0.86540 0.79710 -0.70300
O 	O 	0.71810 0.84270 0.83650 -0.89000
O 	O 	0.78590 0.97170 0.83680 -0.81200
O 	O 	0.66780 0.94460 0.83040 -0.74900
O 	O 	0.83000 0.97340 0.88200 -0.79700
O 	O 	0.71710 0.89350 0.82950 -0.76100
O 	O 	0.69960 0.92660 0.86610 -0.71200
O 	O 	0.71170 0.96950 0.84130 -0.75400
O 	O 	0.67830 0.97210 0.87250 -0.86700
Al	Al	0.78050 0.36620 0.32990 2.39300
Al	Al	0.81120 0.46160 0.35580 2.38800
Al	Al	0.72240 0.40470 0.36160 2.39900
P 	P 	0.78110 0.41120 0.37040 0.68600
P 	P 	0.72080 0.36530 0.31620 0.70300
P 	P 	0.68830 0.45400 0.35170 0.65000
O 	O 	0.75040 0.41910 0.37390 -0.73900
O 	O 	0.78700 0.38590 0.38730 -0.90100
O 	O 	0.78130 0.39830 0.34090 -0.79900
O 	O 	0.79880 0.43410 0.37120 -0.73200
O 	O 	0.75320 0.36490 0.30930 -0.64800
O 	O 	0.69960 0.36540 0.29710 -0.70300
O 	O 	0.71810 0.34270 0.33650 -0.89000
O 	O 	0.78590 0.47170 0.33680 -0.81400
O 	O 	0.66780 0.44460 0.33040 -0.74900
O 	O 	0.83000 0.47340 0.38200 -0.80000
O 	O 	0.71710 0.39350 0.32950 -0.76100
O 	O 	0.69960 0.42660 0.36610 -0.71200
O 	O 	0.71170 0.46950 0.34130 -0.75600
O 	O 	0.67830 0.47210 0.37250 -0.86900
Al	Al	0.67010 0.71950 0.86620 2.39300
Al	Al	0.64420 0.68880 0.96160 2.38800
Al	Al	0.63840 0.77760 0.90470 2.39900
P 	P 	0.62960 0.71890 0.91120 0.68600
P 	P 	0.68380 0.77920 0.86530 0.70300
P 	P 	0.64830 0.81170 0.95400 0.65000
O 	O 	0.62610 0.74960 0.91910 -0.73800
O 	O 	0.61270 0.71300 0.88590 -0.90100
O 	O 	0.65910 0.71870 0.89830 -0.79800
O 	O 	0.62880 0.70120 0.93410 -0.73200
O 	O 	0.69070 0.74680 0.86490 -0.64800
O 	O 	0.70290 0.80040 0.86540 -0.70300
O 	O 	0.66350 0.78190 0.84270 -0.89000
O 	O 	0.66320 0.71410 0.97170 -0.81200
O 	O 	0.66960 0.83220 0.94460 -0.74900
O 	O 	0.61800 0.67000 0.97340 -0.79700
O 	O 	0.67050 0.78290 0.89350 -0.76100
O 	O 	0.63390 0.80040 0.92660 -0.71200
O 	O 	0.65870 0.78830 0.96950 -0.75400
O 	O 	0.62750 0.82170 0.97210 -0.86800
Al	Al	0.67010 0.21950 0.36620 2.39300
Al	Al	0.64420 0.18880 0.46160 2.38800
Al	Al	0.63840 0.27760 0.40470 2.39900
P 	P 	0.62960 0.21890 0.41120 0.68600
P 	P 	0.68380 0.27920 0.36530 0.70300
P 	P 	0.64830 0.31170 0.45400 0.65000
O 	O 	0.62610 0.24960 0.41910 -0.73900
O 	O 	0.61270 0.21300 0.38590 -0.90100
O 	O 	0.65910 0.21870 0.39830 -0.79900
O 	O 	0.62880 0.20120 0.43410 -0.73200
O 	O 	0.69070 0.24680 0.36490 -0.64800
O 	O 	0.70290 0.30040 0.36540 -0.70300
O 	O 	0.66350 0.28190 0.34270 -0.89000
O 	O 	0.66320 0.21410 0.47170 -0.81400
O 	O 	0.66960 0.33220 0.44460 -0.74900
O 	O 	0.61800 0.17000 0.47340 -0.80000
O 	O 	0.67050 0.28290 0.39350 -0.76100
O 	O 	0.63390 0.30040 0.42660 -0.71200
O 	O 	0.65870 0.28830 0.46950 -0.75600
O 	O 	0.62750 0.32170 0.47210 -0.86900
Al	Al	0.17010 0.71950 0.36620 2.39300
Al	Al	0.14420 0.68880 0.46160 2.38800
Al	Al	0.13840 0.77760 0.40470 2.39900
P 	P 	0.12960 0.71890 0.41120 0.68600
P 	P 	0.18380 0.77920 0.36530 0.70300
P 	P 	0.14830 0.81170 0.45400 0.65000
O 	O 	0.12610 0.74960 0.41910 -0.73900
O 	O 	0.11270 0.71300 0.38590 -0.90100
O 	O 	0.15910 0.71870 0.39830 -0.79900
O 	O 	0.12880 0.70120 0.43410 -0.73200
O 	O 	0.19070 0.74680 0.36490 -0.64800
O 	O 	0.20290 0.80040 0.36540 -0.70300
O 	O 	0.16350 0.78190 0.34270 -0.89000
O 	O 	0.16320 0.71410 0.47170 -0.81400
O 	O 	0.16960 0.83220 0.44460 -0.74900
O 	O 	0.11800 0.67000 0.47340 -0.80000
O 	O 	0.17050 0.78290 0.39350 -0.76100
O 	O 	0.13390 0.80040 0.42660 -0.71200
O 	O 	0.15870 0.78830 0.46950 -0.75600
O 	O 	0.12750 0.82170 0.47210 -0.86900
Al	Al	0.17010 0.21950 0.86620 2.39300
Al	Al	0.14420 0.18880 0.96160 2.38800
Al	Al	0.13840 0.27760 0.90470 2.39900
P 	P 	0.12960 0.21890 0.91120 0.68600
P 	P 	0.18380 0.27920 0.86530 0.70300
P 	P 	0.14830 0.31170 0.95400 0.65000
O 	O 	0.12610 0.24960 0.91910 -0.73800
O 	O 	0.11270 0.21300 0.88590 -0.90100
O 	O 	0.15910 0.21870 0.89830 -0.79800
O 	O 	0.12880 0.20120 0.93410 -0.73200
O 	O 	0.19070 0.24680 0.86490 -0.64800
O 	O 	0.20290 0.30040 0.86540 -0.70300
O 	O 	0.16350 0.28190 0.84270 -0.89000
O 	O 	0.16320 0.21410 0.97170 -0.81200
O 	O 	0.16960 0.33220 0.94460 -0.74900
O 	O 	0.11800 0.17000 0.97340 -0.79800
O 	O 	0.17050 0.28290 0.89350 -0.76100
O 	O 	0.13390 0.30040 0.92660 -0.71200
O 	O 	0.15870 0.28830 0.96950 -0.75400
O 	O 	0.12750 0.32170 0.97210 -0.86800
Al	Al	0.32990 0.71950 0.13380 2.39300
Al	Al	0.35580 0.68880 0.03840 2.38800
Al	Al	0.36160 0.77760 0.09530 2.39900
P 	P 	0.37040 0.71890 0.08880 0.68600
P 	P 	0.31620 0.77920 0.13470 0.70300
P 	P 	0.35170 0.81170 0.04600 0.65000
O 	O 	0.37390 0.74960 0.08090 -0.73900
O 	O 	0.38730 0.71300 0.11410 -0.90100
O 	O 	0.34090 0.71870 0.10170 -0.79900
O 	O 	0.37120 0.70120 0.06590 -0.73200
O 	O 	0.30930 0.74680 0.13510 -0.64800
O 	O 	0.29710 0.80040 0.13460 -0.70300
O 	O 	0.33650 0.78190 0.15730 -0.89000
O 	O 	0.33680 0.71410 0.02830 -0.81400
O 	O 	0.33040 0.83220 0.05540 -0.75000
O 	O 	0.38200 0.67000 0.02660 -0.80000
O 	O 	0.32950 0.78290 0.10650 -0.76100
O 	O 	0.36610 0.80040 0.07340 -0.71200
O 	O 	0.34130 0.78830 0.03050 -0.75700
O 	O 	0.37250 0.82170 0.02790 -0.87000
Al	Al	0.32990 0.21950 0.63380 2.39300
Al	Al	0.35580 0.18880 0.53840 2.38800
Al	Al	0.36160 0.27760 0.59530 2.39900
P 	P 	0.37040 0.21890 0.58880 0.68600
P 	P 	0.31620 0.27920 0.63470 0.70300
P 	P 	0.35170 0.31170 0.54600 0.65000
O 	O 	0.37390 0.24960 0.58090 -0.73800
O 	O 	0.38730 0.21300 0.61410 -0.90100
O 	O 	0.34090 0.21870 0.60170 -0.79900
O 	O 	0.37120 0.20120 0.56590 -0.73200
O 	O 	0.30930 0.24680 0.63510 -0.64800
O 	O 	0.29710 0.30040 0.63460 -0.70300
O 	O 	0.33650 0.28190 0.65730 -0.89000
O 	O 	0.33680 0.21410 0.52830 -0.81400
O 	O 	0.33040 0.33220 0.55540 -0.74900
O 	O 	0.38200 0.17000 0.52660 -0.80000
O 	O 	0.32950 0.28290 0.60650 -0.76100
O 	O 	0.36610 0.30040 0.57340 -0.71200
O 	O 	0.34130 0.28830 0.53050 -0.75600
O 	O 	0.37250 0.32170 0.52790 -0.86900
Al	Al	0.82990 0.71950 0.63380 2.39300
Al	Al	0.85580 0.68880 0.53840 2.38800
Al	Al	0.86160 0.77760 0.59530 2.39900
P 	P 	0.87040 0.71890 0.58880 0.68600
P 	P 	0.81620 0.77920 0.63470 0.70300
P 	P 	0.85170 0.81170 0.54600 0.65000
O 	O 	0.87390 0.74960 0.58090 -0.73800
O 	O 	0.88730 0.71300 0.61410 -0.90100
O 	O 	0.84090 0.71870 0.60170 -0.79900
O 	O 	0.87120 0.70120 0.56590 -0.73200
O 	O 	0.80930 0.74680 0.63510 -0.64800
O 	O 	0.79710 0.80040 0.63460 -0.70300
O 	O 	0.83650 0.78190 0.65730 -0.89000
O 	O 	0.83680 0.71410 0.52830 -0.81400
O 	O 	0.83040 0.83220 0.55540 -0.74900
O 	O 	0.88200 0.67000 0.52660 -0.80000
O 	O 	0.82950 0.78290 0.60650 -0.76100
O 	O 	0.86610 0.80040 0.57340 -0.71200
O 	O 	0.84130 0.78830 0.53050 -0.75600
O 	O 	0.87250 0.82170 0.52790 -0.86900
Al	Al	0.82990 0.21950 0.13380 2.39300
Al	Al	0.85580 0.18880 0.03840 2.38800
Al	Al	0.86160 0.27760 0.09530 2.39900
P 	P 	0.87040 0.21890 0.08880 0.68600
P 	P 	0.81620 0.27920 0.13470 0.70300
P 	P 	0.85170 0.31170 0.04600 0.65000
O 	O 	0.87390 0.24960 0.08090 -0.73900
O 	O 	0.88730 0.21300 0.11410 -0.90100
O 	O 	0.84090 0.21870 0.10170 -0.79900
O 	O 	0.87120 0.20120 0.06590 -0.73200
O 	O 	0.80930 0.24680 0.13510 -0.64800
O 	O 	0.79710 0.30040 0.13460 -0.70300
O 	O 	0.83650 0.28190 0.15730 -0.89000
O 	O 	0.83680 0.21410 0.02830 -0.81400
O 	O 	0.83040 0.33220 0.05540 -0.75000
O 	O 	0.88200 0.17000 0.02660 -0.80000
O 	O 	0.82950 0.28290 0.10650 -0.76100
O 	O 	0.86610 0.30040 0.07340 -0.71200
O 	O 	0.84130 0.28830 0.03050 -0.75700
O 	O 	0.87250 0.32170 0.02790 -0.87000
Al	Al	0.67010 0.28050 0.13380 2.39300
Al	Al	0.64420 0.31120 0.03840 2.38800
Al	Al	0.63840 0.22240 0.09530 2.39900
P 	P 	0.62960 0.28110 0.08880 0.68600
P 	P 	0.68380 0.22080 0.13470 0.70300
P 	P 	0.64830 0.18830 0.04600 0.65000
O 	O 	0.62610 0.25040 0.08090 -0.73900
O 	O 	0.61270 0.28700 0.11410 -0.90100
O 	O 	0.65910 0.28130 0.10170 -0.79900
O 	O 	0.62880 0.29880 0.06590 -0.73200
O 	O 	0.69070 0.25320 0.13510 -0.64800
O 	O 	0.70290 0.19960 0.13460 -0.70300
O 	O 	0.66350 0.21810 0.15730 -0.89000
O 	O 	0.66320 0.28590 0.02830 -0.81400
O 	O 	0.66960 0.16780 0.05540 -0.75000
O 	O 	0.61800 0.33000 0.02660 -0.80000
O 	O 	0.67050 0.21710 0.10650 -0.76100
O 	O 	0.63390 0.19960 0.07340 -0.71200
O 	O 	0.65870 0.21170 0.03050 -0.75700
O 	O 	0.62750 0.17830 0.02790 -0.87000
Al	Al	0.67010 0.78050 0.63380 2.39300
Al	Al	0.64420 0.81120 0.53840 2.38800
Al	Al	0.63840 0.72240 0.59530 2.39900
P 	P 	0.62960 0.78110 0.58880 0.68600
P 	P 	0.68380 0.72080 0.63470 0.70300
P 	P 	0.64830 0.68830 0.54600 0.65000
O 	O 	0.62610 0.75040 0.58090 -0.73900
O 	O 	0.61270 0.78700 0.61410 -0.90100
O 	O 	0.65910 0.78130 0.60170 -0.79900
O 	O 	0.62880 0.79880 0.56590 -0.73200
O 	O 	0.69070 0.75320 0.63510 -0.64800
O 	O 	0.70290 0.69960 0.63460 -0.70300
O 	O 	0.66350 0.71810 0.65730 -0.89000
O 	O 	0.66320 0.78590 0.52830 -0.81400
O 	O 	0.66960 0.66780 0.55540 -0.74900
O 	O 	0.61800 0.83000 0.52660 -0.80000
O 	O 	0.67050 0.71710 0.60650 -0.76100
O 	O 	0.63390 0.69960 0.57340 -0.71200
O 	O 	0.65870 0.71170 0.53050 -0.75600
O 	O 	0.62750 0.67830 0.52790 -0.86900
Al	Al	0.17010 0.28050 0.63380 2.39300
Al	Al	0.14420 0.31120 0.53840 2.38800
Al	Al	0.13840 0.22240 0.59530 2.39900
P 	P 	0.12960 0.28110 0.58880 0.68600
P 	P 	0.18380 0.22080 0.63470 0.70300
P 	P 	0.14830 0.18830 0.54600 0.65000
O 	O 	0.12610 0.25040 0.58090 -0.73900
O 	O 	0.11270 0.28700 0.61410 -0.90100
O 	O 	0.15910 0.28130 0.60170 -0.79900
O 	O 	0.12880 0.29880 0.56590 -0.73200
O 	O 	0.19070 0.25320 0.63510 -0.64800
O 	O 	0.20290 0.19960 0.63460 -0.70300
O 	O 	0.16350 0.21810 0.65730 -0.89000
O 	O 	0.16320 0.28590 0.52830 -0.81400
O 	O 	0.16960 0.16780 0.55540 -0.74900
O 	O 	0.11800 0.33000 0.52660 -0.80000
O 	O 	0.17050 0.21710 0.60650 -0.76100
O 	O 	0.13390 0.19960 0.57340 -0.71200
O 	O 	0.15870 0.21170 0.53050 -0.75600
O 	O 	0.12750 0.17830 0.52790 -0.86900
Al	Al	0.17010 0.78050 0.13380 2.39300
Al	Al	0.14420 0.81120 0.03840 2.38800
Al	Al	0.13840 0.72240 0.09530 2.39900
P 	P 	0.12960 0.78110 0.08880 0.68600
P 	P 	0.18380 0.72080 0.13470 0.70300
P 	P 	0.14830 0.68830 0.04600 0.65000
O 	O 	0.12610 0.75040 0.08090 -0.73900
O 	O 	0.11270 0.78700 0.11410 -0.90100
O 	O 	0.15910 0.78130 0.10170 -0.79900
O 	O 	0.12880 0.79880 0.06590 -0.73200
O 	O 	0.19070 0.75320 0.13510 -0.64800
O 	O 	0.20290 0.69960 0.13460 -0.70300
O 	O 	0.16350 0.71810 0.15730 -0.89000
O 	O 	0.16320 0.78590 0.02830 -0.81400
O 	O 	0.16960 0.66780 0.05540 -0.75000
O 	O 	0.11800 0.83000 0.02660 -0.80000
O 	O 	0.17050 0.71710 0.10650 -0.76100
O 	O 	0.13390 0.69960 0.07340 -0.71200
O 	O 	0.15870 0.71170 0.03050 -0.75700
O 	O 	0.12750 0.67830 0.02790 -0.87000
Al	Al	0.32990 0.28050 0.86620 2.39300
Al	Al	0.35580 0.31120 0.96160 2.38800
Al	Al	0.36160 0.22240 0.90470 2.39900
P 	P 	0.37040 0.28110 0.91120 0.68600
P 	P 	0.31620 0.22080 0.86530 0.70300
P 	P 	0.35170 0.18830 0.95400 0.65000
O 	O 	0.37390 0.25040 0.91910 -0.73800
O 	O 	0.38730 0.28700 0.88590 -0.90100
O 	O 	0.34090 0.28130 0.89830 -0.79800
O 	O 	0.37120 0.29880 0.93410 -0.73200
O 	O 	0.30930 0.25320 0.86490 -0.64800
O 	O 	0.29710 0.19960 0.86540 -0.70300
O 	O 	0.33650 0.21810 0.84270 -0.89000
O 	O 	0.33680 0.28590 0.97170 -0.81200
O 	O 	0.33040 0.16780 0.94460 -0.74900
O 	O 	0.38200 0.33000 0.97340 -0.79700
O 	O 	0.32950 0.21710 0.89350 -0.76100
O 	O 	0.36610 0.19960 0.92660 -0.71200
O 	O 	0.34130 0.21170 0.96950 -0.75400
O 	O 	0.37250 0.17830 0.97210 -0.86800
Al	Al	0.32990 0.78050 0.36620 2.39300
Al	Al	0.35580 0.81120 0.46160 2.38800
Al	Al	0.36160 0.72240 0.40470 2.39900
P 	P 	0.37040 0.78110 0.41120 0.68600
P 	P 	0.31620 0.72080 0.36530 0.70300
P 	P 	0.35170 0.68830 0.45400 0.65000
O 	O 	0.37390 0.75040 0.41910 -0.73900
O 	O 	0.38730 0.78700 0.38590 -0.90100
O 	O 	0.34090 0.78130 0.39830 -0.79900
O 	O 	0.37120 0.79880 0.43410 -0.73200
O 	O 	0.30930 0.75320 0.36490 -0.64800
O 	O 	0.29710 0.69960 0.36540 -0.70300
O 	O 	0.33650 0.71810 0.34270 -0.89000
O 	O 	0.33680 0.78590 0.47170 -0.81400
O 	O 	0.33040 0.66780 0.44460 -0.74900
O 	O 	0.38200 0.83000 0.47340 -0.80000
O 	O 	0.32950 0.71710 0.39350 -0.76100
O 	O 	0.36610 0.69960 0.42660 -0.71200
O 	O 	0.34130 0.71170 0.46950 -0.75600
O 	O 	0.37250 0.67830 0.47210 -0.86900
Al	Al	0.82990 0.28050 0.36620 2.39300
Al	Al	0.85580 0.31120 0.46160 2.38800
Al	Al	0.86160 0.22240 0.40470 2.39900
P 	P 	0.87040 0.28110 0.41120 0.68600
P 	P 	0.81620 0.22080 0.36530 0.70300
P 	P 	0.85170 0.18830 0.45400 0.65000
O 	O 	0.87390 0.25040 0.41910 -0.73800
O 	O 	0.88730 0.28700 0.38590 -0.90100
O 	O 	0.84090 0.28130 0.39830 -0.79900
O 	O 	0.87120 0.29880 0.43410 -0.73200
O 	O 	0.80930 0.25320 0.36490 -0.64800
O 	O 	0.79710 0.19960 0.36540 -0.70300
O 	O 	0.83650 0.21810 0.34270 -0.89000
O 	O 	0.83680 0.28590 0.47170 -0.81400
O 	O 	0.83040 0.16780 0.44460 -0.74900
O 	O 	0.88200 0.33000 0.47340 -0.80000
O 	O 	0.82950 0.21710 0.39350 -0.76100
O 	O 	0.86610 0.19960 0.42660 -0.71200
O 	O 	0.84130 0.21170 0.46950 -0.75600
O 	O 	0.87250 0.17830 0.47210 -0.86900
Al	Al	0.82990 0.78050 0.86620 2.39300
Al	Al	0.85580 0.81120 0.96160 2.38800
Al	Al	0.86160 0.72240 0.90470 2.39900
P 	P 	0.87040 0.78110 0.91120 0.68600
P 	P 	0.81620 0.72080 0.86530 0.70300
P 	P 	0.85170 0.68830 0.95400 0.65000
O 	O 	0.87390 0.75040 0.91910 -0.73800
O 	O 	0.88730 0.78700 0.88590 -0.90100
O 	O 	0.84090 0.78130 0.89830 -0.79800
O 	O 	0.87120 0.79880 0.93410 -0.73200
O 	O 	0.80930 0.75320 0.86490 -0.64800
O 	O 	0.79710 0.69960 0.86540 -0.70300
O 	O 	0.83650 0.71810 0.84270 -0.89000
O 	O 	0.83680 0.78590 0.97170 -0.81200
O 	O 	0.83040 0.66780 0.94460 -0.74900
O 	O 	0.88200 0.83000 0.97340 -0.79700
O 	O 	0.82950 0.71710 0.89350 -0.76100
O 	O 	0.86610 0.69960 0.92660 -0.71200
O 	O 	0.84130 0.71170 0.96950 -0.75400
O 	O 	0.87250 0.67830 0.97210 -0.86700
Al	Al	0.17010 0.36620 0.78050 2.39300
Al	Al	0.14420 0.46160 0.81120 2.38800
Al	Al	0.13840 0.40470 0.72240 2.39900
P 	P 	0.12960 0.41120 0.78110 0.68600
P 	P 	0.18380 0.36530 0.72080 0.70300
P 	P 	0.14830 0.45400 0.68830 0.65000
O 	O 	0.12610 0.41910 0.75040 -0.73900
O 	O 	0.11270 0.38590 0.78700 -0.90100
O 	O 	0.15910 0.39830 0.78130 -0.79900
O 	O 	0.12880 0.43410 0.79880 -0.73200
O 	O 	0.19070 0.36490 0.75320 -0.64800
O 	O 	0.20290 0.36540 0.69960 -0.70300
O 	O 	0.16350 0.34270 0.71810 -0.89000
O 	O 	0.16320 0.47170 0.78590 -0.81400
O 	O 	0.16960 0.44460 0.66780 -0.74900
O 	O 	0.11800 0.47340 0.83000 -0.80000
O 	O 	0.17050 0.39350 0.71710 -0.76100
O 	O 	0.13390 0.42660 0.69960 -0.71200
O 	O 	0.15870 0.46950 0.71170 -0.75600
O 	O 	0.12750 0.47210 0.67830 -0.86900
Al	Al	0.17010 0.86620 0.28050 2.39300
Al	Al	0.14420 0.96160 0.31120 2.38800
Al	Al	0.13840 0.90470 0.22240 2.39900
P 	P 	0.12960 0.91120 0.28110 0.68600
P 	P 	0.18380 0.86530 0.22080 0.70300
P 	P 	0.14830 0.95400 0.18830 0.65000
O 	O 	0.12610 0.91910 0.25040 -0.73800
O 	O 	0.11270 0.88590 0.28700 -0.90100
O 	O 	0.15910 0.89830 0.28130 -0.79800
O 	O 	0.12880 0.93410 0.29880 -0.73200
O 	O 	0.19070 0.86490 0.25320 -0.64800
O 	O 	0.20290 0.86540 0.19960 -0.70300
O 	O 	0.16350 0.84270 0.21810 -0.89000
O 	O 	0.16320 0.97170 0.28590 -0.81200
O 	O 	0.16960 0.94460 0.16780 -0.74900
O 	O 	0.11800 0.97340 0.33000 -0.79800
O 	O 	0.17050 0.89350 0.21710 -0.76100
O 	O 	0.13390 0.92660 0.19960 -0.71200
O 	O 	0.15870 0.96950 0.21170 -0.75400
O 	O 	0.12750 0.97210 0.17830 -0.86800
Al	Al	0.67010 0.36620 0.28050 2.39300
Al	Al	0.64420 0.46160 0.31120 2.38800
Al	Al	0.63840 0.40470 0.22240 2.39900
P 	P 	0.62960 0.41120 0.28110 0.68600
P 	P 	0.68380 0.36530 0.22080 0.70300
P 	P 	0.64830 0.45400 0.18830 0.65000
O 	O 	0.62610 0.41910 0.25040 -0.73900
O 	O 	0.61270 0.38590 0.28700 -0.90100
O 	O 	0.65910 0.39830 0.28130 -0.79900
O 	O 	0.62880 0.43410 0.29880 -0.73200
O 	O 	0.69070 0.36490 0.25320 -0.64800
O 	O 	0.70290 0.36540 0.19960 -0.70300
O 	O 	0.66350 0.34270 0.21810 -0.89000
O 	O 	0.66320 0.47170 0.28590 -0.81400
O 	O 	0.66960 0.44460 0.16780 -0.74900
O 	O 	0.61800 0.47340 0.33000 -0.80000
O 	O 	0.67050 0.39350 0.21710 -0.76100
O 	O 	0.63390 0.42660 0.19960 -0.71200
O 	O 	0.65870 0.46950 0.21170 -0.75600
O 	O 	0.62750 0.47210 0.17830 -0.86900
Al	Al	0.67010 0.86620 0.78050 2.39300
Al	Al	0.64420 0.96160 0.81120 2.38800
Al	Al	0.63840 0.90470 0.72240 2.39900
P 	P 	0.62960 0.91120 0.78110 0.68600
P 	P 	0.68380 0.86530 0.72080 0.70300
P 	P 	0.64830 0.95400 0.68830 0.65000
O 	O 	0.62610 0.91910 0.75040 -0.73800
O 	O 	0.61270 0.88590 0.78700 -0.90100
O 	O 	0.65910 0.89830 0.78130 -0.79800
O 	O 	0.62880 0.93410 0.79880 -0.73200
O 	O 	0.69070 0.86490 0.75320 -0.64800
O 	O 	0.70290 0.86540 0.69960 -0.70300
O 	O 	0.66350 0.84270 0.71810 -0.89000
O 	O 	0.66320 0.97170 0.78590 -0.81200
O 	O 	0.66960 0.94460 0.66780 -0.74900
O 	O 	0.61800 0.97340 0.83000 -0.79700
O 	O 	0.67050 0.89350 0.71710 -0.76100
O 	O 	0.63390 0.92660 0.69960 -0.71200
O 	O 	0.65870 0.96950 0.71170 -0.75400
O 	O 	0.62750 0.97210 0.67830 -0.86800
Al	Al	0.82990 0.63380 0.78050 2.39300
Al	Al	0.85580 0.53840 0.81120 2.38800
Al	Al	0.86160 0.59530 0.72240 2.39900
P 	P 	0.87040 0.58880 0.78110 0.68600
P 	P 	0.81620 0.63470 0.72080 0.70300
P 	P 	0.85170 0.54600 0.68830 0.65000
O 	O 	0.87390 0.58090 0.75040 -0.73800
O 	O 	0.88730 0.61410 0.78700 -0.90100
O 	O 	0.84090 0.60170 0.78130 -0.79900
O 	O 	0.87120 0.56590 0.79880 -0.73200
O 	O 	0.80930 0.63510 0.75320 -0.64800
O 	O 	0.79710 0.63460 0.69960 -0.70300
O 	O 	0.83650 0.65730 0.71810 -0.89000
O 	O 	0.83680 0.52830 0.78590 -0.81400
O 	O 	0.83040 0.55540 0.66780 -0.74900
O 	O 	0.88200 0.52660 0.83000 -0.80000
O 	O 	0.82950 0.60650 0.71710 -0.76200
O 	O 	0.86610 0.57340 0.69960 -0.71200
O 	O 	0.84130 0.53050 0.71170 -0.75600
O 	O 	0.87250 0.52790 0.67830 -0.86900
Al	Al	0.82990 0.13380 0.28050 2.39300
Al	Al	0.85580 0.03840 0.31120 2.38800
Al	Al	0.86160 0.09530 0.22240 2.39900
P 	P 	0.87040 0.08880 0.28110 0.68600
P 	P 	0.81620 0.13470 0.22080 0.70300
P 	P 	0.85170 0.04600 0.18830 0.65000
O 	O 	0.87390 0.08090 0.25040 -0.73900
O 	O 	0.88730 0.11410 0.28700 -0.90100
O 	O 	0.84090 0.10170 0.28130 -0.79900
O 	O 	0.87120 0.06590 0.29880 -0.73200
O 	O 	0.80930 0.13510 0.25320 -0.64800
O 	O 	0.79710 0.13460 0.19960 -0.70300
O 	O 	0.83650 0.15730 0.21810 -0.89000
O 	O 	0.83680 0.02830 0.28590 -0.81400
O 	O 	0.83040 0.05540 0.16780 -0.75000
O 	O 	0.88200 0.02660 0.33000 -0.80000
O 	O 	0.82950 0.10650 0.21710 -0.76100
O 	O 	0.86610 0.07340 0.19960 -0.71200
O 	O 	0.84130 0.03050 0.21170 -0.75700
O 	O 	0.87250 0.02790 0.17830 -0.87000
Al	Al	0.32990 0.63380 0.28050 2.39300
Al	Al	0.35580 0.53840 0.31120 2.38800
Al	Al	0.36160 0.59530 0.22240 2.39900
P 	P 	0.37040 0.58880 0.28110 0.68600
P 	P 	0.31620 0.63470 0.22080 0.70300
P 	P 	0.35170 0.54600 0.18830 0.65000
O 	O 	0.37390 0.58090 0.25040 -0.73800
O 	O 	0.38730 0.61410 0.28700 -0.90100
O 	O 	0.34090 0.60170 0.28130 -0.79900
O 	O 	0.37120 0.56590 0.29880 -0.73200
O 	O 	0.30930 0.63510 0.25320 -0.64800
O 	O 	0.29710 0.63460 0.19960 -0.70300
O 	O 	0.33650 0.65730 0.21810 -0.89000
O 	O 	0.33680 0.52830 0.28590 -0.81400
O 	O 	0.33040 0.55540 0.16780 -0.74900
O 	O 	0.38200 0.52660 0.33000 -0.80000
O 	O 	0.32950 0.60650 0.21710 -0.76100
O 	O 	0.36610 0.57340 0.19960 -0.71200
O 	O 	0.34130 0.53050 0.21170 -0.75600
O 	O 	0.37250 0.52790 0.17830 -0.86900
Al	Al	0.32990 0.13380 0.78050 2.39300
Al	Al	0.35580 0.03840 0.81120 2.38800
Al	Al	0.36160 0.09530 0.72240 2.39900
P 	P 	0.37040 0.08880 0.78110 0.68600
P 	P 	0.31620 0.13470 0.72080 0.70300
P 	P 	0.35170 0.04600 0.68830 0.65000
O 	O 	0.37390 0.08090 0.75040 -0.73900
O 	O 	0.38730 0.11410 0.78700 -0.90100
O 	O 	0.34090 0.10170 0.78130 -0.79900
O 	O 	0.37120 0.06590 0.79880 -0.73200
O 	O 	0.30930 0.13510 0.75320 -0.64800
O 	O 	0.29710 0.13460 0.69960 -0.70300
O 	O 	0.33650 0.15730 0.71810 -0.89000
O 	O 	0.33680 0.02830 0.78590 -0.81400
O 	O 	0.33040 0.05540 0.66780 -0.75000
O 	O 	0.38200 0.02660 0.83000 -0.80000
O 	O 	0.32950 0.10650 0.71710 -0.76100
O 	O 	0.36610 0.07340 0.69960 -0.71200
O 	O 	0.34130 0.03050 0.71170 -0.75700
O 	O 	0.37250 0.02790 0.67830 -0.87000
Al	Al	0.17010 0.63380 0.21950 2.39300
Al	Al	0.14420 0.53840 0.18880 2.38800
Al	Al	0.13840 0.59530 0.27760 2.39900
P 	P 	0.12960 0.58880 0.21890 0.68600
P 	P 	0.18380 0.63470 0.27920 0.70300
P 	P 	0.14830 0.54600 0.31170 0.65000
O 	O 	0.12610 0.58090 0.24960 -0.73900
O 	O 	0.11270 0.61410 0.21300 -0.90100
O 	O 	0.15910 0.60170 0.21870 -0.79900
O 	O 	0.12880 0.56590 0.20120 -0.73200
O 	O 	0.19070 0.63510 0.24680 -0.64800
O 	O 	0.20290 0.63460 0.30040 -0.70300
O 	O 	0.16350 0.65730 0.28190 -0.89000
O 	O 	0.16320 0.52830 0.21410 -0.81400
O 	O 	0.16960 0.55540 0.33220 -0.74900
O 	O 	0.11800 0.52660 0.17000 -0.80000
O 	O 	0.17050 0.60650 0.28290 -0.76100
O 	O 	0.13390 0.57340 0.30040 -0.71200
O 	O 	0.15870 0.53050 0.28830 -0.75600
O 	O 	0.12750 0.52790 0.32170 -0.86900
Al	Al	0.17010 0.13380 0.71950 2.39300
Al	Al	0.14420 0.03840 0.68880 2.38800
Al	Al	0.13840 0.09530 0.77760 2.39900
P 	P 	0.12960 0.08880 0.71890 0.68600
P 	P 	0.18380 0.13470 0.77920 0.70300
P 	P 	0.14830 0.04600 0.81170 0.65000
O 	O 	0.12610 0.08090 0.74960 -0.73900
O 	O 	0.11270 0.11410 0.71300 -0.90100
O 	O 	0.15910 0.10170 0.71870 -0.79900
O 	O 	0.12880 0.06590 0.70120 -0.73300
O 	O 	0.19070 0.13510 0.74680 -0.64800
O 	O 	0.20290 0.13460 0.80040 -0.70300
O 	O 	0.16350 0.15730 0.78190 -0.89000
O 	O 	0.16320 0.02830 0.71410 -0.81400
O 	O 	0.16960 0.05540 0.83220 -0.75000
O 	O 	0.11800 0.02660 0.67000 -0.80000
O 	O 	0.17050 0.10650 0.78290 -0.76100
O 	O 	0.13390 0.07340 0.80040 -0.71200
O 	O 	0.15870 0.03050 0.78830 -0.75700
O 	O 	0.12750 0.02790 0.82170 -0.87000
Al	Al	0.67010 0.63380 0.71950 2.39300
Al	Al	0.64420 0.53840 0.68880 2.38800
Al	Al	0.63840 0.59530 0.77760 2.39900
P 	P 	0.62960 0.58880 0.71890 0.68600
P 	P 	0.68380 0.63470 0.77920 0.70300
P 	P 	0.64830 0.54600 0.81170 0.65000
O 	O 	0.62610 0.58090 0.74960 -0.73900
O 	O 	0.61270 0.61410 0.71300 -0.90100
O 	O 	0.65910 0.60170 0.71870 -0.79900
O 	O 	0.62880 0.56590 0.70120 -0.73200
O 	O 	0.69070 0.63510 0.74680 -0.64800
O 	O 	0.70290 0.63460 0.80040 -0.70300
O 	O 	0.66350 0.65730 0.78190 -0.89000
O 	O 	0.66320 0.52830 0.71410 -0.81400
O 	O 	0.66960 0.55540 0.83220 -0.74900
O 	O 	0.61800 0.52660 0.67000 -0.80000
O 	O 	0.67050 0.60650 0.78290 -0.76100
O 	O 	0.63390 0.57340 0.80040 -0.71200
O 	O 	0.65870 0.53050 0.78830 -0.75600
O 	O 	0.62750 0.52790 0.82170 -0.86900
Al	Al	0.67010 0.13380 0.21950 2.39300
Al	Al	0.64420 0.03840 0.18880 2.38800
Al	Al	0.63840 0.09530 0.27760 2.39900
P 	P 	0.62960 0.08880 0.21890 0.68600
P 	P 	0.68380 0.13470 0.27920 0.70300
P 	P 	0.64830 0.04600 0.31170 0.65000
O 	O 	0.62610 0.08090 0.24960 -0.73900
O 	O 	0.61270 0.11410 0.21300 -0.90100
O 	O 	0.65910 0.10170 0.21870 -0.79900
O 	O 	0.62880 0.06590 0.20120 -0.73200
O 	O 	0.69070 0.13510 0.24680 -0.64800
O 	O 	0.70290 0.13460 0.30040 -0.70300
O 	O 	0.66350 0.15730 0.28190 -0.89000
O 	O 	0.66320 0.02830 0.21410 -0.81400
O 	O 	0.66960 0.05540 0.33220 -0.75000
O 	O 	0.61800 0.02660 0.17000 -0.80000
O 	O 	0.67050 0.10650 0.28290 -0.76100
O 	O 	0.63390 0.07340 0.30040 -0.71200
O 	O 	0.65870 0.03050 0.28830 -0.75700
O 	O 	0.62750 0.02790 0.32170 -0.87000
Al	Al	0.82990 0.36620 0.21950 2.39300
Al	Al	0.85580 0.46160 0.18880 2.38800
Al	Al	0.86160 0.40470 0.27760 2.39900
P 	P 	0.87040 0.41120 0.21890 0.68600
P 	P 	0.81620 0.36530 0.27920 0.70300
P 	P 	0.85170 0.45400 0.31170 0.65000
O 	O 	0.87390 0.41910 0.24960 -0.73800
O 	O 	0.88730 0.38590 0.21300 -0.90100
O 	O 	0.84090 0.39830 0.21870 -0.79900
O 	O 	0.87120 0.43410 0.20120 -0.73200
O 	O 	0.80930 0.36490 0.24680 -0.64800
O 	O 	0.79710 0.36540 0.30040 -0.70300
O 	O 	0.83650 0.34270 0.28190 -0.89000
O 	O 	0.83680 0.47170 0.21410 -0.81400
O 	O 	0.83040 0.44460 0.33220 -0.74900
O 	O 	0.88200 0.47340 0.17000 -0.80000
O 	O 	0.82950 0.39350 0.28290 -0.76100
O 	O 	0.86610 0.42660 0.30040 -0.71200
O 	O 	0.84130 0.46950 0.28830 -0.75600
O 	O 	0.87250 0.47210 0.32170 -0.86900
Al	Al	0.82990 0.86620 0.71950 2.39300
Al	Al	0.85580 0.96160 0.68880 2.38800
Al	Al	0.86160 0.90470 0.77760 2.39900
P 	P 	0.87040 0.91120 0.71890 0.68600
P 	P 	0.81620 0.86530 0.77920 0.70300
P 	P 	0.85170 0.95400 0.81170 0.65000
O 	O 	0.87390 0.91910 0.74960 -0.73800
O 	O 	0.88730 0.88590 0.71300 -0.90100
O 	O 	0.84090 0.89830 0.71870 -0.79900
O 	O 	0.87120 0.93410 0.70120 -0.73200
O 	O 	0.80930 0.86490 0.74680 -0.64800
O 	O 	0.79710 0.86540 0.80040 -0.70300
O 	O 	0.83650 0.84270 0.78190 -0.89000
O 	O 	0.83680 0.97170 0.71410 -0.81200
O 	O 	0.83040 0.94460 0.83220 -0.74900
O 	O 	0.88200 0.97340 0.67000 -0.79700
O 	O 	0.82950 0.89350 0.78290 -0.76100
O 	O 	0.86610 0.92660 0.80040 -0.71200
O 	O 	0.84130 0.96950 0.78830 -0.75400
O 	O 	0.87250 0.97210 0.82170 -0.86700
Al	Al	0.32990 0.36620 0.71950 2.39300
Al	Al	0.35580 0.46160 0.68880 2.38800
Al	Al	0.36160 0.40470 0.77760 2.39900
P 	P 	0.37040 0.41120 0.71890 0.68600
P 	P 	0.31620 0.36530 0.77920 0.70300
P 	P 	0.35170 0.45400 0.81170 0.65000
O 	O 	0.37390 0.41910 0.74960 -0.73900
O 	O 	0.38730 0.38590 0.71300 -0.90100
O 	O 	0.34090 0.39830 0.71870 -0.79900
O 	O 	0.37120 0.43410 0.70120 -0.73200
O 	O 	0.30930 0.36490 0.74680 -0.64800
O 	O 	0.29710 0.36540 0.80040 -0.70300
O 	O 	0.33650 0.34270 0.78190 -0.89000
O 	O 	0.33680 0.47170 0.71410 -0.81400
O 	O 	0.33040 0.44460 0.83220 -0.74900
O 	O 	0.38200 0.47340 0.67000 -0.80000
O 	O 	0.32950 0.39350 0.78290 -0.76100
O 	O 	0.36610 0.42660 0.80040 -0.71200
O 	O 	0.34130 0.46950 0.78830 -0.75600
O 	O 	0.37250 0.47210 0.82170 -0.86900
Al	Al	0.32990 0.86620 0.21950 2.39300
Al	Al	0.35580 0.96160 0.18880 2.38800
Al	Al	0.36160 0.90470 0.27760 2.39900
P 	P 	0.37040 0.91120 0.21890 0.68600
P 	P 	0.31620 0.86530 0.27920 0.70300
P 	P 	0.35170 0.95400 0.31170 0.65000
O 	O 	0.37390 0.91910 0.24960 -0.73800
O 	O 	0.38730 0.88590 0.21300 -0.90100
O 	O 	0.34090 0.89830 0.21870 -0.79800
O 	O 	0.37120 0.93410 0.20120 -0.73200
O 	O 	0.30930 0.86490 0.24680 -0.64800
O 	O 	0.29710 0.86540 0.30040 -0.70300
O 	O 	0.33650 0.84270 0.28190 -0.89000
O 	O 	0.33680 0.97170 0.21410 -0.81200
O 	O 	0.33040 0.94460 0.33220 -0.74900
O 	O 	0.38200 0.97340 0.17000 -0.79700
O 	O 	0.32950 0.89350 0.28290 -0.76100
O 	O 	0.36610 0.92660 0.30040 -0.71200
O 	O 	0.34130 0.96950 0.28830 -0.75400
O 	O 	0.37250 0.97210 0.32170 -0.86800
Al	Al	0.36620 0.21950 0.82990 2.39300
Al	Al	0.46160 0.18880 0.85580 2.38800
Al	Al	0.40470 0.27760 0.86160 2.39900
P 	P 	0.41120 0.21890 0.87040 0.68600
P 	P 	0.36530 0.27920 0.81620 0.70300
P 	P 	0.45400 0.31170 0.85170 0.65000
O 	O 	0.41910 0.24960 0.87390 -0.73800
O 	O 	0.38590 0.21300 0.88730 -0.90100
O 	O 	0.39830 0.21870 0.84090 -0.79900
O 	O 	0.43410 0.20120 0.87120 -0.73200
O 	O 	0.36490 0.24680 0.80930 -0.64800
O 	O 	0.36540 0.30040 0.79710 -0.70300
O 	O 	0.34270 0.28190 0.83650 -0.89000
O 	O 	0.47170 0.21410 0.83680 -0.81400
O 	O 	0.44460 0.33220 0.83040 -0.74900
O 	O 	0.47340 0.17000 0.88200 -0.80000
O 	O 	0.39350 0.28290 0.82950 -0.76100
O 	O 	0.42660 0.30040 0.86610 -0.71200
O 	O 	0.46950 0.28830 0.84130 -0.75600
O 	O 	0.47210 0.32170 0.87250 -0.86900
Al	Al	0.36620 0.71950 0.32990 2.39300
Al	Al	0.46160 0.68880 0.35580 2.38800
Al	Al	0.40470 0.77760 0.36160 2.39900
P 	P 	0.41120 0.71890 0.37040 0.68600
P 	P 	0.36530 0.77920 0.31620 0.70300
P 	P 	0.45400 0.81170 0.35170 0.65000
O 	O 	0.41910 0.74960 0.37390 -0.73900
O 	O 	0.38590 0.71300 0.38730 -0.90100
O 	O 	0.39830 0.71870 0.34090 -0.79900
O 	O 	0.43410 0.70120 0.37120 -0.73200
O 	O 	0.36490 0.74680 0.30930 -0.64800
O 	O 	0.36540 0.80040 0.29710 -0.70300
O 	O 	0.34270 0.78190 0.33650 -0.89000
O 	O 	0.47170 0.71410 0.33680 -0.81400
O 	O 	0.44460 0.83220 0.33040 -0.74900
O 	O 	0.47340 0.67000 0.38200 -0.80000
O 	O 	0.39350 0.78290 0.32950 -0.76100
O 	O 	0.42660 0.80040 0.36610 -0.71200
O 	O 	0.46950 0.78830 0.34130 -0.75600
O 	O 	0.47210 0.82170 0.37250 -0.86900
Al	Al	0.86620 0.21950 0.32990 2.39300
Al	Al	0.96160 0.18880 0.35580 2.38800
Al	Al	0.90470 0.27760 0.36160 2.39900
P 	P 	0.91120 0.21890 0.37040 0.68600
P 	P 	0.86530 0.27920 0.31620 0.70300
P 	P 	0.95400 0.31170 0.35170 0.65000
O 	O 	0.91910 0.24960 0.37390 -0.73800
O 	O 	0.88590 0.21300 0.38730 -0.90100
O 	O 	0.89830 0.21870 0.34090 -0.79800
O 	O 	0.93410 0.20120 0.37120 -0.73200
O 	O 	0.86490 0.24680 0.30930 -0.64800
O 	O 	0.86540 0.30040 0.29710 -0.70300
O 	O 	0.84270 0.28190 0.33650 -0.89000
O 	O 	0.97170 0.21410 0.33680 -0.81200
O 	O 	0.94460 0.33220 0.33040 -0.74900
O 	O 	0.97340 0.17000 0.38200 -0.79700
O 	O 	0.89350 0.28290 0.32950 -0.76100
O 	O 	0.92660 0.30040 0.36610 -0.71200
O 	O 	0.96950 0.28830 0.34130 -0.75400
O 	O 	0.97210 0.32170 0.37250 -0.86800
Al	Al	0.86620 0.71950 0.82990 2.39300
Al	Al	0.96160 0.68880 0.85580 2.38800
Al	Al	0.90470 0.77760 0.86160 2.39900
P 	P 	0.91120 0.71890 0.87040 0.68600
P 	P 	0.86530 0.77920 0.81620 0.70300
P 	P 	0.95400 0.81170 0.85170 0.65000
O 	O 	0.91910 0.74960 0.87390 -0.73800
O 	O 	0.88590 0.71300 0.88730 -0.90100
O 	O 	0.89830 0.71870 0.84090 -0.79900
O 	O 	0.93410 0.70120 0.87120 -0.73200
O 	O 	0.86490 0.74680 0.80930 -0.64800
O 	O 	0.86540 0.80040 0.79710 -0.70300
O 	O 	0.84270 0.78190 0.83650 -0.89000
O 	O 	0.97170 0.71410 0.83680 -0.81200
O 	O 	0.94460 0.83220 0.83040 -0.74900
O 	O 	0.97340 0.67000 0.88200 -0.79700
O 	O 	0.89350 0.78290 0.82950 -0.76100
O 	O 	0.92660 0.80040 0.86610 -0.71200
O 	O 	0.96950 0.78830 0.84130 -0.75400
O 	O 	0.97210 0.82170 0.87250 -0.86700
Al	Al	0.63380 0.21950 0.17010 2.39300
Al	Al	0.53840 0.18880 0.14420 2.38800
Al	Al	0.59530 0.27760 0.13840 2.39900
P 	P 	0.58880 0.21890 0.12960 0.68600
P 	P 	0.63470 0.27920 0.18380 0.70300
P 	P 	0.54600 0.31170 0.14830 0.65000
O 	O 	0.58090 0.24960 0.12610 -0.73900
O 	O 	0.61410 0.21300 0.11270 -0.90100
O 	O 	0.60170 0.21870 0.15910 -0.79900
O 	O 	0.56590 0.20120 0.12880 -0.73200
O 	O 	0.63510 0.24680 0.19070 -0.64800
O 	O 	0.63460 0.30040 0.20290 -0.70300
O 	O 	0.65730 0.28190 0.16350 -0.89000
O 	O 	0.52830 0.21410 0.16320 -0.81400
O 	O 	0.55540 0.33220 0.16960 -0.74900
O 	O 	0.52660 0.17000 0.11800 -0.80000
O 	O 	0.60650 0.28290 0.17050 -0.76100
O 	O 	0.57340 0.30040 0.13390 -0.71200
O 	O 	0.53050 0.28830 0.15870 -0.75600
O 	O 	0.52790 0.32170 0.12750 -0.86900
Al	Al	0.63380 0.71950 0.67010 2.39300
Al	Al	0.53840 0.68880 0.64420 2.38800
Al	Al	0.59530 0.77760 0.63840 2.39900
P 	P 	0.58880 0.71890 0.62960 0.68600
P 	P 	0.63470 0.77920 0.68380 0.70300
P 	P 	0.54600 0.81170 0.64830 0.65000
O 	O 	0.58090 0.74960 0.62610 -0.73900
O 	O 	0.61410 0.71300 0.61270 -0.90100
O 	O 	0.60170 0.71870 0.65910 -0.79900
O 	O 	0.56590 0.70120 0.62880 -0.73200
O 	O 	0.63510 0.74680 0.69070 -0.64800
O 	O 	0.63460 0.80040 0.70290 -0.70300
O 	O 	0.65730 0.78190 0.66350 -0.89000
O 	O 	0.52830 0.71410 0.66320 -0.81400
O 	O 	0.55540 0.83220 0.66960 -0.74900
O 	O 	0.52660 0.67000 0.61800 -0.80000
O 	O 	0.60650 0.78290 0.67050 -0.76100
O 	O 	0.57340 0.80040 0.63390 -0.71200
O 	O 	0.53050 0.78830 0.65870 -0.75600
O 	O 	0.52790 0.82170 0.62750 -0.86900
Al	Al	0.13380 0.21950 0.67010 2.39300
Al	Al	0.03840 0.18880 0.64420 2.38800
Al	Al	0.09530 0.27760 0.63840 2.39900
P 	P 	0.08880 0.21890 0.62960 0.68600
P 	P 	0.13470 0.27920 0.68380 0.70300
P 	P 	0.04600 0.31170 0.64830 0.65000
O 	O 	0.08090 0.24960 0.62610 -0.73900
O 	O 	0.11410 0.21300 0.61270 -0.90100
O 	O 	0.10170 0.21870 0.65910 -0.79900
O 	O 	0.06590 0.20120 0.62880 -0.73200
O 	O 	0.13510 0.24680 0.69070 -0.64800
O 	O 	0.13460 0.30040 0.70290 -0.70300
O 	O 	0.15730 0.28190 0.66350 -0.89000
O 	O 	0.02830 0.21410 0.66320 -0.81400
O 	O 	0.05540 0.33220 0.66960 -0.75000
O 	O 	0.02660 0.17000 0.61800 -0.80000
O 	O 	0.10650 0.28290 0.67050 -0.76100
O 	O 	0.07340 0.30040 0.63390 -0.71200
O 	O 	0.03050 0.28830 0.65870 -0.75700
O 	O 	0.02790 0.32170 0.62750 -0.87000
Al	Al	0.13380 0.71950 0.17010 2.39300
Al	Al	0.03840 0.68880 0.14420 2.38800
Al	Al	0.09530 0.77760 0.13840 2.39900
P 	P 	0.08880 0.71890 0.12960 0.68600
P 	P 	0.13470 0.77920 0.18380 0.70300
P 	P 	0.04600 0.81170 0.14830 0.65000
O 	O 	0.08090 0.74960 0.12610 -0.73900
O 	O 	0.11410 0.71300 0.11270 -0.90100
O 	O 	0.10170 0.71870 0.15910 -0.79900
O 	O 	0.06590 0.70120 0.12880 -0.73300
O 	O 	0.13510 0.74680 0.19070 -0.64800
O 	O 	0.13460 0.80040 0.20290 -0.70300
O 	O 	0.15730 0.78190 0.16350 -0.89000
O 	O 	0.02830 0.71410 0.16320 -0.81400
O 	O 	0.05540 0.83220 0.16960 -0.75000
O 	O 	0.02660 0.67000 0.11800 -0.80000
O 	O 	0.10650 0.78290 0.17050 -0.76100
O 	O 	0.07340 0.80040 0.13390 -0.71200
O 	O 	0.03050 0.78830 0.15870 -0.75700
O 	O 	0.02790 0.82170 0.12750 -0.87000
Al	Al	0.63380 0.78050 0.82990 2.39300
Al	Al	0.53840 0.81120 0.85580 2.38800
Al	Al	0.59530 0.72240 0.86160 2.39900
P 	P 	0.58880 0.78110 0.87040 0.68600
P 	P 	0.63470 0.72080 0.81620 0.70300
P 	P 	0.54600 0.68830 0.85170 0.65000
O 	O 	0.58090 0.75040 0.87390 -0.73800
O 	O 	0.61410 0.78700 0.88730 -0.90100
O 	O 	0.60170 0.78130 0.84090 -0.79900
O 	O 	0.56590 0.79880 0.87120 -0.73200
O 	O 	0.63510 0.75320 0.80930 -0.64800
O 	O 	0.63460 0.69960 0.79710 -0.70300
O 	O 	0.65730 0.71810 0.83650 -0.89000
O 	O 	0.52830 0.78590 0.83680 -0.81400
O 	O 	0.55540 0.66780 0.83040 -0.74900
O 	O 	0.52660 0.83000 0.88200 -0.80000
O 	O 	0.60650 0.71710 0.82950 -0.76200
O 	O 	0.57340 0.69960 0.86610 -0.71200
O 	O 	0.53050 0.71170 0.84130 -0.75600
O 	O 	0.52790 0.67830 0.87250 -0.86900
Al	Al	0.63380 0.28050 0.32990 2.39300
Al	Al	0.53840 0.31120 0.35580 2.38800
Al	Al	0.59530 0.22240 0.36160 2.39900
P 	P 	0.58880 0.28110 0.37040 0.68600
P 	P 	0.63470 0.22080 0.31620 0.70300
P 	P 	0.54600 0.18830 0.35170 0.65000
O 	O 	0.58090 0.25040 0.37390 -0.73800
O 	O 	0.61410 0.28700 0.38730 -0.90100
O 	O 	0.60170 0.28130 0.34090 -0.79900
O 	O 	0.56590 0.29880 0.37120 -0.73200
O 	O 	0.63510 0.25320 0.30930 -0.64800
O 	O 	0.63460 0.19960 0.29710 -0.70300
O 	O 	0.65730 0.21810 0.33650 -0.89000
O 	O 	0.52830 0.28590 0.33680 -0.81400
O 	O 	0.55540 0.16780 0.33040 -0.74900
O 	O 	0.52660 0.33000 0.38200 -0.80000
O 	O 	0.60650 0.21710 0.32950 -0.76100
O 	O 	0.57340 0.19960 0.36610 -0.71200
O 	O 	0.53050 0.21170 0.34130 -0.75600
O 	O 	0.52790 0.17830 0.37250 -0.86900
Al	Al	0.13380 0.78050 0.32990 2.39300
Al	Al	0.03840 0.81120 0.35580 2.38800
Al	Al	0.09530 0.72240 0.36160 2.39900
P 	P 	0.08880 0.78110 0.37040 0.68600
P 	P 	0.13470 0.72080 0.31620 0.70300
P 	P 	0.04600 0.68830 0.35170 0.65000
O 	O 	0.08090 0.75040 0.37390 -0.73900
O 	O 	0.11410 0.78700 0.38730 -0.90100
O 	O 	0.10170 0.78130 0.34090 -0.79900
O 	O 	0.06590 0.79880 0.37120 -0.73200
O 	O 	0.13510 0.75320 0.30930 -0.64800
O 	O 	0.13460 0.69960 0.29710 -0.70300
O 	O 	0.15730 0.71810 0.33650 -0.89000
O 	O 	0.02830 0.78590 0.33680 -0.81400
O 	O 	0.05540 0.66780 0.33040 -0.75000
O 	O 	0.02660 0.83000 0.38200 -0.80000
O 	O 	0.10650 0.71710 0.32950 -0.76100
O 	O 	0.07340 0.69960 0.36610 -0.71200
O 	O 	0.03050 0.71170 0.34130 -0.75700
O 	O 	0.02790 0.67830 0.37250 -0.87000
Al	Al	0.13380 0.28050 0.82990 2.39300
Al	Al	0.03840 0.31120 0.85580 2.38800
Al	Al	0.09530 0.22240 0.86160 2.39900
P 	P 	0.08880 0.28110 0.87040 0.68600
P 	P 	0.13470 0.22080 0.81620 0.70300
P 	P 	0.04600 0.18830 0.85170 0.65000
O 	O 	0.08090 0.25040 0.87390 -0.73900
O 	O 	0.11410 0.28700 0.88730 -0.90100
O 	O 	0.10170 0.28130 0.84090 -0.79900
O 	O 	0.06590 0.29880 0.87120 -0.73200
O 	O 	0.13510 0.25320 0.80930 -0.64800
O 	O 	0.13460 0.19960 0.79710 -0.70300
O 	O 	0.15730 0.21810 0.83650 -0.89000
O 	O 	0.02830 0.28590 0.83680 -0.81400
O 	O 	0.05540 0.16780 0.83040 -0.75000
O 	O 	0.02660 0.33000 0.88200 -0.80000
O 	O 	0.10650 0.21710 0.82950 -0.76100
O 	O 	0.07340 0.19960 0.86610 -0.71200
O 	O 	0.03050 0.21170 0.84130 -0.75700
O 	O 	0.02790 0.17830 0.87250 -0.87000
Al	Al	0.36620 0.78050 0.17010 2.39300
Al	Al	0.46160 0.81120 0.14420 2.38800
Al	Al	0.40470 0.72240 0.13840 2.39900
P 	P 	0.41120 0.78110 0.12960 0.68600
P 	P 	0.36530 0.72080 0.18380 0.70300
P 	P 	0.45400 0.68830 0.14830 0.65000
O 	O 	0.41910 0.75040 0.12610 -0.73900
O 	O 	0.38590 0.78700 0.11270 -0.90100
O 	O 	0.39830 0.78130 0.15910 -0.79900
O 	O 	0.43410 0.79880 0.12880 -0.73200
O 	O 	0.36490 0.75320 0.19070 -0.64800
O 	O 	0.36540 0.69960 0.20290 -0.70300
O 	O 	0.34270 0.71810 0.16350 -0.89000
O 	O 	0.47170 0.78590 0.16320 -0.81400
O 	O 	0.44460 0.66780 0.16960 -0.74900
O 	O 	0.47340 0.83000 0.11800 -0.80000
O 	O 	0.39350 0.71710 0.17050 -0.76100
O 	O 	0.42660 0.69960 0.13390 -0.71200
O 	O 	0.46950 0.71170 0.15870 -0.75600
O 	O 	0.47210 0.67830 0.12750 -0.86900
Al	Al	0.36620 0.28050 0.67010 2.39300
Al	Al	0.46160 0.31120 0.64420 2.38800
Al	Al	0.40470 0.22240 0.63840 2.39900
P 	P 	0.41120 0.28110 0.62960 0.68600
P 	P 	0.36530 0.22080 0.68380 0.70300
P 	P 	0.45400 0.18830 0.64830 0.65000
O 	O 	0.41910 0.25040 0.62610 -0.73900
O 	O 	0.38590 0.28700 0.61270 -0.90100
O 	O 	0.39830 0.28130 0.65910 -0.79900
O 	O 	0.43410 0.29880 0.62880 -0.73200
O 	O 	0.36490 0.25320 0.69070 -0.64800
O 	O 	0.36540 0.19960 0.70290 -0.70300
O 	O 	0.34270 0.21810 0.66350 -0.89000
O 	O 	0.47170 0.28590 0.66320 -0.81400
O 	O 	0.44460 0.16780 0.66960 -0.74900
O 	O 	0.47340 0.33000 0.61800 -0.80000
O 	O 	0.39350 0.21710 0.67050 -0.76100
O 	O 	0.42660 0.19960 0.63390 -0.71200
O 	O 	0.46950 0.21170 0.65870 -0.75600
O 	O 	0.47210 0.17830 0.62750 -0.86900
Al	Al	0.86620 0.78050 0.67010 2.39300
Al	Al	0.96160 0.81120 0.64420 2.38800
Al	Al	0.90470 0.72240 0.63840 2.39900
P 	P 	0.91120 0.78110 0.62960 0.68600
P 	P 	0.86530 0.72080 0.68380 0.70300
P 	P 	0.95400 0.68830 0.64830 0.65000
O 	O 	0.91910 0.75040 0.62610 -0.73800
O 	O 	0.88590 0.78700 0.61270 -0.90100
O 	O 	0.89830 0.78130 0.65910 -0.79800
O 	O 	0.93410 0.79880 0.62880 -0.73200
O 	O 	0.86490 0.75320 0.69070 -0.64800
O 	O 	0.86540 0.69960 0.70290 -0.70300
O 	O 	0.84270 0.71810 0.66350 -0.89000
O 	O 	0.97170 0.78590 0.66320 -0.81200
O 	O 	0.94460 0.66780 0.66960 -0.74900
O 	O 	0.97340 0.83000 0.61800 -0.79700
O 	O 	0.89350 0.71710 0.67050 -0.76100
O 	O 	0.92660 0.69960 0.63390 -0.71200
O 	O 	0.96950 0.71170 0.65870 -0.75400
O 	O 	0.97210 0.67830 0.62750 -0.86800
Al	Al	0.86620 0.28050 0.17010 2.39300
Al	Al	0.96160 0.31120 0.14420 2.38800
Al	Al	0.90470 0.22240 0.13840 2.39900
P 	P 	0.91120 0.28110 0.12960 0.68600
P 	P 	0.86530 0.22080 0.18380 0.70300
P 	P 	0.95400 0.18830 0.14830 0.65000
O 	O 	0.91910 0.25040 0.12610 -0.73800
O 	O 	0.88590 0.28700 0.11270 -0.90100
O 	O 	0.89830 0.28130 0.15910 -0.79800
O 	O 	0.93410 0.29880 0.12880 -0.73200
O 	O 	0.86490 0.25320 0.19070 -0.64800
O 	O 	0.86540 0.19960 0.20290 -0.70300
O 	O 	0.84270 0.21810 0.16350 -0.89000
O 	O 	0.97170 0.28590 0.16320 -0.81200
O 	O 	0.94460 0.16780 0.16960 -0.74900
O 	O 	0.97340 0.33000 0.11800 -0.79800
O 	O 	0.89350 0.21710 0.17050 -0.76100
O 	O 	0.92660 0.19960 0.13390 -0.71200
O 	O 	0.96950 0.21170 0.15870 -0.75400
O 	O 	0.97210 0.17830 0.12750 -0.86800
Al	Al	0.21950 0.17010 0.63380 2.39300
Al	Al	0.18880 0.14420 0.53840 2.38800
Al	Al	0.27760 0.13840 0.59530 2.39900
P 	P 	0.21890 0.12960 0.58880 0.68600
P 	P 	0.27920 0.18380 0.63470 0.70300
P 	P 	0.31170 0.14830 0.54600 0.65000
O 	O 	0.24960 0.12610 0.58090 -0.73900
O 	O 	0.21300 0.11270 0.61410 -0.90100
O 	O 	0.21870 0.15910 0.60170 -0.79900
O 	O 	0.20120 0.12880 0.56590 -0.73200
O 	O 	0.24680 0.19070 0.63510 -0.64800
O 	O 	0.30040 0.20290 0.63460 -0.70300
O 	O 	0.28190 0.16350 0.65730 -0.89000
O 	O 	0.21410 0.16320 0.52830 -0.81400
O 	O 	0.33220 0.16960 0.55540 -0.74900
O 	O 	0.17000 0.11800 0.52660 -0.80000
O 	O 	0.28290 0.17050 0.60650 -0.76100
O 	O 	0.30040 0.13390 0.57340 -0.71200
O 	O 	0.28830 0.15870 0.53050 -0.75600
O 	O 	0.32170 0.12750 0.52790 -0.86900
Al	Al	0.21950 0.67010 0.13380 2.39300
Al	Al	0.18880 0.64420 0.03840 2.38800
Al	Al	0.27760 0.63840 0.09530 2.39900
P 	P 	0.21890 0.62960 0.08880 0.68600
P 	P 	0.27920 0.68380 0.13470 0.70300
P 	P 	0.31170 0.64830 0.04600 0.65000
O 	O 	0.24960 0.62610 0.08090 -0.73900
O 	O 	0.21300 0.61270 0.11410 -0.90100
O 	O 	0.21870 0.65910 0.10170 -0.79900
O 	O 	0.20120 0.62880 0.06590 -0.73200
O 	O 	0.24680 0.69070 0.13510 -0.64800
O 	O 	0.30040 0.70290 0.13460 -0.70300
O 	O 	0.28190 0.66350 0.15730 -0.89000
O 	O 	0.21410 0.66320 0.02830 -0.81400
O 	O 	0.33220 0.66960 0.05540 -0.75000
O 	O 	0.17000 0.61800 0.02660 -0.80000
O 	O 	0.28290 0.67050 0.10650 -0.76100
O 	O 	0.30040 0.63390 0.07340 -0.71200
O 	O 	0.28830 0.65870 0.03050 -0.75700
O 	O 	0.32170 0.62750 0.02790 -0.87000
Al	Al	0.71950 0.17010 0.13380 2.39300
Al	Al	0.68880 0.14420 0.03840 2.38800
Al	Al	0.77760 0.13840 0.09530 2.39900
P 	P 	0.71890 0.12960 0.08880 0.68600
P 	P 	0.77920 0.18380 0.13470 0.70300
P 	P 	0.81170 0.14830 0.04600 0.65000
O 	O 	0.74960 0.12610 0.08090 -0.73900
O 	O 	0.71300 0.11270 0.11410 -0.90100
O 	O 	0.71870 0.15910 0.10170 -0.79900
O 	O 	0.70120 0.12880 0.06590 -0.73300
O 	O 	0.74680 0.19070 0.13510 -0.64800
O 	O 	0.80040 0.20290 0.13460 -0.70300
O 	O 	0.78190 0.16350 0.15730 -0.89000
O 	O 	0.71410 0.16320 0.02830 -0.81400
O 	O 	0.83220 0.16960 0.05540 -0.75000
O 	O 	0.67000 0.11800 0.02660 -0.80000
O 	O 	0.78290 0.17050 0.10650 -0.76100
O 	O 	0.80040 0.13390 0.07340 -0.71200
O 	O 	0.78830 0.15870 0.03050 -0.75700
O 	O 	0.82170 0.12750 0.02790 -0.87000
Al	Al	0.71950 0.67010 0.63380 2.39300
Al	Al	0.68880 0.64420 0.53840 2.38800
Al	Al	0.77760 0.63840 0.59530 2.39900
P 	P 	0.71890 0.62960 0.58880 0.68600
P 	P 	0.77920 0.68380 0.63470 0.70300
P 	P 	0.81170 0.64830 0.54600 0.65000
O 	O 	0.74960 0.62610 0.58090 -0.73900
O 	O 	0.71300 0.61270 0.61410 -0.90100
O 	O 	0.71870 0.65910 0.60170 -0.79900
O 	O 	0.70120 0.62880 0.56590 -0.73200
O 	O 	0.74680 0.69070 0.63510 -0.64800
O 	O 	0.80040 0.70290 0.63460 -0.70300
O 	O 	0.78190 0.66350 0.65730 -0.89000
O 	O 	0.71410 0.66320 0.52830 -0.81400
O 	O 	0.83220 0.66960 0.55540 -0.74900
O 	O 	0.67000 0.61800 0.52660 -0.80000
O 	O 	0.78290 0.67050 0.60650 -0.76100
O 	O 	0.80040 0.63390 0.57340 -0.71200
O 	O 	0.78830 0.65870 0.53050 -0.75600
O 	O 	0.82170 0.62750 0.52790 -0.86900
Al	Al	0.21950 0.82990 0.36620 2.39300
Al	Al	0.18880 0.85580 0.46160 2.38800
Al	Al	0.27760 0.86160 0.40470 2.39900
P 	P 	0.21890 0.87040 0.41120 0.68600
P 	P 	0.27920 0.81620 0.36530 0.70300
P 	P 	0.31170 0.85170 0.45400 0.65000
O 	O 	0.24960 0.87390 0.41910 -0.73800
O 	O 	0.21300 0.88730 0.38590 -0.90100
O 	O 	0.21870 0.84090 0.39830 -0.79900
O 	O 	0.20120 0.87120 0.43410 -0.73200
O 	O 	0.24680 0.80930 0.36490 -0.64800
O 	O 	0.30040 0.79710 0.36540 -0.70300
O 	O 	0.28190 0.83650 0.34270 -0.89000
O 	O 	0.21410 0.83680 0.47170 -0.81400
O 	O 	0.33220 0.83040 0.44460 -0.74900
O 	O 	0.17000 0.88200 0.47340 -0.80000
O 	O 	0.28290 0.82950 0.39350 -0.76100
O 	O 	0.30040 0.86610 0.42660 -0.71200
O 	O 	0.28830 0.84130 0.46950 -0.75600
O 	O 	0.32170 0.87250 0.47210 -0.86900
Al	Al	0.21950 0.32990 0.86620 2.39300
Al	Al	0.18880 0.35580 0.96160 2.38800
Al	Al	0.27760 0.36160 0.90470 2.39900
P 	P 	0.21890 0.37040 0.91120 0.68600
P 	P 	0.27920 0.31620 0.86530 0.70300
P 	P 	0.31170 0.35170 0.95400 0.65000
O 	O 	0.24960 0.37390 0.91910 -0.73800
O 	O 	0.21300 0.38730 0.88590 -0.90100
O 	O 	0.21870 0.34090 0.89830 -0.79800
O 	O 	0.20120 0.37120 0.93410 -0.73200
O 	O 	0.24680 0.30930 0.86490 -0.64800
O 	O 	0.30040 0.29710 0.86540 -0.70300
O 	O 	0.28190 0.33650 0.84270 -0.89000
O 	O 	0.21410 0.33680 0.97170 -0.81200
O 	O 	0.33220 0.33040 0.94460 -0.74900
O 	O 	0.17000 0.38200 0.97340 -0.79700
O 	O 	0.28290 0.32950 0.89350 -0.76100
O 	O 	0.30040 0.36610 0.92660 -0.71200
O 	O 	0.28830 0.34130 0.96950 -0.75400
O 	O 	0.32170 0.37250 0.97210 -0.86800
Al	Al	0.71950 0.82990 0.86620 2.39300
Al	Al	0.68880 0.85580 0.96160 2.38800
Al	Al	0.77760 0.86160 0.90470 2.39900
P 	P 	0.71890 0.87040 0.91120 0.68600
P 	P 	0.77920 0.81620 0.86530 0.70300
P 	P 	0.81170 0.85170 0.95400 0.65000
O 	O 	0.74960 0.87390 0.91910 -0.73800
O 	O 	0.71300 0.88730 0.88590 -0.90100
O 	O 	0.71870 0.84090 0.89830 -0.79900
O 	O 	0.70120 0.87120 0.93410 -0.73200
O 	O 	0.74680 0.80930 0.86490 -0.64800
O 	O 	0.80040 0.79710 0.86540 -0.70300
O 	O 	0.78190 0.83650 0.84270 -0.89000
O 	O 	0.71410 0.83680 0.97170 -0.81200
O 	O 	0.83220 0.83040 0.94460 -0.74900
O 	O 	0.67000 0.88200 0.97340 -0.79700
O 	O 	0.78290 0.82950 0.89350 -0.76100
O 	O 	0.80040 0.86610 0.92660 -0.71200
O 	O 	0.78830 0.84130 0.96950 -0.75400
O 	O 	0.82170 0.87250 0.97210 -0.86700
Al	Al	0.71950 0.32990 0.36620 2.39300
Al	Al	0.68880 0.35580 0.46160 2.38800
Al	Al	0.77760 0.36160 0.40470 2.39900
P 	P 	0.71890 0.37040 0.41120 0.68600
P 	P 	0.77920 0.31620 0.36530 0.70300
P 	P 	0.81170 0.35170 0.45400 0.65000
O 	O 	0.74960 0.37390 0.41910 -0.73900
O 	O 	0.71300 0.38730 0.38590 -0.90100
O 	O 	0.71870 0.34090 0.39830 -0.79900
O 	O 	0.70120 0.37120 0.43410 -0.73200
O 	O 	0.74680 0.30930 0.36490 -0.64800
O 	O 	0.80040 0.29710 0.36540 -0.70300
O 	O 	0.78190 0.33650 0.34270 -0.89000
O 	O 	0.71410 0.33680 0.47170 -0.81400
O 	O 	0.83220 0.33040 0.44460 -0.74900
O 	O 	0.67000 0.38200 0.47340 -0.80000
O 	O 	0.78290 0.32950 0.39350 -0.76100
O 	O 	0.80040 0.36610 0.42660 -0.71200
O 	O 	0.78830 0.34130 0.46950 -0.75600
O 	O 	0.82170 0.37250 0.47210 -0.86900
Al	Al	0.78050 0.17010 0.36620 2.39300
Al	Al	0.81120 0.14420 0.46160 2.38800
Al	Al	0.72240 0.13840 0.40470 2.39900
P 	P 	0.78110 0.12960 0.41120 0.68600
P 	P 	0.72080 0.18380 0.36530 0.70300
P 	P 	0.68830 0.14830 0.45400 0.65000
O 	O 	0.75040 0.12610 0.41910 -0.73900
O 	O 	0.78700 0.11270 0.38590 -0.90100
O 	O 	0.78130 0.15910 0.39830 -0.79900
O 	O 	0.79880 0.12880 0.43410 -0.73200
O 	O 	0.75320 0.19070 0.36490 -0.64800
O 	O 	0.69960 0.20290 0.36540 -0.70300
O 	O 	0.71810 0.16350 0.34270 -0.89000
O 	O 	0.78590 0.16320 0.47170 -0.81400
O 	O 	0.66780 0.16960 0.44460 -0.74900
O 	O 	0.83000 0.11800 0.47340 -0.80000
O 	O 	0.71710 0.17050 0.39350 -0.76100
O 	O 	0.69960 0.13390 0.42660 -0.71200
O 	O 	0.71170 0.15870 0.46950 -0.75600
O 	O 	0.67830 0.12750 0.47210 -0.86900
Al	Al	0.78050 0.67010 0.86620 2.39300
Al	Al	0.81120 0.64420 0.96160 2.38800
Al	Al	0.72240 0.63840 0.90470 2.39900
P 	P 	0.78110 0.62960 0.91120 0.68600
P 	P 	0.72080 0.68380 0.86530 0.70300
P 	P 	0.68830 0.64830 0.95400 0.65000
O 	O 	0.75040 0.62610 0.91910 -0.73800
O 	O 	0.78700 0.61270 0.88590 -0.90100
O 	O 	0.78130 0.65910 0.89830 -0.79800
O 	O 	0.79880 0.62880 0.93410 -0.73200
O 	O 	0.75320 0.69070 0.86490 -0.64800
O 	O 	0.69960 0.70290 0.86540 -0.70300
O 	O 	0.71810 0.66350 0.84270 -0.89000
O 	O 	0.78590 0.66320 0.97170 -0.81200
O 	O 	0.66780 0.66960 0.94460 -0.74900
O 	O 	0.83000 0.61800 0.97340 -0.79700
O 	O 	0.71710 0.67050 0.89350 -0.76100
O 	O 	0.69960 0.63390 0.92660 -0.71200
O 	O 	0.71170 0.65870 0.96950 -0.75400
O 	O 	0.67830 0.62750 0.97210 -0.86800
Al	Al	0.28050 0.17010 0.86620 2.39300
Al	Al	0.31120 0.14420 0.96160 2.38800
Al	Al	0.22240 0.13840 0.90470 2.39900
P 	P 	0.28110 0.12960 0.91120 0.68600
P 	P 	0.22080 0.18380 0.86530 0.70300
P 	P 	0.18830 0.14830 0.95400 0.65000
O 	O 	0.25040 0.12610 0.91910 -0.73800
O 	O 	0.28700 0.11270 0.88590 -0.90100
O 	O 	0.28130 0.15910 0.89830 -0.79800
O 	O 	0.29880 0.12880 0.93410 -0.73200
O 	O 	0.25320 0.19070 0.86490 -0.64800
O 	O 	0.19960 0.20290 0.86540 -0.70300
O 	O 	0.21810 0.16350 0.84270 -0.89000
O 	O 	0.28590 0.16320 0.97170 -0.81200
O 	O 	0.16780 0.16960 0.94460 -0.74900
O 	O 	0.33000 0.11800 0.97340 -0.79800
O 	O 	0.21710 0.17050 0.89350 -0.76100
O 	O 	0.19960 0.13390 0.92660 -0.71200
O 	O 	0.21170 0.15870 0.96950 -0.75400
O 	O 	0.17830 0.12750 0.97210 -0.86800
Al	Al	0.28050 0.67010 0.36620 2.39300
Al	Al	0.31120 0.64420 0.46160 2.38800
Al	Al	0.22240 0.63840 0.40470 2.39900
P 	P 	0.28110 0.62960 0.41120 0.68600
P 	P 	0.22080 0.68380 0.36530 0.70300
P 	P 	0.18830 0.64830 0.45400 0.65000
O 	O 	0.25040 0.62610 0.41910 -0.73900
O 	O 	0.28700 0.61270 0.38590 -0.90100
O 	O 	0.28130 0.65910 0.39830 -0.79900
O 	O 	0.29880 0.62880 0.43410 -0.73200
O 	O 	0.25320 0.69070 0.36490 -0.64800
O 	O 	0.19960 0.70290 0.36540 -0.70300
O 	O 	0.21810 0.66350 0.34270 -0.89000
O 	O 	0.28590 0.66320 0.47170 -0.81400
O 	O 	0.16780 0.66960 0.44460 -0.74900
O 	O 	0.33000 0.61800 0.47340 -0.80000
O 	O 	0.21710 0.67050 0.39350 -0.76100
O 	O 	0.19960 0.63390 0.42660 -0.71200
O 	O 	0.21170 0.65870 0.46950 -0.75600
O 	O 	0.17830 0.62750 0.47210 -0.86900
Al	Al	0.78050 0.82990 0.63380 2.39300
Al	Al	0.81120 0.85580 0.53840 2.38800
Al	Al	0.72240 0.86160 0.59530 2.39900
P 	P 	0.78110 0.87040 0.58880 0.68600
P 	P 	0.72080 0.81620 0.63470 0.70300
P 	P 	0.68830 0.85170 0.54600 0.65000
O 	O 	0.75040 0.87390 0.58090 -0.73800
O 	O 	0.78700 0.88730 0.61410 -0.90100
O 	O 	0.78130 0.84090 0.60170 -0.79900
O 	O 	0.79880 0.87120 0.56590 -0.73200
O 	O 	0.75320 0.80930 0.63510 -0.64800
O 	O 	0.69960 0.79710 0.63460 -0.70300
O 	O 	0.71810 0.83650 0.65730 -0.89000
O 	O 	0.78590 0.83680 0.52830 -0.81400
O 	O 	0.66780 0.83040 0.55540 -0.74900
O 	O 	0.83000 0.88200 0.52660 -0.80000
O 	O 	0.71710 0.82950 0.60650 -0.76200
O 	O 	0.69960 0.86610 0.57340 -0.71200
O 	O 	0.71170 0.84130 0.53050 -0.75600
O 	O 	0.67830 0.87250 0.52790 -0.86900
Al	Al	0.78050 0.32990 0.13380 2.39300
Al	Al	0.81120 0.35580 0.03840 2.38800
Al	Al	0.72240 0.36160 0.09530 2.39900
P 	P 	0.78110 0.37040 0.08880 0.68600
P 	P 	0.72080 0.31620 0.13470 0.70300
P 	P 	0.68830 0.35170 0.04600 0.65000
O 	O 	0.75040 0.37390 0.08090 -0.73900
O 	O 	0.78700 0.38730 0.11410 -0.90100
O 	O 	0.78130 0.34090 0.10170 -0.79900
O 	O 	0.79880 0.37120 0.06590 -0.73200
O 	O 	0.75320 0.30930 0.13510 -0.64800
O 	O 	0.69960 0.29710 0.13460 -0.70300
O 	O 	0.71810 0.33650 0.15730 -0.89000
O 	O 	0.78590 0.33680 0.02830 -0.81400
O 	O 	0.66780 0.33040 0.05540 -0.75000
O 	O 	0.83000 0.38200 0.02660 -0.80000
O 	O 	0.71710 0.32950 0.10650 -0.76100
O 	O 	0.69960 0.36610 0.07340 -0.71200
O 	O 	0.71170 0.34130 0.03050 -0.75700
O 	O 	0.67830 0.37250 0.02790 -0.87000
Al	Al	0.28050 0.82990 0.13380 2.39300
Al	Al	0.31120 0.85580 0.03840 2.38800
Al	Al	0.22240 0.86160 0.09530 2.39900
P 	P 	0.28110 0.87040 0.08880 0.68600
P 	P 	0.22080 0.81620 0.13470 0.70300
P 	P 	0.18830 0.85170 0.04600 0.65000
O 	O 	0.25040 0.87390 0.08090 -0.73900
O 	O 	0.28700 0.88730 0.11410 -0.90100
O 	O 	0.28130 0.84090 0.10170 -0.79900
O 	O 	0.29880 0.87120 0.06590 -0.73200
O 	O 	0.25320 0.80930 0.13510 -0.64800
O 	O 	0.19960 0.79710 0.13460 -0.70300
O 	O 	0.21810 0.83650 0.15730 -0.89000
O 	O 	0.28590 0.83680 0.02830 -0.81400
O 	O 	0.16780 0.83040 0.05540 -0.75000
O 	O 	0.33000 0.88200 0.02660 -0.80000
O 	O 	0.21710 0.82950 0.10650 -0.76100
O 	O 	0.19960 0.86610 0.07340 -0.71200
O 	O 	0.21170 0.84130 0.03050 -0.75700
O 	O 	0.17830 0.87250 0.02790 -0.87000
Al	Al	0.28050 0.32990 0.63380 2.39300
Al	Al	0.31120 0.35580 0.53840 2.38800
Al	Al	0.22240 0.36160 0.59530 2.39900
P 	P 	0.28110 0.37040 0.58880 0.68600
P 	P 	0.22080 0.31620 0.63470 0.70300
P 	P 	0.18830 0.35170 0.54600 0.65000
O 	O 	0.25040 0.37390 0.58090 -0.73800
O 	O 	0.28700 0.38730 0.61410 -0.90100
O 	O 	0.28130 0.34090 0.60170 -0.79900
O 	O 	0.29880 0.37120 0.56590 -0.73200
O 	O 	0.25320 0.30930 0.63510 -0.64800
O 	O 	0.19960 0.29710 0.63460 -0.70300
O 	O 	0.21810 0.33650 0.65730 -0.89000
O 	O 	0.28590 0.33680 0.52830 -0.81400
O 	O 	0.16780 0.33040 0.55540 -0.74900
O 	O 	0.33000 0.38200 0.52660 -0.80000
O 	O 	0.21710 0.32950 0.60650 -0.76100
O 	O 	0.19960 0.36610 0.57340 -0.71200
O 	O 	0.21170 0.34130 0.53050 -0.75600
O 	O 	0.17830 0.37250 0.52790 -0.86900
Al	Al	0.00000 0.32380 0.21670 2.39000
Al	Al	0.00000 0.37960 0.15860 2.37100
P 	P 	0.00000 0.32230 0.27780 0.58800
P 	P 	0.00000 0.39000 0.34450 0.52100
O 	O 	0.00000 0.32110 0.24820 -0.78000
O 	O 	0.00000 0.29410 0.29100 -0.72200
O 	O 	0.00000 0.37440 0.37190 -0.84900
O 	O 	0.00000 0.42020 0.35090 -0.22000
Al	Al	0.00000 0.82380 0.71670 2.39000
Al	Al	0.00000 0.87960 0.65860 2.37100
P 	P 	-0.00000 0.82230 0.77780 0.58800
P 	P 	0.00000 0.89000 0.84450 0.52100
O 	O 	0.00000 0.82110 0.74820 -0.78000
O 	O 	0.00000 0.79410 0.79100 -0.72200
O 	O 	0.00000 0.87440 0.87190 -0.84800
O 	O 	0.00000 0.92020 0.85090 -0.21900
Al	Al	0.50000 0.32380 0.71670 2.39000
Al	Al	0.50000 0.37960 0.65860 2.37100
P 	P 	0.50000 0.32230 0.77780 0.59000
P 	P 	0.50000 0.39000 0.84450 0.52400
O 	O 	0.50000 0.32110 0.74820 -0.77900
O 	O 	0.50000 0.29410 0.79100 -0.72100
O 	O 	0.50000 0.37440 0.87190 -0.84700
O 	O 	0.50000 0.42020 0.85090 -0.21800
Al	Al	0.50000 0.82380 0.21670 2.39000
Al	Al	0.50000 0.87960 0.15860 2.37100
P 	P 	0.50000 0.82230 0.27780 0.59000
P 	P 	0.50000 0.89000 0.34450 0.52400
O 	O 	0.50000 0.82110 0.24820 -0.77900
O 	O 	0.50000 0.79410 0.29100 -0.72100
O 	O 	0.50000 0.87440 0.37190 -0.84700
O 	O 	0.50000 0.92020 0.35090 -0.21800
Al	Al	0.00000 0.67620 0.21670 2.39000
Al	Al	0.00000 0.62040 0.15860 2.37100
P 	P 	-0.00000 0.67770 0.27780 0.58800
P 	P 	0.00000 0.61000 0.34450 0.52100
O 	O 	-0.00000 0.67890 0.24820 -0.78000
O 	O 	0.00000 0.70590 0.29100 -0.72200
O 	O 	0.00000 0.62560 0.37190 -0.84900
O 	O 	0.00000 0.57980 0.35090 -0.22000
Al	Al	0.00000 0.17620 0.71670 2.39000
Al	Al	0.00000 0.12040 0.65860 2.37100
P 	P 	0.00000 0.17770 0.77780 0.58800
P 	P 	0.00000 0.11000 0.84450 0.52100
O 	O 	0.00000 0.17890 0.74820 -0.78000
O 	O 	0.00000 0.20590 0.79100 -0.72200
O 	O 	0.00000 0.12560 0.87190 -0.84900
O 	O 	0.00000 0.07980 0.85090 -0.22000
Al	Al	0.50000 0.67620 0.71670 2.39000
Al	Al	0.50000 0.62040 0.65860 2.37100
P 	P 	0.50000 0.67770 0.77780 0.59000
P 	P 	0.50000 0.61000 0.84450 0.52400
O 	O 	0.50000 0.67890 0.74820 -0.77900
O 	O 	0.50000 0.70590 0.79100 -0.72100
O 	O 	0.50000 0.62560 0.87190 -0.84700
O 	O 	0.50000 0.57980 0.85090 -0.21800
Al	Al	0.50000 0.17620 0.21670 2.39000
Al	Al	0.50000 0.12040 0.15860 2.37100
P 	P 	0.50000 0.17770 0.27780 0.59000
P 	P 	0.50000 0.11000 0.34450 0.52400
O 	O 	0.50000 0.17890 0.24820 -0.77900
O 	O 	0.50000 0.20590 0.29100 -0.72100
O 	O 	0.50000 0.12560 0.37190 -0.84800
O 	O 	0.50000 0.07980 0.35090 -0.21900
Al	Al	-0.00000 0.32380 0.78330 2.39000
Al	Al	0.00000 0.37960 0.84140 2.37100
P 	P 	-0.00000 0.32230 0.72220 0.58800
P 	P 	-0.00000 0.39000 0.65550 0.52100
O 	O 	0.00000 0.32110 0.75180 -0.78000
O 	O 	0.00000 0.29410 0.70900 -0.72200
O 	O 	0.00000 0.37440 0.62810 -0.84900
O 	O 	0.00000 0.42020 0.64910 -0.22000
Al	Al	-0.00000 0.82380 0.28330 2.39000
Al	Al	0.00000 0.87960 0.34140 2.37100
P 	P 	0.00000 0.82230 0.22220 0.58800
P 	P 	-0.00000 0.89000 0.15550 0.52100
O 	O 	0.00000 0.82110 0.25180 -0.78000
O 	O 	0.00000 0.79410 0.20900 -0.72200
O 	O 	-0.00000 0.87440 0.12810 -0.84900
O 	O 	0.00000 0.92020 0.14910 -0.21900
Al	Al	0.50000 0.32380 0.28330 2.39000
Al	Al	0.50000 0.37960 0.34140 2.37100
P 	P 	0.50000 0.32230 0.22220 0.59000
P 	P 	0.50000 0.39000 0.15550 0.52400
O 	O 	0.50000 0.32110 0.25180 -0.77900
O 	O 	0.50000 0.29410 0.20900 -0.72100
O 	O 	0.50000 0.37440 0.12810 -0.84800
O 	O 	0.50000 0.42020 0.14910 -0.21900
Al	Al	0.50000 0.82380 0.78330 2.39000
Al	Al	0.50000 0.87960 0.84140 2.37100
P 	P 	0.50000 0.82230 0.72220 0.59000
P 	P 	0.50000 0.89000 0.65550 0.52400
O 	O 	0.50000 0.82110 0.75180 -0.77900
O 	O 	0.50000 0.79410 0.70900 -0.72100
O 	O 	0.50000 0.87440 0.62810 -0.84700
O 	O 	0.50000 0.92020 0.64910 -0.21800
Al	Al	0.00000 0.67620 0.78330 2.39000
Al	Al	0.00000 0.62040 0.84140 2.37100
P 	P 	-0.00000 0.67770 0.72220 0.58800
P 	P 	0.00000 0.61000 0.65550 0.52100
O 	O 	0.00000 0.67890 0.75180 -0.78000
O 	O 	-0.00000 0.70590 0.70900 -0.72200
O 	O 	0.00000 0.62560 0.62810 -0.84900
O 	O 	0.00000 0.57980 0.64910 -0.22000
Al	Al	-0.00000 0.17620 0.28330 2.39000
Al	Al	0.00000 0.12040 0.34140 2.37100
P 	P 	0.00000 0.17770 0.22220 0.58800
P 	P 	0.00000 0.11000 0.15550 0.52100
O 	O 	0.00000 0.17890 0.25180 -0.78000
O 	O 	0.00000 0.20590 0.20900 -0.72200
O 	O 	0.00000 0.12560 0.12810 -0.84900
O 	O 	0.00000 0.07980 0.14910 -0.22000
Al	Al	0.50000 0.67620 0.28330 2.39000
Al	Al	0.50000 0.62040 0.34140 2.37100
P 	P 	0.50000 0.67770 0.22220 0.59000
P 	P 	0.50000 0.61000 0.15550 0.52400
O 	O 	0.50000 0.67890 0.25180 -0.77900
O 	O 	0.50000 0.70590 0.20900 -0.72100
O 	O 	0.50000 0.62560 0.12810 -0.84800
O 	O 	0.50000 0.57980 0.14910 -0.21900
Al	Al	0.50000 0.17620 0.78330 2.39000
Al	Al	0.50000 0.12040 0.84140 2.37100
P 	P 	0.50000 0.17770 0.72220 0.59000
P 	P 	0.50000 0.11000 0.65550 0.52400
O 	O 	0.50000 0.17890 0.75180 -0.77900
O 	O 	0.50000 0.20590 0.70900 -0.72100
O 	O 	0.50000 0.12560 0.62810 -0.84800
O 	O 	0.50000 0.07980 0.64910 -0.21900
Al	Al	0.21670 0.00000 0.32380 2.39000
Al	Al	0.15860 -0.00000 0.37960 2.37100
P 	P 	0.27780 -0.00000 0.32230 0.58800
P 	P 	0.34450 -0.00000 0.39000 0.52100
O 	O 	0.24820 0.00000 0.32110 -0.78000
O 	O 	0.29100 0.00000 0.29410 -0.72200
O 	O 	0.37190 0.00000 0.37440 -0.84900
O 	O 	0.35090 0.00000 0.42020 -0.22000
Al	Al	0.21670 0.50000 0.82380 2.39000
Al	Al	0.15860 0.50000 0.87960 2.37100
P 	P 	0.27780 0.50000 0.82230 0.59000
P 	P 	0.34450 0.50000 0.89000 0.52400
O 	O 	0.24820 0.50000 0.82110 -0.77900
O 	O 	0.29100 0.50000 0.79410 -0.72100
O 	O 	0.37190 0.50000 0.87440 -0.84700
O 	O 	0.35090 0.50000 0.92020 -0.21800
Al	Al	0.71670 -0.00000 0.82380 2.39000
Al	Al	0.65860 -0.00000 0.87960 2.37100
P 	P 	0.77780 -0.00000 0.82230 0.58800
P 	P 	0.84450 -0.00000 0.89000 0.52100
O 	O 	0.74820 -0.00000 0.82110 -0.78000
O 	O 	0.79100 0.00000 0.79410 -0.72200
O 	O 	0.87190 -0.00000 0.87440 -0.84800
O 	O 	0.85090 0.00000 0.92020 -0.21900
Al	Al	0.71670 0.50000 0.32380 2.39000
Al	Al	0.65860 0.50000 0.37960 2.37100
P 	P 	0.77780 0.50000 0.32230 0.59000
P 	P 	0.84450 0.50000 0.39000 0.52400
O 	O 	0.74820 0.50000 0.32110 -0.77900
O 	O 	0.79100 0.50000 0.29410 -0.72100
O 	O 	0.87190 0.50000 0.37440 -0.84700
O 	O 	0.85090 0.50000 0.42020 -0.21800
Al	Al	0.21670 0.00000 0.67620 2.39000
Al	Al	0.15860 0.00000 0.62040 2.37100
P 	P 	0.27780 0.00000 0.67770 0.58800
P 	P 	0.34450 0.00000 0.61000 0.52100
O 	O 	0.24820 -0.00000 0.67890 -0.78000
O 	O 	0.29100 0.00000 0.70590 -0.72200
O 	O 	0.37190 0.00000 0.62560 -0.84900
O 	O 	0.35090 -0.00000 0.57980 -0.22000
Al	Al	0.21670 0.50000 0.17620 2.39000
Al	Al	0.15860 0.50000 0.12040 2.37100
P 	P 	0.27780 0.50000 0.17770 0.59000
P 	P 	0.34450 0.50000 0.11000 0.52400
O 	O 	0.24820 0.50000 0.17890 -0.77900
O 	O 	0.29100 0.50000 0.20590 -0.72100
O 	O 	0.37190 0.50000 0.12560 -0.84800
O 	O 	0.35090 0.50000 0.07980 -0.21900
Al	Al	0.71670 -0.00000 0.17620 2.39000
Al	Al	0.65860 0.00000 0.12040 2.37100
P 	P 	0.77780 -0.00000 0.17770 0.58800
P 	P 	0.84450 -0.00000 0.11000 0.52100
O 	O 	0.74820 -0.00000 0.17890 -0.78000
O 	O 	0.79100 0.00000 0.20590 -0.72200
O 	O 	0.87190 0.00000 0.12560 -0.84900
O 	O 	0.85090 0.00000 0.07980 -0.22000
Al	Al	0.71670 0.50000 0.67620 2.39000
Al	Al	0.65860 0.50000 0.62040 2.37100
P 	P 	0.77780 0.50000 0.67770 0.59000
P 	P 	0.84450 0.50000 0.61000 0.52400
O 	O 	0.74820 0.50000 0.67890 -0.77900
O 	O 	0.79100 0.50000 0.70590 -0.72100
O 	O 	0.87190 0.50000 0.62560 -0.84700
O 	O 	0.85090 0.50000 0.57980 -0.21800
Al	Al	0.78330 0.00000 0.32380 2.39000
Al	Al	0.84140 -0.00000 0.37960 2.37100
P 	P 	0.72220 -0.00000 0.32230 0.58800
P 	P 	0.65550 -0.00000 0.39000 0.52100
O 	O 	0.75180 0.00000 0.32110 -0.78000
O 	O 	0.70900 0.00000 0.29410 -0.72200
O 	O 	0.62810 0.00000 0.37440 -0.84900
O 	O 	0.64910 0.00000 0.42020 -0.22000
Al	Al	0.78330 0.50000 0.82380 2.39000
Al	Al	0.84140 0.50000 0.87960 2.37100
P 	P 	0.72220 0.50000 0.82230 0.59000
P 	P 	0.65550 0.50000 0.89000 0.52400
O 	O 	0.75180 0.50000 0.82110 -0.77900
O 	O 	0.70900 0.50000 0.79410 -0.72100
O 	O 	0.62810 0.50000 0.87440 -0.84700
O 	O 	0.64910 0.50000 0.92020 -0.21800
Al	Al	0.28330 -0.00000 0.82380 2.39000
Al	Al	0.34140 -0.00000 0.87960 2.37100
P 	P 	0.22220 -0.00000 0.82230 0.58800
P 	P 	0.15550 -0.00000 0.89000 0.52100
O 	O 	0.25180 -0.00000 0.82110 -0.78000
O 	O 	0.20900 0.00000 0.79410 -0.72200
O 	O 	0.12810 -0.00000 0.87440 -0.84900
O 	O 	0.14910 0.00000 0.92020 -0.21900
Al	Al	0.28330 0.50000 0.32380 2.39000
Al	Al	0.34140 0.50000 0.37960 2.37100
P 	P 	0.22220 0.50000 0.32230 0.59000
P 	P 	0.15550 0.50000 0.39000 0.52400
O 	O 	0.25180 0.50000 0.32110 -0.77900
O 	O 	0.20900 0.50000 0.29410 -0.72100
O 	O 	0.12810 0.50000 0.37440 -0.84800
O 	O 	0.14910 0.50000 0.42020 -0.21900
Al	Al	0.78330 0.00000 0.67620 2.39000
Al	Al	0.84140 0.00000 0.62040 2.37100
P 	P 	0.72220 0.00000 0.67770 0.58800
P 	P 	0.65550 0.00000 0.61000 0.52100
O 	O 	0.75180 -0.00000 0.67890 -0.78000
O 	O 	0.70900 0.00000 0.70590 -0.72200
O 	O 	0.62810 0.00000 0.62560 -0.84900
O 	O 	0.64910 -0.00000 0.57980 -0.22000
Al	Al	0.78330 0.50000 0.17620 2.39000
Al	Al	0.84140 0.50000 0.12040 2.37100
P 	P 	0.72220 0.50000 0.17770 0.59000
P 	P 	0.65550 0.50000 0.11000 0.52400
O 	O 	0.75180 0.50000 0.17890 -0.77900
O 	O 	0.70900 0.50000 0.20590 -0.72100
O 	O 	0.62810 0.50000 0.12560 -0.84800
O 	O 	0.64910 0.50000 0.07980 -0.21900
Al	Al	0.28330 -0.00000 0.17620 2.39000
Al	Al	0.34140 0.00000 0.12040 2.37100
P 	P 	0.22220 -0.00000 0.17770 0.58800
P 	P 	0.15550 -0.00000 0.11000 0.52100
O 	O 	0.25180 -0.00000 0.17890 -0.78000
O 	O 	0.20900 0.00000 0.20590 -0.72200
O 	O 	0.12810 0.00000 0.12560 -0.84900
O 	O 	0.14910 0.00000 0.07980 -0.22000
Al	Al	0.28330 0.50000 0.67620 2.39000
Al	Al	0.34140 0.50000 0.62040 2.37100
P 	P 	0.22220 0.50000 0.67770 0.59000
P 	P 	0.15550 0.50000 0.61000 0.52400
O 	O 	0.25180 0.50000 0.67890 -0.77900
O 	O 	0.20900 0.50000 0.70590 -0.72100
O 	O 	0.12810 0.50000 0.62560 -0.84800
O 	O 	0.14910 0.50000 0.57980 -0.21900
Al	Al	0.32380 0.21670 -0.00000 2.39000
Al	Al	0.37960 0.15860 -0.00000 2.37100
P 	P 	0.32230 0.27780 -0.00000 0.58800
P 	P 	0.39000 0.34450 -0.00000 0.52100
O 	O 	0.32110 0.24820 -0.00000 -0.78000
O 	O 	0.29410 0.29100 -0.00000 -0.72200
O 	O 	0.37440 0.37190 -0.00000 -0.84900
O 	O 	0.42020 0.35090 -0.00000 -0.22000
Al	Al	0.32380 0.71670 0.50000 2.39000
Al	Al	0.37960 0.65860 0.50000 2.37100
P 	P 	0.32230 0.77780 0.50000 0.59000
P 	P 	0.39000 0.84450 0.50000 0.52400
O 	O 	0.32110 0.74820 0.50000 -0.77900
O 	O 	0.29410 0.79100 0.50000 -0.72100
O 	O 	0.37440 0.87190 0.50000 -0.84700
O 	O 	0.42020 0.85090 0.50000 -0.21800
Al	Al	0.82380 0.21670 0.50000 2.39000
Al	Al	0.87960 0.15860 0.50000 2.37100
P 	P 	0.82230 0.27780 0.50000 0.59000
P 	P 	0.89000 0.34450 0.50000 0.52400
O 	O 	0.82110 0.24820 0.50000 -0.77900
O 	O 	0.79410 0.29100 0.50000 -0.72100
O 	O 	0.87440 0.37190 0.50000 -0.84700
O 	O 	0.92020 0.35090 0.50000 -0.21800
Al	Al	0.82380 0.71670 -0.00000 2.39000
Al	Al	0.87960 0.65860 -0.00000 2.37100
P 	P 	0.82230 0.77780 -0.00000 0.58800
P 	P 	0.89000 0.84450 -0.00000 0.52100
O 	O 	0.82110 0.74820 -0.00000 -0.78000
O 	O 	0.79410 0.79100 -0.00000 -0.72200
O 	O 	0.87440 0.87190 -0.00000 -0.84800
O 	O 	0.92020 0.85090 -0.00000 -0.21900
Al	Al	0.67620 0.21670 -0.00000 2.39000
Al	Al	0.62040 0.15860 -0.00000 2.37100
P 	P 	0.67770 0.27780 -0.00000 0.58800
P 	P 	0.61000 0.34450 -0.00000 0.52100
O 	O 	0.67890 0.24820 -0.00000 -0.78000
O 	O 	0.70590 0.29100 -0.00000 -0.72200
O 	O 	0.62560 0.37190 -0.00000 -0.84900
O 	O 	0.57980 0.35090 -0.00000 -0.22000
Al	Al	0.67620 0.71670 0.50000 2.39000
Al	Al	0.62040 0.65860 0.50000 2.37100
P 	P 	0.67770 0.77780 0.50000 0.59000
P 	P 	0.61000 0.84450 0.50000 0.52400
O 	O 	0.67890 0.74820 0.50000 -0.77900
O 	O 	0.70590 0.79100 0.50000 -0.72100
O 	O 	0.62560 0.87190 0.50000 -0.84700
O 	O 	0.57980 0.85090 0.50000 -0.21800
Al	Al	0.17620 0.21670 0.50000 2.39000
Al	Al	0.12040 0.15860 0.50000 2.37100
P 	P 	0.17770 0.27780 0.50000 0.59000
P 	P 	0.11000 0.34450 0.50000 0.52400
O 	O 	0.17890 0.24820 0.50000 -0.77900
O 	O 	0.20590 0.29100 0.50000 -0.72100
O 	O 	0.12560 0.37190 0.50000 -0.84800
O 	O 	0.07980 0.35090 0.50000 -0.21900
Al	Al	0.17620 0.71670 -0.00000 2.39000
Al	Al	0.12040 0.65860 -0.00000 2.37100
P 	P 	0.17770 0.77780 -0.00000 0.58800
P 	P 	0.11000 0.84450 -0.00000 0.52100
O 	O 	0.17890 0.74820 -0.00000 -0.78000
O 	O 	0.20590 0.79100 -0.00000 -0.72200
O 	O 	0.12560 0.87190 -0.00000 -0.84900
O 	O 	0.07980 0.85090 -0.00000 -0.22000
Al	Al	0.32380 0.78330 -0.00000 2.39000
Al	Al	0.37960 0.84140 -0.00000 2.37100
P 	P 	0.32230 0.72220 -0.00000 0.58800
P 	P 	0.39000 0.65550 -0.00000 0.52100
O 	O 	0.32110 0.75180 -0.00000 -0.78000
O 	O 	0.29410 0.70900 -0.00000 -0.72200
O 	O 	0.37440 0.62810 -0.00000 -0.84900
O 	O 	0.42020 0.64910 -0.00000 -0.22000
Al	Al	0.32380 0.28330 0.50000 2.39000
Al	Al	0.37960 0.34140 0.50000 2.37100
P 	P 	0.32230 0.22220 0.50000 0.59000
P 	P 	0.39000 0.15550 0.50000 0.52400
O 	O 	0.32110 0.25180 0.50000 -0.77900
O 	O 	0.29410 0.20900 0.50000 -0.72100
O 	O 	0.37440 0.12810 0.50000 -0.84800
O 	O 	0.42020 0.14910 0.50000 -0.21900
Al	Al	0.82380 0.78330 0.50000 2.39000
Al	Al	0.87960 0.84140 0.50000 2.37100
P 	P 	0.82230 0.72220 0.50000 0.59000
P 	P 	0.89000 0.65550 0.50000 0.52400
O 	O 	0.82110 0.75180 0.50000 -0.77900
O 	O 	0.79410 0.70900 0.50000 -0.72100
O 	O 	0.87440 0.62810 0.50000 -0.84700
O 	O 	0.92020 0.64910 0.50000 -0.21800
Al	Al	0.82380 0.28330 -0.00000 2.39000
Al	Al	0.87960 0.34140 -0.00000 2.37100
P 	P 	0.82230 0.22220 -0.00000 0.58800
P 	P 	0.89000 0.15550 -0.00000 0.52100
O 	O 	0.82110 0.25180 -0.00000 -0.78000
O 	O 	0.79410 0.20900 -0.00000 -0.72200
O 	O 	0.87440 0.12810 -0.00000 -0.84900
O 	O 	0.92020 0.14910 -0.00000 -0.21900
Al	Al	0.67620 0.78330 -0.00000 2.39000
Al	Al	0.62040 0.84140 -0.00000 2.37100
P 	P 	0.67770 0.72220 -0.00000 0.58800
P 	P 	0.61000 0.65550 -0.00000 0.52100
O 	O 	0.67890 0.75180 -0.00000 -0.78000
O 	O 	0.70590 0.70900 -0.00000 -0.72200
O 	O 	0.62560 0.62810 -0.00000 -0.84900
O 	O 	0.57980 0.64910 -0.00000 -0.22000
Al	Al	0.67620 0.28330 0.50000 2.39000
Al	Al	0.62040 0.34140 0.50000 2.37100
P 	P 	0.67770 0.22220 0.50000 0.59000
P 	P 	0.61000 0.15550 0.50000 0.52400
O 	O 	0.67890 0.25180 0.50000 -0.77900
O 	O 	0.70590 0.20900 0.50000 -0.72100
O 	O 	0.62560 0.12810 0.50000 -0.84800
O 	O 	0.57980 0.14910 0.50000 -0.21900
Al	Al	0.17620 0.78330 0.50000 2.39000
Al	Al	0.12040 0.84140 0.50000 2.37100
P 	P 	0.17770 0.72220 0.50000 0.59000
P 	P 	0.11000 0.65550 0.50000 0.52400
O 	O 	0.17890 0.75180 0.50000 -0.77900
O 	O 	0.20590 0.70900 0.50000 -0.72100
O 	O 	0.12560 0.62810 0.50000 -0.84800
O 	O 	0.07980 0.64910 0.50000 -0.21900
Al	Al	0.17620 0.28330 -0.00000 2.39000
Al	Al	0.12040 0.34140 -0.00000 2.37100
P 	P 	0.17770 0.22220 -0.00000 0.58800
P 	P 	0.11000 0.15550 -0.00000 0.52100
O 	O 	0.17890 0.25180 -0.00000 -0.78000
O 	O 	0.20590 0.20900 -0.00000 -0.72200
O 	O 	0.12560 0.12810 -0.00000 -0.84900
O 	O 	0.07980 0.14910 -0.00000 -0.22000
Al	Al	0.82380 0.50000 0.28330 2.39000
Al	Al	0.87960 0.50000 0.34140 2.37100
P 	P 	0.82230 0.50000 0.22220 0.59000
P 	P 	0.89000 0.50000 0.15550 0.52400
O 	O 	0.82110 0.50000 0.25180 -0.77900
O 	O 	0.79410 0.50000 0.20900 -0.72100
O 	O 	0.87440 0.50000 0.12810 -0.84800
O 	O 	0.92020 0.50000 0.14910 -0.21800
Al	Al	0.82380 0.00000 0.78330 2.39000
Al	Al	0.87960 -0.00000 0.84140 2.37100
P 	P 	0.82230 -0.00000 0.72220 0.58800
P 	P 	0.89000 -0.00000 0.65550 0.52100
O 	O 	0.82110 0.00000 0.75180 -0.78000
O 	O 	0.79410 0.00000 0.70900 -0.72200
O 	O 	0.87440 -0.00000 0.62810 -0.84900
O 	O 	0.92020 -0.00000 0.64910 -0.21900
Al	Al	0.32380 0.50000 0.78330 2.39000
Al	Al	0.37960 0.50000 0.84140 2.37100
P 	P 	0.32230 0.50000 0.72220 0.59000
P 	P 	0.39000 0.50000 0.65550 0.52400
O 	O 	0.32110 0.50000 0.75180 -0.77900
O 	O 	0.29410 0.50000 0.70900 -0.72100
O 	O 	0.37440 0.50000 0.62810 -0.84800
O 	O 	0.42020 0.50000 0.64910 -0.21900
Al	Al	0.32380 -0.00000 0.28330 2.39000
Al	Al	0.37960 -0.00000 0.34140 2.37100
P 	P 	0.32230 0.00000 0.22220 0.58800
P 	P 	0.39000 -0.00000 0.15550 0.52100
O 	O 	0.32110 -0.00000 0.25180 -0.78000
O 	O 	0.29410 -0.00000 0.20900 -0.72200
O 	O 	0.37440 0.00000 0.12810 -0.84900
O 	O 	0.42020 0.00000 0.14910 -0.22000
Al	Al	0.17620 0.50000 0.28330 2.39000
Al	Al	0.12040 0.50000 0.34140 2.37100
P 	P 	0.17770 0.50000 0.22220 0.59000
P 	P 	0.11000 0.50000 0.15550 0.52400
O 	O 	0.17890 0.50000 0.25180 -0.77900
O 	O 	0.20590 0.50000 0.20900 -0.72100
O 	O 	0.12560 0.50000 0.12810 -0.84800
O 	O 	0.07980 0.50000 0.14910 -0.21900
Al	Al	0.17620 0.00000 0.78330 2.39000
Al	Al	0.12040 -0.00000 0.84140 2.37100
P 	P 	0.17770 -0.00000 0.72220 0.58800
P 	P 	0.11000 -0.00000 0.65550 0.52100
O 	O 	0.17890 0.00000 0.75180 -0.78000
O 	O 	0.20590 0.00000 0.70900 -0.72200
O 	O 	0.12560 -0.00000 0.62810 -0.84900
O 	O 	0.07980 -0.00000 0.64910 -0.22000
Al	Al	0.67620 0.50000 0.78330 2.39000
Al	Al	0.62040 0.50000 0.84140 2.37100
P 	P 	0.67770 0.50000 0.72220 0.59000
P 	P 	0.61000 0.50000 0.65550 0.52400
O 	O 	0.67890 0.50000 0.75180 -0.77900
O 	O 	0.70590 0.50000 0.70900 -0.72100
O 	O 	0.62560 0.50000 0.62810 -0.84800
O 	O 	0.57980 0.50000 0.64910 -0.21900
Al	Al	0.67620 -0.00000 0.28330 2.39000
Al	Al	0.62040 -0.00000 0.34140 2.37100
P 	P 	0.67770 0.00000 0.22220 0.58800
P 	P 	0.61000 -0.00000 0.15550 0.52100
O 	O 	0.67890 -0.00000 0.25180 -0.78000
O 	O 	0.70590 -0.00000 0.20900 -0.72200
O 	O 	0.62560 0.00000 0.12810 -0.84900
O 	O 	0.57980 0.00000 0.14910 -0.22000
Al	Al	0.82380 0.50000 0.71670 2.39000
Al	Al	0.87960 0.50000 0.65860 2.37100
P 	P 	0.82230 0.50000 0.77780 0.59000
P 	P 	0.89000 0.50000 0.84450 0.52400
O 	O 	0.82110 0.50000 0.74820 -0.77900
O 	O 	0.79410 0.50000 0.79100 -0.72100
O 	O 	0.87440 0.50000 0.87190 -0.84700
O 	O 	0.92020 0.50000 0.85090 -0.21800
Al	Al	0.82380 0.00000 0.21670 2.39000
Al	Al	0.87960 -0.00000 0.15860 2.37100
P 	P 	0.82230 -0.00000 0.27780 0.58800
P 	P 	0.89000 0.00000 0.34450 0.52100
O 	O 	0.82110 0.00000 0.24820 -0.78000
O 	O 	0.79410 0.00000 0.29100 -0.72200
O 	O 	0.87440 0.00000 0.37190 -0.84900
O 	O 	0.92020 -0.00000 0.35090 -0.21900
Al	Al	0.32380 0.50000 0.21670 2.39000
Al	Al	0.37960 0.50000 0.15860 2.37100
P 	P 	0.32230 0.50000 0.27780 0.59000
P 	P 	0.39000 0.50000 0.34450 0.52400
O 	O 	0.32110 0.50000 0.24820 -0.77900
O 	O 	0.29410 0.50000 0.29100 -0.72100
O 	O 	0.37440 0.50000 0.37190 -0.84800
O 	O 	0.42020 0.50000 0.35090 -0.21900
Al	Al	0.32380 -0.00000 0.71670 2.39000
Al	Al	0.37960 0.00000 0.65860 2.37100
P 	P 	0.32230 0.00000 0.77780 0.58800
P 	P 	0.39000 0.00000 0.84450 0.52100
O 	O 	0.32110 0.00000 0.74820 -0.78000
O 	O 	0.29410 0.00000 0.79100 -0.72200
O 	O 	0.37440 0.00000 0.87190 -0.84800
O 	O 	0.42020 0.00000 0.85090 -0.21900
Al	Al	0.17620 0.50000 0.71670 2.39000
Al	Al	0.12040 0.50000 0.65860 2.37100
P 	P 	0.17770 0.50000 0.77780 0.59000
P 	P 	0.11000 0.50000 0.84450 0.52400
O 	O 	0.17890 0.50000 0.74820 -0.77900
O 	O 	0.20590 0.50000 0.79100 -0.72100
O 	O 	0.12560 0.50000 0.87190 -0.84700
O 	O 	0.07980 0.50000 0.85090 -0.21900
Al	Al	0.17620 0.00000 0.21670 2.39000
Al	Al	0.12040 -0.00000 0.15860 2.37100
P 	P 	0.17770 -0.00000 0.27780 0.58800
P 	P 	0.11000 0.00000 0.34450 0.52100
O 	O 	0.17890 0.00000 0.24820 -0.78000
O 	O 	0.20590 0.00000 0.29100 -0.72200
O 	O 	0.12560 0.00000 0.37190 -0.84900
O 	O 	0.07980 -0.00000 0.35090 -0.22000
Al	Al	0.67620 0.50000 0.21670 2.39000
Al	Al	0.62040 0.50000 0.15860 2.37100
P 	P 	0.67770 0.50000 0.27780 0.59000
P 	P 	0.61000 0.50000 0.34450 0.52400
O 	O 	0.67890 0.50000 0.24820 -0.77900
O 	O 	0.70590 0.50000 0.29100 -0.72100
O 	O 	0.62560 0.50000 0.37190 -0.84800
O 	O 	0.57980 0.50000 0.35090 -0.21900
Al	Al	0.67620 -0.00000 0.71670 2.39000
Al	Al	0.62040 0.00000 0.65860 2.37100
P 	P 	0.67770 0.00000 0.77780 0.58800
P 	P 	0.61000 0.00000 0.84450 0.52100
O 	O 	0.67890 0.00000 0.74820 -0.78000
O 	O 	0.70590 0.00000 0.79100 -0.72200
O 	O 	0.62560 0.00000 0.87190 -0.84800
O 	O 	0.57980 0.00000 0.85090 -0.21900
Al	Al	0.50000 0.71670 0.17620 2.39000
Al	Al	0.50000 0.65860 0.12040 2.37100
P 	P 	0.50000 0.77780 0.17770 0.59000
P 	P 	0.50000 0.84450 0.11000 0.52400
O 	O 	0.50000 0.74820 0.17890 -0.77900
O 	O 	0.50000 0.79100 0.20590 -0.72100
O 	O 	0.50000 0.87190 0.12560 -0.84700
O 	O 	0.50000 0.85090 0.07980 -0.21900
Al	Al	0.50000 0.21670 0.67620 2.39000
Al	Al	0.50000 0.15860 0.62040 2.37100
P 	P 	0.50000 0.27780 0.67770 0.59000
P 	P 	0.50000 0.34450 0.61000 0.52400
O 	O 	0.50000 0.24820 0.67890 -0.77900
O 	O 	0.50000 0.29100 0.70590 -0.72100
O 	O 	0.50000 0.37190 0.62560 -0.84800
O 	O 	0.50000 0.35090 0.57980 -0.21900
Al	Al	0.00000 0.71670 0.67620 2.39000
Al	Al	0.00000 0.65860 0.62040 2.37100
P 	P 	-0.00000 0.77780 0.67770 0.58800
P 	P 	0.00000 0.84450 0.61000 0.52100
O 	O 	-0.00000 0.74820 0.67890 -0.78000
O 	O 	0.00000 0.79100 0.70590 -0.72200
O 	O 	0.00000 0.87190 0.62560 -0.84800
O 	O 	0.00000 0.85090 0.57980 -0.21900
Al	Al	0.00000 0.21670 0.17620 2.39000
Al	Al	0.00000 0.15860 0.12040 2.37100
P 	P 	0.00000 0.27780 0.17770 0.58800
P 	P 	0.00000 0.34450 0.11000 0.52100
O 	O 	0.00000 0.24820 0.17890 -0.78000
O 	O 	-0.00000 0.29100 0.20590 -0.72200
O 	O 	0.00000 0.37190 0.12560 -0.84900
O 	O 	0.00000 0.35090 0.07980 -0.22000
Al	Al	0.50000 0.71670 0.82380 2.39000
Al	Al	0.50000 0.65860 0.87960 2.37100
P 	P 	0.50000 0.77780 0.82230 0.59000
P 	P 	0.50000 0.84450 0.89000 0.52400
O 	O 	0.50000 0.74820 0.82110 -0.77900
O 	O 	0.50000 0.79100 0.79410 -0.72100
O 	O 	0.50000 0.87190 0.87440 -0.84700
O 	O 	0.50000 0.85090 0.92020 -0.21800
Al	Al	0.50000 0.21670 0.32380 2.39000
Al	Al	0.50000 0.15860 0.37960 2.37100
P 	P 	0.50000 0.27780 0.32230 0.59000
P 	P 	0.50000 0.34450 0.39000 0.52400
O 	O 	0.50000 0.24820 0.32110 -0.77900
O 	O 	0.50000 0.29100 0.29410 -0.72100
O 	O 	0.50000 0.37190 0.37440 -0.84800
O 	O 	0.50000 0.35090 0.42020 -0.21900
Al	Al	0.00000 0.71670 0.32380 2.39000
Al	Al	0.00000 0.65860 0.37960 2.37100
P 	P 	-0.00000 0.77780 0.32230 0.58800
P 	P 	0.00000 0.84450 0.39000 0.52100
O 	O 	0.00000 0.74820 0.32110 -0.78000
O 	O 	0.00000 0.79100 0.29410 -0.72200
O 	O 	0.00000 0.87190 0.37440 -0.84800
O 	O 	0.00000 0.85090 0.42020 -0.21900
Al	Al	0.00000 0.21670 0.82380 2.39000
Al	Al	-0.00000 0.15860 0.87960 2.37100
P 	P 	-0.00000 0.27780 0.82230 0.58800
P 	P 	0.00000 0.34450 0.89000 0.52100
O 	O 	0.00000 0.24820 0.82110 -0.78000
O 	O 	0.00000 0.29100 0.79410 -0.72200
O 	O 	0.00000 0.37190 0.87440 -0.84900
O 	O 	0.00000 0.35090 0.92020 -0.21900
Al	Al	0.50000 0.28330 0.17620 2.39000
Al	Al	0.50000 0.34140 0.12040 2.37100
P 	P 	0.50000 0.22220 0.17770 0.59000
P 	P 	0.50000 0.15550 0.11000 0.52400
O 	O 	0.50000 0.25180 0.17890 -0.77900
O 	O 	0.50000 0.20900 0.20590 -0.72100
O 	O 	0.50000 0.12810 0.12560 -0.84800
O 	O 	0.50000 0.14910 0.07980 -0.21900
Al	Al	0.50000 0.78330 0.67620 2.39000
Al	Al	0.50000 0.84140 0.62040 2.37100
P 	P 	0.50000 0.72220 0.67770 0.59000
P 	P 	0.50000 0.65550 0.61000 0.52400
O 	O 	0.50000 0.75180 0.67890 -0.77900
O 	O 	0.50000 0.70900 0.70590 -0.72100
O 	O 	0.50000 0.62810 0.62560 -0.84800
O 	O 	0.50000 0.64910 0.57980 -0.21900
Al	Al	0.00000 0.28330 0.67620 2.39000
Al	Al	0.00000 0.34140 0.62040 2.37100
P 	P 	0.00000 0.22220 0.67770 0.58800
P 	P 	-0.00000 0.15550 0.61000 0.52100
O 	O 	-0.00000 0.25180 0.67890 -0.78000
O 	O 	0.00000 0.20900 0.70590 -0.72200
O 	O 	0.00000 0.12810 0.62560 -0.84900
O 	O 	-0.00000 0.14910 0.57980 -0.22000
Al	Al	-0.00000 0.78330 0.17620 2.39000
Al	Al	-0.00000 0.84140 0.12040 2.37100
P 	P 	0.00000 0.72220 0.17770 0.58800
P 	P 	-0.00000 0.65550 0.11000 0.52100
O 	O 	0.00000 0.75180 0.17890 -0.78000
O 	O 	-0.00000 0.70900 0.20590 -0.72200
O 	O 	-0.00000 0.62810 0.12560 -0.84900
O 	O 	-0.00000 0.64910 0.07980 -0.22000
Al	Al	0.50000 0.28330 0.82380 2.39000
Al	Al	0.50000 0.34140 0.87960 2.37100
P 	P 	0.50000 0.22220 0.82230 0.59000
P 	P 	0.50000 0.15550 0.89000 0.52400
O 	O 	0.50000 0.25180 0.82110 -0.77900
O 	O 	0.50000 0.20900 0.79410 -0.72100
O 	O 	0.50000 0.12810 0.87440 -0.84800
O 	O 	0.50000 0.14910 0.92020 -0.21800
Al	Al	0.50000 0.78330 0.32380 2.39000
Al	Al	0.50000 0.84140 0.37960 2.37100
P 	P 	0.50000 0.72220 0.32230 0.59000
P 	P 	0.50000 0.65550 0.39000 0.52400
O 	O 	0.50000 0.75180 0.32110 -0.77900
O 	O 	0.50000 0.70900 0.29410 -0.72100
O 	O 	0.50000 0.62810 0.37440 -0.84800
O 	O 	0.50000 0.64910 0.42020 -0.21900
Al	Al	0.00000 0.28330 0.32380 2.39000
Al	Al	0.00000 0.34140 0.37960 2.37100
P 	P 	0.00000 0.22220 0.32230 0.58800
P 	P 	-0.00000 0.15550 0.39000 0.52100
O 	O 	-0.00000 0.25180 0.32110 -0.78000
O 	O 	-0.00000 0.20900 0.29410 -0.72200
O 	O 	0.00000 0.12810 0.37440 -0.84900
O 	O 	0.00000 0.14910 0.42020 -0.22000
Al	Al	0.00000 0.78330 0.82380 2.39000
Al	Al	0.00000 0.84140 0.87960 2.37100
P 	P 	-0.00000 0.72220 0.82230 0.58800
P 	P 	0.00000 0.65550 0.89000 0.52100
O 	O 	0.00000 0.75180 0.82110 -0.78000
O 	O 	0.00000 0.70900 0.79410 -0.72200
O 	O 	0.00000 0.62810 0.87440 -0.84900
O 	O 	0.00000 0.64910 0.92020 -0.21900
Al	Al	0.71670 0.82380 0.50000 2.39000
Al	Al	0.65860 0.87960 0.50000 2.37100
P 	P 	0.77780 0.82230 0.50000 0.59000
P 	P 	0.84450 0.89000 0.50000 0.52400
O 	O 	0.74820 0.82110 0.50000 -0.77900
O 	O 	0.79100 0.79410 0.50000 -0.72100
O 	O 	0.87190 0.87440 0.50000 -0.84700
O 	O 	0.85090 0.92020 0.50000 -0.21800
Al	Al	0.71670 0.32380 -0.00000 2.39000
Al	Al	0.65860 0.37960 -0.00000 2.37100
P 	P 	0.77780 0.32230 -0.00000 0.58800
P 	P 	0.84450 0.39000 -0.00000 0.52100
O 	O 	0.74820 0.32110 -0.00000 -0.78000
O 	O 	0.79100 0.29410 -0.00000 -0.72200
O 	O 	0.87190 0.37440 -0.00000 -0.84800
O 	O 	0.85090 0.42020 -0.00000 -0.21900
Al	Al	0.21670 0.82380 -0.00000 2.39000
Al	Al	0.15860 0.87960 -0.00000 2.37100
P 	P 	0.27780 0.82230 -0.00000 0.58800
P 	P 	0.34450 0.89000 -0.00000 0.52100
O 	O 	0.24820 0.82110 -0.00000 -0.78000
O 	O 	0.29100 0.79410 -0.00000 -0.72200
O 	O 	0.37190 0.87440 -0.00000 -0.84900
O 	O 	0.35090 0.92020 -0.00000 -0.21900
Al	Al	0.21670 0.32380 0.50000 2.39000
Al	Al	0.15860 0.37960 0.50000 2.37100
P 	P 	0.27780 0.32230 0.50000 0.59000
P 	P 	0.34450 0.39000 0.50000 0.52400
O 	O 	0.24820 0.32110 0.50000 -0.77900
O 	O 	0.29100 0.29410 0.50000 -0.72100
O 	O 	0.37190 0.37440 0.50000 -0.84800
O 	O 	0.35090 0.42020 0.50000 -0.21900
Al	Al	0.71670 0.17620 0.50000 2.39000
Al	Al	0.65860 0.12040 0.50000 2.37100
P 	P 	0.77780 0.17770 0.50000 0.59000
P 	P 	0.84450 0.11000 0.50000 0.52400
O 	O 	0.74820 0.17890 0.50000 -0.77900
O 	O 	0.79100 0.20590 0.50000 -0.72100
O 	O 	0.87190 0.12560 0.50000 -0.84700
O 	O 	0.85090 0.07980 0.50000 -0.21900
Al	Al	0.71670 0.67620 -0.00000 2.39000
Al	Al	0.65860 0.62040 -0.00000 2.37100
P 	P 	0.77780 0.67770 -0.00000 0.58800
P 	P 	0.84450 0.61000 -0.00000 0.52100
O 	O 	0.74820 0.67890 -0.00000 -0.78000
O 	O 	0.79100 0.70590 -0.00000 -0.72200
O 	O 	0.87190 0.62560 -0.00000 -0.84800
O 	O 	0.85090 0.57980 -0.00000 -0.21900
Al	Al	0.21670 0.17620 -0.00000 2.39000
Al	Al	0.15860 0.12040 -0.00000 2.37100
P 	P 	0.27780 0.17770 -0.00000 0.58800
P 	P 	0.34450 0.11000 -0.00000 0.52100
O 	O 	0.24820 0.17890 -0.00000 -0.78000
O 	O 	0.29100 0.20590 -0.00000 -0.72200
O 	O 	0.37190 0.12560 -0.00000 -0.84900
O 	O 	0.35090 0.07980 -0.00000 -0.22000
Al	Al	0.21670 0.67620 0.50000 2.39000
Al	Al	0.15860 0.62040 0.50000 2.37100
P 	P 	0.27780 0.67770 0.50000 0.59000
P 	P 	0.34450 0.61000 0.50000 0.52400
O 	O 	0.24820 0.67890 0.50000 -0.77900
O 	O 	0.29100 0.70590 0.50000 -0.72100
O 	O 	0.37190 0.62560 0.50000 -0.84800
O 	O 	0.35090 0.57980 0.50000 -0.21900
Al	Al	0.28330 0.82380 0.50000 2.39000
Al	Al	0.34140 0.87960 0.50000 2.37100
P 	P 	0.22220 0.82230 0.50000 0.59000
P 	P 	0.15550 0.89000 0.50000 0.52400
O 	O 	0.25180 0.82110 0.50000 -0.77900
O 	O 	0.20900 0.79410 0.50000 -0.72100
O 	O 	0.12810 0.87440 0.50000 -0.84800
O 	O 	0.14910 0.92020 0.50000 -0.21800
Al	Al	0.28330 0.32380 -0.00000 2.39000
Al	Al	0.34140 0.37960 -0.00000 2.37100
P 	P 	0.22220 0.32230 -0.00000 0.58800
P 	P 	0.15550 0.39000 -0.00000 0.52100
O 	O 	0.25180 0.32110 -0.00000 -0.78000
O 	O 	0.20900 0.29410 -0.00000 -0.72200
O 	O 	0.12810 0.37440 -0.00000 -0.84900
O 	O 	0.14910 0.42020 -0.00000 -0.22000
Al	Al	0.78330 0.82380 -0.00000 2.39000
Al	Al	0.84140 0.87960 -0.00000 2.37100
P 	P 	0.72220 0.82230 -0.00000 0.58800
P 	P 	0.65550 0.89000 -0.00000 0.52100
O 	O 	0.75180 0.82110 -0.00000 -0.78000
O 	O 	0.70900 0.79410 -0.00000 -0.72200
O 	O 	0.62810 0.87440 -0.00000 -0.84900
O 	O 	0.64910 0.92020 -0.00000 -0.21900
Al	Al	0.78330 0.32380 0.50000 2.39000
Al	Al	0.84140 0.37960 0.50000 2.37100
P 	P 	0.72220 0.32230 0.50000 0.59000
P 	P 	0.65550 0.39000 0.50000 0.52400
O 	O 	0.75180 0.32110 0.50000 -0.77900
O 	O 	0.70900 0.29410 0.50000 -0.72100
O 	O 	0.62810 0.37440 0.50000 -0.84800
O 	O 	0.64910 0.42020 0.50000 -0.21900
Al	Al	0.28330 0.17620 0.50000 2.39000
Al	Al	0.34140 0.12040 0.50000 2.37100
P 	P 	0.22220 0.17770 0.50000 0.59000
P 	P 	0.15550 0.11000 0.50000 0.52400
O 	O 	0.25180 0.17890 0.50000 -0.77900
O 	O 	0.20900 0.20590 0.50000 -0.72100
O 	O 	0.12810 0.12560 0.50000 -0.84800
O 	O 	0.14910 0.07980 0.50000 -0.21900
Al	Al	0.28330 0.67620 -0.00000 2.39000
Al	Al	0.34140 0.62040 -0.00000 2.37100
P 	P 	0.22220 0.67770 -0.00000 0.58800
P 	P 	0.15550 0.61000 -0.00000 0.52100
O 	O 	0.25180 0.67890 -0.00000 -0.78000
O 	O 	0.20900 0.70590 -0.00000 -0.72200
O 	O 	0.12810 0.62560 -0.00000 -0.84900
O 	O 	0.14910 0.57980 -0.00000 -0.22000
Al	Al	0.78330 0.17620 -0.00000 2.39000
Al	Al	0.84140 0.12040 -0.00000 2.37100
P 	P 	0.72220 0.17770 -0.00000 0.58800
P 	P 	0.65550 0.11000 -0.00000 0.52100
O 	O 	0.75180 0.17890 -0.00000 -0.78000
O 	O 	0.70900 0.20590 -0.00000 -0.72200
O 	O 	0.62810 0.12560 -0.00000 -0.84900
O 	O 	0.64910 0.07980 -0.00000 -0.22000
Al	Al	0.78330 0.67620 0.50000 2.39000
Al	Al	0.84140 0.62040 0.50000 2.37100
P 	P 	0.72220 0.67770 0.50000 0.59000
P 	P 	0.65550 0.61000 0.50000 0.52400
O 	O 	0.75180 0.67890 0.50000 -0.77900
O 	O 	0.70900 0.70590 0.50000 -0.72100
O 	O 	0.62810 0.62560 0.50000 -0.84800
O 	O 	0.64910 0.57980 0.50000 -0.21900
