data_crystal

_cell_length_a 9.86330
_cell_length_b 16.44090
_cell_length_c 18.21870
_cell_angle_alpha 90.00000
_cell_angle_beta  94.19700
_cell_angle_gamma 90.00000

_symmetry_space_group_name_	'P 1'
_symmetry_space_group_name_H-M	'P 1'

loop_
_symmetry_equiv_pos_as_xyz
  x,y,z

loop_
_atom_site_label
_atom_site_type_symbol
_atom_site_fract_x
_atom_site_fract_y
_atom_site_fract_z
_atom_site_charge
C 	C 	0.78730 0.56920 0.02310 0.37300
C 	C 	0.74230 0.64540 0.05870 -0.24700
C 	C 	0.80900 0.67850 0.11810 0.17900
H 	H 	0.89160 0.65700 0.13700 -0.02600
C 	C 	0.75100 0.74800 0.15230 -0.28400
H 	H 	0.79490 0.77390 0.19280 0.13400
C 	C 	0.62160 0.77490 0.12040 0.32300
C 	C 	0.56060 0.74310 0.06240 -0.38200
H 	H 	0.47700 0.76280 0.04320 0.17400
C 	C 	0.62000 0.68160 0.03090 0.23700
H 	H 	0.57820 0.66090 0.98750 -0.03100
C 	C 	0.61140 0.86960 0.21360 0.07100
H 	H 	0.68900 0.90030 0.19890 0.02600
H 	H 	0.64330 0.82830 0.24880 0.02000
C 	C 	0.42440 0.98360 0.19160 0.03100
H 	H 	0.48850 0.01400 0.16440 0.04800
H 	H 	0.36980 0.94980 0.15720 0.04300
C 	C 	0.27480 0.09820 0.18670 0.24000
C 	C 	0.27490 0.10580 0.11400 -0.10000
C 	C 	0.19520 0.17010 0.07670 0.08400
C 	C 	0.13140 0.22450 0.11780 -0.18900
C 	C 	0.15810 0.22120 0.19220 0.15300
H 	H 	0.12780 0.26320 0.22100 -0.00900
C 	C 	0.22790 0.15790 0.22550 -0.27100
H 	H 	0.24260 0.15710 0.27650 0.13700
C 	C 	0.04960 0.29050 0.07990 0.36700
C 	C 	0.37590 0.58140 0.90780 0.07500
H 	H 	0.39510 0.53100 0.92930 0.01500
C 	C 	0.28640 0.69670 0.88300 0.01700
H 	H 	0.22980 0.74190 0.88340 0.02100
C 	C 	0.38830 0.68630 0.83690 -0.01600
H 	H 	0.41510 0.72290 0.80190 0.04300
C 	C 	0.54900 0.56940 0.81760 -0.17600
H 	H 	0.61440 0.60870 0.80230 0.10100
H 	H 	0.59570 0.53440 0.85410 0.11100
C 	C 	0.62420 0.46510 0.73070 -0.16300
H 	H 	0.69320 0.50150 0.71430 0.09100
H 	H 	0.59610 0.42960 0.68990 0.09400
C 	C 	0.64570 0.33860 0.81390 -0.01900
H 	H 	0.57500 0.30690 0.79280 0.04900
C 	C 	0.78830 0.43650 0.83750 0.09200
H 	H 	0.83530 0.48530 0.83470 0.00100
C 	C 	0.72790 0.31970 0.87150 0.01100
H 	H 	0.72600 0.27120 0.89750 0.02000
N 	N 	0.28000 0.63150 0.92800 -0.21900
N 	N 	0.44170 0.61280 0.85230 -0.09300
N 	N 	0.68520 0.41530 0.79080 -0.10000
N 	N 	0.81640 0.38200 0.88740 -0.22900
O 	O 	0.71060 0.53490 0.97550 -0.34600
O 	O 	0.90220 0.53950 0.04620 -0.52200
O 	O 	0.54550 0.83580 0.15570 -0.26700
O 	O 	0.34180 0.03630 0.22790 -0.23100
O 	O 	0.04380 0.35860 0.11160 -0.36900
O 	O 	0.99190 0.27810 0.01940 -0.40300
Cd	Cd	0.10043 0.59173 0.99601 1.22100
C 	C 	0.81900 0.07080 0.37700 -0.01600
C 	C 	0.91200 0.15200 0.40100 0.03400
C 	C 	0.21270 0.56920 0.47690 0.37500
C 	C 	0.25770 0.64540 0.44130 -0.24700
C 	C 	0.19100 0.67850 0.38190 0.18100
H 	H 	0.10840 0.65700 0.36300 -0.02500
C 	C 	0.24900 0.74800 0.34770 -0.28400
H 	H 	0.20510 0.77390 0.30720 0.13500
C 	C 	0.37840 0.77490 0.37960 0.32400
C 	C 	0.43940 0.74310 0.43760 -0.38200
H 	H 	0.52300 0.76280 0.45680 0.17500
C 	C 	0.38000 0.68160 0.46910 0.24000
H 	H 	0.42180 0.66090 0.51250 -0.03300
C 	C 	0.38860 0.86960 0.28640 0.07100
H 	H 	0.31100 0.90030 0.30110 0.02600
H 	H 	0.35670 0.82830 0.25120 0.02000
C 	C 	0.57560 0.98360 0.30840 0.03200
H 	H 	0.51150 0.01400 0.33560 0.04800
H 	H 	0.63020 0.94980 0.34280 0.04300
C 	C 	0.72520 0.09820 0.31330 0.24000
C 	C 	0.72510 0.10580 0.38600 -0.09900
C 	C 	0.80480 0.17010 0.42330 0.08300
C 	C 	0.86860 0.22450 0.38220 -0.18800
C 	C 	0.84190 0.22120 0.30780 0.15200
H 	H 	0.87220 0.26320 0.27900 -0.00900
C 	C 	0.77210 0.15790 0.27450 -0.27000
H 	H 	0.75740 0.15710 0.22350 0.13700
C 	C 	0.95040 0.29050 0.42010 0.36400
C 	C 	0.62410 0.58140 0.59220 0.07500
H 	H 	0.60490 0.53100 0.57070 0.01500
C 	C 	0.71360 0.69670 0.61700 0.01700
H 	H 	0.77020 0.74190 0.61660 0.02100
C 	C 	0.61170 0.68630 0.66310 -0.01600
H 	H 	0.58490 0.72290 0.69810 0.04300
C 	C 	0.45100 0.56940 0.68240 -0.17600
H 	H 	0.38560 0.60870 0.69770 0.10100
H 	H 	0.40430 0.53440 0.64590 0.11000
C 	C 	0.37580 0.46510 0.76930 -0.16300
H 	H 	0.30680 0.50150 0.78570 0.09100
H 	H 	0.40390 0.42960 0.81010 0.09400
C 	C 	0.35430 0.33860 0.68610 -0.01900
H 	H 	0.42500 0.30690 0.70720 0.04900
C 	C 	0.21170 0.43650 0.66250 0.09200
H 	H 	0.16470 0.48530 0.66530 0.00100
C 	C 	0.27210 0.31970 0.62850 0.01100
H 	H 	0.27400 0.27120 0.60250 0.02000
N 	N 	0.72000 0.63150 0.57200 -0.21800
N 	N 	0.55830 0.61280 0.64770 -0.09300
N 	N 	0.31480 0.41530 0.70920 -0.10000
N 	N 	0.18360 0.38200 0.61260 -0.22900
O 	O 	0.28940 0.53490 0.52450 -0.34700
O 	O 	0.09780 0.53950 0.45380 -0.52200
O 	O 	0.45450 0.83580 0.34430 -0.26700
O 	O 	0.65820 0.03630 0.27210 -0.23200
O 	O 	0.95620 0.35860 0.38840 -0.37000
O 	O 	0.00810 0.27810 0.48060 -0.40100
Cd	Cd	0.89957 0.59173 0.50399 1.22100
C 	C 	0.18100 0.07080 0.12300 -0.01500
C 	C 	0.08800 0.15200 0.09900 0.03500
C 	C 	0.21270 0.43080 0.97690 0.37400
C 	C 	0.25770 0.35460 0.94130 -0.24600
C 	C 	0.19100 0.32150 0.88190 0.18000
H 	H 	0.10840 0.34300 0.86300 -0.02500
C 	C 	0.24900 0.25200 0.84770 -0.28300
H 	H 	0.20510 0.22610 0.80720 0.13500
C 	C 	0.37840 0.22510 0.87960 0.32400
C 	C 	0.43940 0.25690 0.93760 -0.38100
H 	H 	0.52300 0.23720 0.95680 0.17500
C 	C 	0.38000 0.31840 0.96910 0.23800
H 	H 	0.42180 0.33910 0.01250 -0.03100
C 	C 	0.38860 0.13040 0.78640 0.07100
H 	H 	0.31100 0.09970 0.80110 0.02600
H 	H 	0.35670 0.17170 0.75120 0.02000
C 	C 	0.57560 0.01640 0.80840 0.03100
H 	H 	0.51150 0.98600 0.83560 0.04800
H 	H 	0.63020 0.05020 0.84280 0.04300
C 	C 	0.72520 0.90180 0.81330 0.24000
C 	C 	0.72510 0.89420 0.88600 -0.10000
C 	C 	0.80480 0.82990 0.92330 0.08400
C 	C 	0.86860 0.77550 0.88220 -0.18900
C 	C 	0.84190 0.77880 0.80780 0.15300
H 	H 	0.87220 0.73680 0.77900 -0.00900
C 	C 	0.77210 0.84210 0.77450 -0.27100
H 	H 	0.75740 0.84290 0.72350 0.13700
C 	C 	0.95040 0.70950 0.92010 0.36700
C 	C 	0.62410 0.41860 0.09220 0.07500
H 	H 	0.60490 0.46900 0.07070 0.01500
C 	C 	0.71360 0.30330 0.11700 0.01700
H 	H 	0.77020 0.25810 0.11660 0.02100
C 	C 	0.61170 0.31370 0.16310 -0.01600
H 	H 	0.58490 0.27710 0.19810 0.04300
C 	C 	0.45100 0.43060 0.18240 -0.17600
H 	H 	0.38560 0.39130 0.19770 0.10100
H 	H 	0.40430 0.46560 0.14590 0.11100
C 	C 	0.37580 0.53490 0.26930 -0.16300
H 	H 	0.30680 0.49850 0.28570 0.09100
H 	H 	0.40390 0.57040 0.31010 0.09400
C 	C 	0.35430 0.66140 0.18610 -0.01900
H 	H 	0.42500 0.69310 0.20720 0.04900
C 	C 	0.21170 0.56350 0.16250 0.09200
H 	H 	0.16470 0.51470 0.16530 0.00100
C 	C 	0.27210 0.68030 0.12850 0.01100
H 	H 	0.27400 0.72880 0.10250 0.02000
N 	N 	0.72000 0.36850 0.07200 -0.21900
N 	N 	0.55830 0.38720 0.14770 -0.09300
N 	N 	0.31480 0.58470 0.20920 -0.10000
N 	N 	0.18360 0.61800 0.11260 -0.22900
O 	O 	0.28940 0.46510 0.02450 -0.34600
O 	O 	0.09780 0.46050 0.95380 -0.52200
O 	O 	0.45450 0.16420 0.84430 -0.26700
O 	O 	0.65820 0.96370 0.77210 -0.23100
O 	O 	0.95620 0.64140 0.88840 -0.36900
O 	O 	0.00810 0.72190 0.98060 -0.40300
Cd	Cd	0.89957 0.40827 0.00399 1.22100
C 	C 	0.18100 0.92920 0.62300 -0.01600
C 	C 	0.08800 0.84800 0.59900 0.03400
C 	C 	0.78730 0.43080 0.52310 0.37500
C 	C 	0.74230 0.35460 0.55870 -0.24700
C 	C 	0.80900 0.32150 0.61810 0.18100
H 	H 	0.89160 0.34300 0.63700 -0.02500
C 	C 	0.75100 0.25200 0.65230 -0.28400
H 	H 	0.79490 0.22610 0.69280 0.13500
C 	C 	0.62160 0.22510 0.62040 0.32400
C 	C 	0.56060 0.25690 0.56240 -0.38200
H 	H 	0.47700 0.23720 0.54320 0.17500
C 	C 	0.62000 0.31840 0.53090 0.24000
H 	H 	0.57820 0.33910 0.48750 -0.03300
C 	C 	0.61140 0.13040 0.71360 0.07100
H 	H 	0.68900 0.09970 0.69890 0.02600
H 	H 	0.64330 0.17170 0.74880 0.02000
C 	C 	0.42440 0.01640 0.69160 0.03200
H 	H 	0.48850 0.98600 0.66440 0.04800
H 	H 	0.36980 0.05020 0.65720 0.04300
C 	C 	0.27480 0.90180 0.68670 0.24000
C 	C 	0.27490 0.89420 0.61400 -0.09900
C 	C 	0.19520 0.82990 0.57670 0.08300
C 	C 	0.13140 0.77550 0.61780 -0.18800
C 	C 	0.15810 0.77880 0.69220 0.15200
H 	H 	0.12780 0.73680 0.72100 -0.00900
C 	C 	0.22790 0.84210 0.72550 -0.27000
H 	H 	0.24260 0.84290 0.77650 0.13700
C 	C 	0.04960 0.70950 0.57990 0.36400
C 	C 	0.37590 0.41860 0.40780 0.07500
H 	H 	0.39510 0.46900 0.42930 0.01500
C 	C 	0.28640 0.30330 0.38300 0.01700
H 	H 	0.22980 0.25810 0.38340 0.02100
C 	C 	0.38830 0.31370 0.33690 -0.01600
H 	H 	0.41510 0.27710 0.30190 0.04300
C 	C 	0.54900 0.43060 0.31760 -0.17600
H 	H 	0.61440 0.39130 0.30230 0.10100
H 	H 	0.59570 0.46560 0.35410 0.11000
C 	C 	0.62420 0.53490 0.23070 -0.16300
H 	H 	0.69320 0.49850 0.21430 0.09100
H 	H 	0.59610 0.57040 0.18990 0.09400
C 	C 	0.64570 0.66140 0.31390 -0.01900
H 	H 	0.57500 0.69310 0.29280 0.04900
C 	C 	0.78830 0.56350 0.33750 0.09200
H 	H 	0.83530 0.51470 0.33470 0.00100
C 	C 	0.72790 0.68030 0.37150 0.01100
H 	H 	0.72600 0.72880 0.39750 0.02000
N 	N 	0.28000 0.36850 0.42800 -0.21800
N 	N 	0.44170 0.38720 0.35230 -0.09300
N 	N 	0.68520 0.58470 0.29080 -0.10000
N 	N 	0.81640 0.61800 0.38740 -0.22900
O 	O 	0.71060 0.46510 0.47550 -0.34700
O 	O 	0.90220 0.46050 0.54620 -0.52200
O 	O 	0.54550 0.16420 0.65570 -0.26700
O 	O 	0.34180 0.96370 0.72790 -0.23200
O 	O 	0.04380 0.64140 0.61160 -0.37000
O 	O 	0.99190 0.72190 0.51940 -0.40100
Cd	Cd	0.10043 0.40827 0.49601 1.22100
C 	C 	0.81900 0.92920 0.87700 -0.01500
C 	C 	0.91200 0.84800 0.90100 0.03500
C 	C 	0.50000 0.93090 0.25000 -0.01100
C 	C 	0.50000 0.06910 0.75000 -0.01100
C 	C 	0.50000 0.51670 0.75000 0.14100
C 	C 	0.50000 0.48330 0.25000 0.14100
