data_crystal

_cell_length_a 8.19840
_cell_length_b 19.13400
_cell_length_c 19.51900
_cell_angle_alpha 90.00000
_cell_angle_beta  90.00000
_cell_angle_gamma 90.00000

_symmetry_space_group_name_	'P 1'
_symmetry_space_group_name_H-M	'P 1'

loop_
_symmetry_equiv_pos_as_xyz
  x,y,z

loop_
_atom_site_label
_atom_site_type_symbol
_atom_site_fract_x
_atom_site_fract_y
_atom_site_fract_z
_atom_site_charge
Sr	Sr	0.25992 0.99700 0.49741 1.54100
Sr	Sr	0.23951 0.77140 0.90144 1.48200
Sr	Sr	0.74008 0.50300 0.99741 1.54200
Sr	Sr	0.76049 0.72860 0.40144 1.48300
Sr	Sr	0.75992 0.00300 0.00259 1.53900
Sr	Sr	0.73951 0.22860 0.59856 1.48300
Sr	Sr	0.24008 0.49700 0.50259 1.54100
Sr	Sr	0.26049 0.27140 0.09856 1.48300
Sr	Sr	0.74008 0.00300 0.50259 1.54100
Sr	Sr	0.76049 0.22860 0.09856 1.48200
Sr	Sr	0.25992 0.49700 0.00259 1.54100
Sr	Sr	0.23951 0.27140 0.59856 1.48200
Sr	Sr	0.24008 0.99700 0.99741 1.53800
Sr	Sr	0.26049 0.77140 0.40144 1.48200
Sr	Sr	0.75992 0.50300 0.49741 1.54000
Sr	Sr	0.73951 0.72860 0.90144 1.48200
H 	H 	0.00710 0.93150 0.58390 0.44300
H 	H 	0.00170 0.89380 0.52670 0.37700
H 	H 	0.51690 0.84640 0.72980 -0.05600
H 	H 	0.47910 0.08510 0.69350 0.18100
H 	H 	0.99290 0.56850 0.08390 0.44400
H 	H 	0.99830 0.60620 0.02670 0.37900
H 	H 	0.48310 0.65360 0.22980 -0.05500
H 	H 	0.52090 0.41490 0.19350 0.18200
H 	H 	0.50710 0.06850 0.91610 0.44600
H 	H 	0.50170 0.10620 0.97330 0.37900
H 	H 	0.01690 0.15360 0.77020 -0.05500
H 	H 	0.97910 0.91490 0.80650 0.18400
H 	H 	0.49290 0.43150 0.41610 0.44600
H 	H 	0.49830 0.39380 0.47330 0.37900
H 	H 	0.98310 0.34640 0.27020 -0.05000
H 	H 	0.02090 0.58510 0.30650 0.18000
H 	H 	0.99290 0.06850 0.41610 0.44300
H 	H 	0.99830 0.10620 0.47330 0.37700
H 	H 	0.48310 0.15360 0.27020 -0.05600
H 	H 	0.52090 0.91490 0.30650 0.18100
H 	H 	0.00710 0.43150 0.91610 0.44400
H 	H 	0.00170 0.39380 0.97330 0.37900
H 	H 	0.51690 0.34640 0.77020 -0.05500
H 	H 	0.47910 0.58510 0.80650 0.18200
H 	H 	0.49290 0.93150 0.08390 0.44600
H 	H 	0.49830 0.89380 0.02670 0.37900
H 	H 	0.98310 0.84640 0.22980 -0.05500
H 	H 	0.02090 0.08510 0.19350 0.18400
H 	H 	0.50710 0.56850 0.58390 0.44600
H 	H 	0.50170 0.60620 0.52670 0.37900
H 	H 	0.01690 0.65360 0.72980 -0.05000
H 	H 	0.97910 0.41490 0.69350 0.18000
C 	C 	0.49780 0.92070 0.65780 -0.32800
C 	C 	0.50370 0.89420 0.72310 0.24000
C 	C 	0.49010 0.93840 0.77930 -0.30100
C 	C 	0.48480 0.01250 0.76830 0.36800
C 	C 	0.48450 0.03710 0.70060 -0.42200
C 	C 	0.49180 0.99470 0.64460 0.39500
C 	C 	0.50220 0.57930 0.15780 -0.32800
C 	C 	0.49630 0.60580 0.22310 0.23900
C 	C 	0.50990 0.56160 0.27930 -0.29700
C 	C 	0.51520 0.48750 0.26830 0.36300
C 	C 	0.51550 0.46290 0.20060 -0.42500
C 	C 	0.50820 0.50530 0.14460 0.39900
C 	C 	0.99780 0.07930 0.84220 -0.32600
C 	C 	0.00370 0.10580 0.77690 0.23800
C 	C 	0.99010 0.06160 0.72070 -0.29600
C 	C 	0.98480 0.98750 0.73170 0.36600
C 	C 	0.98450 0.96290 0.79940 -0.42700
C 	C 	0.99180 0.00530 0.85540 0.40300
C 	C 	0.00220 0.42070 0.34220 -0.31500
C 	C 	0.99630 0.39420 0.27690 0.22000
C 	C 	0.00990 0.43840 0.22070 -0.28100
C 	C 	0.01520 0.51250 0.23170 0.35700
C 	C 	0.01550 0.53710 0.29940 -0.41800
C 	C 	0.00820 0.49470 0.35540 0.39200
C 	C 	0.50220 0.07930 0.34220 -0.32800
C 	C 	0.49630 0.10580 0.27690 0.24000
C 	C 	0.50990 0.06160 0.22070 -0.30100
C 	C 	0.51520 0.98750 0.23170 0.36800
C 	C 	0.51550 0.96290 0.29940 -0.42200
C 	C 	0.50820 0.00530 0.35540 0.39500
C 	C 	0.49780 0.42070 0.84220 -0.32800
C 	C 	0.50370 0.39420 0.77690 0.23900
C 	C 	0.49010 0.43840 0.72070 -0.29700
C 	C 	0.48480 0.51250 0.73170 0.36300
C 	C 	0.48450 0.53710 0.79940 -0.42500
C 	C 	0.49180 0.49470 0.85540 0.39900
C 	C 	0.00220 0.92070 0.15780 -0.32600
C 	C 	0.99630 0.89420 0.22310 0.23800
C 	C 	0.00990 0.93840 0.27930 -0.29600
C 	C 	0.01520 0.01250 0.26830 0.36600
C 	C 	0.01550 0.03710 0.20060 -0.42700
C 	C 	0.00820 0.99470 0.14460 0.40300
C 	C 	0.99780 0.57930 0.65780 -0.31500
C 	C 	0.00370 0.60580 0.72310 0.22000
C 	C 	0.99010 0.56160 0.77930 -0.28100
C 	C 	0.98480 0.48750 0.76830 0.35700
C 	C 	0.98450 0.46290 0.70060 -0.41800
C 	C 	0.99180 0.50530 0.64460 0.39200
S 	S 	0.50408 0.86524 0.58680 0.58600
S 	S 	0.50019 0.90449 0.86331 0.61600
S 	S 	0.49592 0.63476 0.08680 0.58600
S 	S 	0.49981 0.59551 0.36331 0.61500
S 	S 	0.00408 0.13476 0.91320 0.58300
S 	S 	0.00019 0.09551 0.63669 0.61600
S 	S 	0.99592 0.36524 0.41320 0.57700
S 	S 	0.99981 0.40449 0.13669 0.60200
S 	S 	0.49592 0.13476 0.41320 0.58600
S 	S 	0.49981 0.09551 0.13669 0.61600
S 	S 	0.50408 0.36524 0.91320 0.58600
S 	S 	0.50019 0.40449 0.63669 0.61500
S 	S 	0.99592 0.86524 0.08680 0.58300
S 	S 	0.99981 0.90449 0.36331 0.61600
S 	S 	0.00408 0.63476 0.58680 0.57700
S 	S 	0.00019 0.59551 0.86331 0.60200
O 	O 	0.35560 0.87840 0.54820 -0.48200
O 	O 	0.00430 0.93370 0.54194 -1.02700
O 	O 	0.64990 0.88290 0.54640 -0.45200
O 	O 	0.95670 0.83150 0.90150 -0.49300
O 	O 	0.51290 0.79316 0.61150 -0.32400
O 	O 	0.51930 0.82920 0.85600 -0.58600
O 	O 	0.34390 0.92220 0.89680 -0.51400
O 	O 	0.63950 0.93580 0.89830 -0.43000
O 	O 	0.49190 0.01961 0.58214 -0.51300
O 	O 	0.46880 0.05420 0.82190 -0.31100
O 	O 	0.64440 0.62160 0.04820 -0.48100
O 	O 	0.99570 0.56630 0.04194 -1.02800
O 	O 	0.35010 0.61710 0.04640 -0.45000
O 	O 	0.04330 0.66850 0.40150 -0.49400
O 	O 	0.48710 0.70684 0.11150 -0.32300
O 	O 	0.48070 0.67080 0.35600 -0.58500
O 	O 	0.65610 0.57780 0.39680 -0.51100
O 	O 	0.36050 0.56420 0.39830 -0.42800
O 	O 	0.50810 0.48039 0.08214 -0.51600
O 	O 	0.53120 0.44580 0.32190 -0.31200
O 	O 	0.85560 0.12160 0.95180 -0.47700
O 	O 	0.50430 0.06630 0.95806 -1.02400
O 	O 	0.14990 0.11710 0.95360 -0.44900
O 	O 	0.45670 0.16850 0.59850 -0.49400
O 	O 	0.01290 0.20684 0.88850 -0.32400
O 	O 	0.01930 0.17080 0.64400 -0.58600
O 	O 	0.84390 0.07780 0.60320 -0.51000
O 	O 	0.13950 0.06420 0.60170 -0.42700
O 	O 	0.99190 0.98039 0.91786 -0.51600
O 	O 	0.96880 0.94580 0.67810 -0.31000
O 	O 	0.14440 0.37840 0.45180 -0.47800
O 	O 	0.49570 0.43370 0.45806 -1.02700
O 	O 	0.85010 0.38290 0.45360 -0.45100
O 	O 	0.54330 0.33150 0.09850 -0.49400
O 	O 	0.98710 0.29316 0.38850 -0.32400
O 	O 	0.98070 0.32920 0.14400 -0.58600
O 	O 	0.15610 0.42220 0.10320 -0.50500
O 	O 	0.86050 0.43580 0.10170 -0.42700
O 	O 	0.00810 0.51961 0.41786 -0.51400
O 	O 	0.03120 0.55420 0.17810 -0.30900
O 	O 	0.64440 0.12160 0.45180 -0.48200
O 	O 	0.99570 0.06630 0.45806 -1.02700
O 	O 	0.35010 0.11710 0.45360 -0.45200
O 	O 	0.04330 0.16850 0.09850 -0.49300
O 	O 	0.48710 0.20684 0.38850 -0.32400
O 	O 	0.48070 0.17080 0.14400 -0.58600
O 	O 	0.65610 0.07780 0.10320 -0.51400
O 	O 	0.36050 0.06420 0.10170 -0.43000
O 	O 	0.50810 0.98039 0.41786 -0.51300
O 	O 	0.53120 0.94580 0.17810 -0.31100
O 	O 	0.35560 0.37840 0.95180 -0.48100
O 	O 	0.00430 0.43370 0.95806 -1.02800
O 	O 	0.64990 0.38290 0.95360 -0.45000
O 	O 	0.95670 0.33150 0.59850 -0.49400
O 	O 	0.51290 0.29316 0.88850 -0.32300
O 	O 	0.51930 0.32920 0.64400 -0.58500
O 	O 	0.34390 0.42220 0.60320 -0.51100
O 	O 	0.63950 0.43580 0.60170 -0.42800
O 	O 	0.49190 0.51961 0.91786 -0.51600
O 	O 	0.46880 0.55420 0.67810 -0.31200
O 	O 	0.14440 0.87840 0.04820 -0.47700
O 	O 	0.49570 0.93370 0.04194 -1.02400
O 	O 	0.85010 0.88290 0.04640 -0.44900
O 	O 	0.54330 0.83150 0.40150 -0.49400
O 	O 	0.98710 0.79316 0.11150 -0.32400
O 	O 	0.98070 0.82920 0.35600 -0.58600
O 	O 	0.15610 0.92220 0.39680 -0.51000
O 	O 	0.86050 0.93580 0.39830 -0.42700
O 	O 	0.00810 0.01961 0.08214 -0.51600
O 	O 	0.03120 0.05420 0.32190 -0.31000
O 	O 	0.85560 0.62160 0.54820 -0.47800
O 	O 	0.50430 0.56630 0.54194 -1.02700
O 	O 	0.14990 0.61710 0.54640 -0.45100
O 	O 	0.45670 0.66850 0.90150 -0.49400
O 	O 	0.01290 0.70684 0.61150 -0.32400
O 	O 	0.01930 0.67080 0.85600 -0.58600
O 	O 	0.84390 0.57780 0.89680 -0.50500
O 	O 	0.13950 0.56420 0.89830 -0.42700
O 	O 	0.99190 0.48039 0.58214 -0.51400
O 	O 	0.96880 0.44580 0.82190 -0.30900
