data_crystal

_cell_length_a 12.88000
_cell_length_b 16.87000
_cell_length_c 17.40700
_cell_angle_alpha 90.00000
_cell_angle_beta  90.00000
_cell_angle_gamma 90.00000

_symmetry_space_group_name_	'P 1'
_symmetry_space_group_name_H-M	'P 1'

loop_
_symmetry_equiv_pos_as_xyz
  x,y,z

loop_
_atom_site_label
_atom_site_type_symbol
_atom_site_fract_x
_atom_site_fract_y
_atom_site_fract_z
_atom_site_charge
Ca	Ca	0.37430 0.53199 0.45845 1.49700
Ca	Ca	0.26145 0.64185 0.63571 1.46600
Ca	Ca	0.12570 0.03199 0.04155 1.49500
Ca	Ca	0.23855 0.14185 0.86429 1.46600
Ca	Ca	0.62570 0.96801 0.45845 1.49700
Ca	Ca	0.73855 0.85815 0.63571 1.46600
Ca	Ca	0.87430 0.46801 0.04155 1.49700
Ca	Ca	0.76145 0.35815 0.86429 1.46600
Ca	Ca	0.62570 0.46801 0.54155 1.49700
Ca	Ca	0.73855 0.35815 0.36429 1.46600
Ca	Ca	0.87430 0.96801 0.95845 1.49500
Ca	Ca	0.76145 0.85815 0.13571 1.46600
Ca	Ca	0.37430 0.03199 0.54155 1.49800
Ca	Ca	0.26145 0.14185 0.36429 1.46700
Ca	Ca	0.12570 0.53199 0.95845 1.49800
Ca	Ca	0.23855 0.64185 0.13571 1.46700
H 	H 	0.29640 0.31600 0.69440 -0.07600
H 	H 	0.40350 0.27780 0.44230 0.12500
H 	H 	0.20360 0.81600 0.80560 -0.07300
H 	H 	0.09650 0.77780 0.05770 0.11500
H 	H 	0.70360 0.18400 0.69440 -0.07600
H 	H 	0.59650 0.22220 0.44230 0.12500
H 	H 	0.79640 0.68400 0.80560 -0.07400
H 	H 	0.90350 0.72220 0.05770 0.11800
H 	H 	0.70360 0.68400 0.30560 -0.07600
H 	H 	0.59650 0.72220 0.55770 0.12500
H 	H 	0.79640 0.18400 0.19440 -0.07300
H 	H 	0.90350 0.22220 0.94230 0.11500
H 	H 	0.29640 0.81600 0.30560 -0.07600
H 	H 	0.40350 0.77780 0.55770 0.12500
H 	H 	0.20360 0.31600 0.19440 -0.07400
H 	H 	0.09650 0.27780 0.94230 0.11800
C 	C 	0.37270 0.36682 0.60606 -0.37700
C 	C 	0.31870 0.30787 0.64416 0.26900
C 	C 	0.29770 0.23640 0.60736 -0.36700
C 	C 	0.32989 0.22303 0.52981 0.39400
C 	C 	0.38335 0.28498 0.49310 -0.48100
C 	C 	0.40784 0.35647 0.52875 0.37700
C 	C 	0.12730 0.86682 0.89394 -0.36600
C 	C 	0.18130 0.80787 0.85584 0.25800
C 	C 	0.20230 0.73640 0.89264 -0.35800
C 	C 	0.17011 0.72303 0.97019 0.37200
C 	C 	0.11665 0.78498 0.00690 -0.44900
C 	C 	0.09216 0.85647 0.97125 0.35000
C 	C 	0.62730 0.13318 0.60606 -0.37700
C 	C 	0.68130 0.19213 0.64416 0.27000
C 	C 	0.70230 0.26360 0.60736 -0.36700
C 	C 	0.67011 0.27697 0.52981 0.39400
C 	C 	0.61665 0.21502 0.49310 -0.48100
C 	C 	0.59216 0.14353 0.52875 0.37800
C 	C 	0.87270 0.63318 0.89394 -0.37000
C 	C 	0.81870 0.69213 0.85584 0.26200
C 	C 	0.79770 0.76360 0.89264 -0.36000
C 	C 	0.82989 0.77697 0.97019 0.37300
C 	C 	0.88335 0.71502 0.00690 -0.45800
C 	C 	0.90784 0.64353 0.97125 0.36200
C 	C 	0.62730 0.63318 0.39394 -0.37700
C 	C 	0.68130 0.69213 0.35584 0.26900
C 	C 	0.70230 0.76360 0.39264 -0.36700
C 	C 	0.67011 0.77697 0.47019 0.39400
C 	C 	0.61665 0.71502 0.50690 -0.48100
C 	C 	0.59216 0.64353 0.47125 0.37700
C 	C 	0.87270 0.13318 0.10606 -0.36600
C 	C 	0.81870 0.19213 0.14416 0.25800
C 	C 	0.79770 0.26360 0.10736 -0.35800
C 	C 	0.82989 0.27697 0.02981 0.37200
C 	C 	0.88335 0.21502 0.99310 -0.44900
C 	C 	0.90784 0.14353 0.02875 0.35000
C 	C 	0.37270 0.86682 0.39394 -0.37700
C 	C 	0.31870 0.80787 0.35584 0.27000
C 	C 	0.29770 0.73640 0.39264 -0.36700
C 	C 	0.32989 0.72303 0.47019 0.39400
C 	C 	0.38335 0.78498 0.50690 -0.48100
C 	C 	0.40784 0.85647 0.47125 0.37800
C 	C 	0.12730 0.36682 0.10606 -0.37000
C 	C 	0.18130 0.30787 0.14416 0.26200
C 	C 	0.20230 0.23640 0.10736 -0.36000
C 	C 	0.17011 0.22303 0.02981 0.37300
C 	C 	0.11665 0.28498 0.99310 -0.45800
C 	C 	0.09216 0.35647 0.02875 0.36200
S 	S 	0.39521 0.45834 0.64932 0.61700
S 	S 	0.22250 0.16419 0.65259 0.63700
S 	S 	0.10479 0.95834 0.85068 0.60700
S 	S 	0.27750 0.66419 0.84741 0.63400
S 	S 	0.60479 0.04166 0.64932 0.62000
S 	S 	0.77750 0.33581 0.65259 0.63700
S 	S 	0.89521 0.54166 0.85068 0.61400
S 	S 	0.72250 0.83581 0.84741 0.63400
S 	S 	0.60479 0.54166 0.35068 0.61700
S 	S 	0.77750 0.83581 0.34741 0.63700
S 	S 	0.89521 0.04166 0.14932 0.60700
S 	S 	0.72250 0.33581 0.15259 0.63400
S 	S 	0.39521 0.95834 0.35068 0.62000
S 	S 	0.22250 0.66419 0.34741 0.63700
S 	S 	0.10479 0.45834 0.14932 0.61400
S 	S 	0.27750 0.16419 0.15259 0.63400
O 	O 	0.34082 0.51707 0.60066 -0.63800
O 	O 	0.50725 0.47252 0.64931 -0.48200
O 	O 	0.35182 0.45619 0.72645 -0.35900
O 	O 	0.20997 0.18839 0.73266 -0.51500
O 	O 	0.12258 0.16135 0.61272 -0.34500
O 	O 	0.27720 0.08852 0.64644 -0.49500
O 	O 	0.46067 0.41310 0.49289 -0.59500
O 	O 	0.31000 0.15588 0.49484 -0.65100
O 	O 	0.15918 0.01707 0.89934 -0.63100
O 	O 	0.99275 0.97252 0.85069 -0.48500
O 	O 	0.14818 0.95619 0.77355 -0.35900
O 	O 	0.29003 0.68839 0.76734 -0.51500
O 	O 	0.37742 0.66135 0.88728 -0.34500
O 	O 	0.22280 0.58852 0.85356 -0.49600
O 	O 	0.03933 0.91310 0.00711 -0.58000
O 	O 	0.19000 0.65588 0.00516 -0.64200
O 	O 	0.65918 0.98293 0.60066 -0.64100
O 	O 	0.49275 0.02748 0.64931 -0.48100
O 	O 	0.64818 0.04381 0.72645 -0.35700
O 	O 	0.79003 0.31161 0.73266 -0.51500
O 	O 	0.87742 0.33865 0.61272 -0.34500
O 	O 	0.72280 0.41148 0.64644 -0.49600
O 	O 	0.53933 0.08690 0.49289 -0.59500
O 	O 	0.69000 0.34412 0.49484 -0.65100
O 	O 	0.84082 0.48293 0.89934 -0.63700
O 	O 	0.00725 0.52748 0.85069 -0.48200
O 	O 	0.85182 0.54381 0.77355 -0.35900
O 	O 	0.70997 0.81161 0.76734 -0.51600
O 	O 	0.62258 0.83865 0.88728 -0.34700
O 	O 	0.77720 0.91148 0.85356 -0.49900
O 	O 	0.96067 0.58690 0.00711 -0.59000
O 	O 	0.81000 0.84412 0.00516 -0.64000
O 	O 	0.65918 0.48293 0.39934 -0.63800
O 	O 	0.49275 0.52748 0.35069 -0.48200
O 	O 	0.64818 0.54381 0.27355 -0.35900
O 	O 	0.79003 0.81161 0.26734 -0.51500
O 	O 	0.87742 0.83865 0.38728 -0.34500
O 	O 	0.72280 0.91148 0.35356 -0.49500
O 	O 	0.53933 0.58690 0.50711 -0.59500
O 	O 	0.69000 0.84412 0.50516 -0.65100
O 	O 	0.84082 0.98293 0.10066 -0.63100
O 	O 	0.00725 0.02748 0.14931 -0.48500
O 	O 	0.85182 0.04381 0.22645 -0.35900
O 	O 	0.70997 0.31161 0.23266 -0.51500
O 	O 	0.62258 0.33865 0.11272 -0.34500
O 	O 	0.77720 0.41148 0.14644 -0.49600
O 	O 	0.96067 0.08690 0.99289 -0.58000
O 	O 	0.81000 0.34412 0.99484 -0.64200
O 	O 	0.34082 0.01707 0.39934 -0.64100
O 	O 	0.50725 0.97252 0.35069 -0.48100
O 	O 	0.35182 0.95619 0.27355 -0.35700
O 	O 	0.20997 0.68839 0.26734 -0.51500
O 	O 	0.12258 0.66135 0.38728 -0.34500
O 	O 	0.27720 0.58852 0.35356 -0.49600
O 	O 	0.46067 0.91310 0.50711 -0.59500
O 	O 	0.31000 0.65588 0.50516 -0.65100
O 	O 	0.15918 0.51707 0.10066 -0.63700
O 	O 	0.99275 0.47252 0.14931 -0.48200
O 	O 	0.14818 0.45619 0.22645 -0.35900
O 	O 	0.29003 0.18839 0.23266 -0.51600
O 	O 	0.37742 0.16135 0.11272 -0.34700
O 	O 	0.22280 0.08852 0.14644 -0.49900
O 	O 	0.03933 0.41310 0.99289 -0.59000
O 	O 	0.19000 0.15588 0.99484 -0.64000
