data_crystal

_cell_length_a 5.87670
_cell_length_b 7.50120
_cell_length_c 16.47600
_cell_angle_alpha 90.00000
_cell_angle_beta  90.00000
_cell_angle_gamma 94.47000

_symmetry_space_group_name_	'P 1'
_symmetry_space_group_name_H-M	'P 1'

loop_
_symmetry_equiv_pos_as_xyz
  x,y,z

loop_
_atom_site_label
_atom_site_type_symbol
_atom_site_fract_x
_atom_site_fract_y
_atom_site_fract_z
_atom_site_charge
Ba	Ba	0.81964 0.71304 0.53280 1.79500
Ba	Ba	0.18036 0.28696 0.03280 1.78000
Ba	Ba	0.18036 0.28696 0.46720 1.79500
Ba	Ba	0.81964 0.71304 0.96720 1.78000
H 	H 	0.45670 0.84750 0.25000 -0.09400
H 	H 	0.79190 0.47380 0.25000 0.11400
H 	H 	0.54330 0.15250 0.75000 -0.09400
H 	H 	0.20810 0.52620 0.75000 0.11400
C 	C 	0.22610 0.71710 0.32316 -0.41500
C 	C 	0.01930 0.60230 0.32490 0.35100
C 	C 	0.77390 0.28290 0.82316 -0.41400
C 	C 	0.98070 0.39770 0.82490 0.34800
C 	C 	0.77390 0.28290 0.67684 -0.41500
C 	C 	0.98070 0.39770 0.67510 0.35100
C 	C 	0.22610 0.71710 0.17684 -0.41400
C 	C 	0.01930 0.60230 0.17510 0.34800
C 	C 	0.32340 0.77210 0.25000 0.26300
C 	C 	0.92530 0.54920 0.25000 -0.44600
C 	C 	0.67660 0.22790 0.75000 0.26300
C 	C 	0.07470 0.45080 0.75000 -0.44600
S 	S 	0.33876 0.79912 0.41489 0.66300
S 	S 	0.66124 0.20088 0.91489 0.66200
S 	S 	0.66124 0.20088 0.58511 0.66300
S 	S 	0.33876 0.79912 0.08511 0.66200
O 	O 	0.55730 0.89830 0.39936 -0.48500
O 	O 	0.36650 0.64670 0.46893 -0.62800
O 	O 	0.16950 0.91170 0.44936 -0.61200
O 	O 	0.92580 0.54350 0.39375 -0.58800
O 	O 	0.44270 0.10170 0.89936 -0.48100
O 	O 	0.63350 0.35330 0.96893 -0.62400
O 	O 	0.83050 0.08830 0.94936 -0.60700
O 	O 	0.07420 0.45650 0.89375 -0.58200
O 	O 	0.44270 0.10170 0.60064 -0.48500
O 	O 	0.63350 0.35330 0.53107 -0.62800
O 	O 	0.83050 0.08830 0.55064 -0.61200
O 	O 	0.07420 0.45650 0.60625 -0.58800
O 	O 	0.55730 0.89830 0.10064 -0.48100
O 	O 	0.36650 0.64670 0.03107 -0.62400
O 	O 	0.16950 0.91170 0.05064 -0.60700
O 	O 	0.92580 0.54350 0.10625 -0.58200
