data_crystal

_cell_length_a 26.11500
_cell_length_b 26.43600
_cell_length_c 26.34730
_cell_angle_alpha 90.00000
_cell_angle_beta  90.00000
_cell_angle_gamma 90.00000

_symmetry_space_group_name_	'P 1'
_symmetry_space_group_name_H-M	'P 1'

loop_
_symmetry_equiv_pos_as_xyz
  x,y,z

loop_
_atom_site_label
_atom_site_type_symbol
_atom_site_fract_x
_atom_site_fract_y
_atom_site_fract_z
_atom_site_charge
Zn	Zn	0.24608 0.52730 0.75325 1.23800
Zn	Zn	0.29034 0.59861 0.85093 1.15500
Zn	Zn	0.90524 0.72118 0.16614 1.15600
Zn	Zn	0.97163 0.73136 0.76372 1.23800
Zn	Zn	0.25392 0.97270 0.75325 1.23800
Zn	Zn	0.20966 0.90139 0.85093 1.15500
Zn	Zn	0.59476 0.77882 0.16614 1.15600
Zn	Zn	0.52837 0.76864 0.76372 1.23800
Zn	Zn	0.74608 0.47270 0.74675 1.23800
Zn	Zn	0.79034 0.40139 0.64907 1.15500
Zn	Zn	0.40524 0.27882 0.33386 1.15600
Zn	Zn	0.47163 0.26864 0.73628 1.23800
Zn	Zn	0.75392 0.02730 0.74675 1.23800
Zn	Zn	0.70966 0.09861 0.64907 1.15500
Zn	Zn	0.09476 0.22118 0.33386 1.15600
Zn	Zn	0.02837 0.23136 0.73628 1.23800
Zn	Zn	0.75392 0.47270 0.24675 1.23800
Zn	Zn	0.70966 0.40139 0.14907 1.15500
Zn	Zn	0.09476 0.27882 0.83386 1.15600
Zn	Zn	0.02837 0.26864 0.23628 1.23800
Zn	Zn	0.74608 0.02730 0.24675 1.23800
Zn	Zn	0.79034 0.09861 0.14907 1.15500
Zn	Zn	0.40524 0.22118 0.83386 1.15600
Zn	Zn	0.47163 0.23136 0.23628 1.23800
Zn	Zn	0.25392 0.52730 0.25325 1.23800
Zn	Zn	0.20966 0.59861 0.35093 1.15500
Zn	Zn	0.59476 0.72118 0.66614 1.15600
Zn	Zn	0.52837 0.73136 0.26372 1.23800
Zn	Zn	0.24608 0.97270 0.25325 1.23700
Zn	Zn	0.29034 0.90139 0.35093 1.15400
Zn	Zn	0.90524 0.77882 0.66614 1.15500
Zn	Zn	0.97163 0.76864 0.26372 1.23700
H 	H 	0.09960 0.63210 0.78660 0.06100
H 	H 	0.04390 0.64960 0.92900 0.07100
H 	H 	0.17440 0.56870 0.90550 0.04200
H 	H 	0.08240 0.66020 0.01680 0.03900
H 	H 	0.03650 0.65230 0.10510 0.03100
H 	H 	0.09690 0.66140 0.24640 0.02500
H 	H 	0.17150 0.58320 0.13680 0.05500
H 	H 	0.15820 0.38860 0.73600 0.03700
H 	H 	0.08980 0.31700 0.61840 0.05700
H 	H 	0.16640 0.44840 0.59520 0.05000
H 	H 	0.16200 0.42260 0.50420 0.03700
H 	H 	0.14850 0.46380 0.41920 0.05300
H 	H 	0.13550 0.41610 0.27380 0.05100
H 	H 	0.07640 0.33110 0.38770 0.02900
H 	H 	0.40040 0.86790 0.78660 0.06100
H 	H 	0.45610 0.85040 0.92900 0.07200
H 	H 	0.32560 0.93130 0.90550 0.04200
H 	H 	0.41760 0.83980 0.01680 0.03900
H 	H 	0.46350 0.84770 0.10510 0.03100
H 	H 	0.40310 0.83860 0.24640 0.02500
H 	H 	0.32850 0.91680 0.13680 0.05500
H 	H 	0.34180 0.11140 0.73600 0.03700
H 	H 	0.41020 0.18300 0.61840 0.05700
H 	H 	0.33360 0.05160 0.59520 0.05000
H 	H 	0.33800 0.07740 0.50420 0.03700
H 	H 	0.35150 0.03620 0.41920 0.05300
H 	H 	0.36450 0.08390 0.27380 0.05100
H 	H 	0.42360 0.16890 0.38770 0.02900
H 	H 	0.59960 0.36790 0.71340 0.06100
H 	H 	0.54390 0.35040 0.57100 0.07200
H 	H 	0.67440 0.43130 0.59450 0.04200
H 	H 	0.58240 0.33980 0.48320 0.03900
H 	H 	0.53650 0.34770 0.39490 0.03100
H 	H 	0.59690 0.33860 0.25360 0.02500
H 	H 	0.67150 0.41680 0.36320 0.05500
H 	H 	0.65820 0.61140 0.76400 0.03700
H 	H 	0.58980 0.68300 0.88160 0.05700
H 	H 	0.66640 0.55160 0.90480 0.05000
H 	H 	0.66200 0.57740 0.99580 0.03700
H 	H 	0.64850 0.53620 0.08080 0.05300
H 	H 	0.63550 0.58390 0.22620 0.05100
H 	H 	0.57640 0.66890 0.11230 0.02900
H 	H 	0.90040 0.13210 0.71340 0.06100
H 	H 	0.95610 0.14960 0.57100 0.07100
H 	H 	0.82560 0.06870 0.59450 0.04200
H 	H 	0.91760 0.16020 0.48320 0.03900
H 	H 	0.96350 0.15230 0.39490 0.03100
H 	H 	0.90310 0.16140 0.25360 0.02500
H 	H 	0.82850 0.08320 0.36320 0.05500
H 	H 	0.84180 0.88860 0.76400 0.03700
H 	H 	0.91020 0.81700 0.88160 0.05700
H 	H 	0.83360 0.94840 0.90480 0.05000
H 	H 	0.83800 0.92260 0.99580 0.03700
H 	H 	0.85150 0.96380 0.08080 0.05300
H 	H 	0.86450 0.91610 0.22620 0.05100
H 	H 	0.92360 0.83110 0.11230 0.02900
H 	H 	0.90040 0.36790 0.21340 0.06100
H 	H 	0.95610 0.35040 0.07100 0.07100
H 	H 	0.82560 0.43130 0.09450 0.04200
H 	H 	0.91760 0.33980 0.98320 0.03900
H 	H 	0.96350 0.34770 0.89490 0.03100
H 	H 	0.90310 0.33860 0.75360 0.02500
H 	H 	0.82850 0.41680 0.86320 0.05500
H 	H 	0.84180 0.61140 0.26400 0.03700
H 	H 	0.91020 0.68300 0.38160 0.05700
H 	H 	0.83360 0.55160 0.40480 0.05000
H 	H 	0.83800 0.57740 0.49580 0.03700
H 	H 	0.85150 0.53620 0.58080 0.05300
H 	H 	0.86450 0.58390 0.72620 0.05100
H 	H 	0.92360 0.66890 0.61230 0.02900
H 	H 	0.59960 0.13210 0.21340 0.06100
H 	H 	0.54390 0.14960 0.07100 0.07200
H 	H 	0.67440 0.06870 0.09450 0.04200
H 	H 	0.58240 0.16020 0.98320 0.03900
H 	H 	0.53650 0.15230 0.89490 0.03100
H 	H 	0.59690 0.16140 0.75360 0.02500
H 	H 	0.67150 0.08320 0.86320 0.05500
H 	H 	0.65820 0.88860 0.26400 0.03700
H 	H 	0.58980 0.81700 0.38160 0.05700
H 	H 	0.66640 0.94840 0.40480 0.05000
H 	H 	0.66200 0.92260 0.49580 0.03700
H 	H 	0.64850 0.96380 0.58080 0.05300
H 	H 	0.63550 0.91610 0.72620 0.05100
H 	H 	0.57640 0.83110 0.61230 0.02900
H 	H 	0.40040 0.63210 0.28660 0.06100
H 	H 	0.45610 0.64960 0.42900 0.07200
H 	H 	0.32560 0.56870 0.40550 0.04200
H 	H 	0.41760 0.66020 0.51680 0.03900
H 	H 	0.46350 0.65230 0.60510 0.03100
H 	H 	0.40310 0.66140 0.74640 0.02500
H 	H 	0.32850 0.58320 0.63680 0.05500
H 	H 	0.34180 0.38860 0.23600 0.03700
H 	H 	0.41020 0.31700 0.11840 0.05700
H 	H 	0.33360 0.44840 0.09520 0.05000
H 	H 	0.33800 0.42260 0.00420 0.03700
H 	H 	0.35150 0.46380 0.91920 0.05300
H 	H 	0.36450 0.41610 0.77380 0.05100
H 	H 	0.42360 0.33110 0.88770 0.02900
H 	H 	0.09960 0.86790 0.28660 0.06100
H 	H 	0.04390 0.85040 0.42900 0.07100
H 	H 	0.17440 0.93130 0.40550 0.04200
H 	H 	0.08240 0.83980 0.51680 0.03900
H 	H 	0.03650 0.84770 0.60510 0.03100
H 	H 	0.09690 0.83860 0.74640 0.02500
H 	H 	0.17150 0.91680 0.63680 0.05500
H 	H 	0.15820 0.11140 0.23600 0.03700
H 	H 	0.08980 0.18300 0.11840 0.05700
H 	H 	0.16640 0.05160 0.09520 0.05000
H 	H 	0.16200 0.07740 0.00420 0.03700
H 	H 	0.14850 0.03620 0.91920 0.05300
H 	H 	0.13550 0.08390 0.77380 0.05100
H 	H 	0.07640 0.16890 0.88770 0.02900
C 	C 	0.18107 0.57659 0.80430 0.30500
C 	C 	0.14274 0.59789 0.84103 -0.08300
C 	C 	0.10231 0.62646 0.82211 -0.00100
C 	C 	0.06594 0.64684 0.85446 -0.05500
C 	C 	0.02391 0.67946 0.83475 0.31900
C 	C 	0.06902 0.63667 0.90644 -0.07000
C 	C 	0.10916 0.60760 0.92470 0.07500
C 	C 	0.14681 0.58811 0.89249 -0.06900
C 	C 	0.09780 0.62772 0.01841 -0.02900
C 	C 	0.10998 0.60107 0.06042 0.07000
C 	C 	0.10521 0.61639 0.11279 -0.03600
C 	C 	0.06326 0.64467 0.12831 0.01900
C 	C 	0.06075 0.66175 0.17815 -0.13100
C 	C 	0.01514 0.69223 0.19411 0.41400
C 	C 	0.09872 0.64942 0.21246 0.06600
C 	C 	0.13991 0.61929 0.19700 -0.12700
C 	C 	0.18094 0.60317 0.23369 0.41200
C 	C 	0.14329 0.60324 0.14738 0.01900
C 	C 	0.19903 0.46747 0.68842 0.30100
C 	C 	0.16753 0.42398 0.66832 -0.07300
C 	C 	0.15057 0.38657 0.70081 0.03800
C 	C 	0.12243 0.34603 0.68243 -0.11700
C 	C 	0.10205 0.30606 0.71698 0.41500
C 	C 	0.10939 0.34442 0.63133 0.00400
C 	C 	0.12518 0.38328 0.59907 -0.01700
C 	C 	0.15481 0.42254 0.61742 -0.01500
C 	C 	0.10991 0.38146 0.54634 0.05800
C 	C 	0.13231 0.40194 0.50497 -0.01800
C 	C 	0.11199 0.39604 0.41182 0.05800
C 	C 	0.13716 0.43933 0.39534 -0.04100
C 	C 	0.14570 0.44661 0.34380 -0.09600
C 	C 	0.17445 0.49274 0.32624 0.40100
C 	C 	0.12880 0.41137 0.30889 0.02600
C 	C 	0.10160 0.36842 0.32524 -0.10100
C 	C 	0.08192 0.33228 0.28703 0.32000
C 	C 	0.09393 0.36053 0.37642 -0.04500
C 	C 	0.31893 0.92341 0.80430 0.30500
C 	C 	0.35726 0.90211 0.84103 -0.08300
C 	C 	0.39769 0.87354 0.82211 -0.00100
C 	C 	0.43406 0.85316 0.85446 -0.05500
C 	C 	0.47609 0.82054 0.83475 0.32000
C 	C 	0.43098 0.86333 0.90644 -0.07000
C 	C 	0.39084 0.89240 0.92470 0.07500
C 	C 	0.35319 0.91189 0.89249 -0.06900
C 	C 	0.40220 0.87228 0.01841 -0.02900
C 	C 	0.39002 0.89893 0.06042 0.07000
C 	C 	0.39479 0.88361 0.11279 -0.03600
C 	C 	0.43674 0.85533 0.12831 0.01900
C 	C 	0.43925 0.83825 0.17815 -0.13100
C 	C 	0.48486 0.80777 0.19411 0.41400
C 	C 	0.40128 0.85058 0.21246 0.06700
C 	C 	0.36009 0.88071 0.19700 -0.12700
C 	C 	0.31906 0.89683 0.23369 0.41200
C 	C 	0.35671 0.89676 0.14738 0.01900
C 	C 	0.30097 0.03253 0.68842 0.30100
C 	C 	0.33247 0.07602 0.66832 -0.07300
C 	C 	0.34943 0.11343 0.70081 0.03800
C 	C 	0.37757 0.15397 0.68243 -0.11700
C 	C 	0.39795 0.19394 0.71698 0.41500
C 	C 	0.39061 0.15558 0.63133 0.00400
C 	C 	0.37482 0.11672 0.59907 -0.01700
C 	C 	0.34519 0.07746 0.61742 -0.01500
C 	C 	0.39009 0.11854 0.54634 0.05800
C 	C 	0.36769 0.09806 0.50497 -0.01800
C 	C 	0.38801 0.10396 0.41182 0.05800
C 	C 	0.36284 0.06067 0.39534 -0.04100
C 	C 	0.35430 0.05339 0.34380 -0.09600
C 	C 	0.32555 0.00726 0.32624 0.40100
C 	C 	0.37120 0.08863 0.30889 0.02600
C 	C 	0.39840 0.13158 0.32524 -0.10100
C 	C 	0.41808 0.16772 0.28703 0.32000
C 	C 	0.40607 0.13947 0.37642 -0.04500
C 	C 	0.68107 0.42341 0.69570 0.30500
C 	C 	0.64274 0.40211 0.65897 -0.08300
C 	C 	0.60231 0.37354 0.67789 -0.00100
C 	C 	0.56594 0.35316 0.64554 -0.05500
C 	C 	0.52391 0.32054 0.66525 0.32000
C 	C 	0.56902 0.36333 0.59356 -0.07000
C 	C 	0.60916 0.39240 0.57530 0.07500
C 	C 	0.64681 0.41189 0.60751 -0.06900
C 	C 	0.59780 0.37228 0.48159 -0.02900
C 	C 	0.60998 0.39893 0.43958 0.07000
C 	C 	0.60521 0.38361 0.38721 -0.03600
C 	C 	0.56326 0.35533 0.37169 0.01900
C 	C 	0.56075 0.33825 0.32185 -0.13100
C 	C 	0.51514 0.30777 0.30589 0.41400
C 	C 	0.59872 0.35058 0.28754 0.06700
C 	C 	0.63991 0.38071 0.30300 -0.12700
C 	C 	0.68094 0.39683 0.26631 0.41200
C 	C 	0.64329 0.39676 0.35262 0.01900
C 	C 	0.69903 0.53253 0.81158 0.30100
C 	C 	0.66753 0.57602 0.83168 -0.07300
C 	C 	0.65057 0.61343 0.79919 0.03800
C 	C 	0.62243 0.65397 0.81757 -0.11700
C 	C 	0.60205 0.69394 0.78302 0.41500
C 	C 	0.60939 0.65558 0.86867 0.00400
C 	C 	0.62518 0.61672 0.90093 -0.01700
C 	C 	0.65481 0.57746 0.88258 -0.01500
C 	C 	0.60991 0.61854 0.95366 0.05800
C 	C 	0.63231 0.59806 0.99503 -0.01800
C 	C 	0.61199 0.60396 0.08818 0.05800
C 	C 	0.63716 0.56067 0.10466 -0.04100
C 	C 	0.64570 0.55339 0.15620 -0.09600
C 	C 	0.67445 0.50726 0.17376 0.40100
C 	C 	0.62880 0.58863 0.19111 0.02600
C 	C 	0.60160 0.63158 0.17476 -0.10100
C 	C 	0.58192 0.66772 0.21297 0.32000
C 	C 	0.59393 0.63947 0.12358 -0.04500
C 	C 	0.81893 0.07659 0.69570 0.30500
C 	C 	0.85726 0.09789 0.65897 -0.08300
C 	C 	0.89769 0.12646 0.67789 -0.00100
C 	C 	0.93406 0.14684 0.64554 -0.05500
C 	C 	0.97609 0.17946 0.66525 0.32000
C 	C 	0.93098 0.13667 0.59356 -0.07000
C 	C 	0.89084 0.10760 0.57530 0.07500
C 	C 	0.85319 0.08811 0.60751 -0.06900
C 	C 	0.90220 0.12772 0.48159 -0.02900
C 	C 	0.89002 0.10107 0.43958 0.07000
C 	C 	0.89479 0.11639 0.38721 -0.03600
C 	C 	0.93674 0.14467 0.37169 0.01900
C 	C 	0.93925 0.16175 0.32185 -0.13100
C 	C 	0.98486 0.19223 0.30589 0.41300
C 	C 	0.90128 0.14942 0.28754 0.06600
C 	C 	0.86009 0.11929 0.30300 -0.12700
C 	C 	0.81906 0.10317 0.26631 0.41200
C 	C 	0.85671 0.10324 0.35262 0.01900
C 	C 	0.80097 0.96747 0.81158 0.30100
C 	C 	0.83247 0.92398 0.83168 -0.07300
C 	C 	0.84943 0.88657 0.79919 0.03800
C 	C 	0.87757 0.84603 0.81757 -0.11700
C 	C 	0.89795 0.80606 0.78302 0.41500
C 	C 	0.89061 0.84442 0.86867 0.00400
C 	C 	0.87482 0.88328 0.90093 -0.01700
C 	C 	0.84519 0.92254 0.88258 -0.01500
C 	C 	0.89009 0.88146 0.95366 0.05800
C 	C 	0.86769 0.90194 0.99503 -0.01800
C 	C 	0.88801 0.89604 0.08818 0.05800
C 	C 	0.86284 0.93933 0.10466 -0.04100
C 	C 	0.85430 0.94661 0.15620 -0.09600
C 	C 	0.82555 0.99274 0.17376 0.40100
C 	C 	0.87120 0.91137 0.19111 0.02600
C 	C 	0.89840 0.86842 0.17476 -0.10100
C 	C 	0.91808 0.83228 0.21297 0.32000
C 	C 	0.90607 0.86053 0.12358 -0.04500
C 	C 	0.81893 0.42341 0.19570 0.30500
C 	C 	0.85726 0.40211 0.15897 -0.08300
C 	C 	0.89769 0.37354 0.17789 -0.00100
C 	C 	0.93406 0.35316 0.14554 -0.05500
C 	C 	0.97609 0.32054 0.16525 0.31900
C 	C 	0.93098 0.36333 0.09356 -0.07000
C 	C 	0.89084 0.39240 0.07530 0.07500
C 	C 	0.85319 0.41189 0.10751 -0.06900
C 	C 	0.90220 0.37228 0.98159 -0.02900
C 	C 	0.89002 0.39893 0.93958 0.07000
C 	C 	0.89479 0.38361 0.88721 -0.03600
C 	C 	0.93674 0.35533 0.87169 0.01900
C 	C 	0.93925 0.33825 0.82185 -0.13100
C 	C 	0.98486 0.30777 0.80589 0.41400
C 	C 	0.90128 0.35058 0.78754 0.06600
C 	C 	0.86009 0.38071 0.80300 -0.12700
C 	C 	0.81906 0.39683 0.76631 0.41200
C 	C 	0.85671 0.39676 0.85262 0.01900
C 	C 	0.80097 0.53253 0.31158 0.30100
C 	C 	0.83247 0.57602 0.33168 -0.07300
C 	C 	0.84943 0.61343 0.29919 0.03800
C 	C 	0.87757 0.65397 0.31757 -0.11700
C 	C 	0.89795 0.69394 0.28302 0.41500
C 	C 	0.89061 0.65558 0.36867 0.00400
C 	C 	0.87482 0.61672 0.40093 -0.01700
C 	C 	0.84519 0.57746 0.38258 -0.01500
C 	C 	0.89009 0.61854 0.45366 0.05800
C 	C 	0.86769 0.59806 0.49503 -0.01800
C 	C 	0.88801 0.60396 0.58818 0.05800
C 	C 	0.86284 0.56067 0.60466 -0.04100
C 	C 	0.85430 0.55339 0.65620 -0.09600
C 	C 	0.82555 0.50726 0.67376 0.40100
C 	C 	0.87120 0.58863 0.69111 0.02600
C 	C 	0.89840 0.63158 0.67476 -0.10100
C 	C 	0.91808 0.66772 0.71297 0.32000
C 	C 	0.90607 0.63947 0.62358 -0.04500
C 	C 	0.68107 0.07659 0.19570 0.30500
C 	C 	0.64274 0.09789 0.15897 -0.08300
C 	C 	0.60231 0.12646 0.17789 -0.00100
C 	C 	0.56594 0.14684 0.14554 -0.05500
C 	C 	0.52391 0.17946 0.16525 0.32000
C 	C 	0.56902 0.13667 0.09356 -0.07000
C 	C 	0.60916 0.10760 0.07530 0.07500
C 	C 	0.64681 0.08811 0.10751 -0.06900
C 	C 	0.59780 0.12772 0.98159 -0.02900
C 	C 	0.60998 0.10107 0.93958 0.07000
C 	C 	0.60521 0.11639 0.88721 -0.03600
C 	C 	0.56326 0.14467 0.87169 0.01900
C 	C 	0.56075 0.16175 0.82185 -0.13100
C 	C 	0.51514 0.19223 0.80589 0.41400
C 	C 	0.59872 0.14942 0.78754 0.06700
C 	C 	0.63991 0.11929 0.80300 -0.12700
C 	C 	0.68094 0.10317 0.76631 0.41200
C 	C 	0.64329 0.10324 0.85262 0.01900
C 	C 	0.69903 0.96747 0.31158 0.30100
C 	C 	0.66753 0.92398 0.33168 -0.07300
C 	C 	0.65057 0.88657 0.29919 0.03800
C 	C 	0.62243 0.84603 0.31757 -0.11700
C 	C 	0.60205 0.80606 0.28302 0.41500
C 	C 	0.60939 0.84442 0.36867 0.00400
C 	C 	0.62518 0.88328 0.40093 -0.01700
C 	C 	0.65481 0.92254 0.38258 -0.01500
C 	C 	0.60991 0.88146 0.45366 0.05800
C 	C 	0.63231 0.90194 0.49503 -0.01800
C 	C 	0.61199 0.89604 0.58818 0.05800
C 	C 	0.63716 0.93933 0.60466 -0.04100
C 	C 	0.64570 0.94661 0.65620 -0.09600
C 	C 	0.67445 0.99274 0.67376 0.40100
C 	C 	0.62880 0.91137 0.69111 0.02600
C 	C 	0.60160 0.86842 0.67476 -0.10100
C 	C 	0.58192 0.83228 0.71297 0.32000
C 	C 	0.59393 0.86053 0.62358 -0.04500
C 	C 	0.31893 0.57659 0.30430 0.30500
C 	C 	0.35726 0.59789 0.34103 -0.08300
C 	C 	0.39769 0.62646 0.32211 -0.00100
C 	C 	0.43406 0.64684 0.35446 -0.05500
C 	C 	0.47609 0.67946 0.33475 0.32000
C 	C 	0.43098 0.63667 0.40644 -0.07000
C 	C 	0.39084 0.60760 0.42470 0.07500
C 	C 	0.35319 0.58811 0.39249 -0.06900
C 	C 	0.40220 0.62772 0.51841 -0.02900
C 	C 	0.39002 0.60107 0.56042 0.07000
C 	C 	0.39479 0.61639 0.61279 -0.03600
C 	C 	0.43674 0.64467 0.62831 0.01900
C 	C 	0.43925 0.66175 0.67815 -0.13100
C 	C 	0.48486 0.69223 0.69411 0.41400
C 	C 	0.40128 0.64942 0.71246 0.06700
C 	C 	0.36009 0.61929 0.69700 -0.12700
C 	C 	0.31906 0.60317 0.73369 0.41200
C 	C 	0.35671 0.60324 0.64738 0.01900
C 	C 	0.30097 0.46747 0.18842 0.30100
C 	C 	0.33247 0.42398 0.16832 -0.07300
C 	C 	0.34943 0.38657 0.20081 0.03800
C 	C 	0.37757 0.34603 0.18243 -0.11700
C 	C 	0.39795 0.30606 0.21698 0.41500
C 	C 	0.39061 0.34442 0.13133 0.00400
C 	C 	0.37482 0.38328 0.09907 -0.01700
C 	C 	0.34519 0.42254 0.11742 -0.01500
C 	C 	0.39009 0.38146 0.04634 0.05800
C 	C 	0.36769 0.40194 0.00497 -0.01800
C 	C 	0.38801 0.39604 0.91182 0.05800
C 	C 	0.36284 0.43933 0.89534 -0.04100
C 	C 	0.35430 0.44661 0.84380 -0.09600
C 	C 	0.32555 0.49274 0.82624 0.40100
C 	C 	0.37120 0.41137 0.80889 0.02600
C 	C 	0.39840 0.36842 0.82524 -0.10100
C 	C 	0.41808 0.33228 0.78703 0.32000
C 	C 	0.40607 0.36053 0.87642 -0.04500
C 	C 	0.18107 0.92341 0.30430 0.30500
C 	C 	0.14274 0.90211 0.34103 -0.08300
C 	C 	0.10231 0.87354 0.32211 -0.00100
C 	C 	0.06594 0.85316 0.35446 -0.05500
C 	C 	0.02391 0.82054 0.33475 0.32000
C 	C 	0.06902 0.86333 0.40644 -0.07000
C 	C 	0.10916 0.89240 0.42470 0.07500
C 	C 	0.14681 0.91189 0.39249 -0.06900
C 	C 	0.09780 0.87228 0.51841 -0.02900
C 	C 	0.10998 0.89893 0.56042 0.07000
C 	C 	0.10521 0.88361 0.61279 -0.03600
C 	C 	0.06326 0.85533 0.62831 0.01900
C 	C 	0.06075 0.83825 0.67815 -0.13100
C 	C 	0.01514 0.80777 0.69411 0.41300
C 	C 	0.09872 0.85058 0.71246 0.06600
C 	C 	0.13991 0.88071 0.69700 -0.12700
C 	C 	0.18094 0.89683 0.73369 0.41200
C 	C 	0.14329 0.89676 0.64738 0.01900
C 	C 	0.19903 0.03253 0.18842 0.30100
C 	C 	0.16753 0.07602 0.16832 -0.07300
C 	C 	0.15057 0.11343 0.20081 0.03800
C 	C 	0.12243 0.15397 0.18243 -0.11700
C 	C 	0.10205 0.19394 0.21698 0.41500
C 	C 	0.10939 0.15558 0.13133 0.00400
C 	C 	0.12518 0.11672 0.09907 -0.01700
C 	C 	0.15481 0.07746 0.11742 -0.01500
C 	C 	0.10991 0.11854 0.04634 0.05800
C 	C 	0.13231 0.09806 0.00497 -0.01800
C 	C 	0.11199 0.10396 0.91182 0.05800
C 	C 	0.13716 0.06067 0.89534 -0.04100
C 	C 	0.14570 0.05339 0.84380 -0.09600
C 	C 	0.17445 0.00726 0.82624 0.40100
C 	C 	0.12880 0.08863 0.80889 0.02600
C 	C 	0.10160 0.13158 0.82524 -0.10100
C 	C 	0.08192 0.16772 0.78703 0.32000
C 	C 	0.09393 0.13947 0.87642 -0.04500
N 	N 	0.11247 0.59763 0.97875 -0.09000
N 	N 	0.13198 0.55401 0.99709 -0.05100
N 	N 	0.13058 0.55614 0.04672 -0.08100
N 	N 	0.06575 0.35831 0.53159 -0.08400
N 	N 	0.06223 0.36150 0.48215 -0.05400
N 	N 	0.10421 0.38723 0.46540 -0.09000
N 	N 	0.38753 0.90237 0.97875 -0.09000
N 	N 	0.36802 0.94599 0.99709 -0.05100
N 	N 	0.36942 0.94386 0.04672 -0.08200
N 	N 	0.43425 0.14169 0.53159 -0.08400
N 	N 	0.43777 0.13850 0.48215 -0.05400
N 	N 	0.39579 0.11277 0.46540 -0.09000
N 	N 	0.61247 0.40237 0.52125 -0.09000
N 	N 	0.63198 0.44599 0.50291 -0.05100
N 	N 	0.63058 0.44386 0.45328 -0.08100
N 	N 	0.56575 0.64169 0.96841 -0.08400
N 	N 	0.56223 0.63850 0.01785 -0.05400
N 	N 	0.60421 0.61277 0.03460 -0.09100
N 	N 	0.88753 0.09763 0.52125 -0.09000
N 	N 	0.86802 0.05401 0.50291 -0.05100
N 	N 	0.86942 0.05614 0.45328 -0.08200
N 	N 	0.93425 0.85831 0.96841 -0.08400
N 	N 	0.93777 0.86150 0.01785 -0.05400
N 	N 	0.89579 0.88723 0.03460 -0.09100
N 	N 	0.88753 0.40237 0.02125 -0.09000
N 	N 	0.86802 0.44599 0.00291 -0.05100
N 	N 	0.86942 0.44386 0.95328 -0.08100
N 	N 	0.93425 0.64169 0.46841 -0.08400
N 	N 	0.93777 0.63850 0.51785 -0.05400
N 	N 	0.89579 0.61277 0.53460 -0.09000
N 	N 	0.61247 0.09763 0.02125 -0.09000
N 	N 	0.63198 0.05401 0.00291 -0.05100
N 	N 	0.63058 0.05614 0.95328 -0.08200
N 	N 	0.56575 0.85831 0.46841 -0.08400
N 	N 	0.56223 0.86150 0.51785 -0.05400
N 	N 	0.60421 0.88723 0.53460 -0.09000
N 	N 	0.38753 0.59763 0.47875 -0.09000
N 	N 	0.36802 0.55401 0.49709 -0.05100
N 	N 	0.36942 0.55614 0.54672 -0.08100
N 	N 	0.43425 0.35831 0.03159 -0.08400
N 	N 	0.43777 0.36150 0.98215 -0.05400
N 	N 	0.39579 0.38723 0.96540 -0.09100
N 	N 	0.11247 0.90237 0.47875 -0.09000
N 	N 	0.13198 0.94599 0.49709 -0.05100
N 	N 	0.13058 0.94386 0.54672 -0.08200
N 	N 	0.06575 0.14169 0.03159 -0.08400
N 	N 	0.06223 0.13850 0.98215 -0.05400
N 	N 	0.10421 0.11277 0.96540 -0.09100
O 	O 	0.22291 0.55795 0.82191 -0.56200
O 	O 	0.17123 0.57516 0.75858 -0.35300
O 	O 	0.02581 0.68834 0.78712 -0.43400
O 	O 	0.99067 0.69544 0.86328 -0.29200
O 	O 	0.21596 0.57683 0.21460 -0.47600
O 	O 	0.17742 0.61607 0.27916 -0.50400
O 	O 	0.01788 0.71376 0.23654 -0.46400
O 	O 	0.97781 0.69362 0.16416 -0.50600
O 	O 	0.20210 0.46980 0.73710 -0.41800
O 	O 	0.22510 0.49600 0.66060 -0.29600
O 	O 	0.11337 0.30828 0.76243 -0.51900
O 	O 	0.07424 0.27287 0.69618 -0.47500
O 	O 	0.17694 0.52923 0.35645 -0.50000
O 	O 	0.19339 0.48993 0.28259 -0.46200
O 	O 	0.08547 0.34103 0.24157 -0.34400
O 	O 	0.05987 0.29159 0.30333 -0.56600
O 	O 	0.27709 0.94205 0.82191 -0.56200
O 	O 	0.32877 0.92484 0.75858 -0.35300
O 	O 	0.47419 0.81166 0.78712 -0.43400
O 	O 	0.50933 0.80456 0.86328 -0.29200
O 	O 	0.28404 0.92317 0.21460 -0.47600
O 	O 	0.32258 0.88393 0.27916 -0.50400
O 	O 	0.48212 0.78624 0.23654 -0.46400
O 	O 	0.52219 0.80638 0.16416 -0.50600
O 	O 	0.29790 0.03020 0.73710 -0.41800
O 	O 	0.27490 0.00400 0.66060 -0.29600
O 	O 	0.38663 0.19172 0.76243 -0.51900
O 	O 	0.42576 0.22713 0.69618 -0.47500
O 	O 	0.32306 0.97077 0.35645 -0.50000
O 	O 	0.30661 0.01007 0.28259 -0.46200
O 	O 	0.41453 0.15897 0.24157 -0.34400
O 	O 	0.44013 0.20841 0.30333 -0.56600
O 	O 	0.72291 0.44205 0.67809 -0.56200
O 	O 	0.67123 0.42484 0.74142 -0.35300
O 	O 	0.52581 0.31166 0.71288 -0.43400
O 	O 	0.49067 0.30456 0.63672 -0.29200
O 	O 	0.71596 0.42317 0.28540 -0.47600
O 	O 	0.67742 0.38393 0.22084 -0.50400
O 	O 	0.51788 0.28624 0.26346 -0.46400
O 	O 	0.47781 0.30638 0.33584 -0.50600
O 	O 	0.70210 0.53020 0.76290 -0.41800
O 	O 	0.72510 0.50400 0.83940 -0.29600
O 	O 	0.61337 0.69172 0.73757 -0.51900
O 	O 	0.57424 0.72713 0.80382 -0.47500
O 	O 	0.67694 0.47077 0.14355 -0.50000
O 	O 	0.69339 0.51007 0.21741 -0.46200
O 	O 	0.58547 0.65897 0.25843 -0.34400
O 	O 	0.55987 0.70841 0.19667 -0.56600
O 	O 	0.77709 0.05795 0.67809 -0.56300
O 	O 	0.82877 0.07516 0.74142 -0.35300
O 	O 	0.97419 0.18834 0.71288 -0.43400
O 	O 	0.00933 0.19544 0.63672 -0.29200
O 	O 	0.78404 0.07683 0.28540 -0.47600
O 	O 	0.82258 0.11607 0.22084 -0.50400
O 	O 	0.98212 0.21376 0.26346 -0.46400
O 	O 	0.02219 0.19362 0.33584 -0.50600
O 	O 	0.79790 0.96980 0.76290 -0.41800
O 	O 	0.77490 0.99600 0.83940 -0.29600
O 	O 	0.88663 0.80828 0.73757 -0.51900
O 	O 	0.92576 0.77287 0.80382 -0.47400
O 	O 	0.82306 0.02923 0.14355 -0.50000
O 	O 	0.80661 0.98993 0.21741 -0.46200
O 	O 	0.91453 0.84103 0.25843 -0.34400
O 	O 	0.94013 0.79159 0.19667 -0.56600
O 	O 	0.77709 0.44205 0.17809 -0.56200
O 	O 	0.82877 0.42484 0.24142 -0.35300
O 	O 	0.97419 0.31166 0.21288 -0.43400
O 	O 	0.00933 0.30456 0.13672 -0.29200
O 	O 	0.78404 0.42317 0.78540 -0.47600
O 	O 	0.82258 0.38393 0.72084 -0.50400
O 	O 	0.98212 0.28624 0.76346 -0.46400
O 	O 	0.02219 0.30638 0.83584 -0.50600
O 	O 	0.79790 0.53020 0.26290 -0.41800
O 	O 	0.77490 0.50400 0.33940 -0.29600
O 	O 	0.88663 0.69172 0.23757 -0.51900
O 	O 	0.92576 0.72713 0.30382 -0.47500
O 	O 	0.82306 0.47077 0.64355 -0.50000
O 	O 	0.80661 0.51007 0.71741 -0.46200
O 	O 	0.91453 0.65897 0.75843 -0.34400
O 	O 	0.94013 0.70841 0.69667 -0.56600
O 	O 	0.72291 0.05795 0.17809 -0.56200
O 	O 	0.67123 0.07516 0.24142 -0.35300
O 	O 	0.52581 0.18834 0.21288 -0.43400
O 	O 	0.49067 0.19544 0.13672 -0.29200
O 	O 	0.71596 0.07683 0.78540 -0.47600
O 	O 	0.67742 0.11607 0.72084 -0.50400
O 	O 	0.51788 0.21376 0.76346 -0.46400
O 	O 	0.47781 0.19362 0.83584 -0.50600
O 	O 	0.70210 0.96980 0.26290 -0.41800
O 	O 	0.72510 0.99600 0.33940 -0.29600
O 	O 	0.61337 0.80828 0.23757 -0.51900
O 	O 	0.57424 0.77287 0.30382 -0.47500
O 	O 	0.67694 0.02923 0.64355 -0.50000
O 	O 	0.69339 0.98993 0.71741 -0.46200
O 	O 	0.58547 0.84103 0.75843 -0.34400
O 	O 	0.55987 0.79159 0.69667 -0.56600
O 	O 	0.27709 0.55795 0.32191 -0.56200
O 	O 	0.32877 0.57516 0.25858 -0.35300
O 	O 	0.47419 0.68834 0.28712 -0.43400
O 	O 	0.50933 0.69544 0.36328 -0.29200
O 	O 	0.28404 0.57683 0.71460 -0.47600
O 	O 	0.32258 0.61607 0.77916 -0.50400
O 	O 	0.48212 0.71376 0.73654 -0.46400
O 	O 	0.52219 0.69362 0.66416 -0.50600
O 	O 	0.29790 0.46980 0.23710 -0.41800
O 	O 	0.27490 0.49600 0.16060 -0.29600
O 	O 	0.38663 0.30828 0.26243 -0.51900
O 	O 	0.42576 0.27287 0.19618 -0.47500
O 	O 	0.32306 0.52923 0.85645 -0.50000
O 	O 	0.30661 0.48993 0.78259 -0.46200
O 	O 	0.41453 0.34103 0.74157 -0.34400
O 	O 	0.44013 0.29159 0.80333 -0.56600
O 	O 	0.22291 0.94205 0.32191 -0.56300
O 	O 	0.17123 0.92484 0.25858 -0.35300
O 	O 	0.02581 0.81166 0.28712 -0.43400
O 	O 	0.99067 0.80456 0.36328 -0.29200
O 	O 	0.21596 0.92317 0.71460 -0.47600
O 	O 	0.17742 0.88393 0.77916 -0.50400
O 	O 	0.01788 0.78624 0.73654 -0.46400
O 	O 	0.97781 0.80638 0.66416 -0.50600
O 	O 	0.20210 0.03020 0.23710 -0.41800
O 	O 	0.22510 0.00400 0.16060 -0.29600
O 	O 	0.11337 0.19172 0.26243 -0.51900
O 	O 	0.07424 0.22713 0.19618 -0.47400
O 	O 	0.17694 0.97077 0.85645 -0.50000
O 	O 	0.19339 0.01007 0.78259 -0.46200
O 	O 	0.08547 0.15897 0.74157 -0.34400
O 	O 	0.05987 0.20841 0.80333 -0.56600
