data_crystal

_cell_length_a 23.47000
_cell_length_b 22.05100
_cell_length_c 52.64500
_cell_angle_alpha 90.00000
_cell_angle_beta  90.00000
_cell_angle_gamma 90.00000

_symmetry_space_group_name_	'P 1'
_symmetry_space_group_name_H-M	'P 1'

loop_
_symmetry_equiv_pos_as_xyz
  x,y,z

loop_
_atom_site_label
_atom_site_type_symbol
_atom_site_fract_x
_atom_site_fract_y
_atom_site_fract_z
_atom_site_charge
Cu	Cu	0.46416 0.92484 0.13644 0.86500
C 	C 	0.29264 0.99331 0.97558 -0.00300
Cu	Cu	0.44759 0.72608 0.10342 0.86200
C 	C 	0.24750 0.94938 0.97937 -0.00200
C 	C 	0.24403 0.99262 0.95925 -0.00300
C 	C 	0.34357 0.01577 0.98336 -0.05700
C 	C 	0.22599 0.90205 0.99231 -0.05500
C 	C 	0.21457 0.01816 0.93971 -0.05500
C 	C 	0.44274 0.14267 0.96544 -0.00900
H 	H 	0.46770 0.17070 0.97340 0.03000
C 	C 	0.37615 0.05928 0.96820 0.05700
C 	C 	0.37165 0.05914 0.94153 -0.09000
H 	H 	0.34830 0.02980 0.93340 0.06800
C 	C 	0.40110 0.10149 0.92701 -0.01100
H 	H 	0.39680 0.10210 0.90910 0.04100
C 	C 	0.43675 0.14269 0.93883 -0.05000
C 	C 	0.46719 0.18589 0.92367 0.09500
N 	N 	0.49238 0.21941 0.91170 -0.25000
C 	C 	0.41241 0.10217 0.97975 -0.09700
H 	H 	0.41580 0.10290 0.99770 0.06400
C 	C 	0.36506 0.99649 0.00871 0.06000
C 	C 	0.42198 0.97982 0.01241 -0.09700
H 	H 	0.44740 0.97970 0.99840 0.06200
C 	C 	0.44173 0.96343 0.03625 -0.00800
H 	H 	0.48050 0.95260 0.03860 0.03300
C 	C 	0.40422 0.96310 0.05652 -0.05100
C 	C 	0.42395 0.94792 0.08120 0.09100
N 	N 	0.44053 0.93639 0.10127 -0.26400
C 	C 	0.34628 0.97968 0.05322 -0.00500
H 	H 	0.32070 0.97940 0.06720 0.02800
C 	C 	0.32776 0.99623 0.02938 -0.09300
H 	H 	0.28910 0.00760 0.02700 0.06500
C 	C 	0.25898 0.87016 0.01168 0.06100
C 	C 	0.31803 0.85992 0.00778 -0.09100
H 	H 	0.33590 0.87400 0.99270 0.06600
C 	C 	0.34987 0.82920 0.02602 -0.00300
H 	H 	0.38930 0.82190 0.02340 0.03500
C 	C 	0.32331 0.80924 0.04811 -0.05200
C 	C 	0.35675 0.77639 0.06699 0.10100
N 	N 	0.38328 0.75218 0.08169 -0.25800
C 	C 	0.26491 0.81720 0.05163 -0.00200
H 	H 	0.24670 0.80100 0.06620 0.02600
C 	C 	0.23425 0.84837 0.03402 -0.10000
H 	H 	0.19490 0.85550 0.03700 0.06400
C 	C 	0.16725 0.88173 0.98705 0.05400
C 	C 	0.15420 0.81926 0.98624 -0.08600
H 	H 	0.18340 0.79030 0.98920 0.06100
C 	C 	0.09890 0.79966 0.98120 -0.02000
H 	H 	0.09060 0.75750 0.98040 0.03700
C 	C 	0.05560 0.84250 0.97736 -0.02700
C 	C 	0.99864 0.81980 0.97325 0.06800
N 	N 	0.95335 0.80300 0.96951 -0.13300
C 	C 	0.06825 0.90354 0.97869 -0.01600
H 	H 	0.03870 0.93230 0.97620 0.03800
C 	C 	0.12249 0.92360 0.98349 -0.08400
H 	H 	0.13000 0.96590 0.98440 0.06300
C 	C 	0.16367 0.98655 0.92964 0.06100
C 	C 	0.16493 0.92443 0.92650 -0.09000
H 	H 	0.19940 0.90310 0.92960 0.06900
C 	C 	0.11700 0.89251 0.91893 -0.00600
H 	H 	0.11840 0.84970 0.91700 0.04000
C 	C 	0.06617 0.92452 0.91409 -0.04700
C 	C 	0.01690 0.88997 0.90826 0.08900
N 	N 	0.97990 0.85650 0.90423 -0.24400
C 	C 	0.06473 0.98804 0.91662 -0.00600
H 	H 	0.03050 0.00960 0.91330 0.03000
C 	C 	0.11352 0.01917 0.92394 -0.09600
H 	H 	0.11310 0.06220 0.92510 0.06400
C 	C 	0.23280 0.07678 0.92944 0.05500
C 	C 	0.23088 0.08954 0.90308 -0.08700
H 	H 	0.21590 0.06020 0.89170 0.06300
C 	C 	0.25039 0.14387 0.89392 -0.01400
H 	H 	0.24980 0.15160 0.87620 0.03900
C 	C 	0.27115 0.18774 0.91055 -0.02700
C 	C 	0.29061 0.24462 0.90109 0.07300
N 	N 	0.30602 0.29120 0.89356 -0.12900
C 	C 	0.27221 0.17683 0.93666 -0.01500
H 	H 	0.28580 0.20710 0.94800 0.03800
C 	C 	0.25336 0.12170 0.94587 -0.08500
H 	H 	0.25430 0.11410 0.96360 0.06400
C 	C 	0.69690 0.19829 0.22908 -0.00300
C 	C 	0.74135 0.20172 0.21057 -0.00000
C 	C 	0.74226 0.24051 0.23245 -0.00300
C 	C 	0.64615 0.17359 0.23708 -0.05800
C 	C 	0.76541 0.18213 0.18881 -0.05800
C 	C 	0.76461 0.28726 0.24565 -0.05300
C 	C 	0.62805 0.18304 0.26336 0.06300
C 	C 	0.66903 0.18767 0.28264 -0.09600
H 	H 	0.70810 0.18280 0.27850 0.06700
C 	C 	0.65393 0.19924 0.30764 -0.00100
H 	H 	0.68240 0.20280 0.32040 0.02600
C 	C 	0.59689 0.20554 0.31390 -0.05500
C 	C 	0.57954 0.21739 0.33950 0.09300
N 	N 	0.56733 0.22588 0.36023 -0.26700
C 	C 	0.55428 0.19889 0.29506 -0.00400
H 	H 	0.51510 0.20180 0.29950 0.02800
C 	C 	0.57036 0.18803 0.27014 -0.09900
H 	H 	0.54190 0.18390 0.25740 0.06400
C 	C 	0.61136 0.13897 0.21915 0.06000
C 	C 	0.58183 0.08675 0.22663 -0.09500
H 	H 	0.58300 0.07430 0.24390 0.06300
C 	C 	0.55102 0.05316 0.20934 -0.01100
H 	H 	0.53090 0.01810 0.21480 0.03900
C 	C 	0.54949 0.07079 0.18376 -0.04600
C 	C 	0.51981 0.03306 0.16593 0.09700
N 	N 	0.49766 0.99936 0.15248 -0.24600
C 	C 	0.57677 0.12384 0.17614 -0.00500
H 	H 	0.57400 0.13710 0.15900 0.03200
C 	C 	0.60787 0.15718 0.19351 -0.09200
H 	H 	0.62710 0.19280 0.18810 0.06600
C 	C 	0.74295 0.12767 0.17609 0.06100
C 	C 	0.72050 0.07923 0.19032 -0.08900
H 	H 	0.72310 0.08010 0.20830 0.06500
C 	C 	0.69494 0.03080 0.17854 -0.01100
H 	H 	0.67960 0.99840 0.18830 0.03600
C 	C 	0.69167 0.02957 0.15220 -0.03200
C 	C 	0.66221 0.98063 0.13963 0.07000
N 	N 	0.63745 0.94262 0.12952 -0.13400
C 	C 	0.71616 0.07634 0.13756 -0.00900
H 	H 	0.71460 0.07470 0.11950 0.03600
C 	C 	0.74208 0.12389 0.14930 -0.09700
H 	H 	0.75970 0.15470 0.13940 0.07600
C 	C 	0.81209 0.21786 0.17731 0.06800
C 	C 	0.86074 0.19108 0.16746 -0.10100
H 	H 	0.86400 0.14810 0.16730 0.06600
C 	C 	0.90485 0.22637 0.15787 0.00200
H 	H 	0.93890 0.20800 0.15180 0.01900
C 	C 	0.89832 0.28955 0.15726 -0.05200
C 	C 	0.94403 0.32746 0.14860 0.09800
N 	N 	0.97872 0.36053 0.14212 -0.25600
C 	C 	0.84829 0.31668 0.16632 0.00200
H 	H 	0.84340 0.35940 0.16540 0.03600
C 	C 	0.80635 0.28071 0.17662 -0.09700
H 	H 	0.77300 0.29900 0.18340 0.06700
C 	C 	0.82023 0.31441 0.23878 0.05500
C 	C 	0.86591 0.27664 0.23157 -0.08400
H 	H 	0.86110 0.23390 0.23130 0.06200
C 	C 	0.91789 0.30182 0.22483 -0.01900
H 	H 	0.94880 0.27650 0.22000 0.03700
C 	C 	0.92429 0.36378 0.22525 -0.02200
C 	C 	0.97717 0.39180 0.21844 0.05900
N 	N 	0.01930 0.41701 0.21240 -0.13100
C 	C 	0.87948 0.40235 0.23234 -0.02200
H 	H 	0.88430 0.44510 0.23220 0.03700
C 	C 	0.82776 0.37668 0.23962 -0.08800
H 	H 	0.79750 0.40200 0.24520 0.06100
C 	C 	0.73118 0.31538 0.26645 0.06000
C 	C 	0.75721 0.33350 0.28884 -0.09700
H 	H 	0.79740 0.32980 0.29060 0.06300
C 	C 	0.72530 0.35691 0.30874 -0.00700
H 	H 	0.74340 0.36910 0.32410 0.02700
C 	C 	0.66628 0.36229 0.30598 -0.04800
C 	C 	0.63103 0.38414 0.32638 0.09800
N 	N 	0.60146 0.40126 0.34196 -0.25500
C 	C 	0.63896 0.34484 0.28324 -0.00800
H 	H 	0.59890 0.34900 0.28130 0.04200
C 	C 	0.67205 0.32143 0.26381 -0.08900
H 	H 	0.65430 0.30930 0.24840 0.06600
Cu	Cu	0.03584 0.07516 0.63644 0.86600
C 	C 	0.20736 0.00669 0.47558 -0.00300
Cu	Cu	0.05241 0.27392 0.60342 0.86300
C 	C 	0.25250 0.05062 0.47937 -0.00000
C 	C 	0.25597 0.00738 0.45925 -0.00300
C 	C 	0.15643 0.98423 0.48336 -0.05500
C 	C 	0.27401 0.09795 0.49231 -0.05400
C 	C 	0.28543 0.98184 0.43971 -0.05200
C 	C 	0.05726 0.85733 0.46544 -0.00800
H 	H 	0.03230 0.82930 0.47340 0.03100
C 	C 	0.12385 0.94072 0.46820 0.05800
C 	C 	0.12835 0.94086 0.44153 -0.08900
H 	H 	0.15170 0.97020 0.43340 0.06800
C 	C 	0.09890 0.89851 0.42701 -0.01100
H 	H 	0.10320 0.89790 0.40910 0.04100
C 	C 	0.06325 0.85731 0.43883 -0.05000
C 	C 	0.03281 0.81411 0.42367 0.09500
N 	N 	0.00762 0.78059 0.41170 -0.25000
C 	C 	0.08759 0.89783 0.47975 -0.09700
H 	H 	0.08420 0.89710 0.49770 0.06400
C 	C 	0.13494 0.00351 0.50871 0.06000
C 	C 	0.07802 0.02018 0.51241 -0.09700
H 	H 	0.05260 0.02030 0.49840 0.06200
C 	C 	0.05827 0.03657 0.53625 -0.00800
H 	H 	0.01950 0.04740 0.53860 0.03300
C 	C 	0.09578 0.03690 0.55652 -0.05100
C 	C 	0.07605 0.05208 0.58120 0.09100
N 	N 	0.05947 0.06361 0.60127 -0.26400
C 	C 	0.15372 0.02032 0.55322 -0.00500
H 	H 	0.17930 0.02060 0.56720 0.02700
C 	C 	0.17224 0.00377 0.52938 -0.09400
H 	H 	0.21090 0.99240 0.52700 0.06500
C 	C 	0.24102 0.12984 0.51168 0.06200
C 	C 	0.18197 0.14008 0.50778 -0.09100
H 	H 	0.16410 0.12600 0.49270 0.06600
C 	C 	0.15013 0.17080 0.52602 -0.00300
H 	H 	0.11070 0.17810 0.52340 0.03500
C 	C 	0.17669 0.19076 0.54811 -0.05200
C 	C 	0.14325 0.22361 0.56699 0.10100
N 	N 	0.11672 0.24782 0.58169 -0.25800
C 	C 	0.23509 0.18280 0.55163 -0.00200
H 	H 	0.25330 0.19900 0.56620 0.02600
C 	C 	0.26575 0.15163 0.53402 -0.10000
H 	H 	0.30510 0.14450 0.53700 0.06400
C 	C 	0.33275 0.11827 0.48705 0.05400
C 	C 	0.34580 0.18074 0.48624 -0.08600
H 	H 	0.31660 0.20970 0.48920 0.06100
C 	C 	0.40110 0.20034 0.48120 -0.02000
H 	H 	0.40940 0.24250 0.48040 0.03700
C 	C 	0.44440 0.15750 0.47736 -0.02700
C 	C 	0.50136 0.18020 0.47325 0.06800
N 	N 	0.54665 0.19700 0.46951 -0.13300
C 	C 	0.43175 0.09646 0.47869 -0.01500
H 	H 	0.46130 0.06770 0.47620 0.03800
C 	C 	0.37751 0.07640 0.48349 -0.08400
H 	H 	0.37000 0.03410 0.48440 0.06300
C 	C 	0.33633 0.01345 0.42964 0.05900
C 	C 	0.33507 0.07557 0.42650 -0.08900
H 	H 	0.30060 0.09690 0.42960 0.06900
C 	C 	0.38300 0.10749 0.41893 -0.00700
H 	H 	0.38160 0.15030 0.41700 0.04100
C 	C 	0.43383 0.07548 0.41409 -0.04500
C 	C 	0.48310 0.11003 0.40826 0.08800
N 	N 	0.52010 0.14350 0.40423 -0.24400
C 	C 	0.43527 0.01196 0.41662 -0.00900
H 	H 	0.46950 0.99040 0.41330 0.03100
C 	C 	0.38648 0.98083 0.42394 -0.09300
H 	H 	0.38690 0.93780 0.42510 0.06300
C 	C 	0.26720 0.92322 0.42944 0.05500
C 	C 	0.26912 0.91046 0.40308 -0.08600
H 	H 	0.28410 0.93980 0.39170 0.06300
C 	C 	0.24961 0.85613 0.39392 -0.01400
H 	H 	0.25020 0.84840 0.37620 0.03900
C 	C 	0.22885 0.81226 0.41055 -0.02700
C 	C 	0.20939 0.75538 0.40109 0.07200
N 	N 	0.19398 0.70880 0.39356 -0.12900
C 	C 	0.22779 0.82317 0.43666 -0.01500
H 	H 	0.21420 0.79290 0.44800 0.03800
C 	C 	0.24664 0.87830 0.44587 -0.08500
H 	H 	0.24570 0.88590 0.46360 0.06400
C 	C 	0.80310 0.80171 0.72908 -0.00300
C 	C 	0.75865 0.79828 0.71057 -0.00000
C 	C 	0.75774 0.75949 0.73245 -0.00300
C 	C 	0.85385 0.82641 0.73708 -0.05800
C 	C 	0.73459 0.81787 0.68881 -0.05800
C 	C 	0.73539 0.71274 0.74565 -0.05300
C 	C 	0.87195 0.81696 0.76336 0.06300
C 	C 	0.83097 0.81233 0.78264 -0.09600
H 	H 	0.79190 0.81720 0.77850 0.06700
C 	C 	0.84607 0.80076 0.80764 -0.00100
H 	H 	0.81760 0.79720 0.82040 0.02600
C 	C 	0.90311 0.79446 0.81390 -0.05500
C 	C 	0.92046 0.78261 0.83950 0.09300
N 	N 	0.93267 0.77412 0.86023 -0.26700
C 	C 	0.94572 0.80111 0.79506 -0.00400
H 	H 	0.98490 0.79820 0.79950 0.02800
C 	C 	0.92964 0.81197 0.77014 -0.09900
H 	H 	0.95810 0.81610 0.75740 0.06400
C 	C 	0.88864 0.86103 0.71915 0.06000
C 	C 	0.91817 0.91325 0.72663 -0.09500
H 	H 	0.91700 0.92570 0.74390 0.06300
C 	C 	0.94898 0.94684 0.70934 -0.01100
H 	H 	0.96910 0.98190 0.71480 0.03900
C 	C 	0.95051 0.92921 0.68376 -0.04600
C 	C 	0.98019 0.96694 0.66593 0.09700
N 	N 	0.00234 0.00064 0.65248 -0.24600
C 	C 	0.92323 0.87616 0.67614 -0.00500
H 	H 	0.92600 0.86290 0.65900 0.03200
C 	C 	0.89213 0.84282 0.69351 -0.09200
H 	H 	0.87290 0.80720 0.68810 0.06600
C 	C 	0.75705 0.87233 0.67609 0.06100
C 	C 	0.77950 0.92077 0.69032 -0.08900
H 	H 	0.77690 0.91990 0.70830 0.06500
C 	C 	0.80506 0.96920 0.67854 -0.01200
H 	H 	0.82040 0.00160 0.68830 0.03600
C 	C 	0.80833 0.97043 0.65220 -0.03200
C 	C 	0.83779 0.01937 0.63963 0.07100
N 	N 	0.86255 0.05738 0.62952 -0.13400
C 	C 	0.78384 0.92366 0.63756 -0.00900
H 	H 	0.78540 0.92530 0.61950 0.03600
C 	C 	0.75792 0.87611 0.64930 -0.09700
H 	H 	0.74030 0.84530 0.63940 0.07600
C 	C 	0.68791 0.78214 0.67731 0.06800
C 	C 	0.63926 0.80892 0.66746 -0.10100
H 	H 	0.63600 0.85190 0.66730 0.06600
C 	C 	0.59515 0.77363 0.65787 0.00200
H 	H 	0.56110 0.79200 0.65180 0.01900
C 	C 	0.60168 0.71045 0.65726 -0.05200
C 	C 	0.55597 0.67254 0.64860 0.09800
N 	N 	0.52128 0.63947 0.64212 -0.25600
C 	C 	0.65171 0.68332 0.66632 0.00200
H 	H 	0.65660 0.64060 0.66540 0.03600
C 	C 	0.69365 0.71929 0.67662 -0.09700
H 	H 	0.72700 0.70100 0.68340 0.06700
C 	C 	0.67977 0.68559 0.73878 0.05500
C 	C 	0.63409 0.72336 0.73157 -0.08400
H 	H 	0.63890 0.76610 0.73130 0.06200
C 	C 	0.58211 0.69818 0.72483 -0.02000
H 	H 	0.55120 0.72350 0.72000 0.03700
C 	C 	0.57571 0.63622 0.72525 -0.02200
C 	C 	0.52283 0.60820 0.71844 0.05900
N 	N 	0.48070 0.58299 0.71240 -0.13100
C 	C 	0.62052 0.59765 0.73234 -0.02200
H 	H 	0.61570 0.55490 0.73220 0.03700
C 	C 	0.67224 0.62332 0.73962 -0.08800
H 	H 	0.70250 0.59800 0.74520 0.06100
C 	C 	0.76882 0.68462 0.76645 0.06000
C 	C 	0.74279 0.66650 0.78884 -0.09700
H 	H 	0.70260 0.67020 0.79060 0.06300
C 	C 	0.77470 0.64309 0.80874 -0.00700
H 	H 	0.75660 0.63090 0.82410 0.02700
C 	C 	0.83372 0.63771 0.80598 -0.04800
C 	C 	0.86897 0.61586 0.82638 0.09800
N 	N 	0.89854 0.59874 0.84196 -0.25500
C 	C 	0.86104 0.65516 0.78324 -0.00800
H 	H 	0.90110 0.65100 0.78130 0.04200
C 	C 	0.82795 0.67857 0.76381 -0.08900
H 	H 	0.84570 0.69070 0.74840 0.06600
Cu	Cu	0.53584 0.42484 0.36356 0.86600
C 	C 	0.70736 0.49331 0.52442 -0.00200
Cu	Cu	0.55241 0.22608 0.39658 0.86300
C 	C 	0.75250 0.44938 0.52063 -0.00000
C 	C 	0.75597 0.49262 0.54075 -0.00300
C 	C 	0.65643 0.51577 0.51664 -0.05600
C 	C 	0.77401 0.40205 0.50769 -0.05400
C 	C 	0.78543 0.51816 0.56029 -0.05300
C 	C 	0.55726 0.64267 0.53456 -0.00800
H 	H 	0.53230 0.67070 0.52660 0.03100
C 	C 	0.62385 0.55928 0.53180 0.05800
C 	C 	0.62835 0.55914 0.55847 -0.08900
H 	H 	0.65170 0.52980 0.56660 0.06800
C 	C 	0.59890 0.60149 0.57299 -0.01100
H 	H 	0.60320 0.60210 0.59090 0.04100
C 	C 	0.56325 0.64269 0.56117 -0.05000
C 	C 	0.53281 0.68589 0.57633 0.09500
N 	N 	0.50762 0.71941 0.58830 -0.25000
C 	C 	0.58759 0.60217 0.52025 -0.09700
H 	H 	0.58420 0.60290 0.50230 0.06400
C 	C 	0.63494 0.49649 0.49129 0.06000
C 	C 	0.57802 0.47982 0.48759 -0.09800
H 	H 	0.55260 0.47970 0.50160 0.06200
C 	C 	0.55827 0.46343 0.46375 -0.00800
H 	H 	0.51950 0.45260 0.46140 0.03300
C 	C 	0.59578 0.46310 0.44348 -0.05100
C 	C 	0.57605 0.44792 0.41880 0.09100
N 	N 	0.55947 0.43639 0.39873 -0.26400
C 	C 	0.65372 0.47968 0.44678 -0.00500
H 	H 	0.67930 0.47940 0.43280 0.02700
C 	C 	0.67224 0.49623 0.47062 -0.09400
H 	H 	0.71090 0.50760 0.47300 0.06500
C 	C 	0.74102 0.37016 0.48832 0.06200
C 	C 	0.68197 0.35992 0.49222 -0.09100
H 	H 	0.66410 0.37400 0.50730 0.06600
C 	C 	0.65013 0.32920 0.47398 -0.00300
H 	H 	0.61070 0.32190 0.47660 0.03500
C 	C 	0.67669 0.30924 0.45189 -0.05200
C 	C 	0.64325 0.27639 0.43301 0.10100
N 	N 	0.61672 0.25218 0.41831 -0.25800
C 	C 	0.73509 0.31720 0.44837 -0.00200
H 	H 	0.75330 0.30100 0.43380 0.02600
C 	C 	0.76575 0.34837 0.46598 -0.10000
H 	H 	0.80510 0.35550 0.46300 0.06400
C 	C 	0.83275 0.38173 0.51295 0.05400
C 	C 	0.84580 0.31926 0.51376 -0.08600
H 	H 	0.81660 0.29030 0.51080 0.06100
C 	C 	0.90110 0.29966 0.51880 -0.02000
H 	H 	0.90940 0.25750 0.51960 0.03700
C 	C 	0.94440 0.34250 0.52264 -0.02700
C 	C 	0.00136 0.31980 0.52675 0.06800
N 	N 	0.04665 0.30300 0.53049 -0.13300
C 	C 	0.93175 0.40354 0.52131 -0.01500
H 	H 	0.96130 0.43230 0.52380 0.03800
C 	C 	0.87751 0.42360 0.51651 -0.08400
H 	H 	0.87000 0.46590 0.51560 0.06300
C 	C 	0.83633 0.48655 0.57036 0.06000
C 	C 	0.83507 0.42443 0.57350 -0.08900
H 	H 	0.80060 0.40310 0.57040 0.06900
C 	C 	0.88300 0.39251 0.58107 -0.00700
H 	H 	0.88160 0.34970 0.58300 0.04100
C 	C 	0.93383 0.42452 0.58591 -0.04600
C 	C 	0.98310 0.38997 0.59174 0.08800
N 	N 	0.02010 0.35650 0.59577 -0.24400
C 	C 	0.93527 0.48804 0.58338 -0.00800
H 	H 	0.96950 0.50960 0.58670 0.03100
C 	C 	0.88648 0.51917 0.57606 -0.09400
H 	H 	0.88690 0.56220 0.57490 0.06400
C 	C 	0.76720 0.57678 0.57056 0.05500
C 	C 	0.76912 0.58954 0.59692 -0.08600
H 	H 	0.78410 0.56020 0.60830 0.06300
C 	C 	0.74961 0.64387 0.60608 -0.01400
H 	H 	0.75020 0.65160 0.62380 0.03900
C 	C 	0.72885 0.68774 0.58945 -0.02700
C 	C 	0.70939 0.74462 0.59891 0.07200
N 	N 	0.69398 0.79120 0.60644 -0.12900
C 	C 	0.72779 0.67683 0.56334 -0.01500
H 	H 	0.71420 0.70710 0.55200 0.03800
C 	C 	0.74664 0.62170 0.55413 -0.08500
H 	H 	0.74570 0.61410 0.53640 0.06400
C 	C 	0.30310 0.69829 0.27092 -0.00300
C 	C 	0.25865 0.70172 0.28943 -0.00000
C 	C 	0.25774 0.74051 0.26755 -0.00300
C 	C 	0.35385 0.67359 0.26292 -0.05800
C 	C 	0.23459 0.68213 0.31119 -0.05800
C 	C 	0.23539 0.78726 0.25435 -0.05300
C 	C 	0.37195 0.68304 0.23664 0.06300
C 	C 	0.33097 0.68767 0.21736 -0.09600
H 	H 	0.29190 0.68280 0.22150 0.06700
C 	C 	0.34607 0.69924 0.19236 -0.00100
H 	H 	0.31760 0.70280 0.17960 0.02600
C 	C 	0.40311 0.70554 0.18610 -0.05500
C 	C 	0.42046 0.71739 0.16050 0.09300
N 	N 	0.43267 0.72588 0.13977 -0.26700
C 	C 	0.44572 0.69889 0.20494 -0.00400
H 	H 	0.48490 0.70180 0.20050 0.02800
C 	C 	0.42964 0.68803 0.22986 -0.09900
H 	H 	0.45810 0.68390 0.24260 0.06400
C 	C 	0.38864 0.63897 0.28085 0.06000
C 	C 	0.41817 0.58675 0.27337 -0.09500
H 	H 	0.41700 0.57430 0.25610 0.06300
C 	C 	0.44898 0.55316 0.29066 -0.01100
H 	H 	0.46910 0.51810 0.28520 0.03900
C 	C 	0.45051 0.57079 0.31624 -0.04600
C 	C 	0.48019 0.53306 0.33407 0.09700
N 	N 	0.50234 0.49936 0.34752 -0.24600
C 	C 	0.42323 0.62384 0.32386 -0.00500
H 	H 	0.42600 0.63710 0.34100 0.03200
C 	C 	0.39213 0.65718 0.30649 -0.09200
H 	H 	0.37290 0.69280 0.31190 0.06600
C 	C 	0.25705 0.62767 0.32391 0.06100
C 	C 	0.27950 0.57923 0.30968 -0.08900
H 	H 	0.27690 0.58010 0.29170 0.06500
C 	C 	0.30506 0.53080 0.32146 -0.01100
H 	H 	0.32040 0.49840 0.31170 0.03600
C 	C 	0.30833 0.52957 0.34780 -0.03200
C 	C 	0.33779 0.48063 0.36037 0.07000
N 	N 	0.36255 0.44262 0.37048 -0.13400
C 	C 	0.28384 0.57634 0.36244 -0.00900
H 	H 	0.28540 0.57470 0.38050 0.03600
C 	C 	0.25792 0.62389 0.35070 -0.09700
H 	H 	0.24030 0.65470 0.36060 0.07600
C 	C 	0.18791 0.71786 0.32269 0.06800
C 	C 	0.13926 0.69108 0.33254 -0.10100
H 	H 	0.13600 0.64810 0.33270 0.06600
C 	C 	0.09515 0.72637 0.34213 0.00200
H 	H 	0.06110 0.70800 0.34820 0.01900
C 	C 	0.10168 0.78955 0.34274 -0.05200
C 	C 	0.05597 0.82746 0.35140 0.09800
N 	N 	0.02128 0.86053 0.35788 -0.25600
C 	C 	0.15171 0.81668 0.33368 0.00200
H 	H 	0.15660 0.85940 0.33460 0.03600
C 	C 	0.19365 0.78071 0.32338 -0.09700
H 	H 	0.22700 0.79900 0.31660 0.06700
C 	C 	0.17977 0.81441 0.26122 0.05500
C 	C 	0.13409 0.77664 0.26843 -0.08400
H 	H 	0.13890 0.73390 0.26870 0.06200
C 	C 	0.08211 0.80182 0.27517 -0.01900
H 	H 	0.05120 0.77650 0.28000 0.03700
C 	C 	0.07571 0.86378 0.27475 -0.02300
C 	C 	0.02283 0.89180 0.28156 0.06000
N 	N 	0.98070 0.91701 0.28760 -0.13100
C 	C 	0.12052 0.90235 0.26766 -0.02200
H 	H 	0.11570 0.94510 0.26780 0.03700
C 	C 	0.17224 0.87668 0.26038 -0.08800
H 	H 	0.20250 0.90200 0.25480 0.06100
C 	C 	0.26882 0.81538 0.23355 0.06000
C 	C 	0.24279 0.83350 0.21116 -0.09700
H 	H 	0.20260 0.82980 0.20940 0.06300
C 	C 	0.27470 0.85691 0.19126 -0.00700
H 	H 	0.25660 0.86910 0.17590 0.02700
C 	C 	0.33372 0.86229 0.19402 -0.04800
C 	C 	0.36897 0.88414 0.17362 0.09800
N 	N 	0.39854 0.90126 0.15804 -0.25500
C 	C 	0.36104 0.84484 0.21676 -0.00800
H 	H 	0.40110 0.84900 0.21870 0.04200
C 	C 	0.32795 0.82143 0.23619 -0.08900
H 	H 	0.34570 0.80930 0.25160 0.06600
Cu	Cu	0.96416 0.57516 0.86356 0.86600
C 	C 	0.79264 0.50669 0.02442 -0.00200
Cu	Cu	0.94759 0.77392 0.89658 0.86300
C 	C 	0.74750 0.55062 0.02063 -0.00000
C 	C 	0.74403 0.50738 0.04075 -0.00300
C 	C 	0.84357 0.48423 0.01664 -0.05600
C 	C 	0.72599 0.59795 0.00769 -0.05400
C 	C 	0.71457 0.48184 0.06029 -0.05300
C 	C 	0.94274 0.35733 0.03456 -0.00800
H 	H 	0.96770 0.32930 0.02660 0.03100
C 	C 	0.87615 0.44072 0.03180 0.05800
C 	C 	0.87165 0.44086 0.05847 -0.08900
H 	H 	0.84830 0.47020 0.06660 0.06800
C 	C 	0.90110 0.39851 0.07299 -0.01100
H 	H 	0.89680 0.39790 0.09090 0.04100
C 	C 	0.93675 0.35731 0.06117 -0.05000
C 	C 	0.96719 0.31411 0.07633 0.09500
N 	N 	0.99238 0.28059 0.08830 -0.25000
C 	C 	0.91241 0.39783 0.02025 -0.09700
H 	H 	0.91580 0.39710 0.00230 0.06400
C 	C 	0.86506 0.50351 0.99129 0.06000
C 	C 	0.92198 0.52018 0.98759 -0.09800
H 	H 	0.94740 0.52030 0.00160 0.06200
C 	C 	0.94173 0.53657 0.96375 -0.00800
H 	H 	0.98050 0.54740 0.96140 0.03300
C 	C 	0.90422 0.53690 0.94348 -0.05100
C 	C 	0.92395 0.55208 0.91880 0.09100
N 	N 	0.94053 0.56361 0.89873 -0.26400
C 	C 	0.84628 0.52032 0.94678 -0.00500
H 	H 	0.82070 0.52060 0.93280 0.02700
C 	C 	0.82776 0.50377 0.97062 -0.09400
H 	H 	0.78910 0.49240 0.97300 0.06500
C 	C 	0.75898 0.62984 0.98832 0.06200
C 	C 	0.81803 0.64008 0.99222 -0.09100
H 	H 	0.83590 0.62600 0.00730 0.06600
C 	C 	0.84987 0.67080 0.97398 -0.00300
H 	H 	0.88930 0.67810 0.97660 0.03500
C 	C 	0.82331 0.69076 0.95189 -0.05200
C 	C 	0.85675 0.72361 0.93301 0.10100
N 	N 	0.88328 0.74782 0.91831 -0.25800
C 	C 	0.76491 0.68280 0.94837 -0.00200
H 	H 	0.74670 0.69900 0.93380 0.02600
C 	C 	0.73425 0.65163 0.96598 -0.10000
H 	H 	0.69490 0.64450 0.96300 0.06400
C 	C 	0.66725 0.61827 0.01295 0.05400
C 	C 	0.65420 0.68074 0.01376 -0.08600
H 	H 	0.68340 0.70970 0.01080 0.06100
C 	C 	0.59890 0.70034 0.01880 -0.02000
H 	H 	0.59060 0.74250 0.01960 0.03700
C 	C 	0.55560 0.65750 0.02264 -0.02700
C 	C 	0.49864 0.68020 0.02675 0.06800
N 	N 	0.45335 0.69700 0.03049 -0.13300
C 	C 	0.56825 0.59646 0.02131 -0.01500
H 	H 	0.53870 0.56770 0.02380 0.03800
C 	C 	0.62249 0.57640 0.01651 -0.08400
H 	H 	0.63000 0.53410 0.01560 0.06300
C 	C 	0.66367 0.51345 0.07036 0.06000
C 	C 	0.66493 0.57557 0.07350 -0.08900
H 	H 	0.69940 0.59690 0.07040 0.06900
C 	C 	0.61700 0.60749 0.08107 -0.00700
H 	H 	0.61840 0.65030 0.08300 0.04100
C 	C 	0.56617 0.57548 0.08591 -0.04600
C 	C 	0.51690 0.61003 0.09174 0.08800
N 	N 	0.47990 0.64350 0.09577 -0.24400
C 	C 	0.56473 0.51196 0.08338 -0.00800
H 	H 	0.53050 0.49040 0.08670 0.03100
C 	C 	0.61352 0.48083 0.07606 -0.09400
H 	H 	0.61310 0.43780 0.07490 0.06400
C 	C 	0.73280 0.42322 0.07056 0.05500
C 	C 	0.73088 0.41046 0.09692 -0.08600
H 	H 	0.71590 0.43980 0.10830 0.06300
C 	C 	0.75039 0.35613 0.10608 -0.01400
H 	H 	0.74980 0.34840 0.12380 0.03900
C 	C 	0.77115 0.31226 0.08945 -0.02700
C 	C 	0.79061 0.25538 0.09891 0.07200
N 	N 	0.80602 0.20880 0.10644 -0.12900
C 	C 	0.77221 0.32317 0.06334 -0.01500
H 	H 	0.78580 0.29290 0.05200 0.03800
C 	C 	0.75336 0.37830 0.05413 -0.08500
H 	H 	0.75430 0.38590 0.03640 0.06400
C 	C 	0.19690 0.30171 0.77092 -0.00300
C 	C 	0.24135 0.29828 0.78943 -0.00000
C 	C 	0.24226 0.25949 0.76755 -0.00300
C 	C 	0.14615 0.32641 0.76292 -0.05800
C 	C 	0.26541 0.31787 0.81119 -0.05800
C 	C 	0.26461 0.21274 0.75435 -0.05300
C 	C 	0.12805 0.31696 0.73664 0.06300
C 	C 	0.16903 0.31233 0.71736 -0.09600
H 	H 	0.20810 0.31720 0.72150 0.06700
C 	C 	0.15393 0.30076 0.69236 -0.00100
H 	H 	0.18240 0.29720 0.67960 0.02600
C 	C 	0.09689 0.29446 0.68610 -0.05500
C 	C 	0.07954 0.28261 0.66050 0.09300
N 	N 	0.06733 0.27412 0.63977 -0.26700
C 	C 	0.05428 0.30111 0.70494 -0.00400
H 	H 	0.01510 0.29820 0.70050 0.02800
C 	C 	0.07036 0.31197 0.72986 -0.09900
H 	H 	0.04190 0.31610 0.74260 0.06400
C 	C 	0.11136 0.36103 0.78085 0.06000
C 	C 	0.08183 0.41325 0.77337 -0.09500
H 	H 	0.08300 0.42570 0.75610 0.06300
C 	C 	0.05102 0.44684 0.79066 -0.01100
H 	H 	0.03090 0.48190 0.78520 0.03900
C 	C 	0.04949 0.42921 0.81624 -0.04600
C 	C 	0.01981 0.46694 0.83407 0.09700
N 	N 	0.99766 0.50064 0.84752 -0.24600
C 	C 	0.07677 0.37616 0.82386 -0.00500
H 	H 	0.07400 0.36290 0.84100 0.03200
C 	C 	0.10787 0.34282 0.80649 -0.09200
H 	H 	0.12710 0.30720 0.81190 0.06600
C 	C 	0.24295 0.37233 0.82391 0.06100
C 	C 	0.22050 0.42077 0.80968 -0.08900
H 	H 	0.22310 0.41990 0.79170 0.06500
C 	C 	0.19494 0.46920 0.82146 -0.01100
H 	H 	0.17960 0.50160 0.81170 0.03600
C 	C 	0.19167 0.47043 0.84780 -0.03200
C 	C 	0.16221 0.51937 0.86037 0.07000
N 	N 	0.13745 0.55738 0.87048 -0.13400
C 	C 	0.21616 0.42366 0.86244 -0.00900
H 	H 	0.21460 0.42530 0.88050 0.03600
C 	C 	0.24208 0.37611 0.85070 -0.09700
H 	H 	0.25970 0.34530 0.86060 0.07600
C 	C 	0.31209 0.28214 0.82269 0.06800
C 	C 	0.36074 0.30892 0.83254 -0.10100
H 	H 	0.36400 0.35190 0.83270 0.06600
C 	C 	0.40485 0.27363 0.84213 0.00200
H 	H 	0.43890 0.29200 0.84820 0.01900
C 	C 	0.39832 0.21045 0.84274 -0.05200
C 	C 	0.44403 0.17254 0.85140 0.09800
N 	N 	0.47872 0.13947 0.85788 -0.25600
C 	C 	0.34829 0.18332 0.83368 0.00200
H 	H 	0.34340 0.14060 0.83460 0.03600
C 	C 	0.30635 0.21929 0.82338 -0.09700
H 	H 	0.27300 0.20100 0.81660 0.06700
C 	C 	0.32023 0.18559 0.76122 0.05500
C 	C 	0.36591 0.22336 0.76843 -0.08400
H 	H 	0.36110 0.26610 0.76870 0.06200
C 	C 	0.41789 0.19818 0.77517 -0.02000
H 	H 	0.44880 0.22350 0.78000 0.03700
C 	C 	0.42429 0.13622 0.77475 -0.02200
C 	C 	0.47717 0.10820 0.78156 0.05900
N 	N 	0.51930 0.08299 0.78760 -0.13100
C 	C 	0.37948 0.09765 0.76766 -0.02200
H 	H 	0.38430 0.05490 0.76780 0.03700
C 	C 	0.32776 0.12332 0.76038 -0.08800
H 	H 	0.29750 0.09800 0.75480 0.06100
C 	C 	0.23118 0.18462 0.73355 0.06000
C 	C 	0.25721 0.16650 0.71116 -0.09700
H 	H 	0.29740 0.17020 0.70940 0.06300
C 	C 	0.22530 0.14309 0.69126 -0.00700
H 	H 	0.24340 0.13090 0.67590 0.02700
C 	C 	0.16628 0.13771 0.69402 -0.04800
C 	C 	0.13103 0.11586 0.67362 0.09800
N 	N 	0.10146 0.09874 0.65804 -0.25500
C 	C 	0.13896 0.15516 0.71676 -0.00800
H 	H 	0.09890 0.15100 0.71870 0.04200
C 	C 	0.17205 0.17857 0.73619 -0.08900
H 	H 	0.15430 0.19070 0.75160 0.06600
Cu	Cu	0.53584 0.07516 0.86356 0.86600
C 	C 	0.70736 0.00669 0.02442 -0.00200
Cu	Cu	0.55241 0.27392 0.89658 0.86300
C 	C 	0.75250 0.05062 0.02063 -0.00100
C 	C 	0.75597 0.00738 0.04075 -0.00200
C 	C 	0.65643 0.98423 0.01664 -0.05600
C 	C 	0.77401 0.09795 0.00769 -0.05400
C 	C 	0.78543 0.98184 0.06029 -0.05400
C 	C 	0.55726 0.85733 0.03456 -0.00800
H 	H 	0.53230 0.82930 0.02660 0.03100
C 	C 	0.62385 0.94072 0.03180 0.05800
C 	C 	0.62835 0.94086 0.05847 -0.08900
H 	H 	0.65170 0.97020 0.06660 0.06800
C 	C 	0.59890 0.89851 0.07299 -0.01100
H 	H 	0.60320 0.89790 0.09090 0.04100
C 	C 	0.56325 0.85731 0.06117 -0.05000
C 	C 	0.53281 0.81411 0.07633 0.09500
N 	N 	0.50762 0.78059 0.08830 -0.25000
C 	C 	0.58759 0.89783 0.02025 -0.09700
H 	H 	0.58420 0.89710 0.00230 0.06400
C 	C 	0.63494 0.00351 0.99129 0.06000
C 	C 	0.57802 0.02018 0.98759 -0.09700
H 	H 	0.55260 0.02030 0.00160 0.06200
C 	C 	0.55827 0.03657 0.96375 -0.00800
H 	H 	0.51950 0.04740 0.96140 0.03300
C 	C 	0.59578 0.03690 0.94348 -0.05100
C 	C 	0.57605 0.05208 0.91880 0.09100
N 	N 	0.55947 0.06361 0.89873 -0.26400
C 	C 	0.65372 0.02032 0.94678 -0.00500
H 	H 	0.67930 0.02060 0.93280 0.02800
C 	C 	0.67224 0.00377 0.97062 -0.09300
H 	H 	0.71090 0.99240 0.97300 0.06500
C 	C 	0.74102 0.12984 0.98832 0.06100
C 	C 	0.68197 0.14008 0.99222 -0.09100
H 	H 	0.66410 0.12600 0.00730 0.06600
C 	C 	0.65013 0.17080 0.97398 -0.00300
H 	H 	0.61070 0.17810 0.97660 0.03500
C 	C 	0.67669 0.19076 0.95189 -0.05200
C 	C 	0.64325 0.22361 0.93301 0.10100
N 	N 	0.61672 0.24782 0.91831 -0.25800
C 	C 	0.73509 0.18280 0.94837 -0.00200
H 	H 	0.75330 0.19900 0.93380 0.02600
C 	C 	0.76575 0.15163 0.96598 -0.10000
H 	H 	0.80510 0.14450 0.96300 0.06400
C 	C 	0.83275 0.11827 0.01295 0.05400
C 	C 	0.84580 0.18074 0.01376 -0.08600
H 	H 	0.81660 0.20970 0.01080 0.06100
C 	C 	0.90110 0.20034 0.01880 -0.02000
H 	H 	0.90940 0.24250 0.01960 0.03700
C 	C 	0.94440 0.15750 0.02264 -0.02700
C 	C 	0.00136 0.18020 0.02675 0.06800
N 	N 	0.04665 0.19700 0.03049 -0.13300
C 	C 	0.93175 0.09646 0.02131 -0.01600
H 	H 	0.96130 0.06770 0.02380 0.03800
C 	C 	0.87751 0.07640 0.01651 -0.08400
H 	H 	0.87000 0.03410 0.01560 0.06300
C 	C 	0.83633 0.01345 0.07036 0.06100
C 	C 	0.83507 0.07557 0.07350 -0.09000
H 	H 	0.80060 0.09690 0.07040 0.06900
C 	C 	0.88300 0.10749 0.08107 -0.00600
H 	H 	0.88160 0.15030 0.08300 0.04000
C 	C 	0.93383 0.07548 0.08591 -0.04700
C 	C 	0.98310 0.11003 0.09174 0.08900
N 	N 	0.02010 0.14350 0.09577 -0.24400
C 	C 	0.93527 0.01196 0.08338 -0.00600
H 	H 	0.96950 0.99040 0.08670 0.03000
C 	C 	0.88648 0.98083 0.07606 -0.09600
H 	H 	0.88690 0.93780 0.07490 0.06400
C 	C 	0.76720 0.92322 0.07056 0.05500
C 	C 	0.76912 0.91046 0.09692 -0.08700
H 	H 	0.78410 0.93980 0.10830 0.06300
C 	C 	0.74961 0.85613 0.10608 -0.01400
H 	H 	0.75020 0.84840 0.12380 0.03900
C 	C 	0.72885 0.81226 0.08945 -0.02700
C 	C 	0.70939 0.75538 0.09891 0.07300
N 	N 	0.69398 0.70880 0.10644 -0.12900
C 	C 	0.72779 0.82317 0.06334 -0.01500
H 	H 	0.71420 0.79290 0.05200 0.03800
C 	C 	0.74664 0.87830 0.05413 -0.08500
H 	H 	0.74570 0.88590 0.03640 0.06400
C 	C 	0.30310 0.80171 0.77092 -0.00300
C 	C 	0.25865 0.79828 0.78943 -0.00000
C 	C 	0.25774 0.75949 0.76755 -0.00300
C 	C 	0.35385 0.82641 0.76292 -0.05800
C 	C 	0.23459 0.81787 0.81119 -0.05800
C 	C 	0.23539 0.71274 0.75435 -0.05300
C 	C 	0.37195 0.81696 0.73664 0.06300
C 	C 	0.33097 0.81233 0.71736 -0.09600
H 	H 	0.29190 0.81720 0.72150 0.06700
C 	C 	0.34607 0.80076 0.69236 -0.00100
H 	H 	0.31760 0.79720 0.67960 0.02600
C 	C 	0.40311 0.79446 0.68610 -0.05500
C 	C 	0.42046 0.78261 0.66050 0.09300
N 	N 	0.43267 0.77412 0.63977 -0.26700
C 	C 	0.44572 0.80111 0.70494 -0.00400
H 	H 	0.48490 0.79820 0.70050 0.02800
C 	C 	0.42964 0.81197 0.72986 -0.09900
H 	H 	0.45810 0.81610 0.74260 0.06400
C 	C 	0.38864 0.86103 0.78085 0.06000
C 	C 	0.41817 0.91325 0.77337 -0.09500
H 	H 	0.41700 0.92570 0.75610 0.06300
C 	C 	0.44898 0.94684 0.79066 -0.01100
H 	H 	0.46910 0.98190 0.78520 0.03900
C 	C 	0.45051 0.92921 0.81624 -0.04600
C 	C 	0.48019 0.96694 0.83407 0.09700
N 	N 	0.50234 0.00064 0.84752 -0.24600
C 	C 	0.42323 0.87616 0.82386 -0.00500
H 	H 	0.42600 0.86290 0.84100 0.03200
C 	C 	0.39213 0.84282 0.80649 -0.09200
H 	H 	0.37290 0.80720 0.81190 0.06600
C 	C 	0.25705 0.87233 0.82391 0.06100
C 	C 	0.27950 0.92077 0.80968 -0.08900
H 	H 	0.27690 0.91990 0.79170 0.06500
C 	C 	0.30506 0.96920 0.82146 -0.01100
H 	H 	0.32040 0.00160 0.81170 0.03600
C 	C 	0.30833 0.97043 0.84780 -0.03200
C 	C 	0.33779 0.01937 0.86037 0.07000
N 	N 	0.36255 0.05738 0.87048 -0.13400
C 	C 	0.28384 0.92366 0.86244 -0.00900
H 	H 	0.28540 0.92530 0.88050 0.03600
C 	C 	0.25792 0.87611 0.85070 -0.09700
H 	H 	0.24030 0.84530 0.86060 0.07600
C 	C 	0.18791 0.78214 0.82269 0.06800
C 	C 	0.13926 0.80892 0.83254 -0.10100
H 	H 	0.13600 0.85190 0.83270 0.06600
C 	C 	0.09515 0.77363 0.84213 0.00200
H 	H 	0.06110 0.79200 0.84820 0.01900
C 	C 	0.10168 0.71045 0.84274 -0.05200
C 	C 	0.05597 0.67254 0.85140 0.09800
N 	N 	0.02128 0.63947 0.85788 -0.25600
C 	C 	0.15171 0.68332 0.83368 0.00200
H 	H 	0.15660 0.64060 0.83460 0.03600
C 	C 	0.19365 0.71929 0.82338 -0.09700
H 	H 	0.22700 0.70100 0.81660 0.06700
C 	C 	0.17977 0.68559 0.76122 0.05500
C 	C 	0.13409 0.72336 0.76843 -0.08400
H 	H 	0.13890 0.76610 0.76870 0.06200
C 	C 	0.08211 0.69818 0.77517 -0.01900
H 	H 	0.05120 0.72350 0.78000 0.03700
C 	C 	0.07571 0.63622 0.77475 -0.02200
C 	C 	0.02283 0.60820 0.78156 0.05900
N 	N 	0.98070 0.58299 0.78760 -0.13100
C 	C 	0.12052 0.59765 0.76766 -0.02200
H 	H 	0.11570 0.55490 0.76780 0.03700
C 	C 	0.17224 0.62332 0.76038 -0.08800
H 	H 	0.20250 0.59800 0.75480 0.06100
C 	C 	0.26882 0.68462 0.73355 0.06000
C 	C 	0.24279 0.66650 0.71116 -0.09700
H 	H 	0.20260 0.67020 0.70940 0.06300
C 	C 	0.27470 0.64309 0.69126 -0.00700
H 	H 	0.25660 0.63090 0.67590 0.02700
C 	C 	0.33372 0.63771 0.69402 -0.04800
C 	C 	0.36897 0.61586 0.67362 0.09800
N 	N 	0.39854 0.59874 0.65804 -0.25500
C 	C 	0.36104 0.65516 0.71676 -0.00800
H 	H 	0.40110 0.65100 0.71870 0.04200
C 	C 	0.32795 0.67857 0.73619 -0.08900
H 	H 	0.34570 0.69070 0.75160 0.06600
Cu	Cu	0.96416 0.92484 0.36356 0.86600
C 	C 	0.79264 0.99331 0.52442 -0.00300
Cu	Cu	0.94759 0.72608 0.39658 0.86300
C 	C 	0.74750 0.94938 0.52063 -0.00000
C 	C 	0.74403 0.99262 0.54075 -0.00300
C 	C 	0.84357 0.01577 0.51664 -0.05500
C 	C 	0.72599 0.90205 0.50769 -0.05400
C 	C 	0.71457 0.01816 0.56029 -0.05200
C 	C 	0.94274 0.14267 0.53456 -0.00800
H 	H 	0.96770 0.17070 0.52660 0.03100
C 	C 	0.87615 0.05928 0.53180 0.05800
C 	C 	0.87165 0.05914 0.55847 -0.08900
H 	H 	0.84830 0.02980 0.56660 0.06800
C 	C 	0.90110 0.10149 0.57299 -0.01100
H 	H 	0.89680 0.10210 0.59090 0.04100
C 	C 	0.93675 0.14269 0.56117 -0.05000
C 	C 	0.96719 0.18589 0.57633 0.09500
N 	N 	0.99238 0.21941 0.58830 -0.25000
C 	C 	0.91241 0.10217 0.52025 -0.09700
H 	H 	0.91580 0.10290 0.50230 0.06400
C 	C 	0.86506 0.99649 0.49129 0.06000
C 	C 	0.92198 0.97982 0.48759 -0.09700
H 	H 	0.94740 0.97970 0.50160 0.06200
C 	C 	0.94173 0.96343 0.46375 -0.00800
H 	H 	0.98050 0.95260 0.46140 0.03300
C 	C 	0.90422 0.96310 0.44348 -0.05100
C 	C 	0.92395 0.94792 0.41880 0.09100
N 	N 	0.94053 0.93639 0.39873 -0.26400
C 	C 	0.84628 0.97968 0.44678 -0.00500
H 	H 	0.82070 0.97940 0.43280 0.02700
C 	C 	0.82776 0.99623 0.47062 -0.09400
H 	H 	0.78910 0.00760 0.47300 0.06500
C 	C 	0.75898 0.87016 0.48832 0.06200
C 	C 	0.81803 0.85992 0.49222 -0.09100
H 	H 	0.83590 0.87400 0.50730 0.06600
C 	C 	0.84987 0.82920 0.47398 -0.00300
H 	H 	0.88930 0.82190 0.47660 0.03500
C 	C 	0.82331 0.80924 0.45189 -0.05200
C 	C 	0.85675 0.77639 0.43301 0.10100
N 	N 	0.88328 0.75218 0.41831 -0.25800
C 	C 	0.76491 0.81720 0.44837 -0.00200
H 	H 	0.74670 0.80100 0.43380 0.02600
C 	C 	0.73425 0.84837 0.46598 -0.10000
H 	H 	0.69490 0.85550 0.46300 0.06400
C 	C 	0.66725 0.88173 0.51295 0.05400
C 	C 	0.65420 0.81926 0.51376 -0.08600
H 	H 	0.68340 0.79030 0.51080 0.06100
C 	C 	0.59890 0.79966 0.51880 -0.02000
H 	H 	0.59060 0.75750 0.51960 0.03700
C 	C 	0.55560 0.84250 0.52264 -0.02700
C 	C 	0.49864 0.81980 0.52675 0.06800
N 	N 	0.45335 0.80300 0.53049 -0.13300
C 	C 	0.56825 0.90354 0.52131 -0.01500
H 	H 	0.53870 0.93230 0.52380 0.03800
C 	C 	0.62249 0.92360 0.51651 -0.08400
H 	H 	0.63000 0.96590 0.51560 0.06300
C 	C 	0.66367 0.98655 0.57036 0.05900
C 	C 	0.66493 0.92443 0.57350 -0.08900
H 	H 	0.69940 0.90310 0.57040 0.06900
C 	C 	0.61700 0.89251 0.58107 -0.00700
H 	H 	0.61840 0.84970 0.58300 0.04100
C 	C 	0.56617 0.92452 0.58591 -0.04500
C 	C 	0.51690 0.88997 0.59174 0.08800
N 	N 	0.47990 0.85650 0.59577 -0.24400
C 	C 	0.56473 0.98804 0.58338 -0.00900
H 	H 	0.53050 0.00960 0.58670 0.03100
C 	C 	0.61352 0.01917 0.57606 -0.09300
H 	H 	0.61310 0.06220 0.57490 0.06300
C 	C 	0.73280 0.07678 0.57056 0.05500
C 	C 	0.73088 0.08954 0.59692 -0.08600
H 	H 	0.71590 0.06020 0.60830 0.06300
C 	C 	0.75039 0.14387 0.60608 -0.01400
H 	H 	0.74980 0.15160 0.62380 0.03900
C 	C 	0.77115 0.18774 0.58945 -0.02700
C 	C 	0.79061 0.24462 0.59891 0.07200
N 	N 	0.80602 0.29120 0.60644 -0.12900
C 	C 	0.77221 0.17683 0.56334 -0.01500
H 	H 	0.78580 0.20710 0.55200 0.03800
C 	C 	0.75336 0.12170 0.55413 -0.08500
H 	H 	0.75430 0.11410 0.53640 0.06400
C 	C 	0.19690 0.19829 0.27092 -0.00300
C 	C 	0.24135 0.20172 0.28943 -0.00000
C 	C 	0.24226 0.24051 0.26755 -0.00300
C 	C 	0.14615 0.17359 0.26292 -0.05800
C 	C 	0.26541 0.18213 0.31119 -0.05800
C 	C 	0.26461 0.28726 0.25435 -0.05300
C 	C 	0.12805 0.18304 0.23664 0.06300
C 	C 	0.16903 0.18767 0.21736 -0.09600
H 	H 	0.20810 0.18280 0.22150 0.06700
C 	C 	0.15393 0.19924 0.19236 -0.00100
H 	H 	0.18240 0.20280 0.17960 0.02600
C 	C 	0.09689 0.20554 0.18610 -0.05500
C 	C 	0.07954 0.21739 0.16050 0.09300
N 	N 	0.06733 0.22588 0.13977 -0.26700
C 	C 	0.05428 0.19889 0.20494 -0.00400
H 	H 	0.01510 0.20180 0.20050 0.02800
C 	C 	0.07036 0.18803 0.22986 -0.09900
H 	H 	0.04190 0.18390 0.24260 0.06400
C 	C 	0.11136 0.13897 0.28085 0.06000
C 	C 	0.08183 0.08675 0.27337 -0.09500
H 	H 	0.08300 0.07430 0.25610 0.06300
C 	C 	0.05102 0.05316 0.29066 -0.01100
H 	H 	0.03090 0.01810 0.28520 0.03900
C 	C 	0.04949 0.07079 0.31624 -0.04600
C 	C 	0.01981 0.03306 0.33407 0.09700
N 	N 	0.99766 0.99936 0.34752 -0.24600
C 	C 	0.07677 0.12384 0.32386 -0.00500
H 	H 	0.07400 0.13710 0.34100 0.03200
C 	C 	0.10787 0.15718 0.30649 -0.09200
H 	H 	0.12710 0.19280 0.31190 0.06600
C 	C 	0.24295 0.12767 0.32391 0.06100
C 	C 	0.22050 0.07923 0.30968 -0.08900
H 	H 	0.22310 0.08010 0.29170 0.06500
C 	C 	0.19494 0.03080 0.32146 -0.01200
H 	H 	0.17960 0.99840 0.31170 0.03600
C 	C 	0.19167 0.02957 0.34780 -0.03200
C 	C 	0.16221 0.98063 0.36037 0.07100
N 	N 	0.13745 0.94262 0.37048 -0.13400
C 	C 	0.21616 0.07634 0.36244 -0.00900
H 	H 	0.21460 0.07470 0.38050 0.03600
C 	C 	0.24208 0.12389 0.35070 -0.09700
H 	H 	0.25970 0.15470 0.36060 0.07600
C 	C 	0.31209 0.21786 0.32269 0.06800
C 	C 	0.36074 0.19108 0.33254 -0.10100
H 	H 	0.36400 0.14810 0.33270 0.06600
C 	C 	0.40485 0.22637 0.34213 0.00200
H 	H 	0.43890 0.20800 0.34820 0.01900
C 	C 	0.39832 0.28955 0.34274 -0.05200
C 	C 	0.44403 0.32746 0.35140 0.09800
N 	N 	0.47872 0.36053 0.35788 -0.25600
C 	C 	0.34829 0.31668 0.33368 0.00200
H 	H 	0.34340 0.35940 0.33460 0.03600
C 	C 	0.30635 0.28071 0.32338 -0.09700
H 	H 	0.27300 0.29900 0.31660 0.06700
C 	C 	0.32023 0.31441 0.26122 0.05500
C 	C 	0.36591 0.27664 0.26843 -0.08400
H 	H 	0.36110 0.23390 0.26870 0.06200
C 	C 	0.41789 0.30182 0.27517 -0.02000
H 	H 	0.44880 0.27650 0.28000 0.03700
C 	C 	0.42429 0.36378 0.27475 -0.02200
C 	C 	0.47717 0.39180 0.28156 0.05900
N 	N 	0.51930 0.41701 0.28760 -0.13100
C 	C 	0.37948 0.40235 0.26766 -0.02200
H 	H 	0.38430 0.44510 0.26780 0.03700
C 	C 	0.32776 0.37668 0.26038 -0.08800
H 	H 	0.29750 0.40200 0.25480 0.06100
C 	C 	0.23118 0.31538 0.23355 0.06000
C 	C 	0.25721 0.33350 0.21116 -0.09700
H 	H 	0.29740 0.32980 0.20940 0.06300
C 	C 	0.22530 0.35691 0.19126 -0.00700
H 	H 	0.24340 0.36910 0.17590 0.02700
C 	C 	0.16628 0.36229 0.19402 -0.04800
C 	C 	0.13103 0.38414 0.17362 0.09800
N 	N 	0.10146 0.40126 0.15804 -0.25500
C 	C 	0.13896 0.34484 0.21676 -0.00800
H 	H 	0.09890 0.34900 0.21870 0.04200
C 	C 	0.17205 0.32143 0.23619 -0.08900
H 	H 	0.15430 0.30930 0.25160 0.06600
Cu	Cu	0.46416 0.57516 0.63644 0.86600
C 	C 	0.29264 0.50669 0.47558 -0.00200
Cu	Cu	0.44759 0.77392 0.60342 0.86300
C 	C 	0.24750 0.55062 0.47937 -0.00000
C 	C 	0.24403 0.50738 0.45925 -0.00300
C 	C 	0.34357 0.48423 0.48336 -0.05600
C 	C 	0.22599 0.59795 0.49231 -0.05400
C 	C 	0.21457 0.48184 0.43971 -0.05300
C 	C 	0.44274 0.35733 0.46544 -0.00800
H 	H 	0.46770 0.32930 0.47340 0.03100
C 	C 	0.37615 0.44072 0.46820 0.05800
C 	C 	0.37165 0.44086 0.44153 -0.08900
H 	H 	0.34830 0.47020 0.43340 0.06800
C 	C 	0.40110 0.39851 0.42701 -0.01100
H 	H 	0.39680 0.39790 0.40910 0.04100
C 	C 	0.43675 0.35731 0.43883 -0.05000
C 	C 	0.46719 0.31411 0.42367 0.09500
N 	N 	0.49238 0.28059 0.41170 -0.25000
C 	C 	0.41241 0.39783 0.47975 -0.09700
H 	H 	0.41580 0.39710 0.49770 0.06400
C 	C 	0.36506 0.50351 0.50871 0.06000
C 	C 	0.42198 0.52018 0.51241 -0.09800
H 	H 	0.44740 0.52030 0.49840 0.06200
C 	C 	0.44173 0.53657 0.53625 -0.00800
H 	H 	0.48050 0.54740 0.53860 0.03300
C 	C 	0.40422 0.53690 0.55652 -0.05100
C 	C 	0.42395 0.55208 0.58120 0.09100
N 	N 	0.44053 0.56361 0.60127 -0.26400
C 	C 	0.34628 0.52032 0.55322 -0.00500
H 	H 	0.32070 0.52060 0.56720 0.02700
C 	C 	0.32776 0.50377 0.52938 -0.09400
H 	H 	0.28910 0.49240 0.52700 0.06500
C 	C 	0.25898 0.62984 0.51168 0.06200
C 	C 	0.31803 0.64008 0.50778 -0.09100
H 	H 	0.33590 0.62600 0.49270 0.06600
C 	C 	0.34987 0.67080 0.52602 -0.00300
H 	H 	0.38930 0.67810 0.52340 0.03500
C 	C 	0.32331 0.69076 0.54811 -0.05200
C 	C 	0.35675 0.72361 0.56699 0.10100
N 	N 	0.38328 0.74782 0.58169 -0.25800
C 	C 	0.26491 0.68280 0.55163 -0.00200
H 	H 	0.24670 0.69900 0.56620 0.02600
C 	C 	0.23425 0.65163 0.53402 -0.10000
H 	H 	0.19490 0.64450 0.53700 0.06400
C 	C 	0.16725 0.61827 0.48705 0.05400
C 	C 	0.15420 0.68074 0.48624 -0.08600
H 	H 	0.18340 0.70970 0.48920 0.06100
C 	C 	0.09890 0.70034 0.48120 -0.02000
H 	H 	0.09060 0.74250 0.48040 0.03700
C 	C 	0.05560 0.65750 0.47736 -0.02700
C 	C 	0.99864 0.68020 0.47325 0.06800
N 	N 	0.95335 0.69700 0.46951 -0.13300
C 	C 	0.06825 0.59646 0.47869 -0.01500
H 	H 	0.03870 0.56770 0.47620 0.03800
C 	C 	0.12249 0.57640 0.48349 -0.08400
H 	H 	0.13000 0.53410 0.48440 0.06300
C 	C 	0.16367 0.51345 0.42964 0.06000
C 	C 	0.16493 0.57557 0.42650 -0.08900
H 	H 	0.19940 0.59690 0.42960 0.06900
C 	C 	0.11700 0.60749 0.41893 -0.00700
H 	H 	0.11840 0.65030 0.41700 0.04100
C 	C 	0.06617 0.57548 0.41409 -0.04600
C 	C 	0.01690 0.61003 0.40826 0.08800
N 	N 	0.97990 0.64350 0.40423 -0.24400
C 	C 	0.06473 0.51196 0.41662 -0.00800
H 	H 	0.03050 0.49040 0.41330 0.03100
C 	C 	0.11352 0.48083 0.42394 -0.09400
H 	H 	0.11310 0.43780 0.42510 0.06400
C 	C 	0.23280 0.42322 0.42944 0.05500
C 	C 	0.23088 0.41046 0.40308 -0.08600
H 	H 	0.21590 0.43980 0.39170 0.06300
C 	C 	0.25039 0.35613 0.39392 -0.01400
H 	H 	0.24980 0.34840 0.37620 0.03900
C 	C 	0.27115 0.31226 0.41055 -0.02700
C 	C 	0.29061 0.25538 0.40109 0.07200
N 	N 	0.30602 0.20880 0.39356 -0.12900
C 	C 	0.27221 0.32317 0.43666 -0.01500
H 	H 	0.28580 0.29290 0.44800 0.03800
C 	C 	0.25336 0.37830 0.44587 -0.08500
H 	H 	0.25430 0.38590 0.46360 0.06400
C 	C 	0.69690 0.30171 0.72908 -0.00300
C 	C 	0.74135 0.29828 0.71057 -0.00000
C 	C 	0.74226 0.25949 0.73245 -0.00300
C 	C 	0.64615 0.32641 0.73708 -0.05800
C 	C 	0.76541 0.31787 0.68881 -0.05800
C 	C 	0.76461 0.21274 0.74565 -0.05300
C 	C 	0.62805 0.31696 0.76336 0.06300
C 	C 	0.66903 0.31233 0.78264 -0.09600
H 	H 	0.70810 0.31720 0.77850 0.06700
C 	C 	0.65393 0.30076 0.80764 -0.00100
H 	H 	0.68240 0.29720 0.82040 0.02600
C 	C 	0.59689 0.29446 0.81390 -0.05500
C 	C 	0.57954 0.28261 0.83950 0.09300
N 	N 	0.56733 0.27412 0.86023 -0.26700
C 	C 	0.55428 0.30111 0.79506 -0.00400
H 	H 	0.51510 0.29820 0.79950 0.02800
C 	C 	0.57036 0.31197 0.77014 -0.09900
H 	H 	0.54190 0.31610 0.75740 0.06400
C 	C 	0.61136 0.36103 0.71915 0.06000
C 	C 	0.58183 0.41325 0.72663 -0.09500
H 	H 	0.58300 0.42570 0.74390 0.06300
C 	C 	0.55102 0.44684 0.70934 -0.01100
H 	H 	0.53090 0.48190 0.71480 0.03900
C 	C 	0.54949 0.42921 0.68376 -0.04600
C 	C 	0.51981 0.46694 0.66593 0.09700
N 	N 	0.49766 0.50064 0.65248 -0.24600
C 	C 	0.57677 0.37616 0.67614 -0.00500
H 	H 	0.57400 0.36290 0.65900 0.03200
C 	C 	0.60787 0.34282 0.69351 -0.09200
H 	H 	0.62710 0.30720 0.68810 0.06600
C 	C 	0.74295 0.37233 0.67609 0.06100
C 	C 	0.72050 0.42077 0.69032 -0.08900
H 	H 	0.72310 0.41990 0.70830 0.06500
C 	C 	0.69494 0.46920 0.67854 -0.01100
H 	H 	0.67960 0.50160 0.68830 0.03600
C 	C 	0.69167 0.47043 0.65220 -0.03200
C 	C 	0.66221 0.51937 0.63963 0.07000
N 	N 	0.63745 0.55738 0.62952 -0.13400
C 	C 	0.71616 0.42366 0.63756 -0.00900
H 	H 	0.71460 0.42530 0.61950 0.03600
C 	C 	0.74208 0.37611 0.64930 -0.09700
H 	H 	0.75970 0.34530 0.63940 0.07600
C 	C 	0.81209 0.28214 0.67731 0.06800
C 	C 	0.86074 0.30892 0.66746 -0.10100
H 	H 	0.86400 0.35190 0.66730 0.06600
C 	C 	0.90485 0.27363 0.65787 0.00200
H 	H 	0.93890 0.29200 0.65180 0.01900
C 	C 	0.89832 0.21045 0.65726 -0.05200
C 	C 	0.94403 0.17254 0.64860 0.09800
N 	N 	0.97872 0.13947 0.64212 -0.25600
C 	C 	0.84829 0.18332 0.66632 0.00200
H 	H 	0.84340 0.14060 0.66540 0.03600
C 	C 	0.80635 0.21929 0.67662 -0.09700
H 	H 	0.77300 0.20100 0.68340 0.06700
C 	C 	0.82023 0.18559 0.73878 0.05500
C 	C 	0.86591 0.22336 0.73157 -0.08400
H 	H 	0.86110 0.26610 0.73130 0.06200
C 	C 	0.91789 0.19818 0.72483 -0.01900
H 	H 	0.94880 0.22350 0.72000 0.03700
C 	C 	0.92429 0.13622 0.72525 -0.02300
C 	C 	0.97717 0.10820 0.71844 0.06000
N 	N 	0.01930 0.08299 0.71240 -0.13100
C 	C 	0.87948 0.09765 0.73234 -0.02200
H 	H 	0.88430 0.05490 0.73220 0.03700
C 	C 	0.82776 0.12332 0.73962 -0.08800
H 	H 	0.79750 0.09800 0.74520 0.06100
C 	C 	0.73118 0.18462 0.76645 0.06000
C 	C 	0.75721 0.16650 0.78884 -0.09700
H 	H 	0.79740 0.17020 0.79060 0.06300
C 	C 	0.72530 0.14309 0.80874 -0.00700
H 	H 	0.74340 0.13090 0.82410 0.02700
C 	C 	0.66628 0.13771 0.80598 -0.04800
C 	C 	0.63103 0.11586 0.82638 0.09800
N 	N 	0.60146 0.09874 0.84196 -0.25500
C 	C 	0.63896 0.15516 0.78324 -0.00800
H 	H 	0.59890 0.15100 0.78130 0.04200
C 	C 	0.67205 0.17857 0.76381 -0.08900
H 	H 	0.65430 0.19070 0.74840 0.06600
Cu	Cu	0.03584 0.42484 0.13644 0.86600
C 	C 	0.20736 0.49331 0.97558 -0.00200
Cu	Cu	0.05241 0.22608 0.10342 0.86300
C 	C 	0.25250 0.44938 0.97937 -0.00000
C 	C 	0.25597 0.49262 0.95925 -0.00300
C 	C 	0.15643 0.51577 0.98336 -0.05600
C 	C 	0.27401 0.40205 0.99231 -0.05400
C 	C 	0.28543 0.51816 0.93971 -0.05300
C 	C 	0.05726 0.64267 0.96544 -0.00800
H 	H 	0.03230 0.67070 0.97340 0.03100
C 	C 	0.12385 0.55928 0.96820 0.05800
C 	C 	0.12835 0.55914 0.94153 -0.08900
H 	H 	0.15170 0.52980 0.93340 0.06800
C 	C 	0.09890 0.60149 0.92701 -0.01100
H 	H 	0.10320 0.60210 0.90910 0.04100
C 	C 	0.06325 0.64269 0.93883 -0.05000
C 	C 	0.03281 0.68589 0.92367 0.09500
N 	N 	0.00762 0.71941 0.91170 -0.25000
C 	C 	0.08759 0.60217 0.97975 -0.09700
H 	H 	0.08420 0.60290 0.99770 0.06400
C 	C 	0.13494 0.49649 0.00871 0.06000
C 	C 	0.07802 0.47982 0.01241 -0.09800
H 	H 	0.05260 0.47970 0.99840 0.06200
C 	C 	0.05827 0.46343 0.03625 -0.00800
H 	H 	0.01950 0.45260 0.03860 0.03300
C 	C 	0.09578 0.46310 0.05652 -0.05100
C 	C 	0.07605 0.44792 0.08120 0.09100
N 	N 	0.05947 0.43639 0.10127 -0.26400
C 	C 	0.15372 0.47968 0.05322 -0.00500
H 	H 	0.17930 0.47940 0.06720 0.02700
C 	C 	0.17224 0.49623 0.02938 -0.09400
H 	H 	0.21090 0.50760 0.02700 0.06500
C 	C 	0.24102 0.37016 0.01168 0.06200
C 	C 	0.18197 0.35992 0.00778 -0.09100
H 	H 	0.16410 0.37400 0.99270 0.06600
C 	C 	0.15013 0.32920 0.02602 -0.00300
H 	H 	0.11070 0.32190 0.02340 0.03500
C 	C 	0.17669 0.30924 0.04811 -0.05200
C 	C 	0.14325 0.27639 0.06699 0.10100
N 	N 	0.11672 0.25218 0.08169 -0.25800
C 	C 	0.23509 0.31720 0.05163 -0.00200
H 	H 	0.25330 0.30100 0.06620 0.02600
C 	C 	0.26575 0.34837 0.03402 -0.10000
H 	H 	0.30510 0.35550 0.03700 0.06400
C 	C 	0.33275 0.38173 0.98705 0.05400
C 	C 	0.34580 0.31926 0.98624 -0.08600
H 	H 	0.31660 0.29030 0.98920 0.06100
C 	C 	0.40110 0.29966 0.98120 -0.02000
H 	H 	0.40940 0.25750 0.98040 0.03700
C 	C 	0.44440 0.34250 0.97736 -0.02700
C 	C 	0.50136 0.31980 0.97325 0.06800
N 	N 	0.54665 0.30300 0.96951 -0.13300
C 	C 	0.43175 0.40354 0.97869 -0.01500
H 	H 	0.46130 0.43230 0.97620 0.03800
C 	C 	0.37751 0.42360 0.98349 -0.08400
H 	H 	0.37000 0.46590 0.98440 0.06300
C 	C 	0.33633 0.48655 0.92964 0.06000
C 	C 	0.33507 0.42443 0.92650 -0.08900
H 	H 	0.30060 0.40310 0.92960 0.06900
C 	C 	0.38300 0.39251 0.91893 -0.00700
H 	H 	0.38160 0.34970 0.91700 0.04100
C 	C 	0.43383 0.42452 0.91409 -0.04600
C 	C 	0.48310 0.38997 0.90826 0.08800
N 	N 	0.52010 0.35650 0.90423 -0.24400
C 	C 	0.43527 0.48804 0.91662 -0.00800
H 	H 	0.46950 0.50960 0.91330 0.03100
C 	C 	0.38648 0.51917 0.92394 -0.09400
H 	H 	0.38690 0.56220 0.92510 0.06400
C 	C 	0.26720 0.57678 0.92944 0.05500
C 	C 	0.26912 0.58954 0.90308 -0.08600
H 	H 	0.28410 0.56020 0.89170 0.06300
C 	C 	0.24961 0.64387 0.89392 -0.01400
H 	H 	0.25020 0.65160 0.87620 0.03900
C 	C 	0.22885 0.68774 0.91055 -0.02700
C 	C 	0.20939 0.74462 0.90109 0.07200
N 	N 	0.19398 0.79120 0.89356 -0.12900
C 	C 	0.22779 0.67683 0.93666 -0.01500
H 	H 	0.21420 0.70710 0.94800 0.03800
C 	C 	0.24664 0.62170 0.94587 -0.08500
H 	H 	0.24570 0.61410 0.96360 0.06400
C 	C 	0.80310 0.69829 0.22908 -0.00300
C 	C 	0.75865 0.70172 0.21057 -0.00000
C 	C 	0.75774 0.74051 0.23245 -0.00300
C 	C 	0.85385 0.67359 0.23708 -0.05800
C 	C 	0.73459 0.68213 0.18881 -0.05800
C 	C 	0.73539 0.78726 0.24565 -0.05300
C 	C 	0.87195 0.68304 0.26336 0.06300
C 	C 	0.83097 0.68767 0.28264 -0.09600
H 	H 	0.79190 0.68280 0.27850 0.06700
C 	C 	0.84607 0.69924 0.30764 -0.00100
H 	H 	0.81760 0.70280 0.32040 0.02600
C 	C 	0.90311 0.70554 0.31390 -0.05500
C 	C 	0.92046 0.71739 0.33950 0.09300
N 	N 	0.93267 0.72588 0.36023 -0.26700
C 	C 	0.94572 0.69889 0.29506 -0.00400
H 	H 	0.98490 0.70180 0.29950 0.02800
C 	C 	0.92964 0.68803 0.27014 -0.09900
H 	H 	0.95810 0.68390 0.25740 0.06400
C 	C 	0.88864 0.63897 0.21915 0.06000
C 	C 	0.91817 0.58675 0.22663 -0.09500
H 	H 	0.91700 0.57430 0.24390 0.06300
C 	C 	0.94898 0.55316 0.20934 -0.01100
H 	H 	0.96910 0.51810 0.21480 0.03900
C 	C 	0.95051 0.57079 0.18376 -0.04600
C 	C 	0.98019 0.53306 0.16593 0.09700
N 	N 	0.00234 0.49936 0.15248 -0.24600
C 	C 	0.92323 0.62384 0.17614 -0.00500
H 	H 	0.92600 0.63710 0.15900 0.03200
C 	C 	0.89213 0.65718 0.19351 -0.09200
H 	H 	0.87290 0.69280 0.18810 0.06600
C 	C 	0.75705 0.62767 0.17609 0.06100
C 	C 	0.77950 0.57923 0.19032 -0.08900
H 	H 	0.77690 0.58010 0.20830 0.06500
C 	C 	0.80506 0.53080 0.17854 -0.01100
H 	H 	0.82040 0.49840 0.18830 0.03600
C 	C 	0.80833 0.52957 0.15220 -0.03200
C 	C 	0.83779 0.48063 0.13963 0.07000
N 	N 	0.86255 0.44262 0.12952 -0.13400
C 	C 	0.78384 0.57634 0.13756 -0.00900
H 	H 	0.78540 0.57470 0.11950 0.03600
C 	C 	0.75792 0.62389 0.14930 -0.09700
H 	H 	0.74030 0.65470 0.13940 0.07600
C 	C 	0.68791 0.71786 0.17731 0.06800
C 	C 	0.63926 0.69108 0.16746 -0.10100
H 	H 	0.63600 0.64810 0.16730 0.06600
C 	C 	0.59515 0.72637 0.15787 0.00200
H 	H 	0.56110 0.70800 0.15180 0.01900
C 	C 	0.60168 0.78955 0.15726 -0.05200
C 	C 	0.55597 0.82746 0.14860 0.09800
N 	N 	0.52128 0.86053 0.14212 -0.25600
C 	C 	0.65171 0.81668 0.16632 0.00200
H 	H 	0.65660 0.85940 0.16540 0.03600
C 	C 	0.69365 0.78071 0.17662 -0.09700
H 	H 	0.72700 0.79900 0.18340 0.06700
C 	C 	0.67977 0.81441 0.23878 0.05500
C 	C 	0.63409 0.77664 0.23157 -0.08400
H 	H 	0.63890 0.73390 0.23130 0.06200
C 	C 	0.58211 0.80182 0.22483 -0.02000
H 	H 	0.55120 0.77650 0.22000 0.03700
C 	C 	0.57571 0.86378 0.22525 -0.02200
C 	C 	0.52283 0.89180 0.21844 0.05900
N 	N 	0.48070 0.91701 0.21240 -0.13100
C 	C 	0.62052 0.90235 0.23234 -0.02200
H 	H 	0.61570 0.94510 0.23220 0.03700
C 	C 	0.67224 0.87668 0.23962 -0.08800
H 	H 	0.70250 0.90200 0.24520 0.06100
C 	C 	0.76882 0.81538 0.26645 0.06000
C 	C 	0.74279 0.83350 0.28884 -0.09700
H 	H 	0.70260 0.82980 0.29060 0.06300
C 	C 	0.77470 0.85691 0.30874 -0.00700
H 	H 	0.75660 0.86910 0.32410 0.02700
C 	C 	0.83372 0.86229 0.30598 -0.04800
C 	C 	0.86897 0.88414 0.32638 0.09800
N 	N 	0.89854 0.90126 0.34196 -0.25500
C 	C 	0.86104 0.84484 0.28324 -0.00800
H 	H 	0.90110 0.84900 0.28130 0.04200
C 	C 	0.82795 0.82143 0.26381 -0.08900
H 	H 	0.84570 0.80930 0.24840 0.06600
