data_crystal

_cell_length_a 19.45500
_cell_length_b 30.38900
_cell_length_c 24.23000
_cell_angle_alpha 90.00000
_cell_angle_beta  90.00000
_cell_angle_gamma 90.00000

_symmetry_space_group_name_	'P 1'
_symmetry_space_group_name_H-M	'P 1'

loop_
_symmetry_equiv_pos_as_xyz
  x,y,z

loop_
_atom_site_label
_atom_site_type_symbol
_atom_site_fract_x
_atom_site_fract_y
_atom_site_fract_z
_atom_site_charge
O 	O 	0.15812 0.24943 0.43896 -0.52900
O 	O 	0.22740 0.30680 0.44150 -0.51900
O 	O 	0.14250 0.53590 0.06920 -0.32600
O 	O 	0.22580 0.48866 0.07120 -0.37000
O 	O 	0.21972 0.08901 0.44044 -0.52800
O 	O 	0.14401 0.14389 0.43598 -0.50800
C 	C 	0.05694 0.34999 0.29673 -0.16000
C 	C 	0.11460 0.37032 0.32025 -0.01900
H 	H 	0.12640 0.39860 0.30920 0.03300
C 	C 	0.03850 0.30898 0.31623 -0.07900
H 	H 	0.99950 0.29530 0.30240 0.07000
C 	C 	0.07830 0.28755 0.35697 0.03800
H 	H 	0.06560 0.25980 0.36950 0.01400
C 	C 	0.15420 0.34940 0.35934 0.01700
H 	H 	0.19320 0.36320 0.37310 0.04000
C 	C 	0.13640 0.30799 0.37837 -0.16000
C 	C 	0.17690 0.28661 0.42273 0.50500
C 	C 	0.05320 0.41904 0.20319 -0.18200
C 	C 	0.02710 0.46130 0.18220 -0.02600
C 	C 	0.12270 0.41040 0.18880 -0.01500
C 	C 	0.06210 0.48550 0.14240 0.04700
C 	C 	0.15910 0.43660 0.15120 0.06800
C 	C 	0.12810 0.46974 0.12570 -0.28300
C 	C 	0.16480 0.49592 0.08570 0.73400
C 	C 	0.05480 0.03510 0.29658 -0.16200
C 	C 	0.11720 0.02053 0.31525 -0.01800
H 	H 	0.13500 0.99430 0.30150 0.03200
C 	C 	0.02920 0.07473 0.31763 -0.08100
H 	H 	0.98750 0.08570 0.30490 0.07000
C 	C 	0.06620 0.09810 0.35804 0.02900
H 	H 	0.04840 0.12420 0.37200 0.01700
C 	C 	0.15530 0.04452 0.35506 -0.00700
H 	H 	0.19820 0.03460 0.36640 0.05200
C 	C 	0.12800 0.08294 0.37698 -0.14400
C 	C 	0.16740 0.10720 0.42111 0.47300
C 	C 	0.05150 0.40320 0.14380 -0.02700
C 	C 	0.08860 0.45180 0.21720 0.01500
C 	C 	0.08810 0.43000 0.10540 0.03600
C 	C 	0.12680 0.47660 0.18000 0.05700
O 	O 	0.16450 0.48040 0.03500 -0.37100
O 	O 	0.18990 0.52760 0.09590 -0.33800
O 	O 	0.65812 0.74943 0.43896 -0.52300
O 	O 	0.72740 0.80680 0.44150 -0.51500
O 	O 	0.64250 0.03590 0.06920 -0.32500
O 	O 	0.72580 0.98866 0.07120 -0.36600
O 	O 	0.71972 0.58901 0.44044 -0.52300
O 	O 	0.64401 0.64389 0.43598 -0.50200
C 	C 	0.55694 0.84999 0.29673 -0.22500
C 	C 	0.61460 0.87032 0.32025 0.03500
H 	H 	0.62640 0.89860 0.30920 0.01600
C 	C 	0.53850 0.80898 0.31623 0.03700
H 	H 	0.49950 0.79530 0.30240 0.00400
C 	C 	0.57830 0.78755 0.35697 -0.02900
H 	H 	0.56560 0.75980 0.36950 0.04300
C 	C 	0.65420 0.84940 0.35934 -0.02600
H 	H 	0.69320 0.86320 0.37310 0.05600
C 	C 	0.63640 0.80799 0.37837 -0.11900
C 	C 	0.67690 0.78661 0.42273 0.49000
C 	C 	0.55320 0.91904 0.20319 -0.21100
C 	C 	0.52710 0.96130 0.18220 -0.00700
C 	C 	0.62270 0.91040 0.18880 -0.00900
C 	C 	0.56210 0.98550 0.14240 0.05900
C 	C 	0.65910 0.93660 0.15120 0.07000
C 	C 	0.62810 0.96974 0.12570 -0.28700
C 	C 	0.66480 0.99592 0.08570 0.74700
C 	C 	0.55480 0.53510 0.29658 -0.24500
C 	C 	0.61720 0.52053 0.31525 0.06300
H 	H 	0.63500 0.49430 0.30150 -0.00000
C 	C 	0.52920 0.57473 0.31763 0.04700
H 	H 	0.48750 0.58570 0.30490 0.00100
C 	C 	0.56620 0.59810 0.35804 -0.04900
H 	H 	0.54840 0.62420 0.37200 0.05000
C 	C 	0.65530 0.54452 0.35506 -0.06500
H 	H 	0.69820 0.53460 0.36640 0.07500
C 	C 	0.62800 0.58294 0.37698 -0.09200
C 	C 	0.66740 0.60720 0.42111 0.45600
C 	C 	0.55150 0.90320 0.14380 -0.01200
C 	C 	0.58860 0.95180 0.21720 0.02700
C 	C 	0.58810 0.93000 0.10540 0.03900
C 	C 	0.62680 0.97660 0.18000 0.05600
O 	O 	0.66450 0.98040 0.03500 -0.36900
O 	O 	0.68990 0.02760 0.09590 -0.34700
O 	O 	0.84188 0.75057 0.43896 -0.52000
O 	O 	0.77260 0.69320 0.44150 -0.51300
O 	O 	0.85750 0.46410 0.06920 -0.31700
O 	O 	0.77420 0.51134 0.07120 -0.37000
O 	O 	0.78028 0.91099 0.44044 -0.52300
O 	O 	0.85599 0.85611 0.43598 -0.49900
C 	C 	0.94306 0.65001 0.29673 -0.20000
C 	C 	0.88540 0.62968 0.32025 0.03000
H 	H 	0.87360 0.60140 0.30920 0.02300
C 	C 	0.96150 0.69102 0.31623 0.09300
H 	H 	0.00050 0.70470 0.30240 -0.03600
C 	C 	0.92170 0.71245 0.35697 -0.05400
H 	H 	0.93440 0.74020 0.36950 0.05800
C 	C 	0.84580 0.65060 0.35934 -0.02800
H 	H 	0.80680 0.63680 0.37310 0.05700
C 	C 	0.86360 0.69201 0.37837 -0.10700
C 	C 	0.82310 0.71339 0.42273 0.48700
C 	C 	0.94680 0.58096 0.20319 -0.16800
C 	C 	0.97290 0.53870 0.18220 0.00100
C 	C 	0.87730 0.58960 0.18880 -0.01600
C 	C 	0.93790 0.51450 0.14240 0.06700
C 	C 	0.84090 0.56340 0.15120 0.07200
C 	C 	0.87190 0.53026 0.12570 -0.29000
C 	C 	0.83520 0.50408 0.08570 0.73900
C 	C 	0.94520 0.96490 0.29658 -0.20900
C 	C 	0.88280 0.97947 0.31525 0.06400
H 	H 	0.86500 0.00570 0.30150 -0.00000
C 	C 	0.97080 0.92527 0.31763 0.09800
H 	H 	0.01250 0.91430 0.30490 -0.03500
C 	C 	0.93380 0.90190 0.35804 -0.07300
H 	H 	0.95160 0.87580 0.37200 0.06600
C 	C 	0.84470 0.95548 0.35506 -0.06800
H 	H 	0.80180 0.96540 0.36640 0.07800
C 	C 	0.87200 0.91706 0.37698 -0.07900
C 	C 	0.83260 0.89280 0.42111 0.45300
C 	C 	0.94850 0.59680 0.14380 -0.00600
C 	C 	0.91140 0.54820 0.21720 0.01700
C 	C 	0.91190 0.57000 0.10540 0.04400
C 	C 	0.87320 0.52340 0.18000 0.05800
O 	O 	0.83550 0.51960 0.03500 -0.36700
O 	O 	0.81010 0.47240 0.09590 -0.34100
O 	O 	0.34188 0.25057 0.43896 -0.52200
O 	O 	0.27260 0.19320 0.44150 -0.51500
O 	O 	0.35750 0.96410 0.06920 -0.31800
O 	O 	0.27420 0.01134 0.07120 -0.37300
O 	O 	0.28028 0.41099 0.44044 -0.52300
O 	O 	0.35599 0.35611 0.43598 -0.50200
C 	C 	0.44306 0.15001 0.29673 -0.22500
C 	C 	0.38540 0.12968 0.32025 0.03500
H 	H 	0.37360 0.10140 0.30920 0.01500
C 	C 	0.46150 0.19102 0.31623 0.03700
H 	H 	0.50050 0.20470 0.30240 0.00500
C 	C 	0.42170 0.21245 0.35697 -0.02900
H 	H 	0.43440 0.24020 0.36950 0.04300
C 	C 	0.34580 0.15060 0.35934 -0.02700
H 	H 	0.30680 0.13680 0.37310 0.05600
C 	C 	0.36360 0.19201 0.37837 -0.11800
C 	C 	0.32310 0.21339 0.42273 0.49000
C 	C 	0.44680 0.08096 0.20319 -0.21200
C 	C 	0.47290 0.03870 0.18220 -0.00900
C 	C 	0.37730 0.08960 0.18880 -0.00900
C 	C 	0.43790 0.01450 0.14240 0.04900
C 	C 	0.34090 0.06340 0.15120 0.06300
C 	C 	0.37190 0.03026 0.12570 -0.27400
C 	C 	0.33520 0.00408 0.08570 0.72000
C 	C 	0.44520 0.46490 0.29658 -0.24500
C 	C 	0.38280 0.47947 0.31525 0.06200
H 	H 	0.36500 0.50570 0.30150 -0.00100
C 	C 	0.47080 0.42527 0.31763 0.04700
H 	H 	0.51250 0.41430 0.30490 0.00200
C 	C 	0.43380 0.40190 0.35804 -0.04900
H 	H 	0.45160 0.37580 0.37200 0.05100
C 	C 	0.34470 0.45548 0.35506 -0.06500
H 	H 	0.30180 0.46540 0.36640 0.07400
C 	C 	0.37200 0.41706 0.37698 -0.09200
C 	C 	0.33260 0.39280 0.42111 0.45600
C 	C 	0.44850 0.09680 0.14380 -0.01200
C 	C 	0.41140 0.04820 0.21720 0.02600
C 	C 	0.41190 0.07000 0.10540 0.03500
C 	C 	0.37320 0.02340 0.18000 0.04800
O 	O 	0.33550 0.01960 0.03500 -0.36900
O 	O 	0.31010 0.97240 0.09590 -0.33000
O 	O 	0.84188 0.24943 0.06104 -0.49600
O 	O 	0.77260 0.30680 0.05850 -0.48900
O 	O 	0.85750 0.53590 0.43080 -0.31600
O 	O 	0.77420 0.48866 0.42880 -0.37400
O 	O 	0.78028 0.08901 0.05956 -0.49800
O 	O 	0.85599 0.14389 0.06402 -0.47900
C 	C 	0.94306 0.34999 0.20327 -0.20500
C 	C 	0.88540 0.37032 0.17975 0.03900
H 	H 	0.87360 0.39860 0.19080 0.02000
C 	C 	0.96150 0.30898 0.18377 0.09900
H 	H 	0.00050 0.29530 0.19760 -0.04300
C 	C 	0.92170 0.28755 0.14303 -0.07000
H 	H 	0.93440 0.25980 0.13050 0.05700
C 	C 	0.84580 0.34940 0.14066 -0.04400
H 	H 	0.80680 0.36320 0.12690 0.06400
C 	C 	0.86360 0.30799 0.12163 -0.09300
C 	C 	0.82310 0.28661 0.07727 0.44800
C 	C 	0.94680 0.41904 0.29681 -0.17000
C 	C 	0.97290 0.46130 0.31780 0.00000
C 	C 	0.87730 0.41040 0.31120 -0.01200
C 	C 	0.93790 0.48550 0.35760 0.07500
C 	C 	0.84090 0.43660 0.34880 0.08000
C 	C 	0.87190 0.46974 0.37430 -0.28900
C 	C 	0.83520 0.49592 0.41430 0.73300
C 	C 	0.94520 0.03510 0.20342 -0.20800
C 	C 	0.88280 0.02053 0.18475 0.03500
H 	H 	0.86500 0.99430 0.19850 0.01500
C 	C 	0.97080 0.07473 0.18237 0.09500
H 	H 	0.01250 0.08570 0.19510 -0.04000
C 	C 	0.93380 0.09810 0.14196 -0.07900
H 	H 	0.95160 0.12420 0.12800 0.05900
C 	C 	0.84470 0.04452 0.14494 -0.06600
H 	H 	0.80180 0.03460 0.13360 0.07400
C 	C 	0.87200 0.08294 0.12302 -0.07700
C 	C 	0.83260 0.10720 0.07889 0.42000
C 	C 	0.94850 0.40320 0.35620 0.00300
C 	C 	0.91140 0.45180 0.28280 0.01700
C 	C 	0.91190 0.43000 0.39460 0.07100
C 	C 	0.87320 0.47660 0.32000 0.05500
O 	O 	0.83550 0.48040 0.46500 -0.31100
O 	O 	0.81010 0.52760 0.40410 -0.35300
O 	O 	0.34188 0.74943 0.06104 -0.49900
O 	O 	0.27260 0.80680 0.05850 -0.49100
O 	O 	0.35750 0.03590 0.43080 -0.32400
O 	O 	0.27420 0.98866 0.42880 -0.37200
O 	O 	0.28028 0.58901 0.05956 -0.49900
O 	O 	0.35599 0.64389 0.06402 -0.48200
C 	C 	0.44306 0.84999 0.20327 -0.23100
C 	C 	0.38540 0.87032 0.17975 0.04300
H 	H 	0.37360 0.89860 0.19080 0.01300
C 	C 	0.46150 0.80898 0.18377 0.04300
H 	H 	0.50050 0.79530 0.19760 -0.00200
C 	C 	0.42170 0.78755 0.14303 -0.04400
H 	H 	0.43440 0.75980 0.13050 0.04100
C 	C 	0.34580 0.84940 0.14066 -0.04300
H 	H 	0.30680 0.86320 0.12690 0.06200
C 	C 	0.36360 0.80799 0.12163 -0.10500
C 	C 	0.32310 0.78661 0.07727 0.45100
C 	C 	0.44680 0.91904 0.29681 -0.21300
C 	C 	0.47290 0.96130 0.31780 -0.00800
C 	C 	0.37730 0.91040 0.31120 -0.00600
C 	C 	0.43790 0.98550 0.35760 0.06700
C 	C 	0.34090 0.93660 0.34880 0.07600
C 	C 	0.37190 0.96974 0.37430 -0.28600
C 	C 	0.33520 0.99592 0.41430 0.74200
C 	C 	0.44520 0.53510 0.20342 -0.25200
C 	C 	0.38280 0.52053 0.18475 0.06900
H 	H 	0.36500 0.49430 0.19850 -0.00600
C 	C 	0.47080 0.57473 0.18237 0.05200
H 	H 	0.51250 0.58570 0.19510 -0.00500
C 	C 	0.43380 0.59810 0.14196 -0.06300
H 	H 	0.45160 0.62420 0.12800 0.04600
C 	C 	0.34470 0.54452 0.14494 -0.08000
H 	H 	0.30180 0.53460 0.13360 0.07900
C 	C 	0.37200 0.58294 0.12302 -0.08000
C 	C 	0.33260 0.60720 0.07889 0.42000
C 	C 	0.44850 0.90320 0.35620 -0.00400
C 	C 	0.41140 0.95180 0.28280 0.02700
C 	C 	0.41190 0.93000 0.39460 0.06500
C 	C 	0.37320 0.97660 0.32000 0.05300
O 	O 	0.33550 0.98040 0.46500 -0.31300
O 	O 	0.31010 0.02760 0.40410 -0.35800
O 	O 	0.15812 0.75057 0.06104 -0.50400
O 	O 	0.22740 0.69320 0.05850 -0.49500
O 	O 	0.14250 0.46410 0.43080 -0.32500
O 	O 	0.22580 0.51134 0.42880 -0.37300
O 	O 	0.21972 0.91099 0.05956 -0.50400
O 	O 	0.14401 0.85611 0.06402 -0.48700
C 	C 	0.05694 0.65001 0.20327 -0.16600
C 	C 	0.11460 0.62968 0.17975 -0.00900
H 	H 	0.12640 0.60140 0.19080 0.03000
C 	C 	0.03850 0.69102 0.18377 -0.07100
H 	H 	0.99950 0.70470 0.19760 0.06200
C 	C 	0.07830 0.71245 0.14303 0.02100
H 	H 	0.06560 0.74020 0.13050 0.01300
C 	C 	0.15420 0.65060 0.14066 0.00100
H 	H 	0.19320 0.63680 0.12690 0.04700
C 	C 	0.13640 0.69201 0.12163 -0.14600
C 	C 	0.17690 0.71339 0.07727 0.46500
C 	C 	0.05320 0.58096 0.29681 -0.18300
C 	C 	0.02710 0.53870 0.31780 -0.02700
C 	C 	0.12270 0.58960 0.31120 -0.01100
C 	C 	0.06210 0.51450 0.35760 0.05500
C 	C 	0.15910 0.56340 0.34880 0.07600
C 	C 	0.12810 0.53026 0.37430 -0.28200
C 	C 	0.16480 0.50408 0.41430 0.72800
C 	C 	0.05480 0.96490 0.20342 -0.17900
C 	C 	0.11720 0.97947 0.18475 0.02800
H 	H 	0.13500 0.00570 0.19850 0.00300
C 	C 	0.02920 0.92527 0.18237 -0.06300
H 	H 	0.98750 0.91430 0.19510 0.05900
C 	C 	0.06620 0.90190 0.14196 0.00400
H 	H 	0.04840 0.87580 0.12800 0.01700
C 	C 	0.15530 0.95548 0.14494 -0.04300
H 	H 	0.19820 0.96540 0.13360 0.06800
C 	C 	0.12800 0.91706 0.12302 -0.12000
C 	C 	0.16740 0.89280 0.07889 0.43400
C 	C 	0.05150 0.59680 0.35620 -0.01800
C 	C 	0.08860 0.54820 0.28280 0.01600
C 	C 	0.08810 0.57000 0.39460 0.06200
C 	C 	0.12680 0.52340 0.32000 0.05400
O 	O 	0.16450 0.51960 0.46500 -0.31400
O 	O 	0.18990 0.47240 0.40410 -0.35000
O 	O 	0.65812 0.25057 0.06104 -0.49900
O 	O 	0.72740 0.19320 0.05850 -0.49100
O 	O 	0.64250 0.96410 0.43080 -0.31700
O 	O 	0.72580 0.01134 0.42880 -0.37300
O 	O 	0.71972 0.41099 0.05956 -0.49900
O 	O 	0.64401 0.35611 0.06402 -0.48200
C 	C 	0.55694 0.15001 0.20327 -0.23100
C 	C 	0.61460 0.12968 0.17975 0.04400
H 	H 	0.62640 0.10140 0.19080 0.01200
C 	C 	0.53850 0.19102 0.18377 0.04300
H 	H 	0.49950 0.20470 0.19760 -0.00200
C 	C 	0.57830 0.21245 0.14303 -0.04400
H 	H 	0.56560 0.24020 0.13050 0.04100
C 	C 	0.65420 0.15060 0.14066 -0.04300
H 	H 	0.69320 0.13680 0.12690 0.06300
C 	C 	0.63640 0.19201 0.12163 -0.10500
C 	C 	0.67690 0.21339 0.07727 0.45100
C 	C 	0.55320 0.08096 0.29681 -0.21300
C 	C 	0.52710 0.03870 0.31780 -0.01000
C 	C 	0.62270 0.08960 0.31120 -0.00400
C 	C 	0.56210 0.01450 0.35760 0.05700
C 	C 	0.65910 0.06340 0.34880 0.07400
C 	C 	0.62810 0.03026 0.37430 -0.27300
C 	C 	0.66480 0.00408 0.41430 0.71400
C 	C 	0.55480 0.46490 0.20342 -0.25200
C 	C 	0.61720 0.47947 0.18475 0.06900
H 	H 	0.63500 0.50570 0.19850 -0.00600
C 	C 	0.52920 0.42527 0.18237 0.05200
H 	H 	0.48750 0.41430 0.19510 -0.00500
C 	C 	0.56620 0.40190 0.14196 -0.06300
H 	H 	0.54840 0.37580 0.12800 0.04600
C 	C 	0.65530 0.45548 0.14494 -0.08000
H 	H 	0.69820 0.46540 0.13360 0.08000
C 	C 	0.62800 0.41706 0.12302 -0.08000
C 	C 	0.66740 0.39280 0.07889 0.42000
C 	C 	0.55150 0.09680 0.35620 -0.00200
C 	C 	0.58860 0.04820 0.28280 0.02600
C 	C 	0.58810 0.07000 0.39460 0.06300
C 	C 	0.62680 0.02340 0.32000 0.04600
O 	O 	0.66450 0.01960 0.46500 -0.31100
O 	O 	0.68990 0.97240 0.40410 -0.34300
O 	O 	0.84188 0.75057 0.56104 -0.51900
O 	O 	0.77260 0.69320 0.55850 -0.51200
O 	O 	0.85750 0.46410 0.93080 -0.23600
O 	O 	0.77420 0.51134 0.92880 -0.30000
O 	O 	0.78028 0.91099 0.55956 -0.52300
O 	O 	0.85599 0.85611 0.56402 -0.49800
C 	C 	0.94306 0.65001 0.70327 -0.20300
C 	C 	0.88540 0.62968 0.67975 0.03600
H 	H 	0.87360 0.60140 0.69080 0.02300
C 	C 	0.96150 0.69102 0.68377 0.09900
H 	H 	0.00050 0.70470 0.69760 -0.03600
C 	C 	0.92170 0.71245 0.64303 -0.05500
H 	H 	0.93440 0.74020 0.63050 0.06000
C 	C 	0.84580 0.65060 0.64066 -0.02800
H 	H 	0.80680 0.63680 0.62690 0.05900
C 	C 	0.86360 0.69201 0.62163 -0.10300
C 	C 	0.82310 0.71339 0.57727 0.48700
C 	C 	0.94680 0.58096 0.79681 -0.18200
C 	C 	0.97290 0.53870 0.81780 0.00400
C 	C 	0.87730 0.58960 0.81120 -0.00300
C 	C 	0.93790 0.51450 0.85760 0.07600
C 	C 	0.84090 0.56340 0.84880 0.07900
C 	C 	0.87190 0.53026 0.87430 -0.25200
C 	C 	0.83520 0.50408 0.91430 0.64100
C 	C 	0.94520 0.96490 0.70342 -0.21400
C 	C 	0.88280 0.97947 0.68475 0.06900
H 	H 	0.86500 0.00570 0.69850 -0.00200
C 	C 	0.97080 0.92527 0.68237 0.10300
H 	H 	0.01250 0.91430 0.69510 -0.03600
C 	C 	0.93380 0.90190 0.64196 -0.07500
H 	H 	0.95160 0.87580 0.62800 0.06800
C 	C 	0.84470 0.95548 0.64494 -0.07000
H 	H 	0.80180 0.96540 0.63360 0.07900
C 	C 	0.87200 0.91706 0.62302 -0.07600
C 	C 	0.83260 0.89280 0.57889 0.45300
C 	C 	0.94850 0.59680 0.85620 0.01900
C 	C 	0.91140 0.54820 0.78280 0.02400
C 	C 	0.91190 0.57000 0.89460 0.09300
C 	C 	0.87320 0.52340 0.82000 0.04100
O 	O 	0.83550 0.51960 0.96500 -0.19200
O 	O 	0.81010 0.47240 0.90410 -0.31600
O 	O 	0.34188 0.25057 0.56104 -0.52100
O 	O 	0.27260 0.19320 0.55850 -0.51400
O 	O 	0.35750 0.96410 0.93080 -0.23700
O 	O 	0.27420 0.01134 0.92880 -0.30300
O 	O 	0.28028 0.41099 0.55956 -0.52300
O 	O 	0.35599 0.35611 0.56402 -0.50100
C 	C 	0.44306 0.15001 0.70327 -0.22900
C 	C 	0.38540 0.12968 0.67975 0.04100
H 	H 	0.37360 0.10140 0.69080 0.01400
C 	C 	0.46150 0.19102 0.68377 0.04300
H 	H 	0.50050 0.20470 0.69760 0.00400
C 	C 	0.42170 0.21245 0.64303 -0.03000
H 	H 	0.43440 0.24020 0.63050 0.04500
C 	C 	0.34580 0.15060 0.64066 -0.02800
H 	H 	0.30680 0.13680 0.62690 0.05800
C 	C 	0.36360 0.19201 0.62163 -0.11500
C 	C 	0.32310 0.21339 0.57727 0.49000
C 	C 	0.44680 0.08096 0.79681 -0.22600
C 	C 	0.47290 0.03870 0.81780 -0.00600
C 	C 	0.37730 0.08960 0.81120 0.00500
C 	C 	0.43790 0.01450 0.85760 0.05800
C 	C 	0.34090 0.06340 0.84880 0.07000
C 	C 	0.37190 0.03026 0.87430 -0.23500
C 	C 	0.33520 0.00408 0.91430 0.62300
C 	C 	0.44520 0.46490 0.70342 -0.25100
C 	C 	0.38280 0.47947 0.68475 0.06900
H 	H 	0.36500 0.50570 0.69850 -0.00300
C 	C 	0.47080 0.42527 0.68237 0.05400
H 	H 	0.51250 0.41430 0.69510 -0.00000
C 	C 	0.43380 0.40190 0.64196 -0.05100
H 	H 	0.45160 0.37580 0.62800 0.05300
C 	C 	0.34470 0.45548 0.64494 -0.06700
H 	H 	0.30180 0.46540 0.63360 0.07600
C 	C 	0.37200 0.41706 0.62302 -0.08800
C 	C 	0.33260 0.39280 0.57889 0.45600
C 	C 	0.44850 0.09680 0.85620 0.01400
C 	C 	0.41140 0.04820 0.78280 0.03300
C 	C 	0.41190 0.07000 0.89460 0.08400
C 	C 	0.37320 0.02340 0.82000 0.03100
O 	O 	0.33550 0.01960 0.96500 -0.19400
O 	O 	0.31010 0.97240 0.90410 -0.30600
O 	O 	0.15812 0.24943 0.56104 -0.52700
O 	O 	0.22740 0.30680 0.55850 -0.51800
O 	O 	0.14250 0.53590 0.93080 -0.24500
O 	O 	0.22580 0.48866 0.92880 -0.29900
O 	O 	0.21972 0.08901 0.55956 -0.52800
O 	O 	0.14401 0.14389 0.56402 -0.50700
C 	C 	0.05694 0.34999 0.70327 -0.16300
C 	C 	0.11460 0.37032 0.67975 -0.01300
H 	H 	0.12640 0.39860 0.69080 0.03300
C 	C 	0.03850 0.30898 0.68377 -0.07300
H 	H 	0.99950 0.29530 0.69760 0.06900
C 	C 	0.07830 0.28755 0.64303 0.03700
H 	H 	0.06560 0.25980 0.63050 0.01600
C 	C 	0.15420 0.34940 0.64066 0.01700
H 	H 	0.19320 0.36320 0.62690 0.04200
C 	C 	0.13640 0.30799 0.62163 -0.15700
C 	C 	0.17690 0.28661 0.57727 0.50500
C 	C 	0.05320 0.41904 0.79681 -0.19600
C 	C 	0.02710 0.46130 0.81780 -0.02300
C 	C 	0.12270 0.41040 0.81120 -0.00100
C 	C 	0.06210 0.48550 0.85760 0.05700
C 	C 	0.15910 0.43660 0.84880 0.07500
C 	C 	0.12810 0.46974 0.87430 -0.24500
C 	C 	0.16480 0.49592 0.91430 0.63700
C 	C 	0.05480 0.03510 0.70342 -0.16600
C 	C 	0.11720 0.02053 0.68475 -0.01300
H 	H 	0.13500 0.99430 0.69850 0.03000
C 	C 	0.02920 0.07473 0.68237 -0.07500
H 	H 	0.98750 0.08570 0.69510 0.06800
C 	C 	0.06620 0.09810 0.64196 0.02800
H 	H 	0.04840 0.12420 0.62800 0.01800
C 	C 	0.15530 0.04452 0.64494 -0.00900
H 	H 	0.19820 0.03460 0.63360 0.05400
C 	C 	0.12800 0.08294 0.62302 -0.14000
C 	C 	0.16740 0.10720 0.57889 0.47300
C 	C 	0.05150 0.40320 0.85620 -0.00100
C 	C 	0.08860 0.45180 0.78280 0.02300
C 	C 	0.08810 0.43000 0.89460 0.08400
C 	C 	0.12680 0.47660 0.82000 0.04000
O 	O 	0.16450 0.48040 0.96500 -0.19500
O 	O 	0.18990 0.52760 0.90410 -0.31400
O 	O 	0.65812 0.74943 0.56104 -0.52100
O 	O 	0.72740 0.80680 0.55850 -0.51400
O 	O 	0.64250 0.03590 0.93080 -0.24400
O 	O 	0.72580 0.98866 0.92880 -0.29600
O 	O 	0.71972 0.58901 0.55956 -0.52300
O 	O 	0.64401 0.64389 0.56402 -0.50100
C 	C 	0.55694 0.84999 0.70327 -0.22800
C 	C 	0.61460 0.87032 0.67975 0.04100
H 	H 	0.62640 0.89860 0.69080 0.01500
C 	C 	0.53850 0.80898 0.68377 0.04300
H 	H 	0.49950 0.79530 0.69760 0.00400
C 	C 	0.57830 0.78755 0.64303 -0.03000
H 	H 	0.56560 0.75980 0.63050 0.04500
C 	C 	0.65420 0.84940 0.64066 -0.02700
H 	H 	0.69320 0.86320 0.62690 0.05800
C 	C 	0.63640 0.80799 0.62163 -0.11500
C 	C 	0.67690 0.78661 0.57727 0.49000
C 	C 	0.55320 0.91904 0.79681 -0.22600
C 	C 	0.52710 0.96130 0.81780 -0.00400
C 	C 	0.62270 0.91040 0.81120 0.00400
C 	C 	0.56210 0.98550 0.85760 0.06800
C 	C 	0.65910 0.93660 0.84880 0.07700
C 	C 	0.62810 0.96974 0.87430 -0.24900
C 	C 	0.66480 0.99592 0.91430 0.64900
C 	C 	0.55480 0.53510 0.70342 -0.25100
C 	C 	0.61720 0.52053 0.68475 0.06900
H 	H 	0.63500 0.49430 0.69850 -0.00200
C 	C 	0.52920 0.57473 0.68237 0.05400
H 	H 	0.48750 0.58570 0.69510 -0.00000
C 	C 	0.56620 0.59810 0.64196 -0.05100
H 	H 	0.54840 0.62420 0.62800 0.05200
C 	C 	0.65530 0.54452 0.64494 -0.06700
H 	H 	0.69820 0.53460 0.63360 0.07600
C 	C 	0.62800 0.58294 0.62302 -0.08800
C 	C 	0.66740 0.60720 0.57889 0.45600
C 	C 	0.55150 0.90320 0.85620 0.01400
C 	C 	0.58860 0.95180 0.78280 0.03400
C 	C 	0.58810 0.93000 0.89460 0.08800
C 	C 	0.62680 0.97660 0.82000 0.03900
O 	O 	0.66450 0.98040 0.96500 -0.19300
O 	O 	0.68990 0.02760 0.90410 -0.32200
O 	O 	0.15812 0.75057 0.93896 -0.41600
O 	O 	0.22740 0.69320 0.94150 -0.40700
O 	O 	0.14250 0.46410 0.56920 -0.32500
O 	O 	0.22580 0.51134 0.57120 -0.37300
O 	O 	0.21972 0.91099 0.94044 -0.41400
O 	O 	0.14401 0.85611 0.93598 -0.40200
C 	C 	0.05694 0.65001 0.79673 -0.17600
C 	C 	0.11460 0.62968 0.82025 0.01000
H 	H 	0.12640 0.60140 0.80920 0.02600
C 	C 	0.03850 0.69102 0.81623 -0.04900
H 	H 	0.99950 0.70470 0.80240 0.06700
C 	C 	0.07830 0.71245 0.85697 0.01200
H 	H 	0.06560 0.74020 0.86950 0.03900
C 	C 	0.15420 0.65060 0.85934 -0.00800
H 	H 	0.19320 0.63680 0.87310 0.05900
C 	C 	0.13640 0.69201 0.87837 -0.10900
C 	C 	0.17690 0.71339 0.92273 0.45300
C 	C 	0.05320 0.58096 0.70319 -0.18900
C 	C 	0.02710 0.53870 0.68220 -0.02700
C 	C 	0.12270 0.58960 0.68880 -0.01000
C 	C 	0.06210 0.51450 0.64240 0.05500
C 	C 	0.15910 0.56340 0.65120 0.07600
C 	C 	0.12810 0.53026 0.62570 -0.28100
C 	C 	0.16480 0.50408 0.58570 0.72800
C 	C 	0.05480 0.96490 0.79658 -0.18400
C 	C 	0.11720 0.97947 0.81525 0.04600
H 	H 	0.13500 0.00570 0.80150 0.00500
C 	C 	0.02920 0.92527 0.81763 -0.04100
H 	H 	0.98750 0.91430 0.80490 0.06400
C 	C 	0.06620 0.90190 0.85804 -0.00500
H 	H 	0.04840 0.87580 0.87200 0.04600
C 	C 	0.15530 0.95548 0.85506 -0.04700
H 	H 	0.19820 0.96540 0.86640 0.08000
C 	C 	0.12800 0.91706 0.87698 -0.08300
C 	C 	0.16740 0.89280 0.92111 0.42400
C 	C 	0.05150 0.59680 0.64380 -0.01700
C 	C 	0.08860 0.54820 0.71720 0.01800
C 	C 	0.08810 0.57000 0.60540 0.06200
C 	C 	0.12680 0.52340 0.68000 0.05400
O 	O 	0.16450 0.51960 0.53500 -0.31400
O 	O 	0.18990 0.47240 0.59590 -0.35000
O 	O 	0.65812 0.25057 0.93896 -0.41000
O 	O 	0.72740 0.19320 0.94150 -0.40300
O 	O 	0.64250 0.96410 0.56920 -0.31800
O 	O 	0.72580 0.01134 0.57120 -0.37300
O 	O 	0.71972 0.41099 0.94044 -0.40800
O 	O 	0.64401 0.35611 0.93598 -0.39500
C 	C 	0.55694 0.15001 0.79673 -0.24000
C 	C 	0.61460 0.12968 0.82025 0.06400
H 	H 	0.62640 0.10140 0.80920 0.00800
C 	C 	0.53850 0.19102 0.81623 0.06600
H 	H 	0.49950 0.20470 0.80240 0.00200
C 	C 	0.57830 0.21245 0.85697 -0.05300
H 	H 	0.56560 0.24020 0.86950 0.06800
C 	C 	0.65420 0.15060 0.85934 -0.05200
H 	H 	0.69320 0.13680 0.87310 0.07500
C 	C 	0.63640 0.19201 0.87837 -0.06700
C 	C 	0.67690 0.21339 0.92273 0.43800
C 	C 	0.55320 0.08096 0.70319 -0.21900
C 	C 	0.52710 0.03870 0.68220 -0.01000
C 	C 	0.62270 0.08960 0.68880 -0.00300
C 	C 	0.56210 0.01450 0.64240 0.05700
C 	C 	0.65910 0.06340 0.65120 0.07400
C 	C 	0.62810 0.03026 0.62570 -0.27300
C 	C 	0.66480 0.00408 0.58570 0.71400
C 	C 	0.55480 0.46490 0.79658 -0.25800
C 	C 	0.61720 0.47947 0.81525 0.08900
H 	H 	0.63500 0.50570 0.80150 -0.00400
C 	C 	0.52920 0.42527 0.81763 0.07600
H 	H 	0.48750 0.41430 0.80490 -0.00100
C 	C 	0.56620 0.40190 0.85804 -0.07300
H 	H 	0.54840 0.37580 0.87200 0.07600
C 	C 	0.65530 0.45548 0.85506 -0.08500
H 	H 	0.69820 0.46540 0.86640 0.09200
C 	C 	0.62800 0.41706 0.87698 -0.04200
C 	C 	0.66740 0.39280 0.92111 0.41000
C 	C 	0.55150 0.09680 0.64380 -0.00200
C 	C 	0.58860 0.04820 0.71720 0.02900
C 	C 	0.58810 0.07000 0.60540 0.06200
C 	C 	0.62680 0.02340 0.68000 0.04500
O 	O 	0.66450 0.01960 0.53500 -0.31100
O 	O 	0.68990 0.97240 0.59590 -0.34200
O 	O 	0.84188 0.24943 0.93896 -0.40800
O 	O 	0.77260 0.30680 0.94150 -0.40100
O 	O 	0.85750 0.53590 0.56920 -0.31600
O 	O 	0.77420 0.48866 0.57120 -0.37400
O 	O 	0.78028 0.08901 0.94044 -0.40800
O 	O 	0.85599 0.14389 0.93598 -0.39400
C 	C 	0.94306 0.34999 0.79673 -0.21500
C 	C 	0.88540 0.37032 0.82025 0.05800
H 	H 	0.87360 0.39860 0.80920 0.01600
C 	C 	0.96150 0.30898 0.81623 0.12100
H 	H 	0.00050 0.29530 0.80240 -0.03800
C 	C 	0.92170 0.28755 0.85697 -0.07900
H 	H 	0.93440 0.25980 0.86950 0.08300
C 	C 	0.84580 0.34940 0.85934 -0.05300
H 	H 	0.80680 0.36320 0.87310 0.07600
C 	C 	0.86360 0.30799 0.87837 -0.05600
C 	C 	0.82310 0.28661 0.92273 0.43500
C 	C 	0.94680 0.41904 0.70319 -0.17500
C 	C 	0.97290 0.46130 0.68220 0.00000
C 	C 	0.87730 0.41040 0.68880 -0.01200
C 	C 	0.93790 0.48550 0.64240 0.07400
C 	C 	0.84090 0.43660 0.65120 0.08000
C 	C 	0.87190 0.46974 0.62570 -0.28800
C 	C 	0.83520 0.49592 0.58570 0.73300
C 	C 	0.94520 0.03510 0.79658 -0.21400
C 	C 	0.88280 0.02053 0.81525 0.05400
H 	H 	0.86500 0.99430 0.80150 0.01800
C 	C 	0.97080 0.07473 0.81763 0.11800
H 	H 	0.01250 0.08570 0.80490 -0.03600
C 	C 	0.93380 0.09810 0.85804 -0.08800
H 	H 	0.95160 0.12420 0.87200 0.08800
C 	C 	0.84470 0.04452 0.85506 -0.07000
H 	H 	0.80180 0.03460 0.86640 0.08600
C 	C 	0.87200 0.08294 0.87698 -0.04000
C 	C 	0.83260 0.10720 0.92111 0.41000
C 	C 	0.94850 0.40320 0.64380 0.00300
C 	C 	0.91140 0.45180 0.71720 0.02000
C 	C 	0.91190 0.43000 0.60540 0.07100
C 	C 	0.87320 0.47660 0.68000 0.05500
O 	O 	0.83550 0.48040 0.53500 -0.31100
O 	O 	0.81010 0.52760 0.59590 -0.35200
O 	O 	0.34188 0.74943 0.93896 -0.41000
O 	O 	0.27260 0.80680 0.94150 -0.40300
O 	O 	0.35750 0.03590 0.56920 -0.32400
O 	O 	0.27420 0.98866 0.57120 -0.37200
O 	O 	0.28028 0.58901 0.94044 -0.40800
O 	O 	0.35599 0.64389 0.93598 -0.39500
C 	C 	0.44306 0.84999 0.79673 -0.24100
C 	C 	0.38540 0.87032 0.82025 0.06300
H 	H 	0.37360 0.89860 0.80920 0.00900
C 	C 	0.46150 0.80898 0.81623 0.06500
H 	H 	0.50050 0.79530 0.80240 0.00300
C 	C 	0.42170 0.78755 0.85697 -0.05300
H 	H 	0.43440 0.75980 0.86950 0.06800
C 	C 	0.34580 0.84940 0.85934 -0.05200
H 	H 	0.30680 0.86320 0.87310 0.07500
C 	C 	0.36360 0.80799 0.87837 -0.06800
C 	C 	0.32310 0.78661 0.92273 0.43800
C 	C 	0.44680 0.91904 0.70319 -0.21900
C 	C 	0.47290 0.96130 0.68220 -0.00800
C 	C 	0.37730 0.91040 0.68880 -0.00600
C 	C 	0.43790 0.98550 0.64240 0.06600
C 	C 	0.34090 0.93660 0.65120 0.07500
C 	C 	0.37190 0.96974 0.62570 -0.28500
C 	C 	0.33520 0.99592 0.58570 0.74100
C 	C 	0.44520 0.53510 0.79658 -0.25800
C 	C 	0.38280 0.52053 0.81525 0.08800
H 	H 	0.36500 0.49430 0.80150 -0.00400
C 	C 	0.47080 0.57473 0.81763 0.07600
H 	H 	0.51250 0.58570 0.80490 -0.00000
C 	C 	0.43380 0.59810 0.85804 -0.07300
H 	H 	0.45160 0.62420 0.87200 0.07700
C 	C 	0.34470 0.54452 0.85506 -0.08500
H 	H 	0.30180 0.53460 0.86640 0.09200
C 	C 	0.37200 0.58294 0.87698 -0.04200
C 	C 	0.33260 0.60720 0.92111 0.41000
C 	C 	0.44850 0.90320 0.64380 -0.00300
C 	C 	0.41140 0.95180 0.71720 0.03000
C 	C 	0.41190 0.93000 0.60540 0.06400
C 	C 	0.37320 0.97660 0.68000 0.05300
O 	O 	0.33550 0.98040 0.53500 -0.31300
O 	O 	0.31010 0.02760 0.59590 -0.35800
Er	Er	0.18105 0.19448 0.50000 1.85200
Er	Er	0.27443 0.04400 0.50000 1.84500
Er	Er	0.68105 0.69448 0.50000 1.85100
Er	Er	0.77443 0.54400 0.50000 1.85400
Er	Er	0.81895 0.80552 0.50000 1.85500
Er	Er	0.72557 0.95600 0.50000 1.86000
Er	Er	0.31895 0.30552 0.50000 1.85400
Er	Er	0.22557 0.45600 0.50000 1.84900
Er	Er	0.81895 0.19448 -0.00000 1.51400
Er	Er	0.72557 0.04400 -0.00000 1.51100
Er	Er	0.31895 0.69448 -0.00000 1.51000
Er	Er	0.22557 0.54400 -0.00000 1.51000
Er	Er	0.18105 0.80552 -0.00000 1.51000
Er	Er	0.27443 0.95600 -0.00000 1.52100
Er	Er	0.68105 0.30552 -0.00000 1.50700
Er	Er	0.77443 0.45600 -0.00000 1.51500
Si	Si	-0.00000 0.38354 0.25000 0.60900
Si	Si	0.50000 0.88354 0.25000 0.71200
Si	Si	-0.00000 0.61646 0.25000 0.60900
Si	Si	0.50000 0.11646 0.25000 0.71000
Si	Si	-0.00000 0.61646 0.75000 0.62500
Si	Si	0.50000 0.11646 0.75000 0.72800
Si	Si	0.00000 0.38354 0.75000 0.62400
Si	Si	0.50000 0.88354 0.75000 0.73000
Si	Si	0.00000 0.00000 0.25000 0.59100
Si	Si	0.50000 0.50000 0.25000 0.73000
Si	Si	0.00000 0.00000 0.75000 0.60700
Si	Si	0.50000 0.50000 0.75000 0.74900
