data_crystal

_cell_length_a 22.83900
_cell_length_b 22.83900
_cell_length_c 33.07800
_cell_angle_alpha 90.00000
_cell_angle_beta  90.00000
_cell_angle_gamma 90.00000

_symmetry_space_group_name_	'P 1'
_symmetry_space_group_name_H-M	'P 1'

loop_
_symmetry_equiv_pos_as_xyz
  x,y,z

loop_
_atom_site_label
_atom_site_type_symbol
_atom_site_fract_x
_atom_site_fract_y
_atom_site_fract_z
_atom_site_charge
Zn	Zn	0.42361 0.04100 0.60736 1.22900
Na	Na	0.46916 0.93363 0.55716 0.58800
Na	Na	0.46039 0.89118 0.45720 0.58600
C 	C 	0.80640 0.26930 0.34576 -0.01900
C 	C 	0.77400 0.27200 0.38337 -0.10600
H 	H 	0.73870 0.25240 0.38660 0.10400
C 	C 	0.79830 0.30550 0.41451 0.14300
C 	C 	0.85150 0.33380 0.40965 -0.10000
H 	H 	0.86670 0.35620 0.43070 0.07600
C 	C 	0.88270 0.32910 0.37340 -0.02900
C 	C 	0.85890 0.29870 0.34205 -0.02300
H 	H 	0.87860 0.29780 0.31750 0.07800
C 	C 	0.51093 0.08855 0.50124 -0.02300
C 	C 	0.55290 0.13090 0.49456 -0.10900
H 	H 	0.56410 0.15580 0.51540 0.10300
C 	C 	0.57820 0.13640 0.45720 0.14100
C 	C 	0.56090 0.09650 0.42599 -0.09500
H 	H 	0.57890 0.09840 0.40080 0.09600
C 	C 	0.51774 0.05533 0.43282 -0.03800
C 	C 	0.49352 0.05167 0.47017 -0.01500
H 	H 	0.46460 0.02390 0.47500 0.05800
C 	C 	0.50164 0.01575 0.39858 0.34800
C 	C 	0.48526 0.08510 0.54400 0.33400
C 	C 	0.93992 0.36190 0.36769 0.35000
C 	C 	0.77900 0.23650 0.31096 0.33200
C 	C 	0.72590 0.28110 0.46992 0.20200
C 	C 	0.65560 0.21330 0.46964 0.21300
C 	C 	0.67720 0.26130 0.52704 0.21600
C 	C 	0.83030 0.39050 0.61522 0.34700
C 	C 	0.76830 0.36540 0.61989 0.00200
C 	C 	0.73280 0.38250 0.65429 -0.06400
H 	H 	0.74910 0.40530 0.67470 0.09300
C 	C 	0.67830 0.36610 0.65670 0.03400
C 	C 	0.74340 0.33150 0.59094 -0.14000
H 	H 	0.76570 0.32280 0.56820 0.10900
C 	C 	0.65510 0.33180 0.62360 -0.15800
H 	H 	0.61500 0.32490 0.62330 0.11000
C 	C 	0.68730 0.30880 0.59284 0.18900
C 	C 	0.63460 0.38450 0.68840 0.24200
N 	N 	0.77290 0.31020 0.45320 -0.23400
H 	H 	0.78940 0.33520 0.46890 0.14100
N 	N 	0.71800 0.29340 0.50997 -0.17500
N 	N 	0.69840 0.24040 0.44836 -0.17000
N 	N 	0.62110 0.17950 0.44574 -0.23700
H 	H 	0.62550 0.18450 0.42020 0.15400
N 	N 	0.64059 0.22360 0.50750 -0.17400
N 	N 	0.66290 0.27130 0.56602 -0.25600
H 	H 	0.63410 0.25080 0.57510 0.15500
O 	O 	0.52638 0.02240 0.36580 -0.34700
O 	O 	0.53830 0.91672 0.50575 -0.24200
O 	O 	0.46519 0.97558 0.40521 -0.47700
O 	O 	0.49470 0.84140 0.58820 -0.36300
H 	H 	0.48830 0.81460 0.57220 0.22600
O 	O 	0.49266 0.12199 0.56900 -0.31000
O 	O 	0.39180 0.93392 0.50197 -0.24000
O 	O 	0.45387 0.03953 0.55013 -0.45200
O 	O 	0.96894 0.35395 0.33573 -0.35000
O 	O 	0.95904 0.38938 0.39758 -0.46500
O 	O 	0.85295 0.41121 0.64639 -0.44100
O 	O 	0.85262 0.39018 0.58153 -0.36200
O 	O 	0.73700 0.20860 0.31607 -0.23100
O 	O 	0.80820 0.23900 0.28002 -0.20400
O 	O 	0.58750 0.36140 0.69406 -0.18600
O 	O 	0.66190 0.41410 0.71780 -0.16500
Zn	Zn	0.57639 0.95900 0.10736 1.23000
Na	Na	0.53084 0.06637 0.05716 0.58900
Na	Na	0.53961 0.10882 0.95720 0.58700
C 	C 	0.19360 0.73070 0.84576 -0.01800
C 	C 	0.22600 0.72800 0.88337 -0.10600
H 	H 	0.26130 0.74760 0.88660 0.10400
C 	C 	0.20170 0.69450 0.91451 0.14300
C 	C 	0.14850 0.66620 0.90965 -0.10000
H 	H 	0.13330 0.64380 0.93070 0.07600
C 	C 	0.11730 0.67090 0.87340 -0.02900
C 	C 	0.14110 0.70130 0.84205 -0.02300
H 	H 	0.12140 0.70220 0.81750 0.07800
C 	C 	0.48907 0.91145 0.00124 -0.02400
C 	C 	0.44710 0.86910 0.99456 -0.10800
H 	H 	0.43590 0.84420 0.01540 0.10200
C 	C 	0.42180 0.86360 0.95720 0.14000
C 	C 	0.43910 0.90350 0.92599 -0.09500
H 	H 	0.42110 0.90160 0.90080 0.09600
C 	C 	0.48226 0.94467 0.93282 -0.03900
C 	C 	0.50648 0.94833 0.97017 -0.01400
H 	H 	0.53540 0.97610 0.97500 0.05800
C 	C 	0.49836 0.98425 0.89858 0.34900
C 	C 	0.51474 0.91490 0.04400 0.33400
C 	C 	0.06008 0.63810 0.86769 0.35000
C 	C 	0.22100 0.76350 0.81096 0.33200
C 	C 	0.27410 0.71890 0.96992 0.20200
C 	C 	0.34440 0.78670 0.96964 0.21300
C 	C 	0.32280 0.73870 0.02704 0.21600
C 	C 	0.16970 0.60950 0.11522 0.34700
C 	C 	0.23170 0.63460 0.11989 0.00200
C 	C 	0.26720 0.61750 0.15429 -0.06400
H 	H 	0.25090 0.59470 0.17470 0.09300
C 	C 	0.32170 0.63390 0.15670 0.03400
C 	C 	0.25660 0.66850 0.09094 -0.14000
H 	H 	0.23430 0.67720 0.06820 0.10900
C 	C 	0.34490 0.66820 0.12360 -0.15800
H 	H 	0.38500 0.67510 0.12330 0.11000
C 	C 	0.31270 0.69120 0.09284 0.18900
C 	C 	0.36540 0.61550 0.18840 0.24200
N 	N 	0.22710 0.68980 0.95320 -0.23400
H 	H 	0.21060 0.66480 0.96890 0.14100
N 	N 	0.28200 0.70660 0.00997 -0.17500
N 	N 	0.30160 0.75960 0.94836 -0.17000
N 	N 	0.37890 0.82050 0.94574 -0.23700
H 	H 	0.37450 0.81550 0.92020 0.15400
N 	N 	0.35941 0.77640 0.00750 -0.17400
N 	N 	0.33710 0.72870 0.06602 -0.25600
H 	H 	0.36590 0.74920 0.07510 0.15500
O 	O 	0.47362 0.97760 0.86580 -0.34700
O 	O 	0.46170 0.08328 0.00575 -0.24200
O 	O 	0.53481 0.02442 0.90521 -0.47800
O 	O 	0.50530 0.15860 0.08820 -0.36300
H 	H 	0.51170 0.18540 0.07220 0.22600
O 	O 	0.50734 0.87801 0.06900 -0.31100
O 	O 	0.60820 0.06608 0.00197 -0.24000
O 	O 	0.54613 0.96047 0.05013 -0.45200
O 	O 	0.03106 0.64605 0.83573 -0.35000
O 	O 	0.04096 0.61062 0.89758 -0.46500
O 	O 	0.14705 0.58879 0.14639 -0.44100
O 	O 	0.14738 0.60982 0.08153 -0.36200
O 	O 	0.26300 0.79140 0.81607 -0.23100
O 	O 	0.19180 0.76100 0.78002 -0.20400
O 	O 	0.41250 0.63860 0.19406 -0.18600
O 	O 	0.33810 0.58590 0.21780 -0.16500
Zn	Zn	0.45900 0.92361 0.35736 1.23000
Na	Na	0.56637 0.96916 0.30716 0.58900
Na	Na	0.60882 0.96039 0.20720 0.58700
C 	C 	0.23070 0.30640 0.09576 -0.01800
C 	C 	0.22800 0.27400 0.13337 -0.10600
H 	H 	0.24760 0.23870 0.13660 0.10400
C 	C 	0.19450 0.29830 0.16451 0.14300
C 	C 	0.16620 0.35150 0.15965 -0.10000
H 	H 	0.14380 0.36670 0.18070 0.07600
C 	C 	0.17090 0.38270 0.12340 -0.03000
C 	C 	0.20130 0.35890 0.09205 -0.02300
H 	H 	0.20220 0.37860 0.06750 0.07800
C 	C 	0.41145 0.01093 0.25124 -0.02200
C 	C 	0.36910 0.05290 0.24456 -0.10900
H 	H 	0.34420 0.06410 0.26540 0.10300
C 	C 	0.36360 0.07820 0.20720 0.14100
C 	C 	0.40350 0.06090 0.17599 -0.09500
H 	H 	0.40160 0.07890 0.15080 0.09600
C 	C 	0.44467 0.01774 0.18282 -0.03800
C 	C 	0.44833 0.99352 0.22017 -0.01500
H 	H 	0.47610 0.96460 0.22500 0.05800
C 	C 	0.48425 0.00164 0.14858 0.34900
C 	C 	0.41490 0.98526 0.29400 0.33400
C 	C 	0.13810 0.43992 0.11769 0.35000
C 	C 	0.26350 0.27900 0.06096 0.33200
C 	C 	0.21890 0.22590 0.21992 0.20200
C 	C 	0.28670 0.15560 0.21964 0.21300
C 	C 	0.23870 0.17720 0.27704 0.21600
C 	C 	0.10950 0.33030 0.36522 0.34700
C 	C 	0.13460 0.26830 0.36989 0.00200
C 	C 	0.11750 0.23280 0.40429 -0.06400
H 	H 	0.09470 0.24910 0.42470 0.09300
C 	C 	0.13390 0.17830 0.40670 0.03400
C 	C 	0.16850 0.24340 0.34094 -0.14000
H 	H 	0.17720 0.26570 0.31820 0.10900
C 	C 	0.16820 0.15510 0.37360 -0.15800
H 	H 	0.17510 0.11500 0.37330 0.11000
C 	C 	0.19120 0.18730 0.34284 0.18900
C 	C 	0.11550 0.13460 0.43840 0.24200
N 	N 	0.18980 0.27290 0.20320 -0.23400
H 	H 	0.16480 0.28940 0.21890 0.14000
N 	N 	0.20660 0.21800 0.25997 -0.17500
N 	N 	0.25960 0.19840 0.19836 -0.17000
N 	N 	0.32050 0.12110 0.19574 -0.23800
H 	H 	0.31550 0.12550 0.17020 0.15400
N 	N 	0.27640 0.14059 0.25750 -0.17400
N 	N 	0.22870 0.16290 0.31602 -0.25600
H 	H 	0.24920 0.13410 0.32510 0.15500
O 	O 	0.47760 0.02638 0.11580 -0.34700
O 	O 	0.58328 0.03830 0.25575 -0.24200
O 	O 	0.52442 0.96519 0.15521 -0.47800
O 	O 	0.65860 0.99470 0.33820 -0.36300
H 	H 	0.68540 0.98830 0.32220 0.22600
O 	O 	0.37801 0.99266 0.31900 -0.31000
O 	O 	0.56608 0.89180 0.25197 -0.24100
O 	O 	0.46047 0.95387 0.30013 -0.45200
O 	O 	0.14605 0.46894 0.08573 -0.35000
O 	O 	0.11062 0.45904 0.14758 -0.46500
O 	O 	0.08879 0.35295 0.39639 -0.44100
O 	O 	0.10982 0.35262 0.33153 -0.36200
O 	O 	0.29140 0.23700 0.06607 -0.23100
O 	O 	0.26100 0.30820 0.03002 -0.20400
O 	O 	0.13860 0.08750 0.44406 -0.18600
O 	O 	0.08590 0.16190 0.46780 -0.16500
Zn	Zn	0.54100 0.07639 0.85736 1.23000
Na	Na	0.43363 0.03084 0.80716 0.58900
Na	Na	0.39118 0.03961 0.70720 0.58700
C 	C 	0.76930 0.69360 0.59576 -0.01800
C 	C 	0.77200 0.72600 0.63337 -0.10600
H 	H 	0.75240 0.76130 0.63660 0.10400
C 	C 	0.80550 0.70170 0.66451 0.14300
C 	C 	0.83380 0.64850 0.65965 -0.10000
H 	H 	0.85620 0.63330 0.68070 0.07600
C 	C 	0.82910 0.61730 0.62340 -0.03000
C 	C 	0.79870 0.64110 0.59205 -0.02300
H 	H 	0.79780 0.62140 0.56750 0.07800
C 	C 	0.58855 0.98907 0.75124 -0.02200
C 	C 	0.63090 0.94710 0.74456 -0.10900
H 	H 	0.65580 0.93590 0.76540 0.10300
C 	C 	0.63640 0.92180 0.70720 0.14100
C 	C 	0.59650 0.93910 0.67599 -0.09500
H 	H 	0.59840 0.92110 0.65080 0.09600
C 	C 	0.55533 0.98226 0.68282 -0.03800
C 	C 	0.55167 0.00648 0.72017 -0.01600
H 	H 	0.52390 0.03540 0.72500 0.05800
C 	C 	0.51575 0.99836 0.64858 0.34800
C 	C 	0.58510 0.01474 0.79400 0.33400
C 	C 	0.86190 0.56008 0.61769 0.35000
C 	C 	0.73650 0.72100 0.56096 0.33200
C 	C 	0.78110 0.77410 0.71992 0.20200
C 	C 	0.71330 0.84440 0.71964 0.21300
C 	C 	0.76130 0.82280 0.77704 0.21600
C 	C 	0.89050 0.66970 0.86522 0.34700
C 	C 	0.86540 0.73170 0.86989 0.00200
C 	C 	0.88250 0.76720 0.90429 -0.06400
H 	H 	0.90530 0.75090 0.92470 0.09300
C 	C 	0.86610 0.82170 0.90670 0.03400
C 	C 	0.83150 0.75660 0.84094 -0.14000
H 	H 	0.82280 0.73430 0.81820 0.10900
C 	C 	0.83180 0.84490 0.87360 -0.15800
H 	H 	0.82490 0.88500 0.87330 0.11000
C 	C 	0.80880 0.81270 0.84284 0.18900
C 	C 	0.88450 0.86540 0.93840 0.24200
N 	N 	0.81020 0.72710 0.70320 -0.23400
H 	H 	0.83520 0.71060 0.71890 0.14000
N 	N 	0.79340 0.78200 0.75997 -0.17500
N 	N 	0.74040 0.80160 0.69836 -0.17000
N 	N 	0.67950 0.87890 0.69574 -0.23800
H 	H 	0.68450 0.87450 0.67020 0.15400
N 	N 	0.72360 0.85941 0.75750 -0.17400
N 	N 	0.77130 0.83710 0.81602 -0.25600
H 	H 	0.75080 0.86590 0.82510 0.15500
O 	O 	0.52240 0.97362 0.61580 -0.34700
O 	O 	0.41672 0.96170 0.75575 -0.24200
O 	O 	0.47558 0.03481 0.65521 -0.47700
O 	O 	0.34140 0.00530 0.83820 -0.36300
H 	H 	0.31460 0.01170 0.82220 0.22600
O 	O 	0.62199 0.00734 0.81900 -0.31000
O 	O 	0.43392 0.10820 0.75197 -0.24100
O 	O 	0.53953 0.04613 0.80013 -0.45200
O 	O 	0.85395 0.53106 0.58573 -0.35000
O 	O 	0.88938 0.54096 0.64758 -0.46500
O 	O 	0.91121 0.64705 0.89639 -0.44100
O 	O 	0.89018 0.64738 0.83153 -0.36200
O 	O 	0.70860 0.76300 0.56607 -0.23100
O 	O 	0.73900 0.69180 0.53002 -0.20400
O 	O 	0.86140 0.91250 0.94406 -0.18600
O 	O 	0.91410 0.83810 0.96780 -0.16500
Zn	Zn	0.07639 0.54100 0.14264 1.23000
Na	Na	0.03084 0.43363 0.19284 0.58900
Na	Na	0.03961 0.39118 0.29280 0.58700
C 	C 	0.69360 0.76930 0.40424 -0.01800
C 	C 	0.72600 0.77200 0.36663 -0.10600
H 	H 	0.76130 0.75240 0.36340 0.10400
C 	C 	0.70170 0.80550 0.33549 0.14300
C 	C 	0.64850 0.83380 0.34035 -0.10000
H 	H 	0.63330 0.85620 0.31930 0.07600
C 	C 	0.61730 0.82910 0.37660 -0.03000
C 	C 	0.64110 0.79870 0.40795 -0.02300
H 	H 	0.62140 0.79780 0.43250 0.07800
C 	C 	0.98907 0.58855 0.24876 -0.02200
C 	C 	0.94710 0.63090 0.25544 -0.10900
H 	H 	0.93590 0.65580 0.23460 0.10300
C 	C 	0.92180 0.63640 0.29280 0.14100
C 	C 	0.93910 0.59650 0.32401 -0.09500
H 	H 	0.92110 0.59840 0.34920 0.09600
C 	C 	0.98226 0.55533 0.31718 -0.03800
C 	C 	0.00648 0.55167 0.27983 -0.01600
H 	H 	0.03540 0.52390 0.27500 0.05800
C 	C 	0.99836 0.51575 0.35142 0.34800
C 	C 	0.01474 0.58510 0.20600 0.33400
C 	C 	0.56008 0.86190 0.38231 0.35000
C 	C 	0.72100 0.73650 0.43904 0.33200
C 	C 	0.77410 0.78110 0.28008 0.20200
C 	C 	0.84440 0.71330 0.28036 0.21300
C 	C 	0.82280 0.76130 0.22296 0.21600
C 	C 	0.66970 0.89050 0.13478 0.34700
C 	C 	0.73170 0.86540 0.13011 0.00200
C 	C 	0.76720 0.88250 0.09571 -0.06400
H 	H 	0.75090 0.90530 0.07530 0.09300
C 	C 	0.82170 0.86610 0.09330 0.03400
C 	C 	0.75660 0.83150 0.15906 -0.14000
H 	H 	0.73430 0.82280 0.18180 0.10900
C 	C 	0.84490 0.83180 0.12640 -0.15800
H 	H 	0.88500 0.82490 0.12670 0.11000
C 	C 	0.81270 0.80880 0.15716 0.18900
C 	C 	0.86540 0.88450 0.06160 0.24200
N 	N 	0.72710 0.81020 0.29680 -0.23400
H 	H 	0.71060 0.83520 0.28110 0.14000
N 	N 	0.78200 0.79340 0.24003 -0.17500
N 	N 	0.80160 0.74040 0.30164 -0.17000
N 	N 	0.87890 0.67950 0.30426 -0.23800
H 	H 	0.87450 0.68450 0.32980 0.15400
N 	N 	0.85941 0.72360 0.24250 -0.17400
N 	N 	0.83710 0.77130 0.18398 -0.25600
H 	H 	0.86590 0.75080 0.17490 0.15500
O 	O 	0.97362 0.52240 0.38420 -0.34700
O 	O 	0.96170 0.41672 0.24425 -0.24200
O 	O 	0.03481 0.47558 0.34479 -0.47700
O 	O 	0.00530 0.34140 0.16180 -0.36300
H 	H 	0.01170 0.31460 0.17780 0.22600
O 	O 	0.00734 0.62199 0.18100 -0.31000
O 	O 	0.10820 0.43392 0.24803 -0.24100
O 	O 	0.04613 0.53953 0.19987 -0.45200
O 	O 	0.53106 0.85395 0.41427 -0.35000
O 	O 	0.54096 0.88938 0.35242 -0.46500
O 	O 	0.64705 0.91121 0.10361 -0.44100
O 	O 	0.64738 0.89018 0.16847 -0.36200
O 	O 	0.76300 0.70860 0.43393 -0.23100
O 	O 	0.69180 0.73900 0.46998 -0.20400
O 	O 	0.91250 0.86140 0.05594 -0.18600
O 	O 	0.83810 0.91410 0.03220 -0.16500
Zn	Zn	0.92361 0.45900 0.64264 1.23000
Na	Na	0.96916 0.56637 0.69284 0.58900
Na	Na	0.96039 0.60882 0.79280 0.58700
C 	C 	0.30640 0.23070 0.90424 -0.01800
C 	C 	0.27400 0.22800 0.86663 -0.10600
H 	H 	0.23870 0.24760 0.86340 0.10400
C 	C 	0.29830 0.19450 0.83549 0.14300
C 	C 	0.35150 0.16620 0.84035 -0.10000
H 	H 	0.36670 0.14380 0.81930 0.07600
C 	C 	0.38270 0.17090 0.87660 -0.03000
C 	C 	0.35890 0.20130 0.90795 -0.02300
H 	H 	0.37860 0.20220 0.93250 0.07800
C 	C 	0.01093 0.41145 0.74876 -0.02200
C 	C 	0.05290 0.36910 0.75544 -0.10900
H 	H 	0.06410 0.34420 0.73460 0.10300
C 	C 	0.07820 0.36360 0.79280 0.14100
C 	C 	0.06090 0.40350 0.82401 -0.09500
H 	H 	0.07890 0.40160 0.84920 0.09600
C 	C 	0.01774 0.44467 0.81718 -0.03800
C 	C 	0.99352 0.44833 0.77983 -0.01500
H 	H 	0.96460 0.47610 0.77500 0.05800
C 	C 	0.00164 0.48425 0.85142 0.34900
C 	C 	0.98526 0.41490 0.70600 0.33400
C 	C 	0.43992 0.13810 0.88231 0.35000
C 	C 	0.27900 0.26350 0.93904 0.33200
C 	C 	0.22590 0.21890 0.78008 0.20200
C 	C 	0.15560 0.28670 0.78036 0.21300
C 	C 	0.17720 0.23870 0.72296 0.21600
C 	C 	0.33030 0.10950 0.63478 0.34700
C 	C 	0.26830 0.13460 0.63011 0.00200
C 	C 	0.23280 0.11750 0.59571 -0.06400
H 	H 	0.24910 0.09470 0.57530 0.09300
C 	C 	0.17830 0.13390 0.59330 0.03400
C 	C 	0.24340 0.16850 0.65906 -0.14000
H 	H 	0.26570 0.17720 0.68180 0.10900
C 	C 	0.15510 0.16820 0.62640 -0.15800
H 	H 	0.11500 0.17510 0.62670 0.11000
C 	C 	0.18730 0.19120 0.65716 0.18900
C 	C 	0.13460 0.11550 0.56160 0.24200
N 	N 	0.27290 0.18980 0.79680 -0.23400
H 	H 	0.28940 0.16480 0.78110 0.14000
N 	N 	0.21800 0.20660 0.74003 -0.17500
N 	N 	0.19840 0.25960 0.80164 -0.17000
N 	N 	0.12110 0.32050 0.80426 -0.23800
H 	H 	0.12550 0.31550 0.82980 0.15400
N 	N 	0.14059 0.27640 0.74250 -0.17400
N 	N 	0.16290 0.22870 0.68398 -0.25600
H 	H 	0.13410 0.24920 0.67490 0.15500
O 	O 	0.02638 0.47760 0.88420 -0.34700
O 	O 	0.03830 0.58328 0.74425 -0.24200
O 	O 	0.96519 0.52442 0.84479 -0.47800
O 	O 	0.99470 0.65860 0.66180 -0.36300
H 	H 	0.98830 0.68540 0.67780 0.22600
O 	O 	0.99266 0.37801 0.68100 -0.31000
O 	O 	0.89180 0.56608 0.74803 -0.24100
O 	O 	0.95387 0.46047 0.69987 -0.45200
O 	O 	0.46894 0.14605 0.91427 -0.35000
O 	O 	0.45904 0.11062 0.85242 -0.46500
O 	O 	0.35295 0.08879 0.60361 -0.44100
O 	O 	0.35262 0.10982 0.66847 -0.36200
O 	O 	0.23700 0.29140 0.93393 -0.23100
O 	O 	0.30820 0.26100 0.96998 -0.20400
O 	O 	0.08750 0.13860 0.55594 -0.18600
O 	O 	0.16190 0.08590 0.53220 -0.16500
Zn	Zn	0.04100 0.42361 0.39264 1.23000
Na	Na	0.93363 0.46916 0.44284 0.58900
Na	Na	0.89118 0.46039 0.54280 0.58700
C 	C 	0.26930 0.80640 0.65424 -0.01800
C 	C 	0.27200 0.77400 0.61663 -0.10600
H 	H 	0.25240 0.73870 0.61340 0.10400
C 	C 	0.30550 0.79830 0.58549 0.14300
C 	C 	0.33380 0.85150 0.59035 -0.10000
H 	H 	0.35620 0.86670 0.56930 0.07600
C 	C 	0.32910 0.88270 0.62660 -0.02900
C 	C 	0.29870 0.85890 0.65795 -0.02300
H 	H 	0.29780 0.87860 0.68250 0.07800
C 	C 	0.08855 0.51093 0.49876 -0.02300
C 	C 	0.13090 0.55290 0.50544 -0.10900
H 	H 	0.15580 0.56410 0.48460 0.10300
C 	C 	0.13640 0.57820 0.54280 0.14100
C 	C 	0.09650 0.56090 0.57401 -0.09500
H 	H 	0.09840 0.57890 0.59920 0.09600
C 	C 	0.05533 0.51774 0.56718 -0.03800
C 	C 	0.05167 0.49352 0.52983 -0.01500
H 	H 	0.02390 0.46460 0.52500 0.05800
C 	C 	0.01575 0.50164 0.60142 0.34800
C 	C 	0.08510 0.48526 0.45600 0.33400
C 	C 	0.36190 0.93992 0.63231 0.35000
C 	C 	0.23650 0.77900 0.68904 0.33200
C 	C 	0.28110 0.72590 0.53008 0.20200
C 	C 	0.21330 0.65560 0.53036 0.21300
C 	C 	0.26130 0.67720 0.47296 0.21600
C 	C 	0.39050 0.83030 0.38478 0.34700
C 	C 	0.36540 0.76830 0.38011 0.00200
C 	C 	0.38250 0.73280 0.34571 -0.06400
H 	H 	0.40530 0.74910 0.32530 0.09300
C 	C 	0.36610 0.67830 0.34330 0.03400
C 	C 	0.33150 0.74340 0.40906 -0.14000
H 	H 	0.32280 0.76570 0.43180 0.10900
C 	C 	0.33180 0.65510 0.37640 -0.15800
H 	H 	0.32490 0.61500 0.37670 0.11000
C 	C 	0.30880 0.68730 0.40716 0.18900
C 	C 	0.38450 0.63460 0.31160 0.24200
N 	N 	0.31020 0.77290 0.54680 -0.23400
H 	H 	0.33520 0.78940 0.53110 0.14100
N 	N 	0.29340 0.71800 0.49003 -0.17500
N 	N 	0.24040 0.69840 0.55164 -0.17000
N 	N 	0.17950 0.62110 0.55426 -0.23700
H 	H 	0.18450 0.62550 0.57980 0.15400
N 	N 	0.22360 0.64059 0.49250 -0.17400
N 	N 	0.27130 0.66290 0.43398 -0.25600
H 	H 	0.25080 0.63410 0.42490 0.15500
O 	O 	0.02240 0.52638 0.63420 -0.34700
O 	O 	0.91672 0.53830 0.49425 -0.24200
O 	O 	0.97558 0.46519 0.59479 -0.47700
O 	O 	0.84140 0.49470 0.41180 -0.36300
H 	H 	0.81460 0.48830 0.42780 0.22600
O 	O 	0.12199 0.49266 0.43100 -0.31000
O 	O 	0.93392 0.39180 0.49803 -0.24000
O 	O 	0.03953 0.45387 0.44987 -0.45200
O 	O 	0.35395 0.96894 0.66427 -0.35000
O 	O 	0.38938 0.95904 0.60242 -0.46500
O 	O 	0.41121 0.85295 0.35361 -0.44100
O 	O 	0.39018 0.85262 0.41847 -0.36200
O 	O 	0.20860 0.73700 0.68393 -0.23100
O 	O 	0.23900 0.80820 0.71998 -0.20400
O 	O 	0.36140 0.58750 0.30594 -0.18600
O 	O 	0.41410 0.66190 0.28220 -0.16500
Zn	Zn	0.95900 0.57639 0.89264 1.23000
Na	Na	0.06637 0.53084 0.94284 0.58900
Na	Na	0.10882 0.53961 0.04280 0.58700
C 	C 	0.73070 0.19360 0.15424 -0.01800
C 	C 	0.72800 0.22600 0.11663 -0.10600
H 	H 	0.74760 0.26130 0.11340 0.10400
C 	C 	0.69450 0.20170 0.08549 0.14300
C 	C 	0.66620 0.14850 0.09035 -0.10000
H 	H 	0.64380 0.13330 0.06930 0.07600
C 	C 	0.67090 0.11730 0.12660 -0.02900
C 	C 	0.70130 0.14110 0.15795 -0.02300
H 	H 	0.70220 0.12140 0.18250 0.07800
C 	C 	0.91145 0.48907 0.99876 -0.02400
C 	C 	0.86910 0.44710 0.00544 -0.10800
H 	H 	0.84420 0.43590 0.98460 0.10200
C 	C 	0.86360 0.42180 0.04280 0.14000
C 	C 	0.90350 0.43910 0.07401 -0.09500
H 	H 	0.90160 0.42110 0.09920 0.09600
C 	C 	0.94467 0.48226 0.06718 -0.03900
C 	C 	0.94833 0.50648 0.02983 -0.01400
H 	H 	0.97610 0.53540 0.02500 0.05800
C 	C 	0.98425 0.49836 0.10142 0.34900
C 	C 	0.91490 0.51474 0.95600 0.33400
C 	C 	0.63810 0.06008 0.13231 0.35000
C 	C 	0.76350 0.22100 0.18904 0.33200
C 	C 	0.71890 0.27410 0.03008 0.20200
C 	C 	0.78670 0.34440 0.03036 0.21300
C 	C 	0.73870 0.32280 0.97296 0.21600
C 	C 	0.60950 0.16970 0.88478 0.34700
C 	C 	0.63460 0.23170 0.88011 0.00200
C 	C 	0.61750 0.26720 0.84571 -0.06400
H 	H 	0.59470 0.25090 0.82530 0.09300
C 	C 	0.63390 0.32170 0.84330 0.03400
C 	C 	0.66850 0.25660 0.90906 -0.14000
H 	H 	0.67720 0.23430 0.93180 0.10900
C 	C 	0.66820 0.34490 0.87640 -0.15800
H 	H 	0.67510 0.38500 0.87670 0.11000
C 	C 	0.69120 0.31270 0.90716 0.18900
C 	C 	0.61550 0.36540 0.81160 0.24200
N 	N 	0.68980 0.22710 0.04680 -0.23400
H 	H 	0.66480 0.21060 0.03110 0.14100
N 	N 	0.70660 0.28200 0.99003 -0.17500
N 	N 	0.75960 0.30160 0.05164 -0.17000
N 	N 	0.82050 0.37890 0.05426 -0.23700
H 	H 	0.81550 0.37450 0.07980 0.15400
N 	N 	0.77640 0.35941 0.99250 -0.17400
N 	N 	0.72870 0.33710 0.93398 -0.25600
H 	H 	0.74920 0.36590 0.92490 0.15500
O 	O 	0.97760 0.47362 0.13420 -0.34700
O 	O 	0.08328 0.46170 0.99425 -0.24200
O 	O 	0.02442 0.53481 0.09479 -0.47800
O 	O 	0.15860 0.50530 0.91180 -0.36300
H 	H 	0.18540 0.51170 0.92780 0.22600
O 	O 	0.87801 0.50734 0.93100 -0.31100
O 	O 	0.06608 0.60820 0.99803 -0.24000
O 	O 	0.96047 0.54613 0.94987 -0.45200
O 	O 	0.64605 0.03106 0.16427 -0.35000
O 	O 	0.61062 0.04096 0.10242 -0.46500
O 	O 	0.58879 0.14705 0.85361 -0.44100
O 	O 	0.60982 0.14738 0.91847 -0.36200
O 	O 	0.79140 0.26300 0.18393 -0.23100
O 	O 	0.76100 0.19180 0.21998 -0.20400
O 	O 	0.63860 0.41250 0.80594 -0.18600
O 	O 	0.58590 0.33810 0.78220 -0.16500
