data_crystal

_cell_length_a 18.27200
_cell_length_b 23.49800
_cell_length_c 29.93500
_cell_angle_alpha 90.00000
_cell_angle_beta  90.00000
_cell_angle_gamma 90.00000

_symmetry_space_group_name_	'P 1'
_symmetry_space_group_name_H-M	'P 1'

loop_
_symmetry_equiv_pos_as_xyz
  x,y,z

loop_
_atom_site_label
_atom_site_type_symbol
_atom_site_fract_x
_atom_site_fract_y
_atom_site_fract_z
_atom_site_charge
Cu	Cu	0.26070 0.10710 0.36900 0.82200
N 	N 	0.27130 0.02500 0.37060 -0.26600
C 	C 	0.25200 0.99320 0.33550 0.05900
C 	C 	0.25310 0.93510 0.33610 -0.12800
C 	C 	0.27450 0.90650 0.37410 0.04500
C 	C 	0.29540 0.93880 0.41050 -0.12200
C 	C 	0.29380 0.99710 0.40720 0.06000
N 	N 	0.30720 0.59120 0.42570 -0.26200
C 	C 	0.31610 0.53610 0.41770 0.05500
C 	C 	0.34600 0.49880 0.44760 -0.12800
C 	C 	0.36830 0.51800 0.48890 0.04300
C 	C 	0.35840 0.57550 0.49780 -0.12700
C 	C 	0.32850 0.60990 0.46560 0.05000
N 	N 	0.46180 0.40450 0.58460 -0.25700
C 	C 	0.46950 0.39640 0.54090 0.07600
C 	C 	0.44120 0.43180 0.50920 -0.12800
C 	C 	0.40090 0.47950 0.52170 0.04900
C 	C 	0.39270 0.48770 0.56760 -0.13600
C 	C 	0.42280 0.44950 0.59720 0.06000
H 	H 	0.23250 0.01120 0.30930 -0.03100
H 	H 	0.24400 0.91350 0.30940 0.06000
H 	H 	0.31290 0.92140 0.43750 0.06000
H 	H 	0.30880 0.01930 0.43250 -0.02700
H 	H 	0.29940 0.52230 0.38920 -0.01500
H 	H 	0.35380 0.46010 0.43860 0.06300
H 	H 	0.37080 0.59090 0.52650 0.06400
H 	H 	0.32620 0.65020 0.47060 -0.02800
H 	H 	0.50120 0.36590 0.53180 -0.02200
H 	H 	0.44640 0.42210 0.47820 0.06700
H 	H 	0.36580 0.52000 0.57840 0.06800
H 	H 	0.41510 0.45500 0.62870 -0.04000
Cu	Cu	0.26070 0.60710 0.86900 0.82300
N 	N 	0.27130 0.52500 0.87060 -0.26500
C 	C 	0.25200 0.49320 0.83550 0.06200
C 	C 	0.25310 0.43510 0.83610 -0.12800
C 	C 	0.27450 0.40650 0.87410 0.04700
C 	C 	0.29540 0.43880 0.91050 -0.12300
C 	C 	0.29380 0.49710 0.90720 0.06300
N 	N 	0.30720 0.09120 0.92570 -0.26200
C 	C 	0.31610 0.03610 0.91770 0.05800
C 	C 	0.34600 0.99880 0.94760 -0.13000
C 	C 	0.36830 0.01800 0.98890 0.04600
C 	C 	0.35840 0.07550 0.99780 -0.12700
C 	C 	0.32850 0.10990 0.96560 0.05100
N 	N 	0.46180 0.90450 0.08460 -0.25600
C 	C 	0.46950 0.89640 0.04090 0.07600
C 	C 	0.44120 0.93180 0.00920 -0.12600
C 	C 	0.40090 0.97950 0.02170 0.04800
C 	C 	0.39270 0.98770 0.06760 -0.13600
C 	C 	0.42280 0.94950 0.09720 0.06000
H 	H 	0.23250 0.51120 0.80930 -0.03200
H 	H 	0.24400 0.41350 0.80940 0.06100
H 	H 	0.31290 0.42140 0.93750 0.06100
H 	H 	0.30880 0.51930 0.93250 -0.02800
H 	H 	0.29940 0.02230 0.88920 -0.01600
H 	H 	0.35380 0.96010 0.93860 0.06400
H 	H 	0.37080 0.09090 0.02650 0.06400
H 	H 	0.32620 0.15020 0.97060 -0.02900
H 	H 	0.50120 0.86590 0.03180 -0.02200
H 	H 	0.44640 0.92210 0.97820 0.06600
H 	H 	0.36580 0.02000 0.07840 0.06800
H 	H 	0.41510 0.95500 0.12870 -0.04000
Cu	Cu	0.76070 0.10710 0.86900 0.82300
N 	N 	0.77130 0.02500 0.87060 -0.26600
C 	C 	0.75200 0.99320 0.83550 0.06400
C 	C 	0.75310 0.93510 0.83610 -0.12900
C 	C 	0.77450 0.90650 0.87410 0.04700
C 	C 	0.79540 0.93880 0.91050 -0.12400
C 	C 	0.79380 0.99710 0.90720 0.06400
N 	N 	0.80720 0.59120 0.92570 -0.26200
C 	C 	0.81610 0.53610 0.91770 0.05600
C 	C 	0.84600 0.49880 0.94760 -0.12700
C 	C 	0.86830 0.51800 0.98890 0.04500
C 	C 	0.85840 0.57550 0.99780 -0.12700
C 	C 	0.82850 0.60990 0.96560 0.05100
N 	N 	0.96180 0.40450 0.08460 -0.25600
C 	C 	0.96950 0.39640 0.04090 0.07700
C 	C 	0.94120 0.43180 0.00920 -0.12700
C 	C 	0.90090 0.47950 0.02170 0.04900
C 	C 	0.89270 0.48770 0.06760 -0.13600
C 	C 	0.92280 0.44950 0.09720 0.06000
H 	H 	0.73250 0.01120 0.80930 -0.03300
H 	H 	0.74400 0.91350 0.80940 0.06100
H 	H 	0.81290 0.92140 0.93750 0.06100
H 	H 	0.80880 0.01930 0.93250 -0.02800
H 	H 	0.79940 0.52230 0.88920 -0.01500
H 	H 	0.85380 0.46010 0.93860 0.06300
H 	H 	0.87080 0.59090 0.02650 0.06400
H 	H 	0.82620 0.65020 0.97060 -0.02900
H 	H 	0.00120 0.36590 0.03180 -0.02200
H 	H 	0.94640 0.42210 0.97820 0.06600
H 	H 	0.86580 0.52000 0.07840 0.06800
H 	H 	0.91510 0.45500 0.12870 -0.04000
Cu	Cu	0.76070 0.60710 0.36900 0.82300
N 	N 	0.77130 0.52500 0.37060 -0.26500
C 	C 	0.75200 0.49320 0.33550 0.06200
C 	C 	0.75310 0.43510 0.33610 -0.12800
C 	C 	0.77450 0.40650 0.37410 0.04700
C 	C 	0.79540 0.43880 0.41050 -0.12300
C 	C 	0.79380 0.49710 0.40720 0.06300
N 	N 	0.80720 0.09120 0.42570 -0.26100
C 	C 	0.81610 0.03610 0.41770 0.05400
C 	C 	0.84600 0.99880 0.44760 -0.12300
C 	C 	0.86830 0.01800 0.48890 0.04100
C 	C 	0.85840 0.07550 0.49780 -0.12400
C 	C 	0.82850 0.10990 0.46560 0.05000
N 	N 	0.96180 0.90450 0.58460 -0.25600
C 	C 	0.96950 0.89640 0.54090 0.07900
C 	C 	0.94120 0.93180 0.50920 -0.12900
C 	C 	0.90090 0.97950 0.52170 0.05100
C 	C 	0.89270 0.98770 0.56760 -0.13600
C 	C 	0.92280 0.94950 0.59720 0.06000
H 	H 	0.73250 0.51120 0.30930 -0.03200
H 	H 	0.74400 0.41350 0.30940 0.06100
H 	H 	0.81290 0.42140 0.43750 0.06100
H 	H 	0.80880 0.51930 0.43250 -0.02800
H 	H 	0.79940 0.02230 0.38920 -0.01500
H 	H 	0.85380 0.96010 0.43860 0.06200
H 	H 	0.87080 0.09090 0.52650 0.06300
H 	H 	0.82620 0.15020 0.47060 -0.02800
H 	H 	0.00120 0.86590 0.53180 -0.02300
H 	H 	0.94640 0.92210 0.47820 0.06700
H 	H 	0.86580 0.02000 0.57840 0.06700
H 	H 	0.91510 0.95500 0.62870 -0.03900
Cu	Cu	0.26070 0.64290 0.38100 0.82300
N 	N 	0.27130 0.72500 0.37940 -0.26600
C 	C 	0.25200 0.75680 0.41450 0.06200
C 	C 	0.25310 0.81490 0.41390 -0.12900
C 	C 	0.27450 0.84350 0.37590 0.04700
C 	C 	0.29540 0.81120 0.33950 -0.12300
C 	C 	0.29380 0.75290 0.34280 0.06300
N 	N 	0.30720 0.15880 0.32430 -0.26100
C 	C 	0.31610 0.21390 0.33230 0.05600
C 	C 	0.34600 0.25120 0.30240 -0.12700
C 	C 	0.36830 0.23200 0.26110 0.04400
C 	C 	0.35840 0.17450 0.25220 -0.12600
C 	C 	0.32850 0.14010 0.28440 0.05100
N 	N 	0.46180 0.34550 0.16540 -0.25600
C 	C 	0.46950 0.35360 0.20910 0.07700
C 	C 	0.44120 0.31820 0.24080 -0.12700
C 	C 	0.40090 0.27050 0.22830 0.04900
C 	C 	0.39270 0.26230 0.18240 -0.13600
C 	C 	0.42280 0.30050 0.15280 0.06000
H 	H 	0.23250 0.73880 0.44070 -0.03200
H 	H 	0.24400 0.83650 0.44060 0.06100
H 	H 	0.31290 0.82860 0.31250 0.06100
H 	H 	0.30880 0.73070 0.31750 -0.02800
H 	H 	0.29940 0.22770 0.36080 -0.01500
H 	H 	0.35380 0.28990 0.31140 0.06300
H 	H 	0.37080 0.15910 0.22350 0.06400
H 	H 	0.32620 0.09980 0.27940 -0.02800
H 	H 	0.50120 0.38410 0.21820 -0.02200
H 	H 	0.44640 0.32790 0.27180 0.06700
H 	H 	0.36580 0.23000 0.17160 0.06800
H 	H 	0.41510 0.29500 0.12130 -0.04000
Cu	Cu	0.26070 0.14290 0.88100 0.82300
N 	N 	0.27130 0.22500 0.87940 -0.26500
C 	C 	0.25200 0.25680 0.91450 0.06200
C 	C 	0.25310 0.31490 0.91390 -0.12800
C 	C 	0.27450 0.34350 0.87590 0.04700
C 	C 	0.29540 0.31120 0.83950 -0.12300
C 	C 	0.29380 0.25290 0.84280 0.06300
N 	N 	0.30720 0.65880 0.82430 -0.26100
C 	C 	0.31610 0.71390 0.83230 0.05600
C 	C 	0.34600 0.75120 0.80240 -0.12700
C 	C 	0.36830 0.73200 0.76110 0.04400
C 	C 	0.35840 0.67450 0.75220 -0.12600
C 	C 	0.32850 0.64010 0.78440 0.05100
N 	N 	0.46180 0.84550 0.66540 -0.25600
C 	C 	0.46950 0.85360 0.70910 0.07700
C 	C 	0.44120 0.81820 0.74080 -0.12700
C 	C 	0.40090 0.77050 0.72830 0.04900
C 	C 	0.39270 0.76230 0.68240 -0.13600
C 	C 	0.42280 0.80050 0.65280 0.06000
H 	H 	0.23250 0.23880 0.94070 -0.03200
H 	H 	0.24400 0.33650 0.94060 0.06100
H 	H 	0.31290 0.32860 0.81250 0.06100
H 	H 	0.30880 0.23070 0.81750 -0.02800
H 	H 	0.29940 0.72770 0.86080 -0.01500
H 	H 	0.35380 0.78990 0.81140 0.06300
H 	H 	0.37080 0.65910 0.72350 0.06400
H 	H 	0.32620 0.59980 0.77940 -0.02800
H 	H 	0.50120 0.88410 0.71820 -0.02200
H 	H 	0.44640 0.82790 0.77180 0.06700
H 	H 	0.36580 0.73000 0.67160 0.06800
H 	H 	0.41510 0.79500 0.62130 -0.04000
Cu	Cu	0.76070 0.64290 0.88100 0.82300
N 	N 	0.77130 0.72500 0.87940 -0.26500
C 	C 	0.75200 0.75680 0.91450 0.06200
C 	C 	0.75310 0.81490 0.91390 -0.12800
C 	C 	0.77450 0.84350 0.87590 0.04600
C 	C 	0.79540 0.81120 0.83950 -0.12300
C 	C 	0.79380 0.75290 0.84280 0.06300
N 	N 	0.80720 0.15880 0.82430 -0.26100
C 	C 	0.81610 0.21390 0.83230 0.05600
C 	C 	0.84600 0.25120 0.80240 -0.12700
C 	C 	0.86830 0.23200 0.76110 0.04500
C 	C 	0.85840 0.17450 0.75220 -0.12600
C 	C 	0.82850 0.14010 0.78440 0.05100
N 	N 	0.96180 0.34550 0.66540 -0.25600
C 	C 	0.96950 0.35360 0.70910 0.07600
C 	C 	0.94120 0.31820 0.74080 -0.12700
C 	C 	0.90090 0.27050 0.72830 0.04900
C 	C 	0.89270 0.26230 0.68240 -0.13600
C 	C 	0.92280 0.30050 0.65280 0.06000
H 	H 	0.73250 0.73880 0.94070 -0.03200
H 	H 	0.74400 0.83650 0.94060 0.06000
H 	H 	0.81290 0.82860 0.81250 0.06100
H 	H 	0.80880 0.73070 0.81750 -0.02800
H 	H 	0.79940 0.22770 0.86080 -0.01500
H 	H 	0.85380 0.28990 0.81140 0.06300
H 	H 	0.87080 0.15910 0.72350 0.06300
H 	H 	0.82620 0.09980 0.77940 -0.02900
H 	H 	0.00120 0.38410 0.71820 -0.02200
H 	H 	0.94640 0.32790 0.77180 0.06600
H 	H 	0.86580 0.23000 0.67160 0.06800
H 	H 	0.91510 0.29500 0.62130 -0.04000
Cu	Cu	0.76070 0.14290 0.38100 0.82300
N 	N 	0.77130 0.22500 0.37940 -0.26500
C 	C 	0.75200 0.25680 0.41450 0.06200
C 	C 	0.75310 0.31490 0.41390 -0.12800
C 	C 	0.77450 0.34350 0.37590 0.04700
C 	C 	0.79540 0.31120 0.33950 -0.12300
C 	C 	0.79380 0.25290 0.34280 0.06300
N 	N 	0.80720 0.65880 0.32430 -0.26100
C 	C 	0.81610 0.71390 0.33230 0.05600
C 	C 	0.84600 0.75120 0.30240 -0.12600
C 	C 	0.86830 0.73200 0.26110 0.04400
C 	C 	0.85840 0.67450 0.25220 -0.12600
C 	C 	0.82850 0.64010 0.28440 0.05100
N 	N 	0.96180 0.84550 0.16540 -0.25600
C 	C 	0.96950 0.85360 0.20910 0.07900
C 	C 	0.94120 0.81820 0.24080 -0.12900
C 	C 	0.90090 0.77050 0.22830 0.05000
C 	C 	0.89270 0.76230 0.18240 -0.13600
C 	C 	0.92280 0.80050 0.15280 0.06100
H 	H 	0.73250 0.23880 0.44070 -0.03200
H 	H 	0.74400 0.33650 0.44060 0.06100
H 	H 	0.81290 0.32860 0.31250 0.06100
H 	H 	0.80880 0.23070 0.31750 -0.02800
H 	H 	0.79940 0.72770 0.36080 -0.01500
H 	H 	0.85380 0.78990 0.31140 0.06300
H 	H 	0.87080 0.65910 0.22350 0.06400
H 	H 	0.82620 0.59980 0.27940 -0.02800
H 	H 	0.00120 0.88410 0.21820 -0.02400
H 	H 	0.94640 0.82790 0.27180 0.06700
H 	H 	0.86580 0.73000 0.17160 0.06800
H 	H 	0.91510 0.79500 0.12130 -0.03900
Cu	Cu	0.51070 0.35710 0.63100 0.82300
N 	N 	0.52130 0.27500 0.62940 -0.26500
C 	C 	0.50200 0.24320 0.66450 0.06200
C 	C 	0.50310 0.18510 0.66390 -0.12800
C 	C 	0.52450 0.15650 0.62590 0.04700
C 	C 	0.54540 0.18880 0.58950 -0.12300
C 	C 	0.54380 0.24710 0.59280 0.06300
N 	N 	0.55720 0.84120 0.57430 -0.26100
C 	C 	0.56610 0.78610 0.58230 0.05600
C 	C 	0.59600 0.74880 0.55240 -0.12700
C 	C 	0.61830 0.76800 0.51110 0.04400
C 	C 	0.60840 0.82550 0.50220 -0.12600
C 	C 	0.57850 0.85990 0.53440 0.05100
N 	N 	0.71180 0.65450 0.41540 -0.25600
C 	C 	0.71950 0.64640 0.45910 0.07700
C 	C 	0.69120 0.68180 0.49080 -0.12700
C 	C 	0.65090 0.72950 0.47830 0.04900
C 	C 	0.64270 0.73770 0.43240 -0.13600
C 	C 	0.67280 0.69950 0.40280 0.06000
H 	H 	0.48250 0.26120 0.69070 -0.03200
H 	H 	0.49400 0.16350 0.69060 0.06100
H 	H 	0.56290 0.17140 0.56250 0.06100
H 	H 	0.55880 0.26930 0.56750 -0.02800
H 	H 	0.54940 0.77230 0.61080 -0.01500
H 	H 	0.60380 0.71010 0.56140 0.06300
H 	H 	0.62080 0.84090 0.47350 0.06400
H 	H 	0.57620 0.90020 0.52940 -0.02900
H 	H 	0.75120 0.61590 0.46820 -0.02200
H 	H 	0.69640 0.67210 0.52180 0.06700
H 	H 	0.61580 0.77000 0.42160 0.06800
H 	H 	0.66510 0.70500 0.37130 -0.04000
Cu	Cu	0.51070 0.85710 0.13100 0.82300
N 	N 	0.52130 0.77500 0.12940 -0.26500
C 	C 	0.50200 0.74320 0.16450 0.06200
C 	C 	0.50310 0.68510 0.16390 -0.12800
C 	C 	0.52450 0.65650 0.12590 0.04700
C 	C 	0.54540 0.68880 0.08950 -0.12300
C 	C 	0.54380 0.74710 0.09280 0.06300
N 	N 	0.55720 0.34120 0.07430 -0.26100
C 	C 	0.56610 0.28610 0.08230 0.05600
C 	C 	0.59600 0.24880 0.05240 -0.12700
C 	C 	0.61830 0.26800 0.01110 0.04400
C 	C 	0.60840 0.32550 0.00220 -0.12600
C 	C 	0.57850 0.35990 0.03440 0.05100
N 	N 	0.71180 0.15450 0.91540 -0.25600
C 	C 	0.71950 0.14640 0.95910 0.07700
C 	C 	0.69120 0.18180 0.99080 -0.12800
C 	C 	0.65090 0.22950 0.97830 0.04900
C 	C 	0.64270 0.23770 0.93240 -0.13600
C 	C 	0.67280 0.19950 0.90280 0.06000
H 	H 	0.48250 0.76120 0.19070 -0.03200
H 	H 	0.49400 0.66350 0.19060 0.06100
H 	H 	0.56290 0.67140 0.06250 0.06100
H 	H 	0.55880 0.76930 0.06750 -0.02800
H 	H 	0.54940 0.27230 0.11080 -0.01500
H 	H 	0.60380 0.21010 0.06140 0.06300
H 	H 	0.62080 0.34090 0.97350 0.06400
H 	H 	0.57620 0.40020 0.02940 -0.02900
H 	H 	0.75120 0.11590 0.96820 -0.02200
H 	H 	0.69640 0.17210 0.02180 0.06600
H 	H 	0.61580 0.27000 0.92160 0.06800
H 	H 	0.66510 0.20500 0.87130 -0.04000
Cu	Cu	0.01070 0.35710 0.13100 0.82300
N 	N 	0.02130 0.27500 0.12940 -0.26500
C 	C 	0.00200 0.24320 0.16450 0.06200
C 	C 	0.00310 0.18510 0.16390 -0.12700
C 	C 	0.02450 0.15650 0.12590 0.04600
C 	C 	0.04540 0.18880 0.08950 -0.12300
C 	C 	0.04380 0.24710 0.09280 0.06300
N 	N 	0.05720 0.84120 0.07430 -0.26200
C 	C 	0.06610 0.78610 0.08230 0.05600
C 	C 	0.09600 0.74880 0.05240 -0.12700
C 	C 	0.11830 0.76800 0.01110 0.04400
C 	C 	0.10840 0.82550 0.00220 -0.12600
C 	C 	0.07850 0.85990 0.03440 0.05100
N 	N 	0.21180 0.65450 0.91540 -0.25600
C 	C 	0.21950 0.64640 0.95910 0.07700
C 	C 	0.19120 0.68180 0.99080 -0.12700
C 	C 	0.15090 0.72950 0.97830 0.04900
C 	C 	0.14270 0.73770 0.93240 -0.13600
C 	C 	0.17280 0.69950 0.90280 0.06000
H 	H 	0.98250 0.26120 0.19070 -0.03200
H 	H 	0.99400 0.16350 0.19060 0.06000
H 	H 	0.06290 0.17140 0.06250 0.06100
H 	H 	0.05880 0.26930 0.06750 -0.02800
H 	H 	0.04940 0.77230 0.11080 -0.01600
H 	H 	0.10380 0.71010 0.06140 0.06300
H 	H 	0.12080 0.84090 0.97350 0.06400
H 	H 	0.07620 0.90020 0.02940 -0.02900
H 	H 	0.25120 0.61590 0.96820 -0.02200
H 	H 	0.19640 0.67210 0.02180 0.06600
H 	H 	0.11580 0.77000 0.92160 0.06800
H 	H 	0.16510 0.70500 0.87130 -0.04000
Cu	Cu	0.01070 0.85710 0.63100 0.82300
N 	N 	0.02130 0.77500 0.62940 -0.26500
C 	C 	0.00200 0.74320 0.66450 0.06200
C 	C 	0.00310 0.68510 0.66390 -0.12800
C 	C 	0.02450 0.65650 0.62590 0.04700
C 	C 	0.04540 0.68880 0.58950 -0.12300
C 	C 	0.04380 0.74710 0.59280 0.06300
N 	N 	0.05720 0.34120 0.57430 -0.26100
C 	C 	0.06610 0.28610 0.58230 0.05700
C 	C 	0.09600 0.24880 0.55240 -0.12600
C 	C 	0.11830 0.26800 0.51110 0.04500
C 	C 	0.10840 0.32550 0.50220 -0.12600
C 	C 	0.07850 0.35990 0.53440 0.05100
N 	N 	0.21180 0.15450 0.41540 -0.25600
C 	C 	0.21950 0.14640 0.45910 0.07700
C 	C 	0.19120 0.18180 0.49080 -0.12700
C 	C 	0.15090 0.22950 0.47830 0.04900
C 	C 	0.14270 0.23770 0.43240 -0.13600
C 	C 	0.17280 0.19950 0.40280 0.06000
H 	H 	0.98250 0.76120 0.69070 -0.03100
H 	H 	0.99400 0.66350 0.69060 0.06100
H 	H 	0.06290 0.67140 0.56250 0.06100
H 	H 	0.05880 0.76930 0.56750 -0.02800
H 	H 	0.04940 0.27230 0.61080 -0.01500
H 	H 	0.10380 0.21010 0.56140 0.06300
H 	H 	0.12080 0.34090 0.47350 0.06400
H 	H 	0.07620 0.40020 0.52940 -0.02800
H 	H 	0.25120 0.11590 0.46820 -0.02200
H 	H 	0.19640 0.17210 0.52180 0.06700
H 	H 	0.11580 0.27000 0.42160 0.06800
H 	H 	0.16510 0.20500 0.37130 -0.03900
Cu	Cu	0.51070 0.89290 0.61900 0.82300
N 	N 	0.52130 0.97500 0.62060 -0.26500
C 	C 	0.50200 0.00680 0.58550 0.06200
C 	C 	0.50310 0.06490 0.58610 -0.12800
C 	C 	0.52450 0.09350 0.62410 0.04700
C 	C 	0.54540 0.06120 0.66050 -0.12300
C 	C 	0.54380 0.00290 0.65720 0.06200
N 	N 	0.55720 0.40880 0.67570 -0.26100
C 	C 	0.56610 0.46390 0.66770 0.05600
C 	C 	0.59600 0.50120 0.69760 -0.12700
C 	C 	0.61830 0.48200 0.73890 0.04400
C 	C 	0.60840 0.42450 0.74780 -0.12600
C 	C 	0.57850 0.39010 0.71560 0.05100
N 	N 	0.71180 0.59550 0.83460 -0.25600
C 	C 	0.71950 0.60360 0.79090 0.07700
C 	C 	0.69120 0.56820 0.75920 -0.12700
C 	C 	0.65090 0.52050 0.77170 0.04900
C 	C 	0.64270 0.51230 0.81760 -0.13600
C 	C 	0.67280 0.55050 0.84720 0.06000
H 	H 	0.48250 0.98880 0.55930 -0.03200
H 	H 	0.49400 0.08650 0.55940 0.06100
H 	H 	0.56290 0.07860 0.68750 0.06100
H 	H 	0.55880 0.98070 0.68250 -0.02700
H 	H 	0.54940 0.47770 0.63920 -0.01500
H 	H 	0.60380 0.53990 0.68860 0.06300
H 	H 	0.62080 0.40910 0.77650 0.06400
H 	H 	0.57620 0.34980 0.72060 -0.02800
H 	H 	0.75120 0.63410 0.78180 -0.02200
H 	H 	0.69640 0.57790 0.72820 0.06700
H 	H 	0.61580 0.48000 0.82840 0.06800
H 	H 	0.66510 0.54500 0.87870 -0.04000
Cu	Cu	0.51070 0.39290 0.11900 0.82300
N 	N 	0.52130 0.47500 0.12060 -0.26500
C 	C 	0.50200 0.50680 0.08550 0.06200
C 	C 	0.50310 0.56490 0.08610 -0.12800
C 	C 	0.52450 0.59350 0.12410 0.04700
C 	C 	0.54540 0.56120 0.16050 -0.12300
C 	C 	0.54380 0.50290 0.15720 0.06300
N 	N 	0.55720 0.90880 0.17570 -0.26200
C 	C 	0.56610 0.96390 0.16770 0.05800
C 	C 	0.59600 0.00120 0.19760 -0.12900
C 	C 	0.61830 0.98200 0.23890 0.04600
C 	C 	0.60840 0.92450 0.24780 -0.12700
C 	C 	0.57850 0.89010 0.21560 0.05100
N 	N 	0.71180 0.09550 0.33460 -0.25600
C 	C 	0.71950 0.10360 0.29090 0.07700
C 	C 	0.69120 0.06820 0.25920 -0.12700
C 	C 	0.65090 0.02050 0.27170 0.04800
C 	C 	0.64270 0.01230 0.31760 -0.13600
C 	C 	0.67280 0.05050 0.34720 0.06000
H 	H 	0.48250 0.48880 0.05930 -0.03200
H 	H 	0.49400 0.58650 0.05940 0.06100
H 	H 	0.56290 0.57860 0.18750 0.06100
H 	H 	0.55880 0.48070 0.18250 -0.02800
H 	H 	0.54940 0.97770 0.13920 -0.01600
H 	H 	0.60380 0.03990 0.18860 0.06300
H 	H 	0.62080 0.90910 0.27650 0.06400
H 	H 	0.57620 0.84980 0.22060 -0.02900
H 	H 	0.75120 0.13410 0.28180 -0.02200
H 	H 	0.69640 0.07790 0.22820 0.06600
H 	H 	0.61580 0.98000 0.32840 0.06800
H 	H 	0.66510 0.04500 0.37870 -0.04000
Cu	Cu	0.01070 0.89290 0.11900 0.82300
N 	N 	0.02130 0.97500 0.12060 -0.26700
C 	C 	0.00200 0.00680 0.08550 0.06200
C 	C 	0.00310 0.06490 0.08610 -0.12700
C 	C 	0.02450 0.09350 0.12410 0.04700
C 	C 	0.04540 0.06120 0.16050 -0.12400
C 	C 	0.04380 0.00290 0.15720 0.06500
N 	N 	0.05720 0.40880 0.17570 -0.26100
C 	C 	0.06610 0.46390 0.16770 0.05600
C 	C 	0.09600 0.50120 0.19760 -0.12700
C 	C 	0.11830 0.48200 0.23890 0.04400
C 	C 	0.10840 0.42450 0.24780 -0.12600
C 	C 	0.07850 0.39010 0.21560 0.05100
N 	N 	0.21180 0.59550 0.33460 -0.25600
C 	C 	0.21950 0.60360 0.29090 0.07700
C 	C 	0.19120 0.56820 0.25920 -0.12700
C 	C 	0.15090 0.52050 0.27170 0.04900
C 	C 	0.14270 0.51230 0.31760 -0.13600
C 	C 	0.17280 0.55050 0.34720 0.06000
H 	H 	0.98250 0.98880 0.05930 -0.03100
H 	H 	0.99400 0.08650 0.05940 0.06000
H 	H 	0.06290 0.07860 0.18750 0.06100
H 	H 	0.05880 0.98070 0.18250 -0.02900
H 	H 	0.04940 0.47770 0.13920 -0.01500
H 	H 	0.10380 0.53990 0.18860 0.06300
H 	H 	0.12080 0.40910 0.27650 0.06400
H 	H 	0.07620 0.34980 0.22060 -0.02800
H 	H 	0.25120 0.63410 0.28180 -0.02200
H 	H 	0.19640 0.57790 0.22820 0.06700
H 	H 	0.11580 0.48000 0.32840 0.06800
H 	H 	0.16510 0.54500 0.37870 -0.04000
Cu	Cu	0.01070 0.39290 0.61900 0.82400
N 	N 	0.02130 0.47500 0.62060 -0.26500
C 	C 	0.00200 0.50680 0.58550 0.06300
C 	C 	0.00310 0.56490 0.58610 -0.12900
C 	C 	0.02450 0.59350 0.62410 0.04700
C 	C 	0.04540 0.56120 0.66050 -0.12300
C 	C 	0.04380 0.50290 0.65720 0.06300
N 	N 	0.05720 0.90880 0.67570 -0.26100
C 	C 	0.06610 0.96390 0.66770 0.05300
C 	C 	0.09600 0.00120 0.69760 -0.12200
C 	C 	0.11830 0.98200 0.73890 0.04100
C 	C 	0.10840 0.92450 0.74780 -0.12400
C 	C 	0.07850 0.89010 0.71560 0.05000
N 	N 	0.21180 0.09550 0.83460 -0.25600
C 	C 	0.21950 0.10360 0.79090 0.07700
C 	C 	0.19120 0.06820 0.75920 -0.12800
C 	C 	0.15090 0.02050 0.77170 0.05100
C 	C 	0.14270 0.01230 0.81760 -0.13500
C 	C 	0.17280 0.05050 0.84720 0.06000
H 	H 	0.98250 0.48880 0.55930 -0.03200
H 	H 	0.99400 0.58650 0.55940 0.06100
H 	H 	0.06290 0.57860 0.68750 0.06100
H 	H 	0.05880 0.48070 0.68250 -0.02800
H 	H 	0.04940 0.97770 0.63920 -0.01500
H 	H 	0.10380 0.03990 0.68860 0.06200
H 	H 	0.12080 0.90910 0.77650 0.06300
H 	H 	0.07620 0.84980 0.72060 -0.02800
H 	H 	0.25120 0.13410 0.78180 -0.02200
H 	H 	0.19640 0.07790 0.72820 0.06700
H 	H 	0.11580 0.98000 0.82840 0.06700
H 	H 	0.16510 0.04500 0.87870 -0.03900
Cu	Cu	0.48930 0.64290 0.36900 0.82300
N 	N 	0.47870 0.72500 0.37060 -0.26500
C 	C 	0.49800 0.75680 0.33550 0.06200
C 	C 	0.49690 0.81490 0.33610 -0.12800
C 	C 	0.47550 0.84350 0.37410 0.04700
C 	C 	0.45460 0.81120 0.41050 -0.12300
C 	C 	0.45620 0.75290 0.40720 0.06300
N 	N 	0.44280 0.15880 0.42570 -0.26100
C 	C 	0.43390 0.21390 0.41770 0.05600
C 	C 	0.40400 0.25120 0.44760 -0.12700
C 	C 	0.38170 0.23200 0.48890 0.04400
C 	C 	0.39160 0.17450 0.49780 -0.12600
C 	C 	0.42150 0.14010 0.46560 0.05100
N 	N 	0.28820 0.34550 0.58460 -0.25600
C 	C 	0.28050 0.35360 0.54090 0.07700
C 	C 	0.30880 0.31820 0.50920 -0.12700
C 	C 	0.34910 0.27050 0.52170 0.04900
C 	C 	0.35730 0.26230 0.56760 -0.13600
C 	C 	0.32720 0.30050 0.59720 0.06000
H 	H 	0.51750 0.73880 0.30930 -0.03200
H 	H 	0.50600 0.83650 0.30940 0.06100
H 	H 	0.43710 0.82860 0.43750 0.06100
H 	H 	0.44120 0.73070 0.43250 -0.02800
H 	H 	0.45060 0.22770 0.38920 -0.01500
H 	H 	0.39620 0.28990 0.43860 0.06300
H 	H 	0.37920 0.15910 0.52650 0.06400
H 	H 	0.42380 0.09980 0.47060 -0.02900
H 	H 	0.24880 0.38410 0.53180 -0.02200
H 	H 	0.30360 0.32790 0.47820 0.06700
H 	H 	0.38420 0.23000 0.57840 0.06800
H 	H 	0.33490 0.29500 0.62870 -0.04000
Cu	Cu	0.48930 0.14290 0.86900 0.82300
N 	N 	0.47870 0.22500 0.87060 -0.26500
C 	C 	0.49800 0.25680 0.83550 0.06200
C 	C 	0.49690 0.31490 0.83610 -0.12800
C 	C 	0.47550 0.34350 0.87410 0.04700
C 	C 	0.45460 0.31120 0.91050 -0.12300
C 	C 	0.45620 0.25290 0.90720 0.06300
N 	N 	0.44280 0.65880 0.92570 -0.26100
C 	C 	0.43390 0.71390 0.91770 0.05600
C 	C 	0.40400 0.75120 0.94760 -0.12700
C 	C 	0.38170 0.73200 0.98890 0.04400
C 	C 	0.39160 0.67450 0.99780 -0.12600
C 	C 	0.42150 0.64010 0.96560 0.05100
N 	N 	0.28820 0.84550 0.08460 -0.25600
C 	C 	0.28050 0.85360 0.04090 0.07700
C 	C 	0.30880 0.81820 0.00920 -0.12800
C 	C 	0.34910 0.77050 0.02170 0.04900
C 	C 	0.35730 0.76230 0.06760 -0.13600
C 	C 	0.32720 0.80050 0.09720 0.06000
H 	H 	0.51750 0.23880 0.80930 -0.03200
H 	H 	0.50600 0.33650 0.80940 0.06100
H 	H 	0.43710 0.32860 0.93750 0.06100
H 	H 	0.44120 0.23070 0.93250 -0.02800
H 	H 	0.45060 0.72770 0.88920 -0.01500
H 	H 	0.39620 0.78990 0.93860 0.06300
H 	H 	0.37920 0.65910 0.02650 0.06400
H 	H 	0.42380 0.59980 0.97060 -0.02900
H 	H 	0.24880 0.88410 0.03180 -0.02200
H 	H 	0.30360 0.82790 0.97820 0.06600
H 	H 	0.38420 0.73000 0.07840 0.06800
H 	H 	0.33490 0.79500 0.12870 -0.04000
Cu	Cu	0.98930 0.64290 0.86900 0.82300
N 	N 	0.97870 0.72500 0.87060 -0.26500
C 	C 	0.99800 0.75680 0.83550 0.06200
C 	C 	0.99690 0.81490 0.83610 -0.12700
C 	C 	0.97550 0.84350 0.87410 0.04600
C 	C 	0.95460 0.81120 0.91050 -0.12300
C 	C 	0.95620 0.75290 0.90720 0.06300
N 	N 	0.94280 0.15880 0.92570 -0.26200
C 	C 	0.93390 0.21390 0.91770 0.05600
C 	C 	0.90400 0.25120 0.94760 -0.12700
C 	C 	0.88170 0.23200 0.98890 0.04400
C 	C 	0.89160 0.17450 0.99780 -0.12600
C 	C 	0.92150 0.14010 0.96560 0.05100
N 	N 	0.78820 0.34550 0.08460 -0.25600
C 	C 	0.78050 0.35360 0.04090 0.07700
C 	C 	0.80880 0.31820 0.00920 -0.12700
C 	C 	0.84910 0.27050 0.02170 0.04900
C 	C 	0.85730 0.26230 0.06760 -0.13600
C 	C 	0.82720 0.30050 0.09720 0.06000
H 	H 	0.01750 0.73880 0.80930 -0.03200
H 	H 	0.00600 0.83650 0.80940 0.06000
H 	H 	0.93710 0.82860 0.93750 0.06100
H 	H 	0.94120 0.73070 0.93250 -0.02800
H 	H 	0.95060 0.22770 0.88920 -0.01600
H 	H 	0.89620 0.28990 0.93860 0.06300
H 	H 	0.87920 0.15910 0.02650 0.06400
H 	H 	0.92380 0.09980 0.97060 -0.02900
H 	H 	0.74880 0.38410 0.03180 -0.02200
H 	H 	0.80360 0.32790 0.97820 0.06600
H 	H 	0.88420 0.23000 0.07840 0.06800
H 	H 	0.83490 0.29500 0.12870 -0.04000
Cu	Cu	0.98930 0.14290 0.36900 0.82300
N 	N 	0.97870 0.22500 0.37060 -0.26500
C 	C 	0.99800 0.25680 0.33550 0.06200
C 	C 	0.99690 0.31490 0.33610 -0.12800
C 	C 	0.97550 0.34350 0.37410 0.04700
C 	C 	0.95460 0.31120 0.41050 -0.12300
C 	C 	0.95620 0.25290 0.40720 0.06300
N 	N 	0.94280 0.65880 0.42570 -0.26100
C 	C 	0.93390 0.71390 0.41770 0.05700
C 	C 	0.90400 0.75120 0.44760 -0.12600
C 	C 	0.88170 0.73200 0.48890 0.04500
C 	C 	0.89160 0.67450 0.49780 -0.12600
C 	C 	0.92150 0.64010 0.46560 0.05100
N 	N 	0.78820 0.84550 0.58460 -0.25600
C 	C 	0.78050 0.85360 0.54090 0.07700
C 	C 	0.80880 0.81820 0.50920 -0.12700
C 	C 	0.84910 0.77050 0.52170 0.04900
C 	C 	0.85730 0.76230 0.56760 -0.13600
C 	C 	0.82720 0.80050 0.59720 0.06000
H 	H 	0.01750 0.23880 0.30930 -0.03100
H 	H 	0.00600 0.33650 0.30940 0.06100
H 	H 	0.93710 0.32860 0.43750 0.06100
H 	H 	0.94120 0.23070 0.43250 -0.02800
H 	H 	0.95060 0.72770 0.38920 -0.01500
H 	H 	0.89620 0.78990 0.43860 0.06300
H 	H 	0.87920 0.65910 0.52650 0.06400
H 	H 	0.92380 0.59980 0.47060 -0.02800
H 	H 	0.74880 0.88410 0.53180 -0.02200
H 	H 	0.80360 0.82790 0.47820 0.06700
H 	H 	0.88420 0.73000 0.57840 0.06800
H 	H 	0.83490 0.79500 0.62870 -0.03900
Cu	Cu	0.48930 0.10710 0.38100 0.82300
N 	N 	0.47870 0.02500 0.37940 -0.26500
C 	C 	0.49800 0.99320 0.41450 0.06200
C 	C 	0.49690 0.93510 0.41390 -0.12800
C 	C 	0.47550 0.90650 0.37590 0.04700
C 	C 	0.45460 0.93880 0.33950 -0.12300
C 	C 	0.45620 0.99710 0.34280 0.06200
N 	N 	0.44280 0.59120 0.32430 -0.26100
C 	C 	0.43390 0.53610 0.33230 0.05600
C 	C 	0.40400 0.49880 0.30240 -0.12700
C 	C 	0.38170 0.51800 0.26110 0.04400
C 	C 	0.39160 0.57550 0.25220 -0.12600
C 	C 	0.42150 0.60990 0.28440 0.05100
N 	N 	0.28820 0.40450 0.16540 -0.25600
C 	C 	0.28050 0.39640 0.20910 0.07700
C 	C 	0.30880 0.43180 0.24080 -0.12700
C 	C 	0.34910 0.47950 0.22830 0.04900
C 	C 	0.35730 0.48770 0.18240 -0.13600
C 	C 	0.32720 0.44950 0.15280 0.06000
H 	H 	0.51750 0.01120 0.44070 -0.03200
H 	H 	0.50600 0.91350 0.44060 0.06100
H 	H 	0.43710 0.92140 0.31250 0.06100
H 	H 	0.44120 0.01930 0.31750 -0.02700
H 	H 	0.45060 0.52230 0.36080 -0.01500
H 	H 	0.39620 0.46010 0.31140 0.06300
H 	H 	0.37920 0.59090 0.22350 0.06400
H 	H 	0.42380 0.65020 0.27940 -0.02800
H 	H 	0.24880 0.36590 0.21820 -0.02200
H 	H 	0.30360 0.42210 0.27180 0.06700
H 	H 	0.38420 0.52000 0.17160 0.06800
H 	H 	0.33490 0.45500 0.12130 -0.04000
Cu	Cu	0.48930 0.60710 0.88100 0.82300
N 	N 	0.47870 0.52500 0.87940 -0.26500
C 	C 	0.49800 0.49320 0.91450 0.06200
C 	C 	0.49690 0.43510 0.91390 -0.12800
C 	C 	0.47550 0.40650 0.87590 0.04700
C 	C 	0.45460 0.43880 0.83950 -0.12300
C 	C 	0.45620 0.49710 0.84280 0.06300
N 	N 	0.44280 0.09120 0.82430 -0.26200
C 	C 	0.43390 0.03610 0.83230 0.05800
C 	C 	0.40400 0.99880 0.80240 -0.12900
C 	C 	0.38170 0.01800 0.76110 0.04600
C 	C 	0.39160 0.07550 0.75220 -0.12700
C 	C 	0.42150 0.10990 0.78440 0.05100
N 	N 	0.28820 0.90450 0.66540 -0.25600
C 	C 	0.28050 0.89640 0.70910 0.07700
C 	C 	0.30880 0.93180 0.74080 -0.12700
C 	C 	0.34910 0.97950 0.72830 0.04800
C 	C 	0.35730 0.98770 0.68240 -0.13600
C 	C 	0.32720 0.94950 0.65280 0.06000
H 	H 	0.51750 0.51120 0.94070 -0.03200
H 	H 	0.50600 0.41350 0.94060 0.06100
H 	H 	0.43710 0.42140 0.81250 0.06100
H 	H 	0.44120 0.51930 0.81750 -0.02800
H 	H 	0.45060 0.02230 0.86080 -0.01600
H 	H 	0.39620 0.96010 0.81140 0.06300
H 	H 	0.37920 0.09090 0.72350 0.06400
H 	H 	0.42380 0.15020 0.77940 -0.02900
H 	H 	0.24880 0.86590 0.71820 -0.02200
H 	H 	0.30360 0.92210 0.77180 0.06600
H 	H 	0.38420 0.02000 0.67160 0.06800
H 	H 	0.33490 0.95500 0.62130 -0.04000
Cu	Cu	0.98930 0.10710 0.88100 0.82300
N 	N 	0.97870 0.02500 0.87940 -0.26700
C 	C 	0.99800 0.99320 0.91450 0.06200
C 	C 	0.99690 0.93510 0.91390 -0.12700
C 	C 	0.97550 0.90650 0.87590 0.04700
C 	C 	0.95460 0.93880 0.83950 -0.12400
C 	C 	0.95620 0.99710 0.84280 0.06500
N 	N 	0.94280 0.59120 0.82430 -0.26100
C 	C 	0.93390 0.53610 0.83230 0.05600
C 	C 	0.90400 0.49880 0.80240 -0.12700
C 	C 	0.88170 0.51800 0.76110 0.04400
C 	C 	0.89160 0.57550 0.75220 -0.12600
C 	C 	0.92150 0.60990 0.78440 0.05100
N 	N 	0.78820 0.40450 0.66540 -0.25600
C 	C 	0.78050 0.39640 0.70910 0.07700
C 	C 	0.80880 0.43180 0.74080 -0.12700
C 	C 	0.84910 0.47950 0.72830 0.04900
C 	C 	0.85730 0.48770 0.68240 -0.13600
C 	C 	0.82720 0.44950 0.65280 0.06000
H 	H 	0.01750 0.01120 0.94070 -0.03100
H 	H 	0.00600 0.91350 0.94060 0.06000
H 	H 	0.93710 0.92140 0.81250 0.06100
H 	H 	0.94120 0.01930 0.81750 -0.02900
H 	H 	0.95060 0.52230 0.86080 -0.01500
H 	H 	0.89620 0.46010 0.81140 0.06300
H 	H 	0.87920 0.59090 0.72350 0.06400
H 	H 	0.92380 0.65020 0.77940 -0.02800
H 	H 	0.74880 0.36590 0.71820 -0.02200
H 	H 	0.80360 0.42210 0.77180 0.06700
H 	H 	0.88420 0.52000 0.67160 0.06800
H 	H 	0.83490 0.45500 0.62130 -0.04000
Cu	Cu	0.98930 0.60710 0.38100 0.82400
N 	N 	0.97870 0.52500 0.37940 -0.26500
C 	C 	0.99800 0.49320 0.41450 0.06300
C 	C 	0.99690 0.43510 0.41390 -0.12900
C 	C 	0.97550 0.40650 0.37590 0.04700
C 	C 	0.95460 0.43880 0.33950 -0.12300
C 	C 	0.95620 0.49710 0.34280 0.06300
N 	N 	0.94280 0.09120 0.32430 -0.26100
C 	C 	0.93390 0.03610 0.33230 0.05300
C 	C 	0.90400 0.99880 0.30240 -0.12200
C 	C 	0.88170 0.01800 0.26110 0.04100
C 	C 	0.89160 0.07550 0.25220 -0.12400
C 	C 	0.92150 0.10990 0.28440 0.05000
N 	N 	0.78820 0.90450 0.16540 -0.25600
C 	C 	0.78050 0.89640 0.20910 0.07700
C 	C 	0.80880 0.93180 0.24080 -0.12800
C 	C 	0.84910 0.97950 0.22830 0.05100
C 	C 	0.85730 0.98770 0.18240 -0.13500
C 	C 	0.82720 0.94950 0.15280 0.06000
H 	H 	0.01750 0.51120 0.44070 -0.03200
H 	H 	0.00600 0.41350 0.44060 0.06100
H 	H 	0.93710 0.42140 0.31250 0.06100
H 	H 	0.94120 0.51930 0.31750 -0.02800
H 	H 	0.95060 0.02230 0.36080 -0.01500
H 	H 	0.89620 0.96010 0.31140 0.06200
H 	H 	0.87920 0.09090 0.22350 0.06300
H 	H 	0.92380 0.15020 0.27940 -0.02800
H 	H 	0.74880 0.86590 0.21820 -0.02200
H 	H 	0.80360 0.92210 0.27180 0.06700
H 	H 	0.88420 0.02000 0.17160 0.06700
H 	H 	0.83490 0.95500 0.12130 -0.03900
Cu	Cu	0.73930 0.89290 0.63100 0.82300
N 	N 	0.72870 0.97500 0.62940 -0.26500
C 	C 	0.74800 0.00680 0.66450 0.06000
C 	C 	0.74690 0.06490 0.66390 -0.12700
C 	C 	0.72550 0.09350 0.62590 0.04600
C 	C 	0.70460 0.06120 0.58950 -0.12100
C 	C 	0.70620 0.00290 0.59280 0.06100
N 	N 	0.69280 0.40880 0.57430 -0.26100
C 	C 	0.68390 0.46390 0.58230 0.05600
C 	C 	0.65400 0.50120 0.55240 -0.12700
C 	C 	0.63170 0.48200 0.51110 0.04400
C 	C 	0.64160 0.42450 0.50220 -0.12600
C 	C 	0.67150 0.39010 0.53440 0.05100
N 	N 	0.53820 0.59550 0.41540 -0.25600
C 	C 	0.53050 0.60360 0.45910 0.07700
C 	C 	0.55880 0.56820 0.49080 -0.12700
C 	C 	0.59910 0.52050 0.47830 0.04900
C 	C 	0.60730 0.51230 0.43240 -0.13600
C 	C 	0.57720 0.55050 0.40280 0.06000
H 	H 	0.76750 0.98880 0.69070 -0.03100
H 	H 	0.75600 0.08650 0.69060 0.06000
H 	H 	0.68710 0.07860 0.56250 0.06000
H 	H 	0.69120 0.98070 0.56750 -0.02700
H 	H 	0.70060 0.47770 0.61080 -0.01500
H 	H 	0.64620 0.53990 0.56140 0.06300
H 	H 	0.62920 0.40910 0.47350 0.06400
H 	H 	0.67380 0.34980 0.52940 -0.02800
H 	H 	0.49880 0.63410 0.46820 -0.02200
H 	H 	0.55360 0.57790 0.52180 0.06700
H 	H 	0.63420 0.48000 0.42160 0.06800
H 	H 	0.58490 0.54500 0.37130 -0.04000
Cu	Cu	0.73930 0.39290 0.13100 0.82300
N 	N 	0.72870 0.47500 0.12940 -0.26500
C 	C 	0.74800 0.50680 0.16450 0.06200
C 	C 	0.74690 0.56490 0.16390 -0.12800
C 	C 	0.72550 0.59350 0.12590 0.04700
C 	C 	0.70460 0.56120 0.08950 -0.12300
C 	C 	0.70620 0.50290 0.09280 0.06300
N 	N 	0.69280 0.90880 0.07430 -0.26200
C 	C 	0.68390 0.96390 0.08230 0.05800
C 	C 	0.65400 0.00120 0.05240 -0.13000
C 	C 	0.63170 0.98200 0.01110 0.04600
C 	C 	0.64160 0.92450 0.00220 -0.12700
C 	C 	0.67150 0.89010 0.03440 0.05100
N 	N 	0.53820 0.09550 0.91540 -0.25600
C 	C 	0.53050 0.10360 0.95910 0.07600
C 	C 	0.55880 0.06820 0.99080 -0.12600
C 	C 	0.59910 0.02050 0.97830 0.04800
C 	C 	0.60730 0.01230 0.93240 -0.13600
C 	C 	0.57720 0.05050 0.90280 0.06000
H 	H 	0.76750 0.48880 0.19070 -0.03200
H 	H 	0.75600 0.58650 0.19060 0.06100
H 	H 	0.68710 0.57860 0.06250 0.06100
H 	H 	0.69120 0.48070 0.06750 -0.02800
H 	H 	0.70060 0.97770 0.11080 -0.01600
H 	H 	0.64620 0.03990 0.06140 0.06400
H 	H 	0.62920 0.90910 0.97350 0.06400
H 	H 	0.67380 0.84980 0.02940 -0.02900
H 	H 	0.49880 0.13410 0.96820 -0.02200
H 	H 	0.55360 0.07790 0.02180 0.06600
H 	H 	0.63420 0.98000 0.92160 0.06800
H 	H 	0.58490 0.04500 0.87130 -0.04000
Cu	Cu	0.23930 0.89290 0.13100 0.82300
N 	N 	0.22870 0.97500 0.12940 -0.26600
C 	C 	0.24800 0.00680 0.16450 0.06400
C 	C 	0.24690 0.06490 0.16390 -0.12900
C 	C 	0.22550 0.09350 0.12590 0.04700
C 	C 	0.20460 0.06120 0.08950 -0.12400
C 	C 	0.20620 0.00290 0.09280 0.06400
N 	N 	0.19280 0.40880 0.07430 -0.26200
C 	C 	0.18390 0.46390 0.08230 0.05600
C 	C 	0.15400 0.50120 0.05240 -0.12700
C 	C 	0.13170 0.48200 0.01110 0.04500
C 	C 	0.14160 0.42450 0.00220 -0.12700
C 	C 	0.17150 0.39010 0.03440 0.05100
N 	N 	0.03820 0.59550 0.91540 -0.25600
C 	C 	0.03050 0.60360 0.95910 0.07700
C 	C 	0.05880 0.56820 0.99080 -0.12700
C 	C 	0.09910 0.52050 0.97830 0.04900
C 	C 	0.10730 0.51230 0.93240 -0.13600
C 	C 	0.07720 0.55050 0.90280 0.06000
H 	H 	0.26750 0.98880 0.19070 -0.03300
H 	H 	0.25600 0.08650 0.19060 0.06100
H 	H 	0.18710 0.07860 0.06250 0.06100
H 	H 	0.19120 0.98070 0.06750 -0.02800
H 	H 	0.20060 0.47770 0.11080 -0.01500
H 	H 	0.14620 0.53990 0.06140 0.06300
H 	H 	0.12920 0.40910 0.97350 0.06400
H 	H 	0.17380 0.34980 0.02940 -0.02900
H 	H 	0.99880 0.63410 0.96820 -0.02200
H 	H 	0.05360 0.57790 0.02180 0.06600
H 	H 	0.13420 0.48000 0.92160 0.06800
H 	H 	0.08490 0.54500 0.87130 -0.04000
Cu	Cu	0.23930 0.39290 0.63100 0.82300
N 	N 	0.22870 0.47500 0.62940 -0.26500
C 	C 	0.24800 0.50680 0.66450 0.06200
C 	C 	0.24690 0.56490 0.66390 -0.12800
C 	C 	0.22550 0.59350 0.62590 0.04700
C 	C 	0.20460 0.56120 0.58950 -0.12300
C 	C 	0.20620 0.50290 0.59280 0.06300
N 	N 	0.19280 0.90880 0.57430 -0.26100
C 	C 	0.18390 0.96390 0.58230 0.05400
C 	C 	0.15400 0.00120 0.55240 -0.12300
C 	C 	0.13170 0.98200 0.51110 0.04100
C 	C 	0.14160 0.92450 0.50220 -0.12400
C 	C 	0.17150 0.89010 0.53440 0.05000
N 	N 	0.03820 0.09550 0.41540 -0.25600
C 	C 	0.03050 0.10360 0.45910 0.07900
C 	C 	0.05880 0.06820 0.49080 -0.12900
C 	C 	0.09910 0.02050 0.47830 0.05100
C 	C 	0.10730 0.01230 0.43240 -0.13600
C 	C 	0.07720 0.05050 0.40280 0.06000
H 	H 	0.26750 0.48880 0.69070 -0.03200
H 	H 	0.25600 0.58650 0.69060 0.06100
H 	H 	0.18710 0.57860 0.56250 0.06100
H 	H 	0.19120 0.48070 0.56750 -0.02800
H 	H 	0.20060 0.97770 0.61080 -0.01500
H 	H 	0.14620 0.03990 0.56140 0.06200
H 	H 	0.12920 0.90910 0.47350 0.06300
H 	H 	0.17380 0.84980 0.52940 -0.02800
H 	H 	0.99880 0.13410 0.46820 -0.02300
H 	H 	0.05360 0.07790 0.52180 0.06700
H 	H 	0.13420 0.98000 0.42160 0.06700
H 	H 	0.08490 0.04500 0.37130 -0.03900
Cu	Cu	0.73930 0.35710 0.61900 0.82300
N 	N 	0.72870 0.27500 0.62060 -0.26600
C 	C 	0.74800 0.24320 0.58550 0.06200
C 	C 	0.74690 0.18510 0.58610 -0.12900
C 	C 	0.72550 0.15650 0.62410 0.04700
C 	C 	0.70460 0.18880 0.66050 -0.12300
C 	C 	0.70620 0.24710 0.65720 0.06300
N 	N 	0.69280 0.84120 0.67570 -0.26100
C 	C 	0.68390 0.78610 0.66770 0.05600
C 	C 	0.65400 0.74880 0.69760 -0.12700
C 	C 	0.63170 0.76800 0.73890 0.04400
C 	C 	0.64160 0.82550 0.74780 -0.12600
C 	C 	0.67150 0.85990 0.71560 0.05100
N 	N 	0.53820 0.65450 0.83460 -0.25600
C 	C 	0.53050 0.64640 0.79090 0.07700
C 	C 	0.55880 0.68180 0.75920 -0.12700
C 	C 	0.59910 0.72950 0.77170 0.04900
C 	C 	0.60730 0.73770 0.81760 -0.13600
C 	C 	0.57720 0.69950 0.84720 0.06000
H 	H 	0.76750 0.26120 0.55930 -0.03200
H 	H 	0.75600 0.16350 0.55940 0.06100
H 	H 	0.68710 0.17140 0.68750 0.06100
H 	H 	0.69120 0.26930 0.68250 -0.02800
H 	H 	0.70060 0.77230 0.63920 -0.01500
H 	H 	0.64620 0.71010 0.68860 0.06300
H 	H 	0.62920 0.84090 0.77650 0.06400
H 	H 	0.67380 0.90020 0.72060 -0.02800
H 	H 	0.49880 0.61590 0.78180 -0.02200
H 	H 	0.55360 0.67210 0.72820 0.06700
H 	H 	0.63420 0.77000 0.82840 0.06800
H 	H 	0.58490 0.70500 0.87870 -0.04000
Cu	Cu	0.73930 0.85710 0.11900 0.82300
N 	N 	0.72870 0.77500 0.12060 -0.26500
C 	C 	0.74800 0.74320 0.08550 0.06200
C 	C 	0.74690 0.68510 0.08610 -0.12800
C 	C 	0.72550 0.65650 0.12410 0.04700
C 	C 	0.70460 0.68880 0.16050 -0.12300
C 	C 	0.70620 0.74710 0.15720 0.06300
N 	N 	0.69280 0.34120 0.17570 -0.26100
C 	C 	0.68390 0.28610 0.16770 0.05600
C 	C 	0.65400 0.24880 0.19760 -0.12700
C 	C 	0.63170 0.26800 0.23890 0.04400
C 	C 	0.64160 0.32550 0.24780 -0.12600
C 	C 	0.67150 0.35990 0.21560 0.05100
N 	N 	0.53820 0.15450 0.33460 -0.25600
C 	C 	0.53050 0.14640 0.29090 0.07700
C 	C 	0.55880 0.18180 0.25920 -0.12700
C 	C 	0.59910 0.22950 0.27170 0.04900
C 	C 	0.60730 0.23770 0.31760 -0.13600
C 	C 	0.57720 0.19950 0.34720 0.06000
H 	H 	0.76750 0.76120 0.05930 -0.03200
H 	H 	0.75600 0.66350 0.05940 0.06100
H 	H 	0.68710 0.67140 0.18750 0.06100
H 	H 	0.69120 0.76930 0.18250 -0.02800
H 	H 	0.70060 0.27230 0.13920 -0.01500
H 	H 	0.64620 0.21010 0.18860 0.06300
H 	H 	0.62920 0.34090 0.27650 0.06400
H 	H 	0.67380 0.40020 0.22060 -0.02800
H 	H 	0.49880 0.11590 0.28180 -0.02200
H 	H 	0.55360 0.17210 0.22820 0.06700
H 	H 	0.63420 0.27000 0.32840 0.06800
H 	H 	0.58490 0.20500 0.37870 -0.04000
Cu	Cu	0.23930 0.35710 0.11900 0.82300
N 	N 	0.22870 0.27500 0.12060 -0.26500
C 	C 	0.24800 0.24320 0.08550 0.06200
C 	C 	0.24690 0.18510 0.08610 -0.12800
C 	C 	0.22550 0.15650 0.12410 0.04600
C 	C 	0.20460 0.18880 0.16050 -0.12300
C 	C 	0.20620 0.24710 0.15720 0.06300
N 	N 	0.19280 0.84120 0.17570 -0.26100
C 	C 	0.18390 0.78610 0.16770 0.05600
C 	C 	0.15400 0.74880 0.19760 -0.12700
C 	C 	0.13170 0.76800 0.23890 0.04500
C 	C 	0.14160 0.82550 0.24780 -0.12600
C 	C 	0.17150 0.85990 0.21560 0.05100
N 	N 	0.03820 0.65450 0.33460 -0.25600
C 	C 	0.03050 0.64640 0.29090 0.07600
C 	C 	0.05880 0.68180 0.25920 -0.12700
C 	C 	0.09910 0.72950 0.27170 0.04900
C 	C 	0.10730 0.73770 0.31760 -0.13600
C 	C 	0.07720 0.69950 0.34720 0.06000
H 	H 	0.26750 0.26120 0.05930 -0.03200
H 	H 	0.25600 0.16350 0.05940 0.06000
H 	H 	0.18710 0.17140 0.18750 0.06100
H 	H 	0.19120 0.26930 0.18250 -0.02800
H 	H 	0.20060 0.77230 0.13920 -0.01500
H 	H 	0.14620 0.71010 0.18860 0.06300
H 	H 	0.12920 0.84090 0.27650 0.06300
H 	H 	0.17380 0.90020 0.22060 -0.02900
H 	H 	0.99880 0.61590 0.28180 -0.02200
H 	H 	0.05360 0.67210 0.22820 0.06600
H 	H 	0.13420 0.77000 0.32840 0.06800
H 	H 	0.08490 0.70500 0.37870 -0.04000
Cu	Cu	0.23930 0.85710 0.61900 0.82300
N 	N 	0.22870 0.77500 0.62060 -0.26500
C 	C 	0.24800 0.74320 0.58550 0.06200
C 	C 	0.24690 0.68510 0.58610 -0.12800
C 	C 	0.22550 0.65650 0.62410 0.04700
C 	C 	0.20460 0.68880 0.66050 -0.12300
C 	C 	0.20620 0.74710 0.65720 0.06300
N 	N 	0.19280 0.34120 0.67570 -0.26100
C 	C 	0.18390 0.28610 0.66770 0.05600
C 	C 	0.15400 0.24880 0.69760 -0.12600
C 	C 	0.13170 0.26800 0.73890 0.04400
C 	C 	0.14160 0.32550 0.74780 -0.12600
C 	C 	0.17150 0.35990 0.71560 0.05100
N 	N 	0.03820 0.15450 0.83460 -0.25600
C 	C 	0.03050 0.14640 0.79090 0.07900
C 	C 	0.05880 0.18180 0.75920 -0.12900
C 	C 	0.09910 0.22950 0.77170 0.05000
C 	C 	0.10730 0.23770 0.81760 -0.13600
C 	C 	0.07720 0.19950 0.84720 0.06100
H 	H 	0.26750 0.76120 0.55930 -0.03200
H 	H 	0.25600 0.66350 0.55940 0.06100
H 	H 	0.18710 0.67140 0.68750 0.06100
H 	H 	0.19120 0.76930 0.68250 -0.02800
H 	H 	0.20060 0.27230 0.63920 -0.01500
H 	H 	0.14620 0.21010 0.68860 0.06300
H 	H 	0.12920 0.34090 0.77650 0.06400
H 	H 	0.17380 0.40020 0.72060 -0.02800
H 	H 	0.99880 0.11590 0.78180 -0.02400
H 	H 	0.05360 0.17210 0.72820 0.06700
H 	H 	0.13420 0.27000 0.82840 0.06800
H 	H 	0.08490 0.20500 0.87870 -0.03900
