data_crystal

_cell_length_a 25.95570
_cell_length_b 25.95570
_cell_length_c 25.95570
_cell_angle_alpha 90.00000
_cell_angle_beta  90.00000
_cell_angle_gamma 90.00000

_symmetry_space_group_name_	'P 1'
_symmetry_space_group_name_H-M	'P 1'

loop_
_symmetry_equiv_pos_as_xyz
  x,y,z

loop_
_atom_site_label
_atom_site_type_symbol
_atom_site_fract_x
_atom_site_fract_y
_atom_site_fract_z
_atom_site_charge
O 	O 	0.31980 0.24810 0.94280 -0.45000
O 	O 	0.31980 0.74810 0.44280 -0.49000
O 	O 	0.81980 0.24810 0.44280 -0.48700
O 	O 	0.81980 0.74810 0.94280 -0.43600
O 	O 	0.68020 0.75190 0.94280 -0.44600
O 	O 	0.68020 0.25190 0.44280 -0.49700
O 	O 	0.18020 0.75190 0.44280 -0.50000
O 	O 	0.18020 0.25190 0.94280 -0.46000
O 	O 	0.68020 0.24810 0.05720 -0.52100
O 	O 	0.68020 0.74810 0.55720 -0.49000
O 	O 	0.18020 0.24810 0.55720 -0.50400
O 	O 	0.18020 0.74810 0.05720 -0.52300
O 	O 	0.31980 0.75190 0.05720 -0.51700
O 	O 	0.31980 0.25190 0.55720 -0.49800
O 	O 	0.81980 0.75190 0.55720 -0.48300
O 	O 	0.81980 0.25190 0.05720 -0.51300
O 	O 	0.94280 0.31980 0.24810 -0.45000
O 	O 	0.94280 0.81980 0.74810 -0.43600
O 	O 	0.44280 0.31980 0.74810 -0.49000
O 	O 	0.44280 0.81980 0.24810 -0.48700
O 	O 	0.94280 0.68020 0.75190 -0.44600
O 	O 	0.94280 0.18020 0.25190 -0.46000
O 	O 	0.44280 0.68020 0.25190 -0.49700
O 	O 	0.44280 0.18020 0.75190 -0.50000
O 	O 	0.05720 0.68020 0.24810 -0.52100
O 	O 	0.05720 0.18020 0.74810 -0.52300
O 	O 	0.55720 0.68020 0.74810 -0.49000
O 	O 	0.55720 0.18020 0.24810 -0.50400
O 	O 	0.05720 0.31980 0.75190 -0.51700
O 	O 	0.05720 0.81980 0.25190 -0.51300
O 	O 	0.55720 0.31980 0.25190 -0.49800
O 	O 	0.55720 0.81980 0.75190 -0.48300
O 	O 	0.24810 0.94280 0.31980 -0.45000
O 	O 	0.24810 0.44280 0.81980 -0.48700
O 	O 	0.74810 0.94280 0.81980 -0.43600
O 	O 	0.74810 0.44280 0.31980 -0.49000
O 	O 	0.75190 0.94280 0.68020 -0.44600
O 	O 	0.75190 0.44280 0.18020 -0.50000
O 	O 	0.25190 0.94280 0.18020 -0.46000
O 	O 	0.25190 0.44280 0.68020 -0.49600
O 	O 	0.24810 0.05720 0.68020 -0.52000
O 	O 	0.24810 0.55720 0.18020 -0.50300
O 	O 	0.74810 0.05720 0.18020 -0.52200
O 	O 	0.74810 0.55720 0.68020 -0.48900
O 	O 	0.75190 0.05720 0.31980 -0.51600
O 	O 	0.75190 0.55720 0.81980 -0.48200
O 	O 	0.25190 0.05720 0.81980 -0.51200
O 	O 	0.25190 0.55720 0.31980 -0.49700
O 	O 	0.24810 0.31980 0.05720 -0.52000
O 	O 	0.24810 0.81980 0.55720 -0.48600
O 	O 	0.74810 0.31980 0.55720 -0.48900
O 	O 	0.74810 0.81980 0.05720 -0.50500
O 	O 	0.75190 0.68020 0.05720 -0.51600
O 	O 	0.75190 0.18020 0.55720 -0.49900
O 	O 	0.25190 0.68020 0.55720 -0.49600
O 	O 	0.25190 0.18020 0.05720 -0.52900
O 	O 	0.24810 0.68020 0.94280 -0.44900
O 	O 	0.24810 0.18020 0.44280 -0.50300
O 	O 	0.74810 0.68020 0.44280 -0.48900
O 	O 	0.74810 0.18020 0.94280 -0.45200
O 	O 	0.75190 0.31980 0.94280 -0.44600
O 	O 	0.75190 0.81980 0.44280 -0.48200
O 	O 	0.25190 0.31980 0.44280 -0.49700
O 	O 	0.25190 0.81980 0.94280 -0.44200
O 	O 	0.31980 0.94280 0.75190 -0.44600
O 	O 	0.31980 0.44280 0.25190 -0.49700
O 	O 	0.81980 0.94280 0.25190 -0.44200
O 	O 	0.81980 0.44280 0.75190 -0.48200
O 	O 	0.68020 0.94280 0.24810 -0.44900
O 	O 	0.68020 0.44280 0.74810 -0.48900
O 	O 	0.18020 0.94280 0.74810 -0.45200
O 	O 	0.18020 0.44280 0.24810 -0.50300
O 	O 	0.68020 0.05720 0.75190 -0.51600
O 	O 	0.68020 0.55720 0.25190 -0.49600
O 	O 	0.18020 0.05720 0.25190 -0.52900
O 	O 	0.18020 0.55720 0.75190 -0.49900
O 	O 	0.31980 0.05720 0.24810 -0.52000
O 	O 	0.31980 0.55720 0.74810 -0.48900
O 	O 	0.81980 0.05720 0.74810 -0.50500
O 	O 	0.81980 0.55720 0.24810 -0.48600
O 	O 	0.94280 0.24810 0.68020 -0.44900
O 	O 	0.94280 0.74810 0.18020 -0.45200
O 	O 	0.44280 0.24810 0.18020 -0.50300
O 	O 	0.44280 0.74810 0.68020 -0.48900
O 	O 	0.94280 0.75190 0.31980 -0.44600
O 	O 	0.94280 0.25190 0.81980 -0.44200
O 	O 	0.44280 0.75190 0.81980 -0.48200
O 	O 	0.44280 0.25190 0.31980 -0.49700
O 	O 	0.05720 0.24810 0.31980 -0.52000
O 	O 	0.05720 0.74810 0.81980 -0.50500
O 	O 	0.55720 0.24810 0.81980 -0.48600
O 	O 	0.55720 0.74810 0.31980 -0.48900
O 	O 	0.05720 0.75190 0.68020 -0.51600
O 	O 	0.05720 0.25190 0.18020 -0.52900
O 	O 	0.55720 0.75190 0.18020 -0.49900
O 	O 	0.55720 0.25190 0.68020 -0.49600
O 	O 	0.68020 0.75190 0.05720 -0.51600
O 	O 	0.68020 0.25190 0.55720 -0.49600
O 	O 	0.18020 0.75190 0.55720 -0.49900
O 	O 	0.18020 0.25190 0.05720 -0.52900
O 	O 	0.31980 0.24810 0.05720 -0.52000
O 	O 	0.31980 0.74810 0.55720 -0.48900
O 	O 	0.81980 0.24810 0.55720 -0.48600
O 	O 	0.81980 0.74810 0.05720 -0.50500
O 	O 	0.31980 0.75190 0.94280 -0.44600
O 	O 	0.31980 0.25190 0.44280 -0.49700
O 	O 	0.81980 0.75190 0.44280 -0.48200
O 	O 	0.81980 0.25190 0.94280 -0.44200
O 	O 	0.68020 0.24810 0.94280 -0.44900
O 	O 	0.68020 0.74810 0.44280 -0.48900
O 	O 	0.18020 0.24810 0.44280 -0.50300
O 	O 	0.18020 0.74810 0.94280 -0.45200
O 	O 	0.05720 0.68020 0.75190 -0.51600
O 	O 	0.05720 0.18020 0.25190 -0.52900
O 	O 	0.55720 0.68020 0.25190 -0.49600
O 	O 	0.55720 0.18020 0.75190 -0.49900
O 	O 	0.05720 0.31980 0.24810 -0.52000
O 	O 	0.05720 0.81980 0.74810 -0.50500
O 	O 	0.55720 0.31980 0.74810 -0.48900
O 	O 	0.55720 0.81980 0.24810 -0.48600
O 	O 	0.94280 0.31980 0.75190 -0.44600
O 	O 	0.94280 0.81980 0.25190 -0.44200
O 	O 	0.44280 0.31980 0.25190 -0.49700
O 	O 	0.44280 0.81980 0.75190 -0.48200
O 	O 	0.94280 0.68020 0.24810 -0.44900
O 	O 	0.94280 0.18020 0.74810 -0.45200
O 	O 	0.44280 0.68020 0.74810 -0.48900
O 	O 	0.44280 0.18020 0.24810 -0.50300
O 	O 	0.75190 0.05720 0.68020 -0.51600
O 	O 	0.75190 0.55720 0.18020 -0.49900
O 	O 	0.25190 0.05720 0.18020 -0.52900
O 	O 	0.25190 0.55720 0.68020 -0.49600
O 	O 	0.24810 0.05720 0.31980 -0.52000
O 	O 	0.24810 0.55720 0.81980 -0.48600
O 	O 	0.74810 0.05720 0.81980 -0.50500
O 	O 	0.74810 0.55720 0.31980 -0.48900
O 	O 	0.75190 0.94280 0.31980 -0.44600
O 	O 	0.75190 0.44280 0.81980 -0.48200
O 	O 	0.25190 0.94280 0.81980 -0.44200
O 	O 	0.25190 0.44280 0.31980 -0.49700
O 	O 	0.24810 0.94280 0.68020 -0.44900
O 	O 	0.24810 0.44280 0.18020 -0.50300
O 	O 	0.74810 0.94280 0.18020 -0.45200
O 	O 	0.74810 0.44280 0.68020 -0.48900
O 	O 	0.75190 0.68020 0.94280 -0.44500
O 	O 	0.75190 0.18020 0.44280 -0.49900
O 	O 	0.25190 0.68020 0.44280 -0.49600
O 	O 	0.25190 0.18020 0.94280 -0.45900
O 	O 	0.24810 0.31980 0.94280 -0.44900
O 	O 	0.24810 0.81980 0.44280 -0.48600
O 	O 	0.74810 0.31980 0.44280 -0.48900
O 	O 	0.74810 0.81980 0.94280 -0.43500
O 	O 	0.75190 0.31980 0.05720 -0.51600
O 	O 	0.75190 0.81980 0.55720 -0.48200
O 	O 	0.25190 0.31980 0.55720 -0.49700
O 	O 	0.25190 0.81980 0.05720 -0.51200
O 	O 	0.24810 0.68020 0.05720 -0.52000
O 	O 	0.24810 0.18020 0.55720 -0.50300
O 	O 	0.74810 0.68020 0.55720 -0.48900
O 	O 	0.74810 0.18020 0.05720 -0.52200
O 	O 	0.68020 0.05720 0.24810 -0.52000
O 	O 	0.68020 0.55720 0.74810 -0.48900
O 	O 	0.18020 0.05720 0.74810 -0.52200
O 	O 	0.18020 0.55720 0.24810 -0.50300
O 	O 	0.31980 0.05720 0.75190 -0.51600
O 	O 	0.31980 0.55720 0.25190 -0.49700
O 	O 	0.81980 0.05720 0.25190 -0.51200
O 	O 	0.81980 0.55720 0.75190 -0.48200
O 	O 	0.31980 0.94280 0.24810 -0.44900
O 	O 	0.31980 0.44280 0.74810 -0.48900
O 	O 	0.81980 0.94280 0.74810 -0.43500
O 	O 	0.81980 0.44280 0.24810 -0.48600
O 	O 	0.68020 0.94280 0.75190 -0.44500
O 	O 	0.68020 0.44280 0.25190 -0.49600
O 	O 	0.18020 0.94280 0.25190 -0.45900
O 	O 	0.18020 0.44280 0.75190 -0.49900
O 	O 	0.05720 0.75190 0.31980 -0.51600
O 	O 	0.05720 0.25190 0.81980 -0.51200
O 	O 	0.55720 0.75190 0.81980 -0.48200
O 	O 	0.55720 0.25190 0.31980 -0.49700
O 	O 	0.05720 0.24810 0.68020 -0.52000
O 	O 	0.05720 0.74810 0.18020 -0.52200
O 	O 	0.55720 0.24810 0.18020 -0.50300
O 	O 	0.55720 0.74810 0.68020 -0.48900
O 	O 	0.94280 0.75190 0.68020 -0.44500
O 	O 	0.94280 0.25190 0.18020 -0.45900
O 	O 	0.44280 0.75190 0.18020 -0.49900
O 	O 	0.44280 0.25190 0.68020 -0.49600
O 	O 	0.94280 0.24810 0.31980 -0.44900
O 	O 	0.94280 0.74810 0.81980 -0.43500
O 	O 	0.44280 0.24810 0.81980 -0.48600
O 	O 	0.44280 0.74810 0.31980 -0.48900
C 	C 	0.29671 0.20329 0.92915 0.26000
C 	C 	0.32224 0.17776 0.88596 -0.06800
C 	C 	0.29671 0.70329 0.42915 0.25500
C 	C 	0.32224 0.67776 0.38596 -0.07200
C 	C 	0.70329 0.79671 0.92915 0.25700
C 	C 	0.67776 0.82224 0.88596 -0.04700
C 	C 	0.70329 0.29671 0.42915 0.25500
C 	C 	0.67776 0.32224 0.38596 -0.07200
C 	C 	0.20329 0.29671 0.92915 0.26000
C 	C 	0.17776 0.32224 0.88596 -0.06800
C 	C 	0.70329 0.20329 0.07085 0.24800
C 	C 	0.67776 0.17776 0.11404 -0.09000
C 	C 	0.70329 0.70329 0.57085 0.25200
C 	C 	0.67776 0.67776 0.61404 -0.06700
C 	C 	0.20329 0.20329 0.57085 0.25500
C 	C 	0.17776 0.17776 0.61404 -0.08700
C 	C 	0.29671 0.79671 0.07085 0.24900
C 	C 	0.32224 0.82224 0.11404 -0.07600
C 	C 	0.29671 0.29671 0.57085 0.25600
C 	C 	0.32224 0.32224 0.61404 -0.07400
C 	C 	0.92915 0.29671 0.20329 0.26000
C 	C 	0.88596 0.32224 0.17776 -0.06800
C 	C 	0.42915 0.29671 0.70329 0.25500
C 	C 	0.38596 0.32224 0.67776 -0.07200
C 	C 	0.92915 0.70329 0.79671 0.25700
C 	C 	0.88596 0.67776 0.82224 -0.04700
C 	C 	0.92915 0.20329 0.29671 0.26000
C 	C 	0.88596 0.17776 0.32224 -0.06800
C 	C 	0.42915 0.70329 0.29671 0.25500
C 	C 	0.38596 0.67776 0.32224 -0.07200
C 	C 	0.07085 0.70329 0.20329 0.24800
C 	C 	0.11404 0.67776 0.17776 -0.09000
C 	C 	0.57085 0.70329 0.70329 0.25200
C 	C 	0.61404 0.67776 0.67776 -0.06700
C 	C 	0.57085 0.20329 0.20329 0.25500
C 	C 	0.61404 0.17776 0.17776 -0.08700
C 	C 	0.07085 0.29671 0.79671 0.24900
C 	C 	0.11404 0.32224 0.82224 -0.07600
C 	C 	0.57085 0.29671 0.29671 0.25600
C 	C 	0.61404 0.32224 0.32224 -0.07400
C 	C 	0.20329 0.92915 0.29671 0.26000
C 	C 	0.17776 0.88596 0.32224 -0.06800
C 	C 	0.20329 0.42915 0.79671 0.25400
C 	C 	0.17776 0.38596 0.82224 -0.07100
C 	C 	0.79671 0.92915 0.70329 0.25700
C 	C 	0.82224 0.88596 0.67776 -0.04700
C 	C 	0.79671 0.42915 0.20329 0.25400
C 	C 	0.82224 0.38596 0.17776 -0.07100
C 	C 	0.29671 0.92915 0.20329 0.26000
C 	C 	0.32224 0.88596 0.17776 -0.06800
C 	C 	0.20329 0.07085 0.70329 0.24800
C 	C 	0.17776 0.11404 0.67776 -0.09000
C 	C 	0.20329 0.57085 0.20329 0.25500
C 	C 	0.17776 0.61404 0.17776 -0.08700
C 	C 	0.79671 0.07085 0.29671 0.24900
C 	C 	0.82224 0.11404 0.32224 -0.07600
C 	C 	0.79671 0.57085 0.79671 0.25300
C 	C 	0.82224 0.61404 0.82224 -0.05300
C 	C 	0.29671 0.57085 0.29671 0.25600
C 	C 	0.32224 0.61404 0.32224 -0.07400
C 	C 	0.20329 0.29671 0.07085 0.25000
C 	C 	0.17776 0.32224 0.11404 -0.09300
C 	C 	0.20329 0.79671 0.57085 0.25400
C 	C 	0.17776 0.82224 0.61404 -0.07000
C 	C 	0.79671 0.70329 0.07085 0.24700
C 	C 	0.82224 0.67776 0.11404 -0.07300
C 	C 	0.79671 0.20329 0.57085 0.25400
C 	C 	0.82224 0.17776 0.61404 -0.07000
C 	C 	0.29671 0.20329 0.07085 0.25000
C 	C 	0.32224 0.17776 0.11404 -0.09300
C 	C 	0.20329 0.70329 0.92915 0.25800
C 	C 	0.17776 0.67776 0.88596 -0.06400
C 	C 	0.20329 0.20329 0.42915 0.25500
C 	C 	0.17776 0.17776 0.38596 -0.08900
C 	C 	0.79671 0.29671 0.92915 0.25900
C 	C 	0.82224 0.32224 0.88596 -0.05000
C 	C 	0.79671 0.79671 0.42915 0.25400
C 	C 	0.82224 0.82224 0.38596 -0.05400
C 	C 	0.29671 0.29671 0.42915 0.25700
C 	C 	0.32224 0.32224 0.38596 -0.07600
C 	C 	0.29671 0.92915 0.79671 0.25900
C 	C 	0.32224 0.88596 0.82224 -0.05000
C 	C 	0.29671 0.42915 0.29671 0.25700
C 	C 	0.32224 0.38596 0.32224 -0.07600
C 	C 	0.70329 0.92915 0.20329 0.25800
C 	C 	0.67776 0.88596 0.17776 -0.06400
C 	C 	0.70329 0.42915 0.70329 0.25200
C 	C 	0.67776 0.38596 0.67776 -0.06900
C 	C 	0.20329 0.42915 0.20329 0.25500
C 	C 	0.17776 0.38596 0.17776 -0.08900
C 	C 	0.70329 0.07085 0.79671 0.24700
C 	C 	0.67776 0.11404 0.82224 -0.07300
C 	C 	0.70329 0.57085 0.29671 0.25400
C 	C 	0.67776 0.61404 0.32224 -0.07100
C 	C 	0.20329 0.07085 0.29671 0.25000
C 	C 	0.17776 0.11404 0.32224 -0.09300
C 	C 	0.29671 0.07085 0.20329 0.25000
C 	C 	0.32224 0.11404 0.17776 -0.09300
C 	C 	0.29671 0.57085 0.70329 0.25400
C 	C 	0.32224 0.61404 0.67776 -0.07100
C 	C 	0.92915 0.20329 0.70329 0.25800
C 	C 	0.88596 0.17776 0.67776 -0.06400
C 	C 	0.42915 0.20329 0.20329 0.25500
C 	C 	0.38596 0.17776 0.17776 -0.08900
C 	C 	0.92915 0.79671 0.29671 0.25900
C 	C 	0.88596 0.82224 0.32224 -0.05000
C 	C 	0.42915 0.79671 0.79671 0.25400
C 	C 	0.38596 0.82224 0.82224 -0.05400
C 	C 	0.42915 0.29671 0.29671 0.25700
C 	C 	0.38596 0.32224 0.32224 -0.07600
C 	C 	0.07085 0.20329 0.29671 0.25000
C 	C 	0.11404 0.17776 0.32224 -0.09300
C 	C 	0.57085 0.20329 0.79671 0.25400
C 	C 	0.61404 0.17776 0.82224 -0.07000
C 	C 	0.07085 0.79671 0.70329 0.24700
C 	C 	0.11404 0.82224 0.67776 -0.07300
C 	C 	0.07085 0.29671 0.20329 0.25000
C 	C 	0.11404 0.32224 0.17776 -0.09300
C 	C 	0.57085 0.79671 0.20329 0.25400
C 	C 	0.61404 0.82224 0.17776 -0.07000
C 	C 	0.70329 0.79671 0.07085 0.24700
C 	C 	0.67776 0.82224 0.11404 -0.07300
C 	C 	0.70329 0.29671 0.57085 0.25400
C 	C 	0.67776 0.32224 0.61404 -0.07100
C 	C 	0.29671 0.70329 0.57085 0.25400
C 	C 	0.32224 0.67776 0.61404 -0.07100
C 	C 	0.29671 0.79671 0.92915 0.25900
C 	C 	0.32224 0.82224 0.88596 -0.05000
C 	C 	0.70329 0.20329 0.92915 0.25800
C 	C 	0.67776 0.17776 0.88596 -0.06400
C 	C 	0.70329 0.70329 0.42915 0.25200
C 	C 	0.67776 0.67776 0.38596 -0.06900
C 	C 	0.07085 0.70329 0.79671 0.24700
C 	C 	0.11404 0.67776 0.82224 -0.07300
C 	C 	0.57085 0.70329 0.29671 0.25400
C 	C 	0.61404 0.67776 0.32224 -0.07100
C 	C 	0.57085 0.29671 0.70329 0.25400
C 	C 	0.61404 0.32224 0.67776 -0.07100
C 	C 	0.92915 0.29671 0.79671 0.25900
C 	C 	0.88596 0.32224 0.82224 -0.05000
C 	C 	0.92915 0.70329 0.20329 0.25800
C 	C 	0.88596 0.67776 0.17776 -0.06400
C 	C 	0.42915 0.70329 0.70329 0.25200
C 	C 	0.38596 0.67776 0.67776 -0.06900
C 	C 	0.79671 0.07085 0.70329 0.24700
C 	C 	0.82224 0.11404 0.67776 -0.07300
C 	C 	0.79671 0.57085 0.20329 0.25400
C 	C 	0.82224 0.61404 0.17776 -0.07000
C 	C 	0.20329 0.57085 0.79671 0.25400
C 	C 	0.17776 0.61404 0.82224 -0.07000
C 	C 	0.79671 0.92915 0.29671 0.25900
C 	C 	0.82224 0.88596 0.32224 -0.05000
C 	C 	0.79671 0.42915 0.79671 0.25400
C 	C 	0.82224 0.38596 0.82224 -0.05400
C 	C 	0.20329 0.92915 0.70329 0.25800
C 	C 	0.17776 0.88596 0.67776 -0.06400
C 	C 	0.79671 0.70329 0.92915 0.25700
C 	C 	0.82224 0.67776 0.88596 -0.04700
C 	C 	0.79671 0.20329 0.42915 0.25400
C 	C 	0.82224 0.17776 0.38596 -0.07100
C 	C 	0.20329 0.79671 0.42915 0.25400
C 	C 	0.17776 0.82224 0.38596 -0.07100
C 	C 	0.79671 0.29671 0.07085 0.24900
C 	C 	0.82224 0.32224 0.11404 -0.07600
C 	C 	0.79671 0.79671 0.57085 0.25300
C 	C 	0.82224 0.82224 0.61404 -0.05300
C 	C 	0.20329 0.70329 0.07085 0.24800
C 	C 	0.17776 0.67776 0.11404 -0.09000
C 	C 	0.70329 0.07085 0.20329 0.24800
C 	C 	0.67776 0.11404 0.17776 -0.09000
C 	C 	0.70329 0.57085 0.70329 0.25200
C 	C 	0.67776 0.61404 0.67776 -0.06700
C 	C 	0.29671 0.07085 0.79671 0.24900
C 	C 	0.32224 0.11404 0.82224 -0.07600
C 	C 	0.29671 0.42915 0.70329 0.25500
C 	C 	0.32224 0.38596 0.67776 -0.07200
C 	C 	0.70329 0.92915 0.79671 0.25700
C 	C 	0.67776 0.88596 0.82224 -0.04700
C 	C 	0.70329 0.42915 0.29671 0.25500
C 	C 	0.67776 0.38596 0.32224 -0.07200
C 	C 	0.07085 0.79671 0.29671 0.24900
C 	C 	0.11404 0.82224 0.32224 -0.07600
C 	C 	0.57085 0.79671 0.79671 0.25300
C 	C 	0.61404 0.82224 0.82224 -0.05300
C 	C 	0.07085 0.20329 0.70329 0.24800
C 	C 	0.11404 0.17776 0.67776 -0.09000
C 	C 	0.92915 0.79671 0.70329 0.25700
C 	C 	0.88596 0.82224 0.67776 -0.04700
C 	C 	0.42915 0.79671 0.20329 0.25400
C 	C 	0.38596 0.82224 0.17776 -0.07100
C 	C 	0.42915 0.20329 0.79671 0.25400
C 	C 	0.38596 0.17776 0.82224 -0.07100
C 	C 	0.36461 0.20056 0.86461 0.02700
H 	H 	0.37921 0.23369 0.87921 0.05900
C 	C 	0.36461 0.70056 0.36461 0.02700
H 	H 	0.37921 0.73369 0.37921 0.05400
C 	C 	0.86461 0.70056 0.86461 0.02000
H 	H 	0.87921 0.73369 0.87921 0.07600
C 	C 	0.63539 0.79944 0.86461 0.02000
H 	H 	0.62079 0.76631 0.87921 0.06500
C 	C 	0.63539 0.29944 0.36461 0.02800
H 	H 	0.62079 0.26631 0.37921 0.04800
C 	C 	0.63539 0.20056 0.13539 0.03000
H 	H 	0.62079 0.23369 0.12079 0.03900
C 	C 	0.63539 0.70056 0.63539 0.02300
H 	H 	0.62079 0.73369 0.62079 0.05500
C 	C 	0.36461 0.79944 0.13539 0.02600
H 	H 	0.37921 0.76631 0.12079 0.04400
C 	C 	0.36461 0.29944 0.63539 0.02800
H 	H 	0.37921 0.26631 0.62079 0.04800
C 	C 	0.86461 0.79944 0.63539 0.02000
H 	H 	0.87921 0.76631 0.62079 0.06500
C 	C 	0.86461 0.36461 0.20056 0.02700
H 	H 	0.87921 0.37921 0.23369 0.05900
C 	C 	0.86461 0.86461 0.70056 0.02000
H 	H 	0.87921 0.87921 0.73369 0.07600
C 	C 	0.86461 0.63539 0.79944 0.02000
H 	H 	0.87921 0.62079 0.76631 0.06500
C 	C 	0.86461 0.13539 0.29944 0.02700
H 	H 	0.87921 0.12079 0.26631 0.04900
C 	C 	0.13539 0.63539 0.20056 0.03000
H 	H 	0.12079 0.62079 0.23369 0.03900
C 	C 	0.13539 0.13539 0.70056 0.02900
H 	H 	0.12079 0.12079 0.73369 0.03500
C 	C 	0.63539 0.63539 0.70056 0.02300
H 	H 	0.62079 0.62079 0.73369 0.05500
C 	C 	0.13539 0.36461 0.79944 0.02600
H 	H 	0.12079 0.37921 0.76631 0.04400
C 	C 	0.13539 0.86461 0.29944 0.02700
H 	H 	0.12079 0.87921 0.26631 0.04900
C 	C 	0.63539 0.86461 0.79944 0.02000
H 	H 	0.62079 0.87921 0.76631 0.06500
C 	C 	0.20056 0.86461 0.36461 0.02700
H 	H 	0.23369 0.87921 0.37921 0.05900
C 	C 	0.70056 0.86461 0.86461 0.02000
H 	H 	0.73369 0.87921 0.87921 0.07600
C 	C 	0.79944 0.86461 0.63539 0.02000
H 	H 	0.76631 0.87921 0.62079 0.06500
C 	C 	0.29944 0.86461 0.13539 0.02700
H 	H 	0.26631 0.87921 0.12079 0.04900
C 	C 	0.20056 0.13539 0.63539 0.03000
H 	H 	0.23369 0.12079 0.62079 0.03900
C 	C 	0.70056 0.13539 0.13539 0.02900
H 	H 	0.73369 0.12079 0.12079 0.03500
C 	C 	0.70056 0.63539 0.63539 0.02300
H 	H 	0.73369 0.62079 0.62079 0.05500
C 	C 	0.79944 0.13539 0.36461 0.02600
H 	H 	0.76631 0.12079 0.37921 0.04400
C 	C 	0.79944 0.63539 0.86461 0.02000
H 	H 	0.76631 0.62079 0.87921 0.06500
C 	C 	0.29944 0.13539 0.86461 0.02700
H 	H 	0.26631 0.12079 0.87921 0.04900
C 	C 	0.20056 0.36461 0.13539 0.03200
H 	H 	0.23369 0.37921 0.12079 0.03800
C 	C 	0.20056 0.86461 0.63539 0.02500
H 	H 	0.23369 0.87921 0.62079 0.06000
C 	C 	0.70056 0.36461 0.63539 0.02500
H 	H 	0.73369 0.37921 0.62079 0.05400
C 	C 	0.79944 0.63539 0.13539 0.02400
H 	H 	0.76631 0.62079 0.12079 0.04400
C 	C 	0.29944 0.63539 0.63539 0.02600
H 	H 	0.26631 0.62079 0.62079 0.04900
C 	C 	0.20056 0.63539 0.86461 0.02500
H 	H 	0.23369 0.62079 0.87921 0.06000
C 	C 	0.70056 0.63539 0.36461 0.02500
H 	H 	0.73369 0.62079 0.37921 0.05400
C 	C 	0.79944 0.36461 0.86461 0.02200
H 	H 	0.76631 0.37921 0.87921 0.06400
C 	C 	0.29944 0.36461 0.36461 0.03000
H 	H 	0.26631 0.37921 0.37921 0.04700
C 	C 	0.29944 0.86461 0.86461 0.02300
H 	H 	0.26631 0.87921 0.87921 0.07000
C 	C 	0.36461 0.86461 0.79944 0.02200
H 	H 	0.37921 0.87921 0.76631 0.06400
C 	C 	0.36461 0.36461 0.29944 0.03000
H 	H 	0.37921 0.37921 0.26631 0.04700
C 	C 	0.86461 0.86461 0.29944 0.02300
H 	H 	0.87921 0.87921 0.26631 0.07000
C 	C 	0.63539 0.86461 0.20056 0.02500
H 	H 	0.62079 0.87921 0.23369 0.06000
C 	C 	0.63539 0.36461 0.70056 0.02500
H 	H 	0.62079 0.37921 0.73369 0.05400
C 	C 	0.63539 0.13539 0.79944 0.02400
H 	H 	0.62079 0.12079 0.76631 0.04400
C 	C 	0.63539 0.63539 0.29944 0.02600
H 	H 	0.62079 0.62079 0.26631 0.04900
C 	C 	0.36461 0.13539 0.20056 0.03200
H 	H 	0.37921 0.12079 0.23369 0.03800
C 	C 	0.36461 0.63539 0.70056 0.02500
H 	H 	0.37921 0.62079 0.73369 0.05400
C 	C 	0.86461 0.63539 0.20056 0.02500
H 	H 	0.87921 0.62079 0.23369 0.06000
C 	C 	0.86461 0.20056 0.63539 0.02500
H 	H 	0.87921 0.23369 0.62079 0.06000
C 	C 	0.86461 0.70056 0.13539 0.02400
H 	H 	0.87921 0.73369 0.12079 0.05500
C 	C 	0.86461 0.79944 0.36461 0.02200
H 	H 	0.87921 0.76631 0.37921 0.06400
C 	C 	0.86461 0.29944 0.86461 0.02300
H 	H 	0.87921 0.26631 0.87921 0.07000
C 	C 	0.13539 0.20056 0.36461 0.03200
H 	H 	0.12079 0.23369 0.37921 0.03800
C 	C 	0.13539 0.70056 0.86461 0.02400
H 	H 	0.12079 0.73369 0.87921 0.05500
C 	C 	0.63539 0.20056 0.86461 0.02500
H 	H 	0.62079 0.23369 0.87921 0.06000
C 	C 	0.13539 0.79944 0.63539 0.02400
H 	H 	0.12079 0.76631 0.62079 0.04400
C 	C 	0.13539 0.29944 0.13539 0.03200
H 	H 	0.12079 0.26631 0.12079 0.02900
C 	C 	0.63539 0.29944 0.63539 0.02600
H 	H 	0.62079 0.26631 0.62079 0.04900
C 	C 	0.63539 0.79944 0.13539 0.02400
H 	H 	0.62079 0.76631 0.12079 0.04400
C 	C 	0.36461 0.20056 0.13539 0.03200
H 	H 	0.37921 0.23369 0.12079 0.03800
C 	C 	0.36461 0.70056 0.63539 0.02500
H 	H 	0.37921 0.73369 0.62079 0.05400
C 	C 	0.36461 0.79944 0.86461 0.02200
H 	H 	0.37921 0.76631 0.87921 0.06400
C 	C 	0.36461 0.29944 0.36461 0.03000
H 	H 	0.37921 0.26631 0.37921 0.04700
C 	C 	0.63539 0.70056 0.36461 0.02500
H 	H 	0.62079 0.73369 0.37921 0.05400
C 	C 	0.13539 0.63539 0.79944 0.02400
H 	H 	0.12079 0.62079 0.76631 0.04400
C 	C 	0.13539 0.13539 0.29944 0.03200
H 	H 	0.12079 0.12079 0.26631 0.02900
C 	C 	0.13539 0.36461 0.20056 0.03200
H 	H 	0.12079 0.37921 0.23369 0.03800
C 	C 	0.13539 0.86461 0.70056 0.02400
H 	H 	0.12079 0.87921 0.73369 0.05500
C 	C 	0.86461 0.36461 0.79944 0.02200
H 	H 	0.87921 0.37921 0.76631 0.06400
C 	C 	0.86461 0.13539 0.70056 0.02400
H 	H 	0.87921 0.12079 0.73369 0.05500
C 	C 	0.79944 0.13539 0.63539 0.02400
H 	H 	0.76631 0.12079 0.62079 0.04400
C 	C 	0.29944 0.13539 0.13539 0.03200
H 	H 	0.26631 0.12079 0.12079 0.02900
C 	C 	0.20056 0.13539 0.36461 0.03200
H 	H 	0.23369 0.12079 0.37921 0.03800
C 	C 	0.70056 0.13539 0.86461 0.02400
H 	H 	0.73369 0.12079 0.87921 0.05500
C 	C 	0.79944 0.86461 0.36461 0.02200
H 	H 	0.76631 0.87921 0.37921 0.06400
C 	C 	0.70056 0.86461 0.13539 0.02400
H 	H 	0.73369 0.87921 0.12079 0.05500
C 	C 	0.29944 0.63539 0.36461 0.02800
H 	H 	0.26631 0.62079 0.37921 0.04800
C 	C 	0.20056 0.36461 0.86461 0.02700
H 	H 	0.23369 0.37921 0.87921 0.05900
C 	C 	0.70056 0.36461 0.36461 0.02700
H 	H 	0.73369 0.37921 0.37921 0.05400
C 	C 	0.79944 0.36461 0.13539 0.02600
H 	H 	0.76631 0.37921 0.12079 0.04400
C 	C 	0.29944 0.36461 0.63539 0.02800
H 	H 	0.26631 0.37921 0.62079 0.04800
C 	C 	0.20056 0.63539 0.13539 0.03000
H 	H 	0.23369 0.62079 0.12079 0.03900
C 	C 	0.63539 0.13539 0.20056 0.03000
H 	H 	0.62079 0.12079 0.23369 0.03900
C 	C 	0.36461 0.13539 0.79944 0.02600
H 	H 	0.37921 0.12079 0.76631 0.04400
C 	C 	0.36461 0.63539 0.29944 0.02800
H 	H 	0.37921 0.62079 0.26631 0.04800
C 	C 	0.36461 0.86461 0.20056 0.02700
H 	H 	0.37921 0.87921 0.23369 0.05900
C 	C 	0.36461 0.36461 0.70056 0.02700
H 	H 	0.37921 0.37921 0.73369 0.05400
C 	C 	0.63539 0.36461 0.29944 0.02800
H 	H 	0.62079 0.37921 0.26631 0.04800
C 	C 	0.13539 0.79944 0.36461 0.02600
H 	H 	0.12079 0.76631 0.37921 0.04400
C 	C 	0.13539 0.29944 0.86461 0.02700
H 	H 	0.12079 0.26631 0.87921 0.04900
C 	C 	0.13539 0.20056 0.63539 0.03000
H 	H 	0.12079 0.23369 0.62079 0.03900
C 	C 	0.13539 0.70056 0.13539 0.02900
H 	H 	0.12079 0.73369 0.12079 0.03500
C 	C 	0.86461 0.29944 0.13539 0.02700
H 	H 	0.87921 0.26631 0.12079 0.04900
C 	C 	0.86461 0.20056 0.36461 0.02700
H 	H 	0.87921 0.23369 0.37921 0.05900
Cr	Cr	0.28800 0.28800 -0.00000 1.40600
Cr	Cr	0.28800 0.78800 0.50000 1.45400
Cr	Cr	0.78800 0.28800 0.50000 1.45400
Cr	Cr	0.78800 0.78800 -0.00000 1.41200
Cr	Cr	0.71200 0.71200 -0.00000 1.40700
Cr	Cr	0.71200 0.21200 0.50000 1.44800
Cr	Cr	0.21200 0.71200 0.50000 1.44800
Cr	Cr	0.21200 0.21200 -0.00000 1.40200
Cr	Cr	0.71200 0.28800 -0.00000 1.40700
Cr	Cr	0.71200 0.78800 0.50000 1.45400
Cr	Cr	0.21200 0.28800 0.50000 1.44800
Cr	Cr	0.21200 0.78800 -0.00000 1.40700
Cr	Cr	0.28800 0.71200 -0.00000 1.40700
Cr	Cr	0.28800 0.21200 0.50000 1.44800
Cr	Cr	0.78800 0.71200 0.50000 1.45400
Cr	Cr	0.78800 0.21200 -0.00000 1.40700
Cr	Cr	-0.00000 0.28800 0.28800 1.40600
Cr	Cr	-0.00000 0.78800 0.78800 1.41200
Cr	Cr	0.50000 0.28800 0.78800 1.45400
Cr	Cr	0.50000 0.78800 0.28800 1.45400
Cr	Cr	0.00000 0.71200 0.71200 1.40700
Cr	Cr	0.00000 0.21200 0.21200 1.40200
Cr	Cr	0.50000 0.71200 0.21200 1.44800
Cr	Cr	0.50000 0.21200 0.71200 1.44800
Cr	Cr	0.00000 0.71200 0.28800 1.40700
Cr	Cr	0.00000 0.21200 0.78800 1.40700
Cr	Cr	0.50000 0.71200 0.78800 1.45400
Cr	Cr	0.50000 0.21200 0.28800 1.44800
Cr	Cr	0.00000 0.28800 0.71200 1.40700
Cr	Cr	-0.00000 0.78800 0.21200 1.40700
Cr	Cr	0.50000 0.28800 0.21200 1.44800
Cr	Cr	0.50000 0.78800 0.71200 1.45400
Cr	Cr	0.28800 0.00000 0.28800 1.40600
Cr	Cr	0.28800 0.50000 0.78800 1.45400
Cr	Cr	0.78800 -0.00000 0.78800 1.41200
Cr	Cr	0.78800 0.50000 0.28800 1.45400
Cr	Cr	0.71200 0.00000 0.71200 1.40700
Cr	Cr	0.71200 0.50000 0.21200 1.44800
Cr	Cr	0.21200 0.00000 0.21200 1.40200
Cr	Cr	0.21200 0.50000 0.71200 1.44800
Cr	Cr	0.28800 0.00000 0.71200 1.40700
Cr	Cr	0.28800 0.50000 0.21200 1.44800
Cr	Cr	0.78800 0.00000 0.21200 1.40700
Cr	Cr	0.78800 0.50000 0.71200 1.45400
Cr	Cr	0.71200 0.00000 0.28800 1.40700
Cr	Cr	0.71200 0.50000 0.78800 1.45400
Cr	Cr	0.21200 -0.00000 0.78800 1.40700
Cr	Cr	0.21200 0.50000 0.28800 1.44800
