data_crystal

_cell_length_a 10.65960
_cell_length_b 16.47330
_cell_length_c 21.77910
_cell_angle_alpha 92.68800
_cell_angle_beta  90.00000
_cell_angle_gamma 90.00000

_symmetry_space_group_name_	'P 1'
_symmetry_space_group_name_H-M	'P 1'

loop_
_symmetry_equiv_pos_as_xyz
  x,y,z

loop_
_atom_site_label
_atom_site_type_symbol
_atom_site_fract_x
_atom_site_fract_y
_atom_site_fract_z
_atom_site_charge
Mn	Mn	0.69395 0.73866 0.13458 1.24500
Mn	Mn	0.73483 0.75259 0.97447 1.28300
Mn	Mn	0.92119 0.77328 0.81243 1.31300
Mn	Mn	0.19395 0.26134 0.36542 1.24400
Mn	Mn	0.23483 0.24741 0.52553 1.28300
Mn	Mn	0.42119 0.22672 0.68757 1.31500
Mn	Mn	0.30605 0.26134 0.86542 1.24600
Mn	Mn	0.26517 0.24741 0.02553 1.28400
Mn	Mn	0.07881 0.22672 0.18757 1.31400
Mn	Mn	0.80605 0.73866 0.63458 1.24500
Mn	Mn	0.76517 0.75259 0.47447 1.28400
Mn	Mn	0.57881 0.77328 0.31243 1.31600
H 	H 	0.74480 0.53780 0.12780 0.20800
H 	H 	0.88520 0.55290 0.10960 0.19100
H 	H 	0.70940 0.41870 0.99420 0.08900
H 	H 	0.84980 0.43950 0.97800 0.08100
H 	H 	0.75620 0.41690 0.09090 -0.04800
H 	H 	0.89810 0.43140 0.07410 -0.05000
H 	H 	0.71320 0.55850 0.96350 0.15500
H 	H 	0.77230 0.55870 0.74680 0.03200
H 	H 	0.40490 0.07020 0.90850 0.00400
H 	H 	0.05650 0.74030 0.06790 -0.00300
H 	H 	0.67390 0.42980 0.71640 0.04100
H 	H 	0.53840 0.96690 0.95070 0.04100
H 	H 	0.26650 0.74930 0.11410 0.04700
H 	H 	0.24480 0.46220 0.37220 0.20900
H 	H 	0.38520 0.44710 0.39040 0.19200
H 	H 	0.20940 0.58130 0.50580 0.09300
H 	H 	0.34980 0.56050 0.52200 0.08600
H 	H 	0.25620 0.58310 0.40910 -0.05100
H 	H 	0.39810 0.56860 0.42590 -0.05400
H 	H 	0.21320 0.44150 0.53650 0.15500
H 	H 	0.27230 0.44130 0.75320 0.03200
H 	H 	0.90490 0.92980 0.59150 0.00700
H 	H 	0.55650 0.25970 0.43210 -0.00400
H 	H 	0.17390 0.57020 0.78360 0.04200
H 	H 	0.03840 0.03310 0.54930 0.03800
H 	H 	0.76650 0.25070 0.38590 0.04800
H 	H 	0.25520 0.46220 0.87220 0.20800
H 	H 	0.11480 0.44710 0.89040 0.19100
H 	H 	0.29060 0.58130 0.00580 0.08900
H 	H 	0.15020 0.56050 0.02200 0.08100
H 	H 	0.24380 0.58310 0.90910 -0.04800
H 	H 	0.10190 0.56860 0.92590 -0.05000
H 	H 	0.28680 0.44150 0.03650 0.15500
H 	H 	0.22770 0.44130 0.25320 0.03200
H 	H 	0.59510 0.92980 0.09150 0.00400
H 	H 	0.94350 0.25970 0.93210 -0.00300
H 	H 	0.32610 0.57020 0.28360 0.04100
H 	H 	0.46160 0.03310 0.04930 0.04100
H 	H 	0.73350 0.25070 0.88590 0.04700
H 	H 	0.75520 0.53780 0.62780 0.20900
H 	H 	0.61480 0.55290 0.60960 0.19200
H 	H 	0.79060 0.41870 0.49420 0.09300
H 	H 	0.65020 0.43950 0.47800 0.08600
H 	H 	0.74380 0.41690 0.59090 -0.05100
H 	H 	0.60190 0.43140 0.57410 -0.05400
H 	H 	0.78680 0.55850 0.46350 0.15500
H 	H 	0.72770 0.55870 0.24680 0.03200
H 	H 	0.09510 0.07020 0.40850 0.00700
H 	H 	0.44350 0.74030 0.56790 -0.00400
H 	H 	0.82610 0.42980 0.21640 0.04200
H 	H 	0.96160 0.96690 0.45070 0.03800
H 	H 	0.23350 0.74930 0.61410 0.04800
C 	C 	0.80410 0.53480 0.09400 -0.60500
C 	C 	0.77920 0.45470 0.00420 -0.17100
C 	C 	0.81340 0.45180 0.06960 0.25500
C 	C 	0.76350 0.58670 0.04690 0.47800
C 	C 	0.71130 0.53420 0.77020 -0.00700
C 	C 	0.47160 0.04580 0.88710 0.01100
C 	C 	0.12940 0.74910 0.04570 0.00900
C 	C 	0.66940 0.56670 0.82450 -0.12800
C 	C 	0.65420 0.45980 0.75230 -0.01400
C 	C 	0.54780 0.98560 0.91130 -0.01000
C 	C 	0.71210 0.64290 0.85630 0.41700
C 	C 	0.63680 0.95780 0.87110 -0.11400
C 	C 	0.25090 0.75390 0.07240 -0.02400
C 	C 	0.02480 0.75460 0.94080 0.41000
C 	C 	0.48480 0.36400 0.78760 0.40500
C 	C 	0.56720 0.43710 0.79350 -0.11100
C 	C 	0.34190 0.76590 0.02990 -0.10600
C 	C 	0.45280 0.12570 0.78780 0.37700
C 	C 	0.72860 0.89140 0.87828 0.39800
C 	C 	0.13190 0.75900 0.98340 -0.13500
C 	C 	0.48040 0.76810 0.03920 0.39900
C 	C 	0.50540 0.06500 0.82890 -0.12100
C 	C 	0.30410 0.46520 0.40600 -0.60900
C 	C 	0.27920 0.54530 0.49580 -0.18100
C 	C 	0.31340 0.54820 0.43040 0.26300
C 	C 	0.26350 0.41330 0.45310 0.47800
C 	C 	0.21130 0.46580 0.72980 -0.00600
C 	C 	0.97160 0.95420 0.61290 -0.00100
C 	C 	0.62940 0.25090 0.45430 0.01100
C 	C 	0.16940 0.43330 0.67550 -0.12800
C 	C 	0.15420 0.54020 0.74770 -0.01600
C 	C 	0.04780 0.01440 0.58870 -0.00500
C 	C 	0.21210 0.35710 0.64370 0.41700
C 	C 	0.13680 0.04220 0.62890 -0.11700
C 	C 	0.75090 0.24610 0.42760 -0.02400
C 	C 	0.52480 0.24540 0.55920 0.40600
C 	C 	0.98480 0.63600 0.71240 0.40000
C 	C 	0.06720 0.56290 0.70650 -0.10700
C 	C 	0.84190 0.23410 0.47010 -0.10600
C 	C 	0.95280 0.87430 0.71220 0.36700
C 	C 	0.22860 0.10860 0.62172 0.39900
C 	C 	0.63190 0.24100 0.51660 -0.13700
C 	C 	0.98040 0.23190 0.46080 0.40300
C 	C 	0.00540 0.93500 0.67110 -0.11000
C 	C 	0.19590 0.46520 0.90600 -0.60500
C 	C 	0.22080 0.54530 0.99580 -0.17100
C 	C 	0.18660 0.54820 0.93040 0.25500
C 	C 	0.23650 0.41330 0.95310 0.47800
C 	C 	0.28870 0.46580 0.22980 -0.00700
C 	C 	0.52840 0.95420 0.11290 0.01100
C 	C 	0.87060 0.25090 0.95430 0.00900
C 	C 	0.33060 0.43330 0.17550 -0.12800
C 	C 	0.34580 0.54020 0.24770 -0.01400
C 	C 	0.45220 0.01440 0.08870 -0.01000
C 	C 	0.28790 0.35710 0.14370 0.41700
C 	C 	0.36320 0.04220 0.12890 -0.11400
C 	C 	0.74910 0.24610 0.92760 -0.02400
C 	C 	0.97520 0.24540 0.05920 0.41000
C 	C 	0.51520 0.63600 0.21240 0.40500
C 	C 	0.43280 0.56290 0.20650 -0.11100
C 	C 	0.65810 0.23410 0.97010 -0.10600
C 	C 	0.54720 0.87430 0.21220 0.37700
C 	C 	0.27140 0.10860 0.12172 0.39800
C 	C 	0.86810 0.24100 0.01660 -0.13500
C 	C 	0.51960 0.23190 0.96080 0.39900
C 	C 	0.49460 0.93500 0.17110 -0.12100
C 	C 	0.69590 0.53480 0.59400 -0.60900
C 	C 	0.72080 0.45470 0.50420 -0.18100
C 	C 	0.68660 0.45180 0.56960 0.26300
C 	C 	0.73650 0.58670 0.54690 0.47800
C 	C 	0.78870 0.53420 0.27020 -0.00600
C 	C 	0.02840 0.04580 0.38710 -0.00100
C 	C 	0.37060 0.74910 0.54570 0.01100
C 	C 	0.83060 0.56670 0.32450 -0.12800
C 	C 	0.84580 0.45980 0.25230 -0.01600
C 	C 	0.95220 0.98560 0.41130 -0.00500
C 	C 	0.78790 0.64290 0.35630 0.41700
C 	C 	0.86320 0.95780 0.37110 -0.11700
C 	C 	0.24910 0.75390 0.57240 -0.02400
C 	C 	0.47520 0.75460 0.44080 0.40600
C 	C 	0.01520 0.36400 0.28760 0.40000
C 	C 	0.93280 0.43710 0.29350 -0.10700
C 	C 	0.15810 0.76590 0.52990 -0.10600
C 	C 	0.04720 0.12570 0.28780 0.36700
C 	C 	0.77140 0.89140 0.37828 0.39900
C 	C 	0.36810 0.75900 0.48340 -0.13700
C 	C 	0.01960 0.76810 0.53920 0.40300
C 	C 	0.99460 0.06500 0.32890 -0.11000
S 	S 	0.55489 0.50644 0.85428 0.06100
S 	S 	0.63084 0.00783 0.80347 0.08200
S 	S 	0.28168 0.77289 0.95739 0.08000
S 	S 	0.05489 0.49356 0.64572 0.06100
S 	S 	0.13084 0.99217 0.69653 0.08300
S 	S 	0.78168 0.22711 0.54261 0.08000
S 	S 	0.44511 0.49356 0.14572 0.06100
S 	S 	0.36916 0.99217 0.19653 0.08200
S 	S 	0.71832 0.22711 0.04261 0.08000
S 	S 	0.94511 0.50644 0.35428 0.06100
S 	S 	0.86916 0.00783 0.30347 0.08300
S 	S 	0.21832 0.77289 0.45739 0.08000
N 	N 	0.74360 0.54060 0.99690 -0.26600
N 	N 	0.24360 0.45940 0.50310 -0.26300
N 	N 	0.25640 0.45940 0.00310 -0.26600
N 	N 	0.75640 0.54060 0.49690 -0.26300
O 	O 	0.67350 0.65810 0.90989 -0.45000
O 	O 	0.78560 0.68550 0.82700 -0.49200
O 	O 	0.54560 0.77970 0.99309 -0.46900
O 	O 	0.92440 0.72730 0.96094 -0.50100
O 	O 	0.39430 0.36060 0.82404 -0.47700
O 	O 	0.35150 0.16300 0.80278 -0.50500
O 	O 	0.04440 0.77690 0.88693 -0.45100
O 	O 	0.51070 0.13570 0.73869 -0.41300
O 	O 	0.78060 0.86390 0.83057 -0.44600
O 	O 	0.74610 0.86770 0.93205 -0.46700
O 	O 	0.51780 0.75660 0.09259 -0.46600
O 	O 	0.51400 0.31350 0.74518 -0.45100
O 	O 	0.74110 0.65977 0.05025 -0.61500
O 	O 	0.17350 0.34190 0.59011 -0.45000
O 	O 	0.28560 0.31450 0.67300 -0.49100
O 	O 	0.04560 0.22030 0.50691 -0.47100
O 	O 	0.42440 0.27270 0.53906 -0.49800
O 	O 	0.89430 0.63940 0.67596 -0.47600
O 	O 	0.85150 0.83700 0.69722 -0.50300
O 	O 	0.54440 0.22310 0.61307 -0.45100
O 	O 	0.01070 0.86430 0.76131 -0.40800
O 	O 	0.28060 0.13610 0.66943 -0.44600
O 	O 	0.24610 0.13230 0.56795 -0.46600
O 	O 	0.01780 0.24340 0.40741 -0.46900
O 	O 	0.01400 0.68650 0.75482 -0.44800
O 	O 	0.24110 0.34023 0.44975 -0.61500
O 	O 	0.32650 0.34190 0.09011 -0.45000
O 	O 	0.21440 0.31450 0.17300 -0.49200
O 	O 	0.45440 0.22030 0.00691 -0.46900
O 	O 	0.07560 0.27270 0.03906 -0.50100
O 	O 	0.60570 0.63940 0.17596 -0.47700
O 	O 	0.64850 0.83700 0.19722 -0.50500
O 	O 	0.95560 0.22310 0.11307 -0.45100
O 	O 	0.48930 0.86430 0.26131 -0.41300
O 	O 	0.21940 0.13610 0.16943 -0.44600
O 	O 	0.25390 0.13230 0.06795 -0.46700
O 	O 	0.48220 0.24340 0.90741 -0.46600
O 	O 	0.48600 0.68650 0.25482 -0.45100
O 	O 	0.25890 0.34023 0.94975 -0.61500
O 	O 	0.82650 0.65810 0.40989 -0.45000
O 	O 	0.71440 0.68550 0.32700 -0.49100
O 	O 	0.95440 0.77970 0.49309 -0.47100
O 	O 	0.57560 0.72730 0.46094 -0.49800
O 	O 	0.10570 0.36060 0.32404 -0.47600
O 	O 	0.14850 0.16300 0.30278 -0.50300
O 	O 	0.45560 0.77690 0.38693 -0.45100
O 	O 	0.98930 0.13570 0.23869 -0.40800
O 	O 	0.71940 0.86390 0.33057 -0.44600
O 	O 	0.75390 0.86770 0.43205 -0.46600
O 	O 	0.98220 0.75660 0.59259 -0.46900
O 	O 	0.98600 0.31350 0.24518 -0.44800
O 	O 	0.75890 0.65977 0.55025 -0.61500
