data_crystal

_cell_length_a 33.00010
_cell_length_b 33.00010
_cell_length_c 33.00010
_cell_angle_alpha 90.00000
_cell_angle_beta  90.00000
_cell_angle_gamma 90.00000

_symmetry_space_group_name_	'P 1'
_symmetry_space_group_name_H-M	'P 1'

loop_
_symmetry_equiv_pos_as_xyz
  x,y,z

loop_
_atom_site_label
_atom_site_type_symbol
_atom_site_fract_x
_atom_site_fract_y
_atom_site_fract_z
_atom_site_charge
O 	O 	0.04630 0.65030 0.03270 -0.33500
O 	O 	0.04040 0.58840 0.05650 -0.42400
C 	C 	0.21520 0.67430 0.17170 -0.17700
H 	H 	0.19090 0.68430 0.18190 0.09400
C 	C 	0.21390 0.64640 0.14070 0.10800
C 	C 	0.17260 0.63510 0.11930 -0.00800
C 	C 	0.16390 0.59650 0.10500 -0.05400
H 	H 	0.18170 0.57530 0.11010 0.05000
C 	C 	0.12850 0.58950 0.08330 -0.03000
H 	H 	0.12270 0.56370 0.07370 0.04500
C 	C 	0.10180 0.62120 0.07580 -0.02000
C 	C 	0.11050 0.65990 0.09000 -0.02800
H 	H 	0.09260 0.68110 0.08500 0.06100
C 	C 	0.14590 0.66690 0.11180 -0.05400
H 	H 	0.15170 0.69270 0.12130 0.05200
C 	C 	0.06340 0.61350 0.04790 0.24100
O 	O 	0.54630 0.15030 0.53270 -0.33000
O 	O 	0.54040 0.08840 0.55650 -0.42700
C 	C 	0.71520 0.17430 0.67170 -0.17900
H 	H 	0.69090 0.18430 0.68190 0.09500
C 	C 	0.71390 0.14640 0.64070 0.11000
C 	C 	0.67260 0.13510 0.61930 -0.01000
C 	C 	0.66390 0.09650 0.60500 -0.05200
H 	H 	0.68170 0.07530 0.61010 0.04600
C 	C 	0.62850 0.08950 0.58330 -0.03300
H 	H 	0.62270 0.06370 0.57370 0.04400
C 	C 	0.60180 0.12120 0.57580 -0.01600
C 	C 	0.61050 0.15990 0.59000 -0.03100
H 	H 	0.59260 0.18110 0.58500 0.06400
C 	C 	0.64590 0.16690 0.61180 -0.05100
H 	H 	0.65170 0.19270 0.62130 0.05200
C 	C 	0.56340 0.11350 0.54790 0.23900
O 	O 	0.95370 0.34970 0.03270 -0.32100
O 	O 	0.95960 0.41160 0.05650 -0.40600
C 	C 	0.78480 0.32570 0.17170 -0.18000
H 	H 	0.80910 0.31570 0.18190 0.09500
C 	C 	0.78610 0.35360 0.14070 0.10900
C 	C 	0.82740 0.36490 0.11930 -0.01100
C 	C 	0.83610 0.40350 0.10500 -0.05000
H 	H 	0.81830 0.42470 0.11010 0.04800
C 	C 	0.87150 0.41050 0.08330 -0.03400
H 	H 	0.87730 0.43630 0.07370 0.04800
C 	C 	0.89820 0.37880 0.07580 -0.01300
C 	C 	0.88950 0.34010 0.09000 -0.03300
H 	H 	0.90740 0.31890 0.08500 0.06600
C 	C 	0.85410 0.33310 0.11180 -0.05000
H 	H 	0.84830 0.30730 0.12130 0.05100
C 	C 	0.93660 0.38650 0.04790 0.23500
O 	O 	0.45370 0.84970 0.53270 -0.33200
O 	O 	0.45960 0.91160 0.55650 -0.42100
C 	C 	0.28480 0.82570 0.67170 -0.18000
H 	H 	0.30910 0.81570 0.68190 0.09500
C 	C 	0.28610 0.85360 0.64070 0.11200
C 	C 	0.32740 0.86490 0.61930 -0.01000
C 	C 	0.33610 0.90350 0.60500 -0.04900
H 	H 	0.31830 0.92470 0.61010 0.05200
C 	C 	0.37150 0.91050 0.58330 -0.03300
H 	H 	0.37730 0.93630 0.57370 0.05300
C 	C 	0.39820 0.87880 0.57580 -0.01200
C 	C 	0.38950 0.84010 0.59000 -0.03200
H 	H 	0.40740 0.81890 0.58500 0.06500
C 	C 	0.35410 0.83310 0.61180 -0.04900
H 	H 	0.34830 0.80730 0.62130 0.05100
C 	C 	0.43660 0.88650 0.54790 0.23800
O 	O 	0.95370 0.65030 0.96730 -0.30500
O 	O 	0.95960 0.58840 0.94350 -0.39900
C 	C 	0.78480 0.67430 0.82830 -0.18200
H 	H 	0.80910 0.68430 0.81810 0.09700
C 	C 	0.78610 0.64640 0.85930 0.11400
C 	C 	0.82740 0.63510 0.88070 -0.01100
C 	C 	0.83610 0.59650 0.89500 -0.04600
H 	H 	0.81830 0.57530 0.88990 0.05000
C 	C 	0.87150 0.58950 0.91670 -0.03400
H 	H 	0.87730 0.56370 0.92630 0.05400
C 	C 	0.89820 0.62120 0.92420 -0.00800
C 	C 	0.88950 0.65990 0.91000 -0.03300
H 	H 	0.90740 0.68110 0.91500 0.07100
C 	C 	0.85410 0.66690 0.88820 -0.04500
H 	H 	0.84830 0.69270 0.87870 0.05400
C 	C 	0.93660 0.61350 0.95210 0.24000
O 	O 	0.45370 0.15030 0.46730 -0.33100
O 	O 	0.45960 0.08840 0.44350 -0.42800
C 	C 	0.28480 0.17430 0.32830 -0.17800
H 	H 	0.30910 0.18430 0.31810 0.09300
C 	C 	0.28610 0.14640 0.35930 0.10700
C 	C 	0.32740 0.13510 0.38070 -0.01000
C 	C 	0.33610 0.09650 0.39500 -0.05300
H 	H 	0.31830 0.07530 0.38990 0.04600
C 	C 	0.37150 0.08950 0.41670 -0.03200
H 	H 	0.37730 0.06370 0.42630 0.04400
C 	C 	0.39820 0.12120 0.42420 -0.01700
C 	C 	0.38950 0.15990 0.41000 -0.03000
H 	H 	0.40740 0.18110 0.41500 0.06400
C 	C 	0.35410 0.16690 0.38820 -0.05200
H 	H 	0.34830 0.19270 0.37870 0.05200
C 	C 	0.43660 0.11350 0.45210 0.23900
O 	O 	0.04630 0.34970 0.96730 -0.32100
O 	O 	0.04040 0.41160 0.94350 -0.41700
C 	C 	0.21520 0.32570 0.82830 -0.18000
H 	H 	0.19090 0.31570 0.81810 0.09400
C 	C 	0.21390 0.35360 0.85930 0.11100
C 	C 	0.17260 0.36490 0.88070 -0.00900
C 	C 	0.16390 0.40350 0.89500 -0.05100
H 	H 	0.18170 0.42470 0.88990 0.05100
C 	C 	0.12850 0.41050 0.91670 -0.03000
H 	H 	0.12270 0.43630 0.92630 0.05000
C 	C 	0.10180 0.37880 0.92420 -0.01700
C 	C 	0.11050 0.34010 0.91000 -0.02900
H 	H 	0.09260 0.31890 0.91500 0.06300
C 	C 	0.14590 0.33310 0.88820 -0.05100
H 	H 	0.15170 0.30730 0.87870 0.05200
C 	C 	0.06340 0.38650 0.95210 0.24600
O 	O 	0.54630 0.84970 0.46730 -0.33200
O 	O 	0.54040 0.91160 0.44350 -0.42100
C 	C 	0.71520 0.82570 0.32830 -0.18100
H 	H 	0.69090 0.81570 0.31810 0.09500
C 	C 	0.71390 0.85360 0.35930 0.11300
C 	C 	0.67260 0.86490 0.38070 -0.01000
C 	C 	0.66390 0.90350 0.39500 -0.04900
H 	H 	0.68170 0.92470 0.38990 0.05200
C 	C 	0.62850 0.91050 0.41670 -0.03300
H 	H 	0.62270 0.93630 0.42630 0.05300
C 	C 	0.60180 0.87880 0.42420 -0.01200
C 	C 	0.61050 0.84010 0.41000 -0.03200
H 	H 	0.59260 0.81890 0.41500 0.06500
C 	C 	0.64590 0.83310 0.38820 -0.04900
H 	H 	0.65170 0.80730 0.37870 0.05100
C 	C 	0.56340 0.88650 0.45210 0.23800
O 	O 	0.03270 0.04630 0.65030 -0.33600
O 	O 	0.05650 0.04040 0.58840 -0.42500
C 	C 	0.17170 0.21520 0.67430 -0.17800
H 	H 	0.18190 0.19090 0.68430 0.09300
C 	C 	0.14070 0.21390 0.64640 0.10700
C 	C 	0.11930 0.17260 0.63510 -0.00900
C 	C 	0.10500 0.16390 0.59650 -0.05500
H 	H 	0.11010 0.18170 0.57530 0.04900
C 	C 	0.08330 0.12850 0.58950 -0.03100
H 	H 	0.07370 0.12270 0.56370 0.04400
C 	C 	0.07580 0.10180 0.62120 -0.02100
C 	C 	0.09000 0.11050 0.65990 -0.02900
H 	H 	0.08500 0.09260 0.68110 0.06000
C 	C 	0.11180 0.14590 0.66690 -0.05500
H 	H 	0.12130 0.15170 0.69270 0.05100
C 	C 	0.04790 0.06340 0.61350 0.24000
O 	O 	0.53270 0.54630 0.15030 -0.33100
O 	O 	0.55650 0.54040 0.08840 -0.42800
C 	C 	0.67170 0.71520 0.17430 -0.18000
H 	H 	0.68190 0.69090 0.18430 0.09400
C 	C 	0.64070 0.71390 0.14640 0.10900
C 	C 	0.61930 0.67260 0.13510 -0.01000
C 	C 	0.60500 0.66390 0.09650 -0.05200
H 	H 	0.61010 0.68170 0.07530 0.04600
C 	C 	0.58330 0.62850 0.08950 -0.03300
H 	H 	0.57370 0.62270 0.06370 0.04400
C 	C 	0.57580 0.60180 0.12120 -0.01600
C 	C 	0.59000 0.61050 0.15990 -0.03100
H 	H 	0.58500 0.59260 0.18110 0.06400
C 	C 	0.61180 0.64590 0.16690 -0.05100
H 	H 	0.62130 0.65170 0.19270 0.05200
C 	C 	0.54790 0.56340 0.11350 0.23900
O 	O 	0.03270 0.95370 0.34970 -0.32100
O 	O 	0.05650 0.95960 0.41160 -0.40600
C 	C 	0.17170 0.78480 0.32570 -0.18000
H 	H 	0.18190 0.80910 0.31570 0.09500
C 	C 	0.14070 0.78610 0.35360 0.10900
C 	C 	0.11930 0.82740 0.36490 -0.01100
C 	C 	0.10500 0.83610 0.40350 -0.05000
H 	H 	0.11010 0.81830 0.42470 0.04800
C 	C 	0.08330 0.87150 0.41050 -0.03400
H 	H 	0.07370 0.87730 0.43630 0.04800
C 	C 	0.07580 0.89820 0.37880 -0.01300
C 	C 	0.09000 0.88950 0.34010 -0.03300
H 	H 	0.08500 0.90740 0.31890 0.06600
C 	C 	0.11180 0.85410 0.33310 -0.05000
H 	H 	0.12130 0.84830 0.30730 0.05100
C 	C 	0.04790 0.93660 0.38650 0.23500
O 	O 	0.53270 0.45370 0.84970 -0.33200
O 	O 	0.55650 0.45960 0.91160 -0.42100
C 	C 	0.67170 0.28480 0.82570 -0.18000
H 	H 	0.68190 0.30910 0.81570 0.09500
C 	C 	0.64070 0.28610 0.85360 0.11200
C 	C 	0.61930 0.32740 0.86490 -0.01000
C 	C 	0.60500 0.33610 0.90350 -0.04900
H 	H 	0.61010 0.31830 0.92470 0.05200
C 	C 	0.58330 0.37150 0.91050 -0.03300
H 	H 	0.57370 0.37730 0.93630 0.05300
C 	C 	0.57580 0.39820 0.87880 -0.01200
C 	C 	0.59000 0.38950 0.84010 -0.03200
H 	H 	0.58500 0.40740 0.81890 0.06500
C 	C 	0.61180 0.35410 0.83310 -0.04900
H 	H 	0.62130 0.34830 0.80730 0.05100
C 	C 	0.54790 0.43660 0.88650 0.23800
O 	O 	0.96730 0.95370 0.65030 -0.30500
O 	O 	0.94350 0.95960 0.58840 -0.39900
C 	C 	0.82830 0.78480 0.67430 -0.18200
H 	H 	0.81810 0.80910 0.68430 0.09700
C 	C 	0.85930 0.78610 0.64640 0.11400
C 	C 	0.88070 0.82740 0.63510 -0.01100
C 	C 	0.89500 0.83610 0.59650 -0.04600
H 	H 	0.88990 0.81830 0.57530 0.05000
C 	C 	0.91670 0.87150 0.58950 -0.03400
H 	H 	0.92630 0.87730 0.56370 0.05400
C 	C 	0.92420 0.89820 0.62120 -0.00800
C 	C 	0.91000 0.88950 0.65990 -0.03300
H 	H 	0.91500 0.90740 0.68110 0.07100
C 	C 	0.88820 0.85410 0.66690 -0.04500
H 	H 	0.87870 0.84830 0.69270 0.05400
C 	C 	0.95210 0.93660 0.61350 0.24000
O 	O 	0.46730 0.45370 0.15030 -0.33100
O 	O 	0.44350 0.45960 0.08840 -0.42800
C 	C 	0.32830 0.28480 0.17430 -0.17800
H 	H 	0.31810 0.30910 0.18430 0.09300
C 	C 	0.35930 0.28610 0.14640 0.10700
C 	C 	0.38070 0.32740 0.13510 -0.01000
C 	C 	0.39500 0.33610 0.09650 -0.05300
H 	H 	0.38990 0.31830 0.07530 0.04600
C 	C 	0.41670 0.37150 0.08950 -0.03200
H 	H 	0.42630 0.37730 0.06370 0.04400
C 	C 	0.42420 0.39820 0.12120 -0.01700
C 	C 	0.41000 0.38950 0.15990 -0.03000
H 	H 	0.41500 0.40740 0.18110 0.06400
C 	C 	0.38820 0.35410 0.16690 -0.05200
H 	H 	0.37870 0.34830 0.19270 0.05200
C 	C 	0.45210 0.43660 0.11350 0.23900
O 	O 	0.96730 0.04630 0.34970 -0.32100
O 	O 	0.94350 0.04040 0.41160 -0.41700
C 	C 	0.82830 0.21520 0.32570 -0.18000
H 	H 	0.81810 0.19090 0.31570 0.09400
C 	C 	0.85930 0.21390 0.35360 0.11100
C 	C 	0.88070 0.17260 0.36490 -0.00900
C 	C 	0.89500 0.16390 0.40350 -0.05100
H 	H 	0.88990 0.18170 0.42470 0.05100
C 	C 	0.91670 0.12850 0.41050 -0.03000
H 	H 	0.92630 0.12270 0.43630 0.05000
C 	C 	0.92420 0.10180 0.37880 -0.01700
C 	C 	0.91000 0.11050 0.34010 -0.02900
H 	H 	0.91500 0.09260 0.31890 0.06300
C 	C 	0.88820 0.14590 0.33310 -0.05100
H 	H 	0.87870 0.15170 0.30730 0.05200
C 	C 	0.95210 0.06340 0.38650 0.24600
O 	O 	0.46730 0.54630 0.84970 -0.33200
O 	O 	0.44350 0.54040 0.91160 -0.42100
C 	C 	0.32830 0.71520 0.82570 -0.18100
H 	H 	0.31810 0.69090 0.81570 0.09500
C 	C 	0.35930 0.71390 0.85360 0.11300
C 	C 	0.38070 0.67260 0.86490 -0.01000
C 	C 	0.39500 0.66390 0.90350 -0.04900
H 	H 	0.38990 0.68170 0.92470 0.05200
C 	C 	0.41670 0.62850 0.91050 -0.03300
H 	H 	0.42630 0.62270 0.93630 0.05300
C 	C 	0.42420 0.60180 0.87880 -0.01200
C 	C 	0.41000 0.61050 0.84010 -0.03200
H 	H 	0.41500 0.59260 0.81890 0.06500
C 	C 	0.38820 0.64590 0.83310 -0.04900
H 	H 	0.37870 0.65170 0.80730 0.05100
C 	C 	0.45210 0.56340 0.88650 0.23800
O 	O 	0.65030 0.03270 0.04630 -0.33600
O 	O 	0.58840 0.05650 0.04040 -0.42500
C 	C 	0.67430 0.17170 0.21520 -0.17800
H 	H 	0.68430 0.18190 0.19090 0.09300
C 	C 	0.64640 0.14070 0.21390 0.10700
C 	C 	0.63510 0.11930 0.17260 -0.00900
C 	C 	0.59650 0.10500 0.16390 -0.05500
H 	H 	0.57530 0.11010 0.18170 0.04900
C 	C 	0.58950 0.08330 0.12850 -0.03100
H 	H 	0.56370 0.07370 0.12270 0.04400
C 	C 	0.62120 0.07580 0.10180 -0.02100
C 	C 	0.65990 0.09000 0.11050 -0.02900
H 	H 	0.68110 0.08500 0.09260 0.06000
C 	C 	0.66690 0.11180 0.14590 -0.05500
H 	H 	0.69270 0.12130 0.15170 0.05100
C 	C 	0.61350 0.04790 0.06340 0.24000
O 	O 	0.15030 0.53270 0.54630 -0.33100
O 	O 	0.08840 0.55650 0.54040 -0.42800
C 	C 	0.17430 0.67170 0.71520 -0.18000
H 	H 	0.18430 0.68190 0.69090 0.09400
C 	C 	0.14640 0.64070 0.71390 0.10900
C 	C 	0.13510 0.61930 0.67260 -0.01000
C 	C 	0.09650 0.60500 0.66390 -0.05200
H 	H 	0.07530 0.61010 0.68170 0.04600
C 	C 	0.08950 0.58330 0.62850 -0.03300
H 	H 	0.06370 0.57370 0.62270 0.04400
C 	C 	0.12120 0.57580 0.60180 -0.01600
C 	C 	0.15990 0.59000 0.61050 -0.03100
H 	H 	0.18110 0.58500 0.59260 0.06400
C 	C 	0.16690 0.61180 0.64590 -0.05100
H 	H 	0.19270 0.62130 0.65170 0.05200
C 	C 	0.11350 0.54790 0.56340 0.23900
O 	O 	0.34970 0.03270 0.95370 -0.32100
O 	O 	0.41160 0.05650 0.95960 -0.40600
C 	C 	0.32570 0.17170 0.78480 -0.18000
H 	H 	0.31570 0.18190 0.80910 0.09500
C 	C 	0.35360 0.14070 0.78610 0.10900
C 	C 	0.36490 0.11930 0.82740 -0.01100
C 	C 	0.40350 0.10500 0.83610 -0.05000
H 	H 	0.42470 0.11010 0.81830 0.04800
C 	C 	0.41050 0.08330 0.87150 -0.03400
H 	H 	0.43630 0.07370 0.87730 0.04800
C 	C 	0.37880 0.07580 0.89820 -0.01300
C 	C 	0.34010 0.09000 0.88950 -0.03300
H 	H 	0.31890 0.08500 0.90740 0.06600
C 	C 	0.33310 0.11180 0.85410 -0.05000
H 	H 	0.30730 0.12130 0.84830 0.05100
C 	C 	0.38650 0.04790 0.93660 0.23500
O 	O 	0.84970 0.53270 0.45370 -0.33200
O 	O 	0.91160 0.55650 0.45960 -0.42100
C 	C 	0.82570 0.67170 0.28480 -0.18000
H 	H 	0.81570 0.68190 0.30910 0.09500
C 	C 	0.85360 0.64070 0.28610 0.11200
C 	C 	0.86490 0.61930 0.32740 -0.01000
C 	C 	0.90350 0.60500 0.33610 -0.04900
H 	H 	0.92470 0.61010 0.31830 0.05200
C 	C 	0.91050 0.58330 0.37150 -0.03300
H 	H 	0.93630 0.57370 0.37730 0.05300
C 	C 	0.87880 0.57580 0.39820 -0.01200
C 	C 	0.84010 0.59000 0.38950 -0.03200
H 	H 	0.81890 0.58500 0.40740 0.06500
C 	C 	0.83310 0.61180 0.35410 -0.04900
H 	H 	0.80730 0.62130 0.34830 0.05100
C 	C 	0.88650 0.54790 0.43660 0.23800
O 	O 	0.65030 0.96730 0.95370 -0.30500
O 	O 	0.58840 0.94350 0.95960 -0.39900
C 	C 	0.67430 0.82830 0.78480 -0.18200
H 	H 	0.68430 0.81810 0.80910 0.09700
C 	C 	0.64640 0.85930 0.78610 0.11400
C 	C 	0.63510 0.88070 0.82740 -0.01100
C 	C 	0.59650 0.89500 0.83610 -0.04600
H 	H 	0.57530 0.88990 0.81830 0.05000
C 	C 	0.58950 0.91670 0.87150 -0.03400
H 	H 	0.56370 0.92630 0.87730 0.05400
C 	C 	0.62120 0.92420 0.89820 -0.00800
C 	C 	0.65990 0.91000 0.88950 -0.03300
H 	H 	0.68110 0.91500 0.90740 0.07100
C 	C 	0.66690 0.88820 0.85410 -0.04500
H 	H 	0.69270 0.87870 0.84830 0.05400
C 	C 	0.61350 0.95210 0.93660 0.24000
O 	O 	0.15030 0.46730 0.45370 -0.33100
O 	O 	0.08840 0.44350 0.45960 -0.42800
C 	C 	0.17430 0.32830 0.28480 -0.17800
H 	H 	0.18430 0.31810 0.30910 0.09300
C 	C 	0.14640 0.35930 0.28610 0.10700
C 	C 	0.13510 0.38070 0.32740 -0.01000
C 	C 	0.09650 0.39500 0.33610 -0.05300
H 	H 	0.07530 0.38990 0.31830 0.04600
C 	C 	0.08950 0.41670 0.37150 -0.03200
H 	H 	0.06370 0.42630 0.37730 0.04400
C 	C 	0.12120 0.42420 0.39820 -0.01700
C 	C 	0.15990 0.41000 0.38950 -0.03000
H 	H 	0.18110 0.41500 0.40740 0.06400
C 	C 	0.16690 0.38820 0.35410 -0.05200
H 	H 	0.19270 0.37870 0.34830 0.05200
C 	C 	0.11350 0.45210 0.43660 0.23900
O 	O 	0.34970 0.96730 0.04630 -0.32100
O 	O 	0.41160 0.94350 0.04040 -0.41700
C 	C 	0.32570 0.82830 0.21520 -0.18000
H 	H 	0.31570 0.81810 0.19090 0.09400
C 	C 	0.35360 0.85930 0.21390 0.11100
C 	C 	0.36490 0.88070 0.17260 -0.00900
C 	C 	0.40350 0.89500 0.16390 -0.05100
H 	H 	0.42470 0.88990 0.18170 0.05100
C 	C 	0.41050 0.91670 0.12850 -0.03000
H 	H 	0.43630 0.92630 0.12270 0.05000
C 	C 	0.37880 0.92420 0.10180 -0.01700
C 	C 	0.34010 0.91000 0.11050 -0.02900
H 	H 	0.31890 0.91500 0.09260 0.06300
C 	C 	0.33310 0.88820 0.14590 -0.05100
H 	H 	0.30730 0.87870 0.15170 0.05200
C 	C 	0.38650 0.95210 0.06340 0.24600
O 	O 	0.84970 0.46730 0.54630 -0.33200
O 	O 	0.91160 0.44350 0.54040 -0.42100
C 	C 	0.82570 0.32830 0.71520 -0.18100
H 	H 	0.81570 0.31810 0.69090 0.09500
C 	C 	0.85360 0.35930 0.71390 0.11300
C 	C 	0.86490 0.38070 0.67260 -0.01000
C 	C 	0.90350 0.39500 0.66390 -0.04900
H 	H 	0.92470 0.38990 0.68170 0.05200
C 	C 	0.91050 0.41670 0.62850 -0.03300
H 	H 	0.93630 0.42630 0.62270 0.05300
C 	C 	0.87880 0.42420 0.60180 -0.01200
C 	C 	0.84010 0.41000 0.61050 -0.03200
H 	H 	0.81890 0.41500 0.59260 0.06500
C 	C 	0.83310 0.38820 0.64590 -0.04900
H 	H 	0.80730 0.37870 0.65170 0.05100
C 	C 	0.88650 0.45210 0.56340 0.23800
O 	O 	0.65030 0.04630 0.96730 -0.32000
O 	O 	0.58840 0.04040 0.94350 -0.41700
C 	C 	0.67430 0.21520 0.82830 -0.18000
H 	H 	0.68430 0.19090 0.81810 0.09400
C 	C 	0.64640 0.21390 0.85930 0.11100
C 	C 	0.63510 0.17260 0.88070 -0.00900
C 	C 	0.59650 0.16390 0.89500 -0.05100
H 	H 	0.57530 0.18170 0.88990 0.05000
C 	C 	0.58950 0.12850 0.91670 -0.03100
H 	H 	0.56370 0.12270 0.92630 0.05000
C 	C 	0.62120 0.10180 0.92420 -0.01600
C 	C 	0.65990 0.11050 0.91000 -0.02900
H 	H 	0.68110 0.09260 0.91500 0.06400
C 	C 	0.66690 0.14590 0.88820 -0.05100
H 	H 	0.69270 0.15170 0.87870 0.05300
C 	C 	0.61350 0.06340 0.95210 0.24500
O 	O 	0.15030 0.54630 0.46730 -0.33100
O 	O 	0.08840 0.54040 0.44350 -0.42800
C 	C 	0.17430 0.71520 0.32830 -0.18000
H 	H 	0.18430 0.69090 0.31810 0.09400
C 	C 	0.14640 0.71390 0.35930 0.10900
C 	C 	0.13510 0.67260 0.38070 -0.01000
C 	C 	0.09650 0.66390 0.39500 -0.05300
H 	H 	0.07530 0.68170 0.38990 0.04600
C 	C 	0.08950 0.62850 0.41670 -0.03300
H 	H 	0.06370 0.62270 0.42630 0.04400
C 	C 	0.12120 0.60180 0.42420 -0.01600
C 	C 	0.15990 0.61050 0.41000 -0.03100
H 	H 	0.18110 0.59260 0.41500 0.06400
C 	C 	0.16690 0.64590 0.38820 -0.05100
H 	H 	0.19270 0.65170 0.37870 0.05200
C 	C 	0.11350 0.56340 0.45210 0.23900
O 	O 	0.34970 0.95370 0.96730 -0.30600
O 	O 	0.41160 0.95960 0.94350 -0.39900
C 	C 	0.32570 0.78480 0.82830 -0.18200
H 	H 	0.31570 0.80910 0.81810 0.09600
C 	C 	0.35360 0.78610 0.85930 0.11400
C 	C 	0.36490 0.82740 0.88070 -0.01100
C 	C 	0.40350 0.83610 0.89500 -0.04600
H 	H 	0.42470 0.81830 0.88990 0.05000
C 	C 	0.41050 0.87150 0.91670 -0.03400
H 	H 	0.43630 0.87730 0.92630 0.05400
C 	C 	0.37880 0.89820 0.92420 -0.00800
C 	C 	0.34010 0.88950 0.91000 -0.03300
H 	H 	0.31890 0.90740 0.91500 0.07000
C 	C 	0.33310 0.85410 0.88820 -0.04600
H 	H 	0.30730 0.84830 0.87870 0.05300
C 	C 	0.38650 0.93660 0.95210 0.24000
O 	O 	0.84970 0.45370 0.46730 -0.33200
O 	O 	0.91160 0.45960 0.44350 -0.42100
C 	C 	0.82570 0.28480 0.32830 -0.18000
H 	H 	0.81570 0.30910 0.31810 0.09500
C 	C 	0.85360 0.28610 0.35930 0.11100
C 	C 	0.86490 0.32740 0.38070 -0.00900
C 	C 	0.90350 0.33610 0.39500 -0.04900
H 	H 	0.92470 0.31830 0.38990 0.05200
C 	C 	0.91050 0.37150 0.41670 -0.03300
H 	H 	0.93630 0.37730 0.42630 0.05300
C 	C 	0.87880 0.39820 0.42420 -0.01200
C 	C 	0.84010 0.38950 0.41000 -0.03200
H 	H 	0.81890 0.40740 0.41500 0.06500
C 	C 	0.83310 0.35410 0.38820 -0.04900
H 	H 	0.80730 0.34830 0.37870 0.05100
C 	C 	0.88650 0.43660 0.45210 0.23800
O 	O 	0.65030 0.95370 0.03270 -0.32000
O 	O 	0.58840 0.95960 0.05650 -0.40600
C 	C 	0.67430 0.78480 0.17170 -0.18000
H 	H 	0.68430 0.80910 0.18190 0.09500
C 	C 	0.64640 0.78610 0.14070 0.11000
C 	C 	0.63510 0.82740 0.11930 -0.01100
C 	C 	0.59650 0.83610 0.10500 -0.05000
H 	H 	0.57530 0.81830 0.11010 0.04800
C 	C 	0.58950 0.87150 0.08330 -0.03500
H 	H 	0.56370 0.87730 0.07370 0.04800
C 	C 	0.62120 0.89820 0.07580 -0.01300
C 	C 	0.65990 0.88950 0.09000 -0.03300
H 	H 	0.68110 0.90740 0.08500 0.06700
C 	C 	0.66690 0.85410 0.11180 -0.04900
H 	H 	0.69270 0.84830 0.12130 0.05200
C 	C 	0.61350 0.93660 0.04790 0.23500
O 	O 	0.15030 0.45370 0.53270 -0.33100
O 	O 	0.08840 0.45960 0.55650 -0.42800
C 	C 	0.17430 0.28480 0.67170 -0.17800
H 	H 	0.18430 0.30910 0.68190 0.09300
C 	C 	0.14640 0.28610 0.64070 0.10700
C 	C 	0.13510 0.32740 0.61930 -0.01000
C 	C 	0.09650 0.33610 0.60500 -0.05300
H 	H 	0.07530 0.31830 0.61010 0.04600
C 	C 	0.08950 0.37150 0.58330 -0.03200
H 	H 	0.06370 0.37730 0.57370 0.04400
C 	C 	0.12120 0.39820 0.57580 -0.01700
C 	C 	0.15990 0.38950 0.59000 -0.03000
H 	H 	0.18110 0.40740 0.58500 0.06400
C 	C 	0.16690 0.35410 0.61180 -0.05200
H 	H 	0.19270 0.34830 0.62130 0.05200
C 	C 	0.11350 0.43660 0.54790 0.23900
O 	O 	0.34970 0.04630 0.03270 -0.33700
O 	O 	0.41160 0.04040 0.05650 -0.42500
C 	C 	0.32570 0.21520 0.17170 -0.17800
H 	H 	0.31570 0.19090 0.18190 0.09200
C 	C 	0.35360 0.21390 0.14070 0.10600
C 	C 	0.36490 0.17260 0.11930 -0.00900
C 	C 	0.40350 0.16390 0.10500 -0.05500
H 	H 	0.42470 0.18170 0.11010 0.04900
C 	C 	0.41050 0.12850 0.08330 -0.03100
H 	H 	0.43630 0.12270 0.07370 0.04400
C 	C 	0.37880 0.10180 0.07580 -0.02100
C 	C 	0.34010 0.11050 0.09000 -0.02900
H 	H 	0.31890 0.09260 0.08500 0.05900
C 	C 	0.33310 0.14590 0.11180 -0.05500
H 	H 	0.30730 0.15170 0.12130 0.05000
C 	C 	0.38650 0.06340 0.04790 0.24000
O 	O 	0.84970 0.54630 0.53270 -0.33200
O 	O 	0.91160 0.54040 0.55650 -0.42100
C 	C 	0.82570 0.71520 0.67170 -0.18200
H 	H 	0.81570 0.69090 0.68190 0.09500
C 	C 	0.85360 0.71390 0.64070 0.11300
C 	C 	0.86490 0.67260 0.61930 -0.01000
C 	C 	0.90350 0.66390 0.60500 -0.04900
H 	H 	0.92470 0.68170 0.61010 0.05200
C 	C 	0.91050 0.62850 0.58330 -0.03300
H 	H 	0.93630 0.62270 0.57370 0.05300
C 	C 	0.87880 0.60180 0.57580 -0.01200
C 	C 	0.84010 0.61050 0.59000 -0.03200
H 	H 	0.81890 0.59260 0.58500 0.06500
C 	C 	0.83310 0.64590 0.61180 -0.04900
H 	H 	0.80730 0.65170 0.62130 0.05100
C 	C 	0.88650 0.56340 0.54790 0.23800
O 	O 	0.04630 0.03270 0.34970 -0.33700
O 	O 	0.04040 0.05650 0.41160 -0.42500
C 	C 	0.21520 0.17170 0.32570 -0.17800
H 	H 	0.19090 0.18190 0.31570 0.09200
C 	C 	0.21390 0.14070 0.35360 0.10600
C 	C 	0.17260 0.11930 0.36490 -0.00900
C 	C 	0.16390 0.10500 0.40350 -0.05500
H 	H 	0.18170 0.11010 0.42470 0.04900
C 	C 	0.12850 0.08330 0.41050 -0.03100
H 	H 	0.12270 0.07370 0.43630 0.04400
C 	C 	0.10180 0.07580 0.37880 -0.02100
C 	C 	0.11050 0.09000 0.34010 -0.02900
H 	H 	0.09260 0.08500 0.31890 0.05900
C 	C 	0.14590 0.11180 0.33310 -0.05500
H 	H 	0.15170 0.12130 0.30730 0.05000
C 	C 	0.06340 0.04790 0.38650 0.24000
O 	O 	0.54630 0.53270 0.84970 -0.33200
O 	O 	0.54040 0.55650 0.91160 -0.42100
C 	C 	0.71520 0.67170 0.82570 -0.18200
H 	H 	0.69090 0.68190 0.81570 0.09500
C 	C 	0.71390 0.64070 0.85360 0.11300
C 	C 	0.67260 0.61930 0.86490 -0.01000
C 	C 	0.66390 0.60500 0.90350 -0.04900
H 	H 	0.68170 0.61010 0.92470 0.05200
C 	C 	0.62850 0.58330 0.91050 -0.03300
H 	H 	0.62270 0.57370 0.93630 0.05300
C 	C 	0.60180 0.57580 0.87880 -0.01200
C 	C 	0.61050 0.59000 0.84010 -0.03200
H 	H 	0.59260 0.58500 0.81890 0.06500
C 	C 	0.64590 0.61180 0.83310 -0.04900
H 	H 	0.65170 0.62130 0.80730 0.05100
C 	C 	0.56340 0.54790 0.88650 0.23800
O 	O 	0.95370 0.03270 0.65030 -0.32000
O 	O 	0.95960 0.05650 0.58840 -0.40600
C 	C 	0.78480 0.17170 0.67430 -0.18000
H 	H 	0.80910 0.18190 0.68430 0.09500
C 	C 	0.78610 0.14070 0.64640 0.11000
C 	C 	0.82740 0.11930 0.63510 -0.01100
C 	C 	0.83610 0.10500 0.59650 -0.05000
H 	H 	0.81830 0.11010 0.57530 0.04800
C 	C 	0.87150 0.08330 0.58950 -0.03500
H 	H 	0.87730 0.07370 0.56370 0.04800
C 	C 	0.89820 0.07580 0.62120 -0.01300
C 	C 	0.88950 0.09000 0.65990 -0.03300
H 	H 	0.90740 0.08500 0.68110 0.06700
C 	C 	0.85410 0.11180 0.66690 -0.04900
H 	H 	0.84830 0.12130 0.69270 0.05200
C 	C 	0.93660 0.04790 0.61350 0.23500
O 	O 	0.45370 0.53270 0.15030 -0.33100
O 	O 	0.45960 0.55650 0.08840 -0.42800
C 	C 	0.28480 0.67170 0.17430 -0.17800
H 	H 	0.30910 0.68190 0.18430 0.09300
C 	C 	0.28610 0.64070 0.14640 0.10700
C 	C 	0.32740 0.61930 0.13510 -0.01000
C 	C 	0.33610 0.60500 0.09650 -0.05300
H 	H 	0.31830 0.61010 0.07530 0.04600
C 	C 	0.37150 0.58330 0.08950 -0.03200
H 	H 	0.37730 0.57370 0.06370 0.04400
C 	C 	0.39820 0.57580 0.12120 -0.01700
C 	C 	0.38950 0.59000 0.15990 -0.03000
H 	H 	0.40740 0.58500 0.18110 0.06400
C 	C 	0.35410 0.61180 0.16690 -0.05200
H 	H 	0.34830 0.62130 0.19270 0.05200
C 	C 	0.43660 0.54790 0.11350 0.23900
O 	O 	0.95370 0.96730 0.34970 -0.30600
O 	O 	0.95960 0.94350 0.41160 -0.39900
C 	C 	0.78480 0.82830 0.32570 -0.18200
H 	H 	0.80910 0.81810 0.31570 0.09600
C 	C 	0.78610 0.85930 0.35360 0.11400
C 	C 	0.82740 0.88070 0.36490 -0.01100
C 	C 	0.83610 0.89500 0.40350 -0.04600
H 	H 	0.81830 0.88990 0.42470 0.05000
C 	C 	0.87150 0.91670 0.41050 -0.03400
H 	H 	0.87730 0.92630 0.43630 0.05400
C 	C 	0.89820 0.92420 0.37880 -0.00800
C 	C 	0.88950 0.91000 0.34010 -0.03300
H 	H 	0.90740 0.91500 0.31890 0.07000
C 	C 	0.85410 0.88820 0.33310 -0.04600
H 	H 	0.84830 0.87870 0.30730 0.05300
C 	C 	0.93660 0.95210 0.38650 0.24000
O 	O 	0.45370 0.46730 0.84970 -0.33200
O 	O 	0.45960 0.44350 0.91160 -0.42100
C 	C 	0.28480 0.32830 0.82570 -0.18000
H 	H 	0.30910 0.31810 0.81570 0.09500
C 	C 	0.28610 0.35930 0.85360 0.11100
C 	C 	0.32740 0.38070 0.86490 -0.00900
C 	C 	0.33610 0.39500 0.90350 -0.04900
H 	H 	0.31830 0.38990 0.92470 0.05200
C 	C 	0.37150 0.41670 0.91050 -0.03300
H 	H 	0.37730 0.42630 0.93630 0.05300
C 	C 	0.39820 0.42420 0.87880 -0.01200
C 	C 	0.38950 0.41000 0.84010 -0.03200
H 	H 	0.40740 0.41500 0.81890 0.06500
C 	C 	0.35410 0.38820 0.83310 -0.04900
H 	H 	0.34830 0.37870 0.80730 0.05100
C 	C 	0.43660 0.45210 0.88650 0.23800
O 	O 	0.04630 0.96730 0.65030 -0.32000
O 	O 	0.04040 0.94350 0.58840 -0.41700
C 	C 	0.21520 0.82830 0.67430 -0.18000
H 	H 	0.19090 0.81810 0.68430 0.09400
C 	C 	0.21390 0.85930 0.64640 0.11100
C 	C 	0.17260 0.88070 0.63510 -0.00900
C 	C 	0.16390 0.89500 0.59650 -0.05100
H 	H 	0.18170 0.88990 0.57530 0.05000
C 	C 	0.12850 0.91670 0.58950 -0.03100
H 	H 	0.12270 0.92630 0.56370 0.05000
C 	C 	0.10180 0.92420 0.62120 -0.01600
C 	C 	0.11050 0.91000 0.65990 -0.02900
H 	H 	0.09260 0.91500 0.68110 0.06400
C 	C 	0.14590 0.88820 0.66690 -0.05100
H 	H 	0.15170 0.87870 0.69270 0.05300
C 	C 	0.06340 0.95210 0.61350 0.24500
O 	O 	0.54630 0.46730 0.15030 -0.33100
O 	O 	0.54040 0.44350 0.08840 -0.42800
C 	C 	0.71520 0.32830 0.17430 -0.18000
H 	H 	0.69090 0.31810 0.18430 0.09400
C 	C 	0.71390 0.35930 0.14640 0.10900
C 	C 	0.67260 0.38070 0.13510 -0.01000
C 	C 	0.66390 0.39500 0.09650 -0.05300
H 	H 	0.68170 0.38990 0.07530 0.04600
C 	C 	0.62850 0.41670 0.08950 -0.03300
H 	H 	0.62270 0.42630 0.06370 0.04400
C 	C 	0.60180 0.42420 0.12120 -0.01600
C 	C 	0.61050 0.41000 0.15990 -0.03100
H 	H 	0.59260 0.41500 0.18110 0.06400
C 	C 	0.64590 0.38820 0.16690 -0.05100
H 	H 	0.65170 0.37870 0.19270 0.05200
C 	C 	0.56340 0.45210 0.11350 0.23900
O 	O 	0.03270 0.65030 0.95370 -0.32000
O 	O 	0.05650 0.58840 0.95960 -0.40600
C 	C 	0.17170 0.67430 0.78480 -0.18000
H 	H 	0.18190 0.68430 0.80910 0.09500
C 	C 	0.14070 0.64640 0.78610 0.11000
C 	C 	0.11930 0.63510 0.82740 -0.01100
C 	C 	0.10500 0.59650 0.83610 -0.05000
H 	H 	0.11010 0.57530 0.81830 0.04800
C 	C 	0.08330 0.58950 0.87150 -0.03500
H 	H 	0.07370 0.56370 0.87730 0.04800
C 	C 	0.07580 0.62120 0.89820 -0.01300
C 	C 	0.09000 0.65990 0.88950 -0.03300
H 	H 	0.08500 0.68110 0.90740 0.06700
C 	C 	0.11180 0.66690 0.85410 -0.04900
H 	H 	0.12130 0.69270 0.84830 0.05200
C 	C 	0.04790 0.61350 0.93660 0.23500
O 	O 	0.53270 0.15030 0.45370 -0.33100
O 	O 	0.55650 0.08840 0.45960 -0.42800
C 	C 	0.67170 0.17430 0.28480 -0.17800
H 	H 	0.68190 0.18430 0.30910 0.09300
C 	C 	0.64070 0.14640 0.28610 0.10700
C 	C 	0.61930 0.13510 0.32740 -0.01000
C 	C 	0.60500 0.09650 0.33610 -0.05300
H 	H 	0.61010 0.07530 0.31830 0.04600
C 	C 	0.58330 0.08950 0.37150 -0.03200
H 	H 	0.57370 0.06370 0.37730 0.04400
C 	C 	0.57580 0.12120 0.39820 -0.01700
C 	C 	0.59000 0.15990 0.38950 -0.03000
H 	H 	0.58500 0.18110 0.40740 0.06400
C 	C 	0.61180 0.16690 0.35410 -0.05200
H 	H 	0.62130 0.19270 0.34830 0.05200
C 	C 	0.54790 0.11350 0.43660 0.23900
O 	O 	0.03270 0.34970 0.04630 -0.33700
O 	O 	0.05650 0.41160 0.04040 -0.42500
C 	C 	0.17170 0.32570 0.21520 -0.17800
H 	H 	0.18190 0.31570 0.19090 0.09200
C 	C 	0.14070 0.35360 0.21390 0.10600
C 	C 	0.11930 0.36490 0.17260 -0.00900
C 	C 	0.10500 0.40350 0.16390 -0.05500
H 	H 	0.11010 0.42470 0.18170 0.04900
C 	C 	0.08330 0.41050 0.12850 -0.03100
H 	H 	0.07370 0.43630 0.12270 0.04400
C 	C 	0.07580 0.37880 0.10180 -0.02100
C 	C 	0.09000 0.34010 0.11050 -0.02900
H 	H 	0.08500 0.31890 0.09260 0.05900
C 	C 	0.11180 0.33310 0.14590 -0.05500
H 	H 	0.12130 0.30730 0.15170 0.05000
C 	C 	0.04790 0.38650 0.06340 0.24000
O 	O 	0.53270 0.84970 0.54630 -0.33200
O 	O 	0.55650 0.91160 0.54040 -0.42100
C 	C 	0.67170 0.82570 0.71520 -0.18200
H 	H 	0.68190 0.81570 0.69090 0.09500
C 	C 	0.64070 0.85360 0.71390 0.11300
C 	C 	0.61930 0.86490 0.67260 -0.01000
C 	C 	0.60500 0.90350 0.66390 -0.04900
H 	H 	0.61010 0.92470 0.68170 0.05200
C 	C 	0.58330 0.91050 0.62850 -0.03300
H 	H 	0.57370 0.93630 0.62270 0.05300
C 	C 	0.57580 0.87880 0.60180 -0.01200
C 	C 	0.59000 0.84010 0.61050 -0.03200
H 	H 	0.58500 0.81890 0.59260 0.06500
C 	C 	0.61180 0.83310 0.64590 -0.04900
H 	H 	0.62130 0.80730 0.65170 0.05100
C 	C 	0.54790 0.88650 0.56340 0.23800
O 	O 	0.96730 0.65030 0.04630 -0.32000
O 	O 	0.94350 0.58840 0.04040 -0.41700
C 	C 	0.82830 0.67430 0.21520 -0.18000
H 	H 	0.81810 0.68430 0.19090 0.09400
C 	C 	0.85930 0.64640 0.21390 0.11100
C 	C 	0.88070 0.63510 0.17260 -0.00900
C 	C 	0.89500 0.59650 0.16390 -0.05100
H 	H 	0.88990 0.57530 0.18170 0.05000
C 	C 	0.91670 0.58950 0.12850 -0.03100
H 	H 	0.92630 0.56370 0.12270 0.05000
C 	C 	0.92420 0.62120 0.10180 -0.01600
C 	C 	0.91000 0.65990 0.11050 -0.02900
H 	H 	0.91500 0.68110 0.09260 0.06400
C 	C 	0.88820 0.66690 0.14590 -0.05100
H 	H 	0.87870 0.69270 0.15170 0.05300
C 	C 	0.95210 0.61350 0.06340 0.24500
O 	O 	0.46730 0.15030 0.54630 -0.33100
O 	O 	0.44350 0.08840 0.54040 -0.42800
C 	C 	0.32830 0.17430 0.71520 -0.18000
H 	H 	0.31810 0.18430 0.69090 0.09400
C 	C 	0.35930 0.14640 0.71390 0.10900
C 	C 	0.38070 0.13510 0.67260 -0.01000
C 	C 	0.39500 0.09650 0.66390 -0.05300
H 	H 	0.38990 0.07530 0.68170 0.04600
C 	C 	0.41670 0.08950 0.62850 -0.03300
H 	H 	0.42630 0.06370 0.62270 0.04400
C 	C 	0.42420 0.12120 0.60180 -0.01600
C 	C 	0.41000 0.15990 0.61050 -0.03100
H 	H 	0.41500 0.18110 0.59260 0.06400
C 	C 	0.38820 0.16690 0.64590 -0.05100
H 	H 	0.37870 0.19270 0.65170 0.05200
C 	C 	0.45210 0.11350 0.56340 0.23900
O 	O 	0.96730 0.34970 0.95370 -0.30600
O 	O 	0.94350 0.41160 0.95960 -0.39900
C 	C 	0.82830 0.32570 0.78480 -0.18200
H 	H 	0.81810 0.31570 0.80910 0.09600
C 	C 	0.85930 0.35360 0.78610 0.11400
C 	C 	0.88070 0.36490 0.82740 -0.01100
C 	C 	0.89500 0.40350 0.83610 -0.04600
H 	H 	0.88990 0.42470 0.81830 0.05000
C 	C 	0.91670 0.41050 0.87150 -0.03400
H 	H 	0.92630 0.43630 0.87730 0.05400
C 	C 	0.92420 0.37880 0.89820 -0.00800
C 	C 	0.91000 0.34010 0.88950 -0.03300
H 	H 	0.91500 0.31890 0.90740 0.07000
C 	C 	0.88820 0.33310 0.85410 -0.04600
H 	H 	0.87870 0.30730 0.84830 0.05300
C 	C 	0.95210 0.38650 0.93660 0.24000
O 	O 	0.46730 0.84970 0.45370 -0.33200
O 	O 	0.44350 0.91160 0.45960 -0.42100
C 	C 	0.32830 0.82570 0.28480 -0.18000
H 	H 	0.31810 0.81570 0.30910 0.09500
C 	C 	0.35930 0.85360 0.28610 0.11100
C 	C 	0.38070 0.86490 0.32740 -0.00900
C 	C 	0.39500 0.90350 0.33610 -0.04900
H 	H 	0.38990 0.92470 0.31830 0.05200
C 	C 	0.41670 0.91050 0.37150 -0.03300
H 	H 	0.42630 0.93630 0.37730 0.05300
C 	C 	0.42420 0.87880 0.39820 -0.01200
C 	C 	0.41000 0.84010 0.38950 -0.03200
H 	H 	0.41500 0.81890 0.40740 0.06500
C 	C 	0.38820 0.83310 0.35410 -0.04900
H 	H 	0.37870 0.80730 0.34830 0.05100
C 	C 	0.45210 0.88650 0.43660 0.23800
Tb	Tb	0.00000 0.60602 -0.00000 1.74600
Tb	Tb	0.50000 0.10602 0.50000 1.84500
Tb	Tb	0.00000 0.39398 -0.00000 1.74500
Tb	Tb	0.50000 0.89398 0.50000 1.85700
Tb	Tb	0.00000 0.00000 0.60602 1.74600
Tb	Tb	0.50000 0.50000 0.10602 1.84500
Tb	Tb	0.00000 0.00000 0.39398 1.74500
Tb	Tb	0.50000 0.50000 0.89398 1.85700
Tb	Tb	0.60602 0.00000 -0.00000 1.74600
Tb	Tb	0.10602 0.50000 0.50000 1.84500
Tb	Tb	0.39398 0.00000 -0.00000 1.74500
Tb	Tb	0.89398 0.50000 0.50000 1.85700
C 	C 	0.28020 0.75000 0.21980 -0.06200
H 	H 	0.30010 0.75000 0.19990 0.05100
C 	C 	0.71980 0.25000 0.21980 -0.06200
H 	H 	0.69990 0.25000 0.19990 0.05100
C 	C 	0.71980 0.75000 0.78020 -0.06000
H 	H 	0.69990 0.75000 0.80010 0.05200
C 	C 	0.28020 0.25000 0.78020 -0.06200
H 	H 	0.30010 0.25000 0.80010 0.05200
C 	C 	0.21980 0.28020 0.75000 -0.06200
H 	H 	0.19990 0.30010 0.75000 0.05100
C 	C 	0.21980 0.71980 0.25000 -0.06200
H 	H 	0.19990 0.69990 0.25000 0.05100
C 	C 	0.78020 0.71980 0.75000 -0.06000
H 	H 	0.80010 0.69990 0.75000 0.05200
C 	C 	0.78020 0.28020 0.25000 -0.06200
H 	H 	0.80010 0.30010 0.25000 0.05200
C 	C 	0.75000 0.21980 0.28020 -0.06200
H 	H 	0.75000 0.19990 0.30010 0.05100
C 	C 	0.25000 0.21980 0.71980 -0.06200
H 	H 	0.25000 0.19990 0.69990 0.05100
C 	C 	0.75000 0.78020 0.71980 -0.06000
H 	H 	0.75000 0.80010 0.69990 0.05200
C 	C 	0.25000 0.78020 0.28020 -0.06200
H 	H 	0.25000 0.80010 0.30010 0.05200
C 	C 	0.75000 0.28020 0.78020 -0.06100
H 	H 	0.75000 0.30010 0.80010 0.05200
C 	C 	0.25000 0.71980 0.78020 -0.06100
H 	H 	0.25000 0.69990 0.80010 0.05200
C 	C 	0.75000 0.71980 0.21980 -0.06100
H 	H 	0.75000 0.69990 0.19990 0.05100
C 	C 	0.25000 0.28020 0.21980 -0.06300
H 	H 	0.25000 0.30010 0.19990 0.05100
C 	C 	0.28020 0.21980 0.25000 -0.06300
H 	H 	0.30010 0.19990 0.25000 0.05100
C 	C 	0.71980 0.21980 0.75000 -0.06100
H 	H 	0.69990 0.19990 0.75000 0.05100
C 	C 	0.71980 0.78020 0.25000 -0.06100
H 	H 	0.69990 0.80010 0.25000 0.05200
C 	C 	0.28020 0.78020 0.75000 -0.06100
H 	H 	0.30010 0.80010 0.75000 0.05200
C 	C 	0.21980 0.75000 0.71980 -0.06100
H 	H 	0.19990 0.75000 0.69990 0.05100
C 	C 	0.21980 0.25000 0.28020 -0.06300
H 	H 	0.19990 0.25000 0.30010 0.05100
C 	C 	0.78020 0.75000 0.28020 -0.06100
H 	H 	0.80010 0.75000 0.30010 0.05200
C 	C 	0.78020 0.25000 0.71980 -0.06100
H 	H 	0.80010 0.25000 0.69990 0.05200
C 	C 	0.25000 0.71950 0.21950 -0.01100
C 	C 	0.25000 0.68760 0.18760 0.11500
C 	C 	0.25000 0.63120 0.13120 -0.17800
H 	H 	0.25000 0.61130 0.11130 0.09100
C 	C 	0.75000 0.28050 0.21950 -0.01100
C 	C 	0.75000 0.31240 0.18760 0.11600
C 	C 	0.75000 0.36880 0.13120 -0.18000
H 	H 	0.75000 0.38870 0.11130 0.09200
C 	C 	0.25000 0.78050 0.71950 -0.01100
C 	C 	0.25000 0.81240 0.68760 0.11800
C 	C 	0.25000 0.86880 0.63120 -0.18000
H 	H 	0.25000 0.88870 0.61130 0.09600
C 	C 	0.75000 0.71950 0.78050 -0.01100
C 	C 	0.75000 0.68760 0.81240 0.12000
C 	C 	0.75000 0.63120 0.86880 -0.18200
H 	H 	0.75000 0.61130 0.88870 0.09600
C 	C 	0.25000 0.28050 0.78050 -0.01100
C 	C 	0.25000 0.31240 0.81240 0.11700
C 	C 	0.25000 0.36880 0.86880 -0.18000
H 	H 	0.25000 0.38870 0.88870 0.09600
C 	C 	0.21950 0.25000 0.71950 -0.01100
C 	C 	0.18760 0.25000 0.68760 0.11500
C 	C 	0.13120 0.25000 0.63120 -0.17800
H 	H 	0.11130 0.25000 0.61130 0.09100
C 	C 	0.21950 0.75000 0.28050 -0.01100
C 	C 	0.18760 0.75000 0.31240 0.11600
C 	C 	0.13120 0.75000 0.36880 -0.18000
H 	H 	0.11130 0.75000 0.38870 0.09200
C 	C 	0.71950 0.25000 0.78050 -0.01100
C 	C 	0.68760 0.25000 0.81240 0.11800
C 	C 	0.63120 0.25000 0.86880 -0.18000
H 	H 	0.61130 0.25000 0.88870 0.09600
C 	C 	0.78050 0.75000 0.71950 -0.01100
C 	C 	0.81240 0.75000 0.68760 0.12000
C 	C 	0.86880 0.75000 0.63120 -0.18200
H 	H 	0.88870 0.75000 0.61130 0.09600
C 	C 	0.78050 0.25000 0.28050 -0.01100
C 	C 	0.81240 0.25000 0.31240 0.11700
C 	C 	0.86880 0.25000 0.36880 -0.18000
H 	H 	0.88870 0.25000 0.38870 0.09600
C 	C 	0.71950 0.21950 0.25000 -0.01100
C 	C 	0.68760 0.18760 0.25000 0.11500
C 	C 	0.63120 0.13120 0.25000 -0.17800
H 	H 	0.61130 0.11130 0.25000 0.09100
C 	C 	0.28050 0.21950 0.75000 -0.01100
C 	C 	0.31240 0.18760 0.75000 0.11600
C 	C 	0.36880 0.13120 0.75000 -0.18000
H 	H 	0.38870 0.11130 0.75000 0.09200
C 	C 	0.78050 0.71950 0.25000 -0.01100
C 	C 	0.81240 0.68760 0.25000 0.11800
C 	C 	0.86880 0.63120 0.25000 -0.18000
H 	H 	0.88870 0.61130 0.25000 0.09600
C 	C 	0.71950 0.78050 0.75000 -0.01100
C 	C 	0.68760 0.81240 0.75000 0.12000
C 	C 	0.63120 0.86880 0.75000 -0.18200
H 	H 	0.61130 0.88870 0.75000 0.09600
C 	C 	0.28050 0.78050 0.25000 -0.01100
C 	C 	0.31240 0.81240 0.25000 0.11700
C 	C 	0.36880 0.86880 0.25000 -0.18000
H 	H 	0.38870 0.88870 0.25000 0.09600
C 	C 	0.28050 0.75000 0.78050 -0.01100
C 	C 	0.31240 0.75000 0.81240 0.11900
C 	C 	0.36880 0.75000 0.86880 -0.18200
H 	H 	0.38870 0.75000 0.88870 0.09600
C 	C 	0.71950 0.75000 0.21950 -0.01100
C 	C 	0.68760 0.75000 0.18760 0.11700
C 	C 	0.63120 0.75000 0.13120 -0.18000
H 	H 	0.61130 0.75000 0.11130 0.09200
C 	C 	0.28050 0.25000 0.21950 -0.01000
C 	C 	0.31240 0.25000 0.18760 0.11400
C 	C 	0.36880 0.25000 0.13120 -0.17800
H 	H 	0.38870 0.25000 0.11130 0.09100
C 	C 	0.25000 0.21950 0.28050 -0.01000
C 	C 	0.25000 0.18760 0.31240 0.11400
C 	C 	0.25000 0.13120 0.36880 -0.17800
H 	H 	0.25000 0.11130 0.38870 0.09100
C 	C 	0.75000 0.21950 0.71950 -0.01100
C 	C 	0.75000 0.18760 0.68760 0.11700
C 	C 	0.75000 0.13120 0.63120 -0.18000
H 	H 	0.75000 0.11130 0.61130 0.09200
C 	C 	0.75000 0.78050 0.28050 -0.01100
C 	C 	0.75000 0.81240 0.31240 0.11900
C 	C 	0.75000 0.86880 0.36880 -0.18200
H 	H 	0.75000 0.88870 0.38870 0.09600
C 	C 	0.21950 0.71950 0.75000 -0.01100
C 	C 	0.18760 0.68760 0.75000 0.11700
C 	C 	0.13120 0.63120 0.75000 -0.18000
H 	H 	0.11130 0.61130 0.75000 0.09200
C 	C 	0.21950 0.28050 0.25000 -0.01000
C 	C 	0.18760 0.31240 0.25000 0.11400
C 	C 	0.13120 0.36880 0.25000 -0.17800
H 	H 	0.11130 0.38870 0.25000 0.09100
C 	C 	0.78050 0.28050 0.75000 -0.01100
C 	C 	0.81240 0.31240 0.75000 0.11900
C 	C 	0.86880 0.36880 0.75000 -0.18200
H 	H 	0.88870 0.38870 0.75000 0.09600
