data_crystal

_cell_length_a 10.99320
_cell_length_b 10.99320
_cell_length_c 18.09280
_cell_angle_alpha 90.00000
_cell_angle_beta  90.00000
_cell_angle_gamma 90.00000

_symmetry_space_group_name_	'P 1'
_symmetry_space_group_name_H-M	'P 1'

loop_
_symmetry_equiv_pos_as_xyz
  x,y,z

loop_
_atom_site_label
_atom_site_type_symbol
_atom_site_fract_x
_atom_site_fract_y
_atom_site_fract_z
_atom_site_charge
Cu	Cu	0.61599 0.89151 0.14374 0.86000
Cu	Cu	0.40773 0.10138 0.13458 0.85600
Cu	Cu	0.38401 0.10849 0.64374 0.86000
Cu	Cu	0.59227 0.89862 0.63458 0.85600
Cu	Cu	0.10849 0.61599 0.39374 0.86000
Cu	Cu	0.89862 0.40773 0.38458 0.85600
Cu	Cu	0.89151 0.38401 0.89374 0.85900
Cu	Cu	0.10138 0.59227 0.88458 0.85600
H 	H 	0.83330 0.96580 0.28310 0.30600
H 	H 	0.86130 0.97220 0.19830 0.30600
H 	H 	0.91300 0.07200 0.25160 0.32900
H 	H 	0.56300 0.41480 0.20240 0.29700
H 	H 	0.44440 0.33570 0.20560 0.28000
H 	H 	0.51060 0.37310 0.27890 0.30000
H 	H 	0.49880 0.64780 0.31220 0.27400
H 	H 	0.48000 0.59820 0.23170 0.26600
H 	H 	0.58960 0.68480 0.24920 0.24900
H 	H 	0.15360 0.02830 0.18940 0.28000
H 	H 	0.10090 0.93790 0.24820 0.29600
H 	H 	0.17890 0.04970 0.27370 0.27500
H 	H 	0.16670 0.03420 0.78310 0.30500
H 	H 	0.13870 0.02780 0.69830 0.30600
H 	H 	0.08700 0.92800 0.75160 0.32800
H 	H 	0.43700 0.58520 0.70240 0.29500
H 	H 	0.55560 0.66430 0.70560 0.27900
H 	H 	0.48940 0.62690 0.77890 0.29900
H 	H 	0.50120 0.35220 0.81220 0.27400
H 	H 	0.52000 0.40180 0.73170 0.26500
H 	H 	0.41040 0.31520 0.74920 0.24800
H 	H 	0.84640 0.97170 0.68940 0.28000
H 	H 	0.89910 0.06210 0.74820 0.29500
H 	H 	0.82110 0.95030 0.77370 0.27400
H 	H 	0.03420 0.83330 0.53310 0.30300
H 	H 	0.02780 0.86130 0.44830 0.30300
H 	H 	0.92800 0.91300 0.50160 0.32600
H 	H 	0.58520 0.56300 0.45240 0.29500
H 	H 	0.66430 0.44440 0.45560 0.27900
H 	H 	0.62690 0.51060 0.52890 0.29900
H 	H 	0.35220 0.49880 0.56220 0.27400
H 	H 	0.40180 0.48000 0.48170 0.26500
H 	H 	0.31520 0.58960 0.49920 0.24800
H 	H 	0.97170 0.15360 0.43940 0.28200
H 	H 	0.06210 0.10090 0.49820 0.29800
H 	H 	0.95030 0.17890 0.52370 0.27700
H 	H 	0.96580 0.16670 0.03310 0.31700
H 	H 	0.97220 0.13870 0.94830 0.31000
H 	H 	0.07200 0.08700 0.00160 0.33800
H 	H 	0.41480 0.43700 0.95240 0.30300
H 	H 	0.33570 0.55560 0.95560 0.28600
H 	H 	0.37310 0.48940 0.02890 0.31200
H 	H 	0.64780 0.50120 0.06220 0.23900
H 	H 	0.59820 0.52000 0.98170 0.22400
H 	H 	0.68480 0.41040 0.99920 0.20800
H 	H 	0.02830 0.84640 0.93940 0.28800
H 	H 	0.93790 0.89910 0.99820 0.29900
H 	H 	0.04970 0.82110 0.02370 0.28700
C 	C 	0.84530 0.01940 0.24190 -1.02500
C 	C 	0.52210 0.35030 0.22810 -0.96600
C 	C 	0.73460 0.09320 0.23050 0.44100
C 	C 	0.59490 0.24080 0.22450 0.39900
C 	C 	0.71210 0.20930 0.25470 -0.43800
C 	C 	0.78310 0.28370 0.30390 0.41900
C 	C 	0.50620 0.66670 0.26050 -0.86400
C 	C 	0.16860 0.98920 0.23590 -0.92300
C 	C 	0.42920 0.77400 0.24280 0.35700
C 	C 	0.28220 0.91330 0.23040 0.38700
C 	C 	0.30830 0.80310 0.26530 -0.39700
C 	C 	0.23200 0.73630 0.31640 0.42200
C 	C 	0.15470 0.98060 0.74190 -1.02400
C 	C 	0.47790 0.64970 0.72810 -0.96300
C 	C 	0.26540 0.90680 0.73050 0.44000
C 	C 	0.40510 0.75920 0.72450 0.39700
C 	C 	0.28790 0.79070 0.75470 -0.43700
C 	C 	0.21690 0.71630 0.80390 0.41800
C 	C 	0.49380 0.33330 0.76050 -0.86200
C 	C 	0.83140 0.01080 0.73590 -0.92300
C 	C 	0.57080 0.22600 0.74280 0.35600
C 	C 	0.71780 0.08670 0.73040 0.38600
C 	C 	0.69170 0.19690 0.76530 -0.39700
C 	C 	0.76800 0.26370 0.81640 0.42200
C 	C 	0.98060 0.84530 0.49190 -1.01700
C 	C 	0.64970 0.52210 0.47810 -0.96200
C 	C 	0.90680 0.73460 0.48050 0.43800
C 	C 	0.75920 0.59490 0.47450 0.39700
C 	C 	0.79070 0.71210 0.50470 -0.43600
C 	C 	0.71630 0.78310 0.55390 0.41800
C 	C 	0.33330 0.50620 0.51050 -0.86300
C 	C 	0.01080 0.16860 0.48590 -0.92900
C 	C 	0.22600 0.42920 0.49280 0.35600
C 	C 	0.08670 0.28220 0.48040 0.38800
C 	C 	0.19690 0.30830 0.51530 -0.39800
C 	C 	0.26370 0.23200 0.56640 0.42200
C 	C 	0.01940 0.15470 0.99190 -1.04900
C 	C 	0.35030 0.47790 0.97810 -0.99000
C 	C 	0.09320 0.26540 0.98050 0.44200
C 	C 	0.24080 0.40510 0.97450 0.40000
C 	C 	0.20930 0.28790 0.00470 -0.43400
C 	C 	0.28370 0.21690 0.05390 0.41800
C 	C 	0.66670 0.49380 0.01050 -0.74100
C 	C 	0.98920 0.83140 0.98590 -0.94900
C 	C 	0.77400 0.57080 0.99280 0.30700
C 	C 	0.91330 0.71780 0.98040 0.37600
C 	C 	0.80310 0.69170 0.01530 -0.36400
C 	C 	0.73630 0.76800 0.06640 0.41100
N 	N 	0.64340 0.04670 0.19250 -0.29900
N 	N 	0.56160 0.14170 0.18370 -0.27800
N 	N 	0.46520 0.86320 0.19690 -0.27700
N 	N 	0.37530 0.95450 0.19320 -0.28800
N 	N 	0.35660 0.95330 0.69250 -0.29900
N 	N 	0.43840 0.85830 0.68370 -0.27800
N 	N 	0.53480 0.13680 0.69690 -0.27700
N 	N 	0.62470 0.04550 0.69320 -0.28800
N 	N 	0.95330 0.64340 0.44250 -0.29800
N 	N 	0.85830 0.56160 0.43370 -0.27800
N 	N 	0.13680 0.46520 0.44690 -0.27700
N 	N 	0.04550 0.37530 0.44320 -0.28900
N 	N 	0.04670 0.35660 0.94250 -0.29900
N 	N 	0.14170 0.43840 0.93370 -0.27900
N 	N 	0.86320 0.53480 0.94690 -0.26900
N 	N 	0.95450 0.62470 0.94320 -0.28800
O 	O 	0.88490 0.24870 0.32950 -0.46300
O 	O 	0.74720 0.39040 0.32460 -0.45100
O 	O 	0.26770 0.63430 0.34390 -0.45300
O 	O 	0.12910 0.77120 0.33580 -0.46900
O 	O 	0.11510 0.75130 0.82950 -0.46300
O 	O 	0.25280 0.60960 0.82460 -0.45200
O 	O 	0.73230 0.36570 0.84390 -0.45300
O 	O 	0.87090 0.22880 0.83580 -0.47000
O 	O 	0.75130 0.88490 0.57950 -0.46300
O 	O 	0.60960 0.74720 0.57460 -0.45100
O 	O 	0.36570 0.26770 0.59390 -0.45300
O 	O 	0.22880 0.12910 0.58580 -0.46900
O 	O 	0.24870 0.11510 0.07950 -0.46200
O 	O 	0.39040 0.25280 0.07460 -0.45000
O 	O 	0.63430 0.73230 0.09390 -0.44800
O 	O 	0.77120 0.87090 0.08580 -0.46400
