data_crystal

_cell_length_a 20.09600
_cell_length_b 23.08800
_cell_length_c 14.61600
_cell_angle_alpha 90.00000
_cell_angle_beta  90.00000
_cell_angle_gamma 90.00000

_symmetry_space_group_name_	'P 1'
_symmetry_space_group_name_H-M	'P 1'

loop_
_symmetry_equiv_pos_as_xyz
  x,y,z

loop_
_atom_site_label
_atom_site_type_symbol
_atom_site_fract_x
_atom_site_fract_y
_atom_site_fract_z
_atom_site_charge
Co	Co	0.41631 0.09138 0.32661 1.14700
Co	Co	0.41196 0.09195 0.08505 1.15600
O 	O 	0.47085 0.07050 0.87740 -0.29100
O 	O 	0.38163 0.10222 0.95109 -0.41500
O 	O 	0.47555 0.07649 0.54530 -0.29500
O 	O 	0.38797 0.10428 0.46406 -0.41200
O 	O 	0.17282 0.12829 0.78197 -0.43000
O 	O 	0.17454 0.13106 0.62845 -0.43200
O 	O 	0.45632 0.07003 0.20365 -0.44900
N 	N 	0.33817 0.91649 0.34820 -0.15400
N 	N 	0.36568 0.00771 0.33350 -0.22100
N 	N 	0.46357 0.74194 0.42310 -0.15100
N 	N 	0.53789 0.67206 0.42600 -0.22400
N 	N 	0.53770 0.24471 0.32810 -0.15200
N 	N 	0.46284 0.17472 0.32230 -0.22500
N 	N 	0.66457 0.41709 0.41190 -0.15100
N 	N 	0.63745 0.50892 0.42250 -0.21900
C 	C 	0.28180 0.76655 0.39540 0.09200
C 	C 	0.28157 0.82536 0.37530 -0.20200
H 	H 	0.24150 0.84410 0.36400 0.10900
C 	C 	0.34057 0.85618 0.37190 0.19200
C 	C 	0.40132 0.82958 0.38770 -0.24600
H 	H 	0.44090 0.85040 0.38470 0.13500
C 	C 	0.40134 0.77071 0.40810 0.19200
C 	C 	0.34257 0.73946 0.41280 -0.19900
H 	H 	0.34360 0.70030 0.42770 0.11000
C 	C 	0.71885 0.26740 0.35900 0.09100
C 	C 	0.65795 0.24126 0.33880 -0.19800
H 	H 	0.65650 0.20260 0.32090 0.10600
C 	C 	0.59996 0.27291 0.34570 0.19200
C 	C 	0.60041 0.33117 0.37070 -0.24300
H 	H 	0.56100 0.35190 0.37670 0.13500
C 	C 	0.66174 0.35721 0.38630 0.18900
C 	C 	0.72043 0.32582 0.38110 -0.19900
H 	H 	0.76090 0.34400 0.39240 0.10500
C 	C 	0.37737 0.10107 0.79050 -0.10900
C 	C 	0.41048 0.09363 0.70910 0.05000
H 	H 	0.45490 0.08250 0.70970 0.03800
C 	C 	0.37865 0.10251 0.62560 -0.11500
C 	C 	0.31146 0.11779 0.62460 0.05000
H 	H 	0.28980 0.12410 0.56920 0.04200
C 	C 	0.27679 0.12359 0.70670 -0.11900
C 	C 	0.31015 0.11693 0.78950 0.04800
H 	H 	0.28770 0.12300 0.84430 0.04500
C 	C 	0.41264 0.09046 0.88100 0.35700
C 	C 	0.41601 0.09357 0.53730 0.34800
C 	C 	0.20171 0.12916 0.70570 0.37200
C 	C 	0.38439 0.95704 0.36270 0.11000
H 	H 	0.42520 0.94990 0.39040 0.00500
C 	C 	0.30287 0.99886 0.29730 0.00100
H 	H 	0.27660 0.02750 0.27100 0.03100
C 	C 	0.28544 0.94349 0.30540 0.01200
H 	H 	0.24590 0.92650 0.28620 0.03900
C 	C 	0.47638 0.68538 0.40550 0.10100
H 	H 	0.44550 0.65940 0.38180 0.00900
C 	C 	0.56610 0.72252 0.45840 0.00300
H 	H 	0.60970 0.72610 0.47880 0.04000
C 	C 	0.52120 0.76602 0.45630 0.01500
H 	H 	0.52790 0.80430 0.47370 0.03500
C 	C 	0.52491 0.18735 0.34170 0.10500
H 	H 	0.55620 0.16060 0.36210 -0.01200
C 	C 	0.43435 0.22590 0.29470 0.00000
H 	H 	0.39040 0.23010 0.27600 0.03900
C 	C 	0.47961 0.26938 0.29880 0.01700
H 	H 	0.47260 0.30820 0.28450 0.03400
C 	C 	0.62008 0.45856 0.39090 0.10700
H 	H 	0.58140 0.45190 0.35760 0.01100
C 	C 	0.69740 0.50013 0.46570 0.00900
H 	H 	0.72210 0.52870 0.49510 0.03800
C 	C 	0.71510 0.44423 0.45930 0.01200
H 	H 	0.75360 0.42720 0.48210 0.03400
O 	O 	0.61300 0.06990 0.14310 -0.09000
O 	O 	0.52230 0.05040 0.17900 -0.09200
O 	O 	0.59510 0.07860 0.19340 -0.06700
Co	Co	0.08369 0.40862 0.32661 1.14800
Co	Co	0.08804 0.40805 0.08505 1.15700
O 	O 	0.02915 0.42950 0.87740 -0.28900
O 	O 	0.11837 0.39778 0.95109 -0.41400
O 	O 	0.02445 0.42351 0.54530 -0.29400
O 	O 	0.11203 0.39572 0.46406 -0.41100
O 	O 	0.32718 0.37171 0.78197 -0.42900
O 	O 	0.32546 0.36894 0.62845 -0.43100
O 	O 	0.04368 0.42997 0.20365 -0.45000
N 	N 	0.16183 0.58351 0.34820 -0.15400
N 	N 	0.13432 0.49229 0.33350 -0.22000
N 	N 	0.03643 0.75806 0.42310 -0.15100
N 	N 	0.96211 0.82794 0.42600 -0.22400
N 	N 	0.96230 0.25529 0.32810 -0.15100
N 	N 	0.03716 0.32528 0.32230 -0.22600
N 	N 	0.83543 0.08291 0.41190 -0.15100
N 	N 	0.86255 0.99108 0.42250 -0.21900
C 	C 	0.21820 0.73345 0.39540 0.09200
C 	C 	0.21843 0.67464 0.37530 -0.20200
H 	H 	0.25850 0.65590 0.36400 0.10900
C 	C 	0.15943 0.64382 0.37190 0.19200
C 	C 	0.09868 0.67042 0.38770 -0.24600
H 	H 	0.05910 0.64960 0.38470 0.13500
C 	C 	0.09866 0.72929 0.40810 0.19200
C 	C 	0.15743 0.76054 0.41280 -0.19900
H 	H 	0.15640 0.79970 0.42770 0.11000
C 	C 	0.78115 0.23260 0.35900 0.09100
C 	C 	0.84205 0.25874 0.33880 -0.19800
H 	H 	0.84350 0.29740 0.32090 0.10600
C 	C 	0.90004 0.22709 0.34570 0.19200
C 	C 	0.89959 0.16883 0.37070 -0.24300
H 	H 	0.93900 0.14810 0.37670 0.13500
C 	C 	0.83826 0.14279 0.38630 0.18900
C 	C 	0.77957 0.17418 0.38110 -0.19900
H 	H 	0.73910 0.15600 0.39240 0.10500
C 	C 	0.12263 0.39893 0.79050 -0.10900
C 	C 	0.08952 0.40637 0.70910 0.05000
H 	H 	0.04510 0.41750 0.70970 0.03800
C 	C 	0.12135 0.39749 0.62560 -0.11500
C 	C 	0.18854 0.38221 0.62460 0.05000
H 	H 	0.21020 0.37590 0.56920 0.04200
C 	C 	0.22321 0.37641 0.70670 -0.11900
C 	C 	0.18985 0.38307 0.78950 0.04800
H 	H 	0.21230 0.37700 0.84430 0.04500
C 	C 	0.08736 0.40954 0.88100 0.35700
C 	C 	0.08399 0.40643 0.53730 0.34800
C 	C 	0.29829 0.37084 0.70570 0.37200
C 	C 	0.11561 0.54296 0.36270 0.10900
H 	H 	0.07480 0.55010 0.39040 0.00500
C 	C 	0.19713 0.50114 0.29730 -0.00100
H 	H 	0.22340 0.47250 0.27100 0.03200
C 	C 	0.21456 0.55651 0.30540 0.01300
H 	H 	0.25410 0.57350 0.28620 0.03900
C 	C 	0.02362 0.81462 0.40550 0.10000
H 	H 	0.05450 0.84060 0.38180 0.00900
C 	C 	0.93390 0.77748 0.45840 0.00200
H 	H 	0.89030 0.77390 0.47880 0.04000
C 	C 	0.97880 0.73398 0.45630 0.01500
H 	H 	0.97210 0.69570 0.47370 0.03500
C 	C 	0.97509 0.31265 0.34170 0.10600
H 	H 	0.94380 0.33940 0.36210 -0.01200
C 	C 	0.06565 0.27410 0.29470 0.00100
H 	H 	0.10960 0.26990 0.27600 0.03800
C 	C 	0.02039 0.23062 0.29880 0.01600
H 	H 	0.02740 0.19180 0.28450 0.03400
C 	C 	0.87992 0.04144 0.39090 0.10600
H 	H 	0.91860 0.04810 0.35760 0.01200
C 	C 	0.80260 0.99987 0.46570 0.00900
H 	H 	0.77790 0.97130 0.49510 0.03800
C 	C 	0.78490 0.05577 0.45930 0.01100
H 	H 	0.74640 0.07280 0.48210 0.03400
O 	O 	0.88700 0.43010 0.14310 -0.08900
O 	O 	0.97770 0.44960 0.17900 -0.09100
O 	O 	0.90490 0.42140 0.19340 -0.06700
Co	Co	0.58369 0.59138 0.17339 1.14800
Co	Co	0.58804 0.59195 0.41495 1.15800
O 	O 	0.52915 0.57050 0.62260 -0.29000
O 	O 	0.61837 0.60222 0.54891 -0.41600
O 	O 	0.52445 0.57649 0.95470 -0.29300
O 	O 	0.61203 0.60428 0.03594 -0.41000
O 	O 	0.82718 0.62829 0.71803 -0.42900
O 	O 	0.82546 0.63106 0.87155 -0.43100
O 	O 	0.54368 0.57003 0.29635 -0.44900
N 	N 	0.66183 0.41649 0.15180 -0.15400
N 	N 	0.63432 0.50771 0.16650 -0.22000
N 	N 	0.53643 0.24194 0.07690 -0.15100
N 	N 	0.46211 0.17206 0.07400 -0.22400
N 	N 	0.46230 0.74471 0.17190 -0.15200
N 	N 	0.53716 0.67472 0.17770 -0.22500
N 	N 	0.33543 0.91709 0.08810 -0.15100
N 	N 	0.36255 0.00892 0.07750 -0.22000
C 	C 	0.71820 0.26655 0.10460 0.09200
C 	C 	0.71843 0.32536 0.12470 -0.20200
H 	H 	0.75850 0.34410 0.13600 0.10900
C 	C 	0.65943 0.35618 0.12810 0.19300
C 	C 	0.59868 0.32958 0.11230 -0.24600
H 	H 	0.55910 0.35040 0.11530 0.13500
C 	C 	0.59866 0.27071 0.09190 0.19200
C 	C 	0.65743 0.23946 0.08720 -0.19900
H 	H 	0.65640 0.20030 0.07230 0.11000
C 	C 	0.28115 0.76740 0.14100 0.09100
C 	C 	0.34205 0.74126 0.16120 -0.19800
H 	H 	0.34350 0.70260 0.17910 0.10600
C 	C 	0.40004 0.77291 0.15430 0.19200
C 	C 	0.39959 0.83117 0.12930 -0.24300
H 	H 	0.43900 0.85190 0.12330 0.13500
C 	C 	0.33826 0.85721 0.11370 0.18900
C 	C 	0.27957 0.82582 0.11890 -0.19900
H 	H 	0.23910 0.84400 0.10760 0.10500
C 	C 	0.62263 0.60107 0.70950 -0.10900
C 	C 	0.58952 0.59363 0.79090 0.05000
H 	H 	0.54510 0.58250 0.79030 0.03700
C 	C 	0.62135 0.60251 0.87440 -0.11500
C 	C 	0.68854 0.61779 0.87540 0.05000
H 	H 	0.71020 0.62410 0.93080 0.04200
C 	C 	0.72321 0.62359 0.79330 -0.12000
C 	C 	0.68985 0.61693 0.71050 0.04800
H 	H 	0.71230 0.62300 0.65570 0.04400
C 	C 	0.58736 0.59046 0.61900 0.35700
C 	C 	0.58399 0.59357 0.96270 0.34700
C 	C 	0.79829 0.62916 0.79430 0.37200
C 	C 	0.61561 0.45704 0.13730 0.10900
H 	H 	0.57480 0.44990 0.10960 0.00500
C 	C 	0.69713 0.49886 0.20270 -0.00100
H 	H 	0.72340 0.52750 0.22900 0.03200
C 	C 	0.71456 0.44349 0.19460 0.01300
H 	H 	0.75410 0.42650 0.21380 0.03900
C 	C 	0.52362 0.18538 0.09450 0.10100
H 	H 	0.55450 0.15940 0.11820 0.00900
C 	C 	0.43390 0.22252 0.04160 0.00200
H 	H 	0.39030 0.22610 0.02120 0.04000
C 	C 	0.47880 0.26602 0.04370 0.01500
H 	H 	0.47210 0.30430 0.02630 0.03500
C 	C 	0.47509 0.68735 0.15830 0.10600
H 	H 	0.44380 0.66060 0.13790 -0.01200
C 	C 	0.56565 0.72590 0.20530 0.00000
H 	H 	0.60960 0.73010 0.22400 0.03900
C 	C 	0.52039 0.76938 0.20120 0.01700
H 	H 	0.52740 0.80820 0.21550 0.03400
C 	C 	0.37992 0.95856 0.10910 0.10800
H 	H 	0.41860 0.95190 0.14240 0.01100
C 	C 	0.30260 0.00013 0.03430 0.00600
H 	H 	0.27790 0.02870 0.00490 0.03900
C 	C 	0.28490 0.94423 0.04070 0.01500
H 	H 	0.24640 0.92720 0.01790 0.03300
O 	O 	0.38700 0.56990 0.35690 -0.09000
O 	O 	0.47770 0.55040 0.32100 -0.09200
O 	O 	0.40490 0.57860 0.30660 -0.06700
Co	Co	0.91631 0.90862 0.17339 1.14800
Co	Co	0.91196 0.90805 0.41495 1.15800
O 	O 	0.97085 0.92950 0.62260 -0.29100
O 	O 	0.88163 0.89778 0.54891 -0.41600
O 	O 	0.97555 0.92351 0.95470 -0.29400
O 	O 	0.88797 0.89572 0.03594 -0.40700
O 	O 	0.67282 0.87171 0.71803 -0.42900
O 	O 	0.67454 0.86894 0.87155 -0.43100
O 	O 	0.95632 0.92997 0.29635 -0.44900
N 	N 	0.83817 0.08351 0.15180 -0.15400
N 	N 	0.86568 0.99229 0.16650 -0.21800
N 	N 	0.96357 0.25806 0.07690 -0.15000
N 	N 	0.03789 0.32794 0.07400 -0.22600
N 	N 	0.03770 0.75529 0.17190 -0.15200
N 	N 	0.96284 0.82528 0.17770 -0.22400
N 	N 	0.16457 0.58291 0.08810 -0.15100
N 	N 	0.13745 0.49108 0.07750 -0.21900
C 	C 	0.78180 0.23345 0.10460 0.09200
C 	C 	0.78157 0.17464 0.12470 -0.20200
H 	H 	0.74150 0.15590 0.13600 0.10900
C 	C 	0.84057 0.14382 0.12810 0.19300
C 	C 	0.90132 0.17042 0.11230 -0.24600
H 	H 	0.94090 0.14960 0.11530 0.13600
C 	C 	0.90134 0.22929 0.09190 0.19200
C 	C 	0.84257 0.26054 0.08720 -0.19900
H 	H 	0.84360 0.29970 0.07230 0.11000
C 	C 	0.21885 0.73260 0.14100 0.09100
C 	C 	0.15795 0.75874 0.16120 -0.19800
H 	H 	0.15650 0.79740 0.17910 0.10600
C 	C 	0.09996 0.72709 0.15430 0.19200
C 	C 	0.10041 0.66883 0.12930 -0.24300
H 	H 	0.06100 0.64810 0.12330 0.13400
C 	C 	0.16174 0.64279 0.11370 0.18800
C 	C 	0.22043 0.67418 0.11890 -0.19900
H 	H 	0.26090 0.65600 0.10760 0.10500
C 	C 	0.87737 0.89893 0.70950 -0.10900
C 	C 	0.91048 0.90637 0.79090 0.05000
H 	H 	0.95490 0.91750 0.79030 0.03700
C 	C 	0.87865 0.89749 0.87440 -0.11500
C 	C 	0.81146 0.88221 0.87540 0.05000
H 	H 	0.78980 0.87590 0.93080 0.04200
C 	C 	0.77679 0.87641 0.79330 -0.11900
C 	C 	0.81015 0.88307 0.71050 0.04800
H 	H 	0.78770 0.87700 0.65570 0.04400
C 	C 	0.91264 0.90954 0.61900 0.35700
C 	C 	0.91601 0.90643 0.96270 0.34400
C 	C 	0.70171 0.87084 0.79430 0.37200
C 	C 	0.88439 0.04296 0.13730 0.10800
H 	H 	0.92520 0.05010 0.10960 0.00600
C 	C 	0.80287 0.00114 0.20270 -0.00500
H 	H 	0.77660 0.97250 0.22900 0.03400
C 	C 	0.78544 0.05651 0.19460 0.01400
H 	H 	0.74590 0.07350 0.21380 0.03800
C 	C 	0.97638 0.31462 0.09450 0.10300
H 	H 	0.94550 0.34060 0.11820 0.00800
C 	C 	0.06610 0.27748 0.04160 0.00300
H 	H 	0.10970 0.27390 0.02120 0.03900
C 	C 	0.02120 0.23398 0.04370 0.01200
H 	H 	0.02790 0.19570 0.02630 0.03500
C 	C 	0.02491 0.81265 0.15830 0.10400
H 	H 	0.05620 0.83940 0.13790 -0.01200
C 	C 	0.93435 0.77410 0.20530 -0.00000
H 	H 	0.89040 0.76990 0.22400 0.03900
C 	C 	0.97961 0.73062 0.20120 0.01900
H 	H 	0.97260 0.69180 0.21550 0.03300
C 	C 	0.12008 0.54144 0.10910 0.10700
H 	H 	0.08140 0.54810 0.14240 0.01100
C 	C 	0.19740 0.49987 0.03430 0.00800
H 	H 	0.22210 0.47130 0.00490 0.03800
C 	C 	0.21510 0.55577 0.04070 0.01200
H 	H 	0.25360 0.57280 0.01790 0.03400
O 	O 	0.11300 0.93010 0.35690 -0.09000
O 	O 	0.02230 0.94960 0.32100 -0.09300
O 	O 	0.09510 0.92140 0.30660 -0.06700
Co	Co	0.58369 0.90862 0.67339 1.14800
Co	Co	0.58804 0.90805 0.91495 1.15700
O 	O 	0.52915 0.92950 0.12260 -0.29000
O 	O 	0.61837 0.89778 0.04891 -0.41400
O 	O 	0.52445 0.92351 0.45470 -0.29400
O 	O 	0.61203 0.89572 0.53594 -0.41100
O 	O 	0.82718 0.87171 0.21803 -0.42900
O 	O 	0.82546 0.86894 0.37155 -0.43100
O 	O 	0.54368 0.92997 0.79635 -0.44900
N 	N 	0.66183 0.08351 0.65180 -0.15400
N 	N 	0.63432 0.99229 0.66650 -0.22100
N 	N 	0.53643 0.25806 0.57690 -0.15100
N 	N 	0.46211 0.32794 0.57400 -0.22400
N 	N 	0.46230 0.75529 0.67190 -0.15200
N 	N 	0.53716 0.82528 0.67770 -0.22500
N 	N 	0.33543 0.58291 0.58810 -0.15100
N 	N 	0.36255 0.49108 0.57750 -0.21900
C 	C 	0.71820 0.23345 0.60460 0.09200
C 	C 	0.71843 0.17464 0.62470 -0.20200
H 	H 	0.75850 0.15590 0.63600 0.10900
C 	C 	0.65943 0.14382 0.62810 0.19200
C 	C 	0.59868 0.17042 0.61230 -0.24600
H 	H 	0.55910 0.14960 0.61530 0.13500
C 	C 	0.59866 0.22929 0.59190 0.19200
C 	C 	0.65743 0.26054 0.58720 -0.19900
H 	H 	0.65640 0.29970 0.57230 0.11000
C 	C 	0.28115 0.73260 0.64100 0.09100
C 	C 	0.34205 0.75874 0.66120 -0.19800
H 	H 	0.34350 0.79740 0.67910 0.10600
C 	C 	0.40004 0.72709 0.65430 0.19200
C 	C 	0.39959 0.66883 0.62930 -0.24300
H 	H 	0.43900 0.64810 0.62330 0.13500
C 	C 	0.33826 0.64279 0.61370 0.18900
C 	C 	0.27957 0.67418 0.61890 -0.19900
H 	H 	0.23910 0.65600 0.60760 0.10500
C 	C 	0.62263 0.89893 0.20950 -0.10900
C 	C 	0.58952 0.90637 0.29090 0.05000
H 	H 	0.54510 0.91750 0.29030 0.03800
C 	C 	0.62135 0.89749 0.37440 -0.11500
C 	C 	0.68854 0.88221 0.37540 0.05000
H 	H 	0.71020 0.87590 0.43080 0.04200
C 	C 	0.72321 0.87641 0.29330 -0.11900
C 	C 	0.68985 0.88307 0.21050 0.04800
H 	H 	0.71230 0.87700 0.15570 0.04500
C 	C 	0.58736 0.90954 0.11900 0.35700
C 	C 	0.58399 0.90643 0.46270 0.34800
C 	C 	0.79829 0.87084 0.29430 0.37200
C 	C 	0.61561 0.04296 0.63730 0.11000
H 	H 	0.57480 0.05010 0.60960 0.00500
C 	C 	0.69713 0.00114 0.70270 0.00100
H 	H 	0.72340 0.97250 0.72900 0.03100
C 	C 	0.71456 0.05651 0.69460 0.01200
H 	H 	0.75410 0.07350 0.71380 0.03900
C 	C 	0.52362 0.31462 0.59450 0.10100
H 	H 	0.55450 0.34060 0.61820 0.00900
C 	C 	0.43390 0.27748 0.54160 0.00300
H 	H 	0.39030 0.27390 0.52120 0.04000
C 	C 	0.47880 0.23398 0.54370 0.01500
H 	H 	0.47210 0.19570 0.52630 0.03500
C 	C 	0.47509 0.81265 0.65830 0.10500
H 	H 	0.44380 0.83940 0.63790 -0.01200
C 	C 	0.56565 0.77410 0.70530 0.00000
H 	H 	0.60960 0.76990 0.72400 0.03900
C 	C 	0.52039 0.73062 0.70120 0.01700
H 	H 	0.52740 0.69180 0.71550 0.03400
C 	C 	0.37992 0.54144 0.60910 0.10700
H 	H 	0.41860 0.54810 0.64240 0.01100
C 	C 	0.30260 0.49987 0.53430 0.00900
H 	H 	0.27790 0.47130 0.50490 0.03800
C 	C 	0.28490 0.55577 0.54070 0.01200
H 	H 	0.24640 0.57280 0.51790 0.03400
O 	O 	0.38700 0.93010 0.85690 -0.09000
O 	O 	0.47770 0.94960 0.82100 -0.09200
O 	O 	0.40490 0.92140 0.80660 -0.06700
Co	Co	0.91631 0.59138 0.67339 1.14800
Co	Co	0.91196 0.59195 0.91495 1.15700
O 	O 	0.97085 0.57050 0.12260 -0.28900
O 	O 	0.88163 0.60222 0.04891 -0.41400
O 	O 	0.97555 0.57649 0.45470 -0.29400
O 	O 	0.88797 0.60428 0.53594 -0.41100
O 	O 	0.67282 0.62829 0.21803 -0.42900
O 	O 	0.67454 0.63106 0.37155 -0.43100
O 	O 	0.95632 0.57003 0.79635 -0.45000
N 	N 	0.83817 0.41649 0.65180 -0.15400
N 	N 	0.86568 0.50771 0.66650 -0.22000
N 	N 	0.96357 0.24194 0.57690 -0.15100
N 	N 	0.03789 0.17206 0.57400 -0.22400
N 	N 	0.03770 0.74471 0.67190 -0.15100
N 	N 	0.96284 0.67472 0.67770 -0.22600
N 	N 	0.16457 0.91709 0.58810 -0.15100
N 	N 	0.13745 0.00892 0.57750 -0.21900
C 	C 	0.78180 0.26655 0.60460 0.09200
C 	C 	0.78157 0.32536 0.62470 -0.20200
H 	H 	0.74150 0.34410 0.63600 0.10900
C 	C 	0.84057 0.35618 0.62810 0.19200
C 	C 	0.90132 0.32958 0.61230 -0.24600
H 	H 	0.94090 0.35040 0.61530 0.13500
C 	C 	0.90134 0.27071 0.59190 0.19200
C 	C 	0.84257 0.23946 0.58720 -0.19900
H 	H 	0.84360 0.20030 0.57230 0.11000
C 	C 	0.21885 0.76740 0.64100 0.09100
C 	C 	0.15795 0.74126 0.66120 -0.19800
H 	H 	0.15650 0.70260 0.67910 0.10600
C 	C 	0.09996 0.77291 0.65430 0.19200
C 	C 	0.10041 0.83117 0.62930 -0.24300
H 	H 	0.06100 0.85190 0.62330 0.13500
C 	C 	0.16174 0.85721 0.61370 0.18900
C 	C 	0.22043 0.82582 0.61890 -0.19900
H 	H 	0.26090 0.84400 0.60760 0.10500
C 	C 	0.87737 0.60107 0.20950 -0.10900
C 	C 	0.91048 0.59363 0.29090 0.05000
H 	H 	0.95490 0.58250 0.29030 0.03800
C 	C 	0.87865 0.60251 0.37440 -0.11500
C 	C 	0.81146 0.61779 0.37540 0.05000
H 	H 	0.78980 0.62410 0.43080 0.04200
C 	C 	0.77679 0.62359 0.29330 -0.11900
C 	C 	0.81015 0.61693 0.21050 0.04800
H 	H 	0.78770 0.62300 0.15570 0.04500
C 	C 	0.91264 0.59046 0.11900 0.35700
C 	C 	0.91601 0.59357 0.46270 0.34800
C 	C 	0.70171 0.62916 0.29430 0.37200
C 	C 	0.88439 0.45704 0.63730 0.10900
H 	H 	0.92520 0.44990 0.60960 0.00500
C 	C 	0.80287 0.49886 0.70270 -0.00100
H 	H 	0.77660 0.52750 0.72900 0.03200
C 	C 	0.78544 0.44349 0.69460 0.01300
H 	H 	0.74590 0.42650 0.71380 0.03900
C 	C 	0.97638 0.18538 0.59450 0.10000
H 	H 	0.94550 0.15940 0.61820 0.00900
C 	C 	0.06610 0.22252 0.54160 0.00200
H 	H 	0.10970 0.22610 0.52120 0.04000
C 	C 	0.02120 0.26602 0.54370 0.01500
H 	H 	0.02790 0.30430 0.52630 0.03500
C 	C 	0.02491 0.68735 0.65830 0.10600
H 	H 	0.05620 0.66060 0.63790 -0.01200
C 	C 	0.93435 0.72590 0.70530 0.00100
H 	H 	0.89040 0.73010 0.72400 0.03800
C 	C 	0.97961 0.76938 0.70120 0.01600
H 	H 	0.97260 0.80820 0.71550 0.03400
C 	C 	0.12008 0.95856 0.60910 0.10600
H 	H 	0.08140 0.95190 0.64240 0.01200
C 	C 	0.19740 0.00013 0.53430 0.00900
H 	H 	0.22210 0.02870 0.50490 0.03800
C 	C 	0.21510 0.94423 0.54070 0.01100
H 	H 	0.25360 0.92720 0.51790 0.03400
O 	O 	0.11300 0.56990 0.85690 -0.08900
O 	O 	0.02230 0.55040 0.82100 -0.09100
O 	O 	0.09510 0.57860 0.80660 -0.06700
Co	Co	0.41631 0.40862 0.82661 1.14800
Co	Co	0.41196 0.40805 0.58505 1.15800
O 	O 	0.47085 0.42950 0.37740 -0.29000
O 	O 	0.38163 0.39778 0.45109 -0.41600
O 	O 	0.47555 0.42351 0.04530 -0.29300
O 	O 	0.38797 0.39572 0.96406 -0.41000
O 	O 	0.17282 0.37171 0.28197 -0.42900
O 	O 	0.17454 0.36894 0.12845 -0.43100
O 	O 	0.45632 0.42997 0.70365 -0.44900
N 	N 	0.33817 0.58351 0.84820 -0.15400
N 	N 	0.36568 0.49229 0.83350 -0.22000
N 	N 	0.46357 0.75806 0.92310 -0.15100
N 	N 	0.53789 0.82794 0.92600 -0.22400
N 	N 	0.53770 0.25529 0.82810 -0.15200
N 	N 	0.46284 0.32528 0.82230 -0.22500
N 	N 	0.66457 0.08291 0.91190 -0.15100
N 	N 	0.63745 0.99108 0.92250 -0.22000
C 	C 	0.28180 0.73345 0.89540 0.09200
C 	C 	0.28157 0.67464 0.87530 -0.20200
H 	H 	0.24150 0.65590 0.86400 0.10900
C 	C 	0.34057 0.64382 0.87190 0.19300
C 	C 	0.40132 0.67042 0.88770 -0.24600
H 	H 	0.44090 0.64960 0.88470 0.13500
C 	C 	0.40134 0.72929 0.90810 0.19200
C 	C 	0.34257 0.76054 0.91280 -0.19900
H 	H 	0.34360 0.79970 0.92770 0.11000
C 	C 	0.71885 0.23260 0.85900 0.09100
C 	C 	0.65795 0.25874 0.83880 -0.19800
H 	H 	0.65650 0.29740 0.82090 0.10600
C 	C 	0.59996 0.22709 0.84570 0.19200
C 	C 	0.60041 0.16883 0.87070 -0.24300
H 	H 	0.56100 0.14810 0.87670 0.13500
C 	C 	0.66174 0.14279 0.88630 0.18900
C 	C 	0.72043 0.17418 0.88110 -0.19900
H 	H 	0.76090 0.15600 0.89240 0.10500
C 	C 	0.37737 0.39893 0.29050 -0.10900
C 	C 	0.41048 0.40637 0.20910 0.05000
H 	H 	0.45490 0.41750 0.20970 0.03700
C 	C 	0.37865 0.39749 0.12560 -0.11500
C 	C 	0.31146 0.38221 0.12460 0.05000
H 	H 	0.28980 0.37590 0.06920 0.04200
C 	C 	0.27679 0.37641 0.20670 -0.12000
C 	C 	0.31015 0.38307 0.28950 0.04800
H 	H 	0.28770 0.37700 0.34430 0.04400
C 	C 	0.41264 0.40954 0.38100 0.35700
C 	C 	0.41601 0.40643 0.03730 0.34700
C 	C 	0.20171 0.37084 0.20570 0.37200
C 	C 	0.38439 0.54296 0.86270 0.10900
H 	H 	0.42520 0.55010 0.89040 0.00500
C 	C 	0.30287 0.50114 0.79730 -0.00100
H 	H 	0.27660 0.47250 0.77100 0.03200
C 	C 	0.28544 0.55651 0.80540 0.01300
H 	H 	0.24590 0.57350 0.78620 0.03900
C 	C 	0.47638 0.81462 0.90550 0.10100
H 	H 	0.44550 0.84060 0.88180 0.00900
C 	C 	0.56610 0.77748 0.95840 0.00200
H 	H 	0.60970 0.77390 0.97880 0.04000
C 	C 	0.52120 0.73398 0.95630 0.01500
H 	H 	0.52790 0.69570 0.97370 0.03500
C 	C 	0.52491 0.31265 0.84170 0.10600
H 	H 	0.55620 0.33940 0.86210 -0.01200
C 	C 	0.43435 0.27410 0.79470 0.00000
H 	H 	0.39040 0.26990 0.77600 0.03900
C 	C 	0.47961 0.23062 0.79880 0.01700
H 	H 	0.47260 0.19180 0.78450 0.03400
C 	C 	0.62008 0.04144 0.89090 0.10800
H 	H 	0.58140 0.04810 0.85760 0.01100
C 	C 	0.69740 0.99987 0.96570 0.00600
H 	H 	0.72210 0.97130 0.99510 0.03900
C 	C 	0.71510 0.05577 0.95930 0.01500
H 	H 	0.75360 0.07280 0.98210 0.03300
O 	O 	0.61300 0.43010 0.64310 -0.09000
O 	O 	0.52230 0.44960 0.67900 -0.09200
O 	O 	0.59510 0.42140 0.69340 -0.06700
Co	Co	0.08369 0.09138 0.82661 1.14800
Co	Co	0.08804 0.09195 0.58505 1.15800
O 	O 	0.02915 0.07050 0.37740 -0.29100
O 	O 	0.11837 0.10222 0.45109 -0.41600
O 	O 	0.02445 0.07649 0.04530 -0.29400
O 	O 	0.11203 0.10428 0.96406 -0.40700
O 	O 	0.32718 0.12829 0.28197 -0.42900
O 	O 	0.32546 0.13106 0.12845 -0.43100
O 	O 	0.04368 0.07003 0.70365 -0.44900
N 	N 	0.16183 0.91649 0.84820 -0.15400
N 	N 	0.13432 0.00771 0.83350 -0.21800
N 	N 	0.03643 0.74194 0.92310 -0.15000
N 	N 	0.96211 0.67206 0.92600 -0.22600
N 	N 	0.96230 0.24471 0.82810 -0.15200
N 	N 	0.03716 0.17472 0.82230 -0.22400
N 	N 	0.83543 0.41709 0.91190 -0.15100
N 	N 	0.86255 0.50892 0.92250 -0.21900
C 	C 	0.21820 0.76655 0.89540 0.09200
C 	C 	0.21843 0.82536 0.87530 -0.20200
H 	H 	0.25850 0.84410 0.86400 0.10900
C 	C 	0.15943 0.85618 0.87190 0.19300
C 	C 	0.09868 0.82958 0.88770 -0.24600
H 	H 	0.05910 0.85040 0.88470 0.13600
C 	C 	0.09866 0.77071 0.90810 0.19200
C 	C 	0.15743 0.73946 0.91280 -0.19900
H 	H 	0.15640 0.70030 0.92770 0.11000
C 	C 	0.78115 0.26740 0.85900 0.09100
C 	C 	0.84205 0.24126 0.83880 -0.19800
H 	H 	0.84350 0.20260 0.82090 0.10600
C 	C 	0.90004 0.27291 0.84570 0.19200
C 	C 	0.89959 0.33117 0.87070 -0.24300
H 	H 	0.93900 0.35190 0.87670 0.13400
C 	C 	0.83826 0.35721 0.88630 0.18800
C 	C 	0.77957 0.32582 0.88110 -0.19900
H 	H 	0.73910 0.34400 0.89240 0.10500
C 	C 	0.12263 0.10107 0.29050 -0.10900
C 	C 	0.08952 0.09363 0.20910 0.05000
H 	H 	0.04510 0.08250 0.20970 0.03700
C 	C 	0.12135 0.10251 0.12560 -0.11500
C 	C 	0.18854 0.11779 0.12460 0.05000
H 	H 	0.21020 0.12410 0.06920 0.04200
C 	C 	0.22321 0.12359 0.20670 -0.11900
C 	C 	0.18985 0.11693 0.28950 0.04800
H 	H 	0.21230 0.12300 0.34430 0.04400
C 	C 	0.08736 0.09046 0.38100 0.35700
C 	C 	0.08399 0.09357 0.03730 0.34400
C 	C 	0.29829 0.12916 0.20570 0.37200
C 	C 	0.11561 0.95704 0.86270 0.10800
H 	H 	0.07480 0.94990 0.89040 0.00600
C 	C 	0.19713 0.99886 0.79730 -0.00500
H 	H 	0.22340 0.02750 0.77100 0.03400
C 	C 	0.21456 0.94349 0.80540 0.01400
H 	H 	0.25410 0.92650 0.78620 0.03800
C 	C 	0.02362 0.68538 0.90550 0.10300
H 	H 	0.05450 0.65940 0.88180 0.00800
C 	C 	0.93390 0.72252 0.95840 0.00300
H 	H 	0.89030 0.72610 0.97880 0.03900
C 	C 	0.97880 0.76602 0.95630 0.01200
H 	H 	0.97210 0.80430 0.97370 0.03500
C 	C 	0.97509 0.18735 0.84170 0.10400
H 	H 	0.94380 0.16060 0.86210 -0.01200
C 	C 	0.06565 0.22590 0.79470 -0.00000
H 	H 	0.10960 0.23010 0.77600 0.03900
C 	C 	0.02039 0.26938 0.79880 0.01900
H 	H 	0.02740 0.30820 0.78450 0.03300
C 	C 	0.87992 0.45856 0.89090 0.10700
H 	H 	0.91860 0.45190 0.85760 0.01100
C 	C 	0.80260 0.50013 0.96570 0.00800
H 	H 	0.77790 0.52870 0.99510 0.03800
C 	C 	0.78490 0.44423 0.95930 0.01200
H 	H 	0.74640 0.42720 0.98210 0.03400
O 	O 	0.88700 0.06990 0.64310 -0.09000
O 	O 	0.97770 0.05040 0.67900 -0.09300
O 	O 	0.90490 0.07860 0.69340 -0.06700
