data_crystal

_cell_length_a 10.99020
_cell_length_b 10.99020
_cell_length_c 18.09400
_cell_angle_alpha 90.00000
_cell_angle_beta  90.00000
_cell_angle_gamma 90.00000

_symmetry_space_group_name_	'P 1'
_symmetry_space_group_name_H-M	'P 1'

loop_
_symmetry_equiv_pos_as_xyz
  x,y,z

loop_
_atom_site_label
_atom_site_type_symbol
_atom_site_fract_x
_atom_site_fract_y
_atom_site_fract_z
_atom_site_charge
Cu	Cu	0.60776 0.88410 0.14366 0.85900
Cu	Cu	0.39909 0.09325 0.13475 0.85500
Cu	Cu	0.39224 0.11590 0.64366 0.85900
Cu	Cu	0.60091 0.90675 0.63475 0.85600
Cu	Cu	0.11590 0.60776 0.89366 0.85700
Cu	Cu	0.90675 0.39909 0.88475 0.85600
Cu	Cu	0.88410 0.39224 0.39366 0.85800
Cu	Cu	0.09325 0.60091 0.38475 0.85600
H 	H 	0.81880 0.95960 0.30890 0.28200
H 	H 	0.83800 0.92900 0.22510 0.26900
H 	H 	0.90480 0.04080 0.26040 0.29000
H 	H 	0.54120 0.38040 0.27810 0.28600
H 	H 	0.51350 0.37610 0.19320 0.26700
H 	H 	0.42700 0.30960 0.24900 0.25500
H 	H 	0.45040 0.60880 0.28480 0.28400
H 	H 	0.48840 0.60660 0.20130 0.26600
H 	H 	0.56570 0.68080 0.25850 0.25200
H 	H 	0.08200 0.92850 0.21420 0.30600
H 	H 	0.13980 0.00960 0.27620 0.29400
H 	H 	0.15790 0.04410 0.19290 0.28400
H 	H 	0.18120 0.04040 0.80890 0.28100
H 	H 	0.16200 0.07100 0.72510 0.26700
H 	H 	0.09520 0.95920 0.76040 0.28800
H 	H 	0.45880 0.61960 0.77810 0.28500
H 	H 	0.48650 0.62390 0.69320 0.26700
H 	H 	0.57300 0.69040 0.74900 0.25500
H 	H 	0.54960 0.39120 0.78480 0.28400
H 	H 	0.51160 0.39340 0.70130 0.26600
H 	H 	0.43430 0.31920 0.75850 0.25200
H 	H 	0.91800 0.07150 0.71420 0.30700
H 	H 	0.86020 0.99040 0.77620 0.29500
H 	H 	0.84210 0.95590 0.69290 0.28600
H 	H 	0.04040 0.81880 0.05890 0.27800
H 	H 	0.07100 0.83800 0.97510 0.26000
H 	H 	0.95920 0.90480 0.01040 0.28900
H 	H 	0.61960 0.54120 0.02810 0.28600
H 	H 	0.62390 0.51350 0.94320 0.26700
H 	H 	0.69040 0.42700 0.99900 0.25500
H 	H 	0.39120 0.45040 0.03480 0.28900
H 	H 	0.39340 0.48840 0.95130 0.27000
H 	H 	0.31920 0.56570 0.00850 0.25700
H 	H 	0.07150 0.08200 0.96420 0.31800
H 	H 	0.99040 0.13980 0.02620 0.30600
H 	H 	0.95590 0.15790 0.94290 0.30000
H 	H 	0.95960 0.18120 0.55890 0.28600
H 	H 	0.92900 0.16200 0.47510 0.27300
H 	H 	0.04080 0.09520 0.51040 0.29500
H 	H 	0.38040 0.45880 0.52810 0.28600
H 	H 	0.37610 0.48650 0.44320 0.26800
H 	H 	0.30960 0.57300 0.49900 0.25500
H 	H 	0.60880 0.54960 0.53480 0.28400
H 	H 	0.60660 0.51160 0.45130 0.26600
H 	H 	0.68080 0.43430 0.50850 0.25200
H 	H 	0.92850 0.91800 0.46420 0.31200
H 	H 	0.00960 0.86020 0.52620 0.30100
H 	H 	0.04410 0.84210 0.44290 0.29200
C 	C 	0.83130 0.99350 0.26060 -0.91600
C 	C 	0.50990 0.33120 0.23860 -0.87500
C 	C 	0.72730 0.07220 0.24110 0.38200
C 	C 	0.58570 0.21680 0.23160 0.35900
C 	C 	0.70170 0.18890 0.26540 -0.39900
C 	C 	0.76360 0.26840 0.31630 0.43300
C 	C 	0.48500 0.65550 0.24520 -0.87300
C 	C 	0.15070 0.97790 0.22720 -0.97300
C 	C 	0.40620 0.76750 0.23090 0.37500
C 	C 	0.26060 0.90460 0.22480 0.41500
C 	C 	0.28690 0.79240 0.25440 -0.42400
C 	C 	0.21770 0.71540 0.30440 0.42300
C 	C 	0.16870 0.00650 0.76060 -0.91200
C 	C 	0.49010 0.66880 0.73860 -0.87500
C 	C 	0.27270 0.92780 0.74110 0.38100
C 	C 	0.41430 0.78320 0.73160 0.35900
C 	C 	0.29830 0.81110 0.76540 -0.39900
C 	C 	0.23640 0.73160 0.81630 0.43200
C 	C 	0.51500 0.34450 0.74520 -0.87300
C 	C 	0.84930 0.02210 0.72720 -0.97800
C 	C 	0.59380 0.23250 0.73090 0.37500
C 	C 	0.73940 0.09540 0.72480 0.41600
C 	C 	0.71310 0.20760 0.75440 -0.42500
C 	C 	0.78230 0.28460 0.80440 0.42400
C 	C 	0.00650 0.83130 0.01060 -0.90200
C 	C 	0.66880 0.50990 0.98860 -0.87600
C 	C 	0.92780 0.72730 0.99110 0.37500
C 	C 	0.78320 0.58570 0.98160 0.35600
C 	C 	0.81110 0.70170 0.01540 -0.39200
C 	C 	0.73160 0.76360 0.06630 0.43000
C 	C 	0.34450 0.48500 0.99520 -0.88900
C 	C 	0.02210 0.15070 0.97720 -1.01400
C 	C 	0.23250 0.40620 0.98090 0.38200
C 	C 	0.09540 0.26060 0.97480 0.42900
C 	C 	0.20760 0.28690 0.00440 -0.43500
C 	C 	0.28460 0.21770 0.05440 0.42700
C 	C 	0.99350 0.16870 0.51060 -0.93100
C 	C 	0.33120 0.49010 0.48860 -0.87600
C 	C 	0.07220 0.27270 0.49110 0.38800
C 	C 	0.21680 0.41430 0.48160 0.36000
C 	C 	0.18890 0.29830 0.51540 -0.40200
C 	C 	0.26840 0.23640 0.56630 0.43400
C 	C 	0.65550 0.51500 0.49520 -0.87400
C 	C 	0.97790 0.84930 0.47720 -0.99400
C 	C 	0.76750 0.59380 0.48090 0.37600
C 	C 	0.90460 0.73940 0.47480 0.42100
C 	C 	0.79240 0.71310 0.50440 -0.42700
C 	C 	0.71540 0.78230 0.55440 0.42500
N 	N 	0.63470 0.03790 0.19700 -0.28000
N 	N 	0.54540 0.12530 0.19380 -0.28200
N 	N 	0.45380 0.85400 0.19270 -0.28800
N 	N 	0.36010 0.93800 0.18380 -0.28100
N 	N 	0.36530 0.96210 0.69700 -0.27900
N 	N 	0.45460 0.87470 0.69380 -0.28100
N 	N 	0.54620 0.14600 0.69270 -0.28900
N 	N 	0.63990 0.06200 0.68380 -0.28200
N 	N 	0.96210 0.63470 0.94700 -0.27700
N 	N 	0.87470 0.54540 0.94380 -0.28000
N 	N 	0.14600 0.45380 0.94270 -0.29000
N 	N 	0.06200 0.36010 0.93380 -0.28500
N 	N 	0.03790 0.36530 0.44700 -0.28000
N 	N 	0.12530 0.45460 0.44380 -0.28100
N 	N 	0.85400 0.54620 0.44270 -0.28900
N 	N 	0.93800 0.63990 0.43380 -0.28300
O 	O 	0.86740 0.22880 0.34210 -0.44600
O 	O 	0.73140 0.36870 0.33710 -0.48100
O 	O 	0.24900 0.61790 0.33200 -0.47800
O 	O 	0.10930 0.75570 0.32270 -0.44100
O 	O 	0.13260 0.77120 0.84210 -0.44700
O 	O 	0.26860 0.63130 0.83710 -0.48100
O 	O 	0.75100 0.38210 0.83200 -0.47800
O 	O 	0.89070 0.24430 0.82270 -0.44000
O 	O 	0.77120 0.86740 0.09210 -0.44400
O 	O 	0.63130 0.73140 0.08710 -0.48000
O 	O 	0.38210 0.24900 0.08200 -0.48000
O 	O 	0.24430 0.10930 0.07270 -0.44300
O 	O 	0.22880 0.13260 0.59210 -0.44600
O 	O 	0.36870 0.26860 0.58710 -0.48100
O 	O 	0.61790 0.75100 0.58200 -0.47800
O 	O 	0.75570 0.89070 0.57270 -0.44100
