data_crystal

_cell_length_a 28.15700
_cell_length_b 16.65900
_cell_length_c 14.55840
_cell_angle_alpha 90.00000
_cell_angle_beta  93.28400
_cell_angle_gamma 90.00000

_symmetry_space_group_name_	'P 1'
_symmetry_space_group_name_H-M	'P 1'

loop_
_symmetry_equiv_pos_as_xyz
  x,y,z

loop_
_atom_site_label
_atom_site_type_symbol
_atom_site_fract_x
_atom_site_fract_y
_atom_site_fract_z
_atom_site_charge
Zn	Zn	0.30158 0.14792 0.64098 1.21400
Zn	Zn	0.21144 0.24730 0.57495 1.21700
O 	O 	0.25858 0.07850 0.70480 -0.46600
O 	O 	0.19425 0.15504 0.67630 -0.42200
O 	O 	0.17581 0.74023 0.78720 -0.47700
O 	O 	0.24227 0.80793 0.82580 -0.45400
O 	O 	0.83645 0.81120 0.51340 -0.44300
O 	O 	0.80497 0.93380 0.51570 -0.27100
O 	O 	0.03772 0.07060 0.64720 -0.22800
N 	N 	0.86187 0.58330 0.63420 -0.28200
N 	N 	0.15495 0.32020 0.61550 -0.24700
N 	N 	0.06046 0.94130 0.65800 -0.24000
H 	H 	0.05000 0.89300 0.65130 0.12800
C 	C 	0.97939 0.96950 0.60920 -0.02900
C 	C 	0.97070 0.89070 0.58710 -0.04400
H 	H 	0.99570 0.85420 0.59010 0.03900
C 	C 	0.92520 0.86430 0.56040 -0.00000
H 	H 	0.91990 0.81040 0.54660 0.04300
C 	C 	0.88796 0.91760 0.55430 -0.07500
C 	C 	0.89696 0.99660 0.57370 0.00100
H 	H 	0.87220 0.03350 0.56850 0.04900
C 	C 	0.94232 0.02250 0.60100 -0.04400
H 	H 	0.94760 0.07660 0.61390 0.06400
C 	C 	0.10918 0.94770 0.68690 0.13400
C 	C 	0.13558 0.01770 0.68150 -0.09400
H 	H 	0.12140 0.06470 0.65910 0.09800
C 	C 	0.18373 0.01670 0.71000 -0.04600
C 	C 	0.20480 0.94810 0.74470 0.00100
H 	H 	0.23680 0.94870 0.76410 0.06300
C 	C 	0.17877 0.87760 0.75110 -0.05400
C 	C 	0.13079 0.87850 0.72110 -0.09300
H 	H 	0.11300 0.83160 0.72410 0.07600
C 	C 	0.21370 0.08940 0.69560 0.36100
C 	C 	0.20108 0.80390 0.79130 0.37300
C 	C 	0.83888 0.88640 0.52520 0.34500
C 	C 	0.02824 0.99910 0.63960 0.22200
C 	C 	0.90408 0.61910 0.63150 0.10800
H 	H 	0.90550 0.67490 0.63170 -0.02300
C 	C 	0.94580 0.57590 0.62840 -0.19200
H 	H 	0.97480 0.60270 0.62730 0.09500
C 	C 	0.94470 0.49370 0.62710 0.14200
C 	C 	0.90120 0.45690 0.62830 -0.19500
H 	H 	0.89900 0.40120 0.62770 0.10100
C 	C 	0.86060 0.50340 0.63050 0.11000
H 	H 	0.83120 0.47790 0.62940 -0.01900
C 	C 	0.11260 0.28760 0.62820 0.09800
H 	H 	0.11050 0.23210 0.63350 0.00400
C 	C 	0.07190 0.33250 0.63370 -0.17600
H 	H 	0.04310 0.30730 0.64250 0.09600
C 	C 	0.07391 0.41610 0.62600 0.12400
C 	C 	0.11830 0.44930 0.61720 -0.17700
H 	H 	0.12190 0.50470 0.61460 0.09200
C 	C 	0.15702 0.39980 0.61220 0.09400
H 	H 	0.18660 0.42350 0.60630 -0.00400
C 	C 	0.98750 0.44270 0.62530 -0.09900
H 	H 	0.98270 0.38750 0.62320 0.06400
C 	C 	0.03200 0.46790 0.62630 -0.08200
H 	H 	0.03710 0.52310 0.62740 0.05900
O 	O 	0.26709 0.17449 0.52700 -0.63600
Zn	Zn	0.80158 0.64792 0.64098 1.21400
Zn	Zn	0.71144 0.74730 0.57495 1.21700
O 	O 	0.75858 0.57850 0.70480 -0.46600
O 	O 	0.69425 0.65504 0.67630 -0.42200
O 	O 	0.67581 0.24023 0.78720 -0.47700
O 	O 	0.74227 0.30793 0.82580 -0.45400
O 	O 	0.33645 0.31120 0.51340 -0.44300
O 	O 	0.30497 0.43380 0.51570 -0.27100
O 	O 	0.53772 0.57060 0.64720 -0.22800
N 	N 	0.36187 0.08330 0.63420 -0.28200
N 	N 	0.65495 0.82020 0.61550 -0.24700
N 	N 	0.56046 0.44130 0.65800 -0.24000
H 	H 	0.55000 0.39300 0.65130 0.12800
C 	C 	0.47939 0.46950 0.60920 -0.02900
C 	C 	0.47070 0.39070 0.58710 -0.04400
H 	H 	0.49570 0.35420 0.59010 0.03900
C 	C 	0.42520 0.36430 0.56040 -0.00100
H 	H 	0.41990 0.31040 0.54660 0.04300
C 	C 	0.38796 0.41760 0.55430 -0.07500
C 	C 	0.39696 0.49660 0.57370 0.00100
H 	H 	0.37220 0.53350 0.56850 0.05000
C 	C 	0.44232 0.52250 0.60100 -0.04400
H 	H 	0.44760 0.57660 0.61390 0.06400
C 	C 	0.60918 0.44770 0.68690 0.13400
C 	C 	0.63558 0.51770 0.68150 -0.09400
H 	H 	0.62140 0.56470 0.65910 0.09800
C 	C 	0.68373 0.51670 0.71000 -0.04600
C 	C 	0.70480 0.44810 0.74470 0.00000
H 	H 	0.73680 0.44870 0.76410 0.06300
C 	C 	0.67877 0.37760 0.75110 -0.05400
C 	C 	0.63079 0.37850 0.72110 -0.09300
H 	H 	0.61300 0.33160 0.72410 0.07600
C 	C 	0.71370 0.58940 0.69560 0.36000
C 	C 	0.70108 0.30390 0.79130 0.37300
C 	C 	0.33888 0.38640 0.52520 0.34500
C 	C 	0.52824 0.49910 0.63960 0.22200
C 	C 	0.40408 0.11910 0.63150 0.10800
H 	H 	0.40550 0.17490 0.63170 -0.02300
C 	C 	0.44580 0.07590 0.62840 -0.19200
H 	H 	0.47480 0.10270 0.62730 0.09500
C 	C 	0.44470 0.99370 0.62710 0.14200
C 	C 	0.40120 0.95690 0.62830 -0.19500
H 	H 	0.39900 0.90120 0.62770 0.10100
C 	C 	0.36060 0.00340 0.63050 0.11000
H 	H 	0.33120 0.97790 0.62940 -0.01900
C 	C 	0.61260 0.78760 0.62820 0.09800
H 	H 	0.61050 0.73210 0.63350 0.00400
C 	C 	0.57190 0.83250 0.63370 -0.17600
H 	H 	0.54310 0.80730 0.64250 0.09600
C 	C 	0.57391 0.91610 0.62600 0.12300
C 	C 	0.61830 0.94930 0.61720 -0.17700
H 	H 	0.62190 0.00470 0.61460 0.09200
C 	C 	0.65702 0.89980 0.61220 0.09400
H 	H 	0.68660 0.92350 0.60630 -0.00400
C 	C 	0.48750 0.94270 0.62530 -0.09900
H 	H 	0.48270 0.88750 0.62320 0.06400
C 	C 	0.53200 0.96790 0.62630 -0.08200
H 	H 	0.53710 0.02310 0.62740 0.05800
O 	O 	0.76709 0.67449 0.52700 -0.63600
Zn	Zn	0.69842 0.14792 0.85902 1.21400
Zn	Zn	0.78856 0.24730 0.92505 1.21700
O 	O 	0.74142 0.07850 0.79520 -0.46600
O 	O 	0.80575 0.15504 0.82370 -0.42200
O 	O 	0.82419 0.74023 0.71280 -0.47700
O 	O 	0.75773 0.80793 0.67420 -0.45400
O 	O 	0.16355 0.81120 0.98660 -0.44300
O 	O 	0.19503 0.93380 0.98430 -0.27100
O 	O 	0.96228 0.07060 0.85280 -0.22800
N 	N 	0.13813 0.58330 0.86580 -0.28200
N 	N 	0.84505 0.32020 0.88450 -0.24700
N 	N 	0.93954 0.94130 0.84200 -0.24000
H 	H 	0.95000 0.89300 0.84870 0.12800
C 	C 	0.02061 0.96950 0.89080 -0.02800
C 	C 	0.02930 0.89070 0.91290 -0.04500
H 	H 	0.00430 0.85420 0.90990 0.03900
C 	C 	0.07480 0.86430 0.93960 0.00000
H 	H 	0.08010 0.81040 0.95340 0.04300
C 	C 	0.11204 0.91760 0.94570 -0.07600
C 	C 	0.10304 0.99660 0.92630 0.00300
H 	H 	0.12780 0.03350 0.93150 0.04900
C 	C 	0.05768 0.02250 0.89900 -0.04600
H 	H 	0.05240 0.07660 0.88610 0.06500
C 	C 	0.89082 0.94770 0.81310 0.13400
C 	C 	0.86442 0.01770 0.81850 -0.09400
H 	H 	0.87860 0.06470 0.84090 0.09800
C 	C 	0.81627 0.01670 0.79000 -0.04600
C 	C 	0.79520 0.94810 0.75530 0.00100
H 	H 	0.76320 0.94870 0.73590 0.06300
C 	C 	0.82123 0.87760 0.74890 -0.05400
C 	C 	0.86921 0.87850 0.77890 -0.09300
H 	H 	0.88700 0.83160 0.77590 0.07600
C 	C 	0.78630 0.08940 0.80440 0.36100
C 	C 	0.79892 0.80390 0.70870 0.37300
C 	C 	0.16112 0.88640 0.97480 0.34500
C 	C 	0.97176 0.99910 0.86040 0.22100
C 	C 	0.09592 0.61910 0.86850 0.10700
H 	H 	0.09450 0.67490 0.86830 -0.02300
C 	C 	0.05420 0.57590 0.87160 -0.19200
H 	H 	0.02520 0.60270 0.87270 0.09500
C 	C 	0.05530 0.49370 0.87290 0.14200
C 	C 	0.09880 0.45690 0.87170 -0.19500
H 	H 	0.10100 0.40120 0.87230 0.10100
C 	C 	0.13940 0.50340 0.86950 0.11000
H 	H 	0.16880 0.47790 0.87060 -0.01900
C 	C 	0.88740 0.28760 0.87180 0.09900
H 	H 	0.88950 0.23210 0.86650 0.00400
C 	C 	0.92810 0.33250 0.86630 -0.17600
H 	H 	0.95690 0.30730 0.85750 0.09600
C 	C 	0.92609 0.41610 0.87400 0.12400
C 	C 	0.88170 0.44930 0.88280 -0.17800
H 	H 	0.87810 0.50470 0.88540 0.09200
C 	C 	0.84298 0.39980 0.88780 0.09400
H 	H 	0.81340 0.42350 0.89370 -0.00400
C 	C 	0.01250 0.44270 0.87470 -0.09800
H 	H 	0.01730 0.38750 0.87680 0.06400
C 	C 	0.96800 0.46790 0.87370 -0.08300
H 	H 	0.96290 0.52310 0.87260 0.05900
O 	O 	0.73291 0.17449 0.97300 -0.63600
Zn	Zn	0.19842 0.64792 0.85902 1.21400
Zn	Zn	0.28856 0.74730 0.92505 1.21700
O 	O 	0.24142 0.57850 0.79520 -0.46600
O 	O 	0.30575 0.65504 0.82370 -0.42200
O 	O 	0.32419 0.24023 0.71280 -0.47700
O 	O 	0.25773 0.30793 0.67420 -0.45400
O 	O 	0.66355 0.31120 0.98660 -0.44300
O 	O 	0.69503 0.43380 0.98430 -0.27100
O 	O 	0.46228 0.57060 0.85280 -0.22800
N 	N 	0.63813 0.08330 0.86580 -0.28200
N 	N 	0.34505 0.82020 0.88450 -0.24700
N 	N 	0.43954 0.44130 0.84200 -0.24000
H 	H 	0.45000 0.39300 0.84870 0.12800
C 	C 	0.52061 0.46950 0.89080 -0.02900
C 	C 	0.52930 0.39070 0.91290 -0.04400
H 	H 	0.50430 0.35420 0.90990 0.03900
C 	C 	0.57480 0.36430 0.93960 -0.00100
H 	H 	0.58010 0.31040 0.95340 0.04300
C 	C 	0.61204 0.41760 0.94570 -0.07500
C 	C 	0.60304 0.49660 0.92630 0.00100
H 	H 	0.62780 0.53350 0.93150 0.04900
C 	C 	0.55768 0.52250 0.89900 -0.04400
H 	H 	0.55240 0.57660 0.88610 0.06400
C 	C 	0.39082 0.44770 0.81310 0.13400
C 	C 	0.36442 0.51770 0.81850 -0.09400
H 	H 	0.37860 0.56470 0.84090 0.09800
C 	C 	0.31627 0.51670 0.79000 -0.04600
C 	C 	0.29520 0.44810 0.75530 0.00000
H 	H 	0.26320 0.44870 0.73590 0.06300
C 	C 	0.32123 0.37760 0.74890 -0.05400
C 	C 	0.36921 0.37850 0.77890 -0.09300
H 	H 	0.38700 0.33160 0.77590 0.07600
C 	C 	0.28630 0.58940 0.80440 0.36000
C 	C 	0.29892 0.30390 0.70870 0.37300
C 	C 	0.66112 0.38640 0.97480 0.34500
C 	C 	0.47176 0.49910 0.86040 0.22100
C 	C 	0.59592 0.11910 0.86850 0.10800
H 	H 	0.59450 0.17490 0.86830 -0.02300
C 	C 	0.55420 0.07590 0.87160 -0.19200
H 	H 	0.52520 0.10270 0.87270 0.09600
C 	C 	0.55530 0.99370 0.87290 0.14200
C 	C 	0.59880 0.95690 0.87170 -0.19400
H 	H 	0.60100 0.90120 0.87230 0.10100
C 	C 	0.63940 0.00340 0.86950 0.10900
H 	H 	0.66880 0.97790 0.87060 -0.01900
C 	C 	0.38740 0.78760 0.87180 0.09800
H 	H 	0.38950 0.73210 0.86650 0.00400
C 	C 	0.42810 0.83250 0.86630 -0.17500
H 	H 	0.45690 0.80730 0.85750 0.09600
C 	C 	0.42609 0.91610 0.87400 0.12300
C 	C 	0.38170 0.94930 0.88280 -0.17700
H 	H 	0.37810 0.00470 0.88540 0.09100
C 	C 	0.34298 0.89980 0.88780 0.09300
H 	H 	0.31340 0.92350 0.89370 -0.00400
C 	C 	0.51250 0.94270 0.87470 -0.09900
H 	H 	0.51730 0.88750 0.87680 0.06400
C 	C 	0.46800 0.96790 0.87370 -0.08200
H 	H 	0.46290 0.02310 0.87260 0.05800
O 	O 	0.23291 0.67449 0.97300 -0.63600
Zn	Zn	0.69842 0.85208 0.35902 1.21400
Zn	Zn	0.78856 0.75270 0.42505 1.21700
O 	O 	0.74142 0.92150 0.29520 -0.46600
O 	O 	0.80575 0.84496 0.32370 -0.42200
O 	O 	0.82419 0.25977 0.21280 -0.47700
O 	O 	0.75773 0.19207 0.17420 -0.45400
O 	O 	0.16355 0.18880 0.48660 -0.44300
O 	O 	0.19503 0.06620 0.48430 -0.27100
O 	O 	0.96228 0.92940 0.35280 -0.22800
N 	N 	0.13813 0.41670 0.36580 -0.28200
N 	N 	0.84505 0.67980 0.38450 -0.24700
N 	N 	0.93954 0.05870 0.34200 -0.24000
H 	H 	0.95000 0.10700 0.34870 0.12800
C 	C 	0.02061 0.03050 0.39080 -0.02900
C 	C 	0.02930 0.10930 0.41290 -0.04400
H 	H 	0.00430 0.14580 0.40990 0.03900
C 	C 	0.07480 0.13570 0.43960 -0.00000
H 	H 	0.08010 0.18960 0.45340 0.04300
C 	C 	0.11204 0.08240 0.44570 -0.07500
C 	C 	0.10304 0.00340 0.42630 0.00100
H 	H 	0.12780 0.96650 0.43150 0.04900
C 	C 	0.05768 0.97750 0.39900 -0.04400
H 	H 	0.05240 0.92340 0.38610 0.06400
C 	C 	0.89082 0.05230 0.31310 0.13400
C 	C 	0.86442 0.98230 0.31850 -0.09400
H 	H 	0.87860 0.93530 0.34090 0.09800
C 	C 	0.81627 0.98330 0.29000 -0.04600
C 	C 	0.79520 0.05190 0.25530 0.00100
H 	H 	0.76320 0.05130 0.23590 0.06300
C 	C 	0.82123 0.12240 0.24890 -0.05400
C 	C 	0.86921 0.12150 0.27890 -0.09300
H 	H 	0.88700 0.16840 0.27590 0.07600
C 	C 	0.78630 0.91060 0.30440 0.36100
C 	C 	0.79892 0.19610 0.20870 0.37300
C 	C 	0.16112 0.11360 0.47480 0.34500
C 	C 	0.97176 0.00090 0.36040 0.22200
C 	C 	0.09592 0.38090 0.36850 0.10800
H 	H 	0.09450 0.32510 0.36830 -0.02300
C 	C 	0.05420 0.42410 0.37160 -0.19200
H 	H 	0.02520 0.39730 0.37270 0.09500
C 	C 	0.05530 0.50630 0.37290 0.14200
C 	C 	0.09880 0.54310 0.37170 -0.19500
H 	H 	0.10100 0.59880 0.37230 0.10100
C 	C 	0.13940 0.49660 0.36950 0.11000
H 	H 	0.16880 0.52210 0.37060 -0.01900
C 	C 	0.88740 0.71240 0.37180 0.09800
H 	H 	0.88950 0.76790 0.36650 0.00400
C 	C 	0.92810 0.66750 0.36630 -0.17600
H 	H 	0.95690 0.69270 0.35750 0.09600
C 	C 	0.92609 0.58390 0.37400 0.12400
C 	C 	0.88170 0.55070 0.38280 -0.17700
H 	H 	0.87810 0.49530 0.38540 0.09200
C 	C 	0.84298 0.60020 0.38780 0.09400
H 	H 	0.81340 0.57650 0.39370 -0.00400
C 	C 	0.01250 0.55730 0.37470 -0.09900
H 	H 	0.01730 0.61250 0.37680 0.06400
C 	C 	0.96800 0.53210 0.37370 -0.08200
H 	H 	0.96290 0.47690 0.37260 0.05900
O 	O 	0.73291 0.82551 0.47300 -0.63600
Zn	Zn	0.19842 0.35208 0.35902 1.21400
Zn	Zn	0.28856 0.25270 0.42505 1.21700
O 	O 	0.24142 0.42150 0.29520 -0.46600
O 	O 	0.30575 0.34496 0.32370 -0.42200
O 	O 	0.32419 0.75977 0.21280 -0.47700
O 	O 	0.25773 0.69207 0.17420 -0.45400
O 	O 	0.66355 0.68880 0.48660 -0.44300
O 	O 	0.69503 0.56620 0.48430 -0.27100
O 	O 	0.46228 0.42940 0.35280 -0.22800
N 	N 	0.63813 0.91670 0.36580 -0.28200
N 	N 	0.34505 0.17980 0.38450 -0.24700
N 	N 	0.43954 0.55870 0.34200 -0.24000
H 	H 	0.45000 0.60700 0.34870 0.12800
C 	C 	0.52061 0.53050 0.39080 -0.02900
C 	C 	0.52930 0.60930 0.41290 -0.04400
H 	H 	0.50430 0.64580 0.40990 0.03900
C 	C 	0.57480 0.63570 0.43960 -0.00100
H 	H 	0.58010 0.68960 0.45340 0.04300
C 	C 	0.61204 0.58240 0.44570 -0.07500
C 	C 	0.60304 0.50340 0.42630 0.00100
H 	H 	0.62780 0.46650 0.43150 0.05000
C 	C 	0.55768 0.47750 0.39900 -0.04400
H 	H 	0.55240 0.42340 0.38610 0.06400
C 	C 	0.39082 0.55230 0.31310 0.13400
C 	C 	0.36442 0.48230 0.31850 -0.09400
H 	H 	0.37860 0.43530 0.34090 0.09800
C 	C 	0.31627 0.48330 0.29000 -0.04600
C 	C 	0.29520 0.55190 0.25530 0.00000
H 	H 	0.26320 0.55130 0.23590 0.06300
C 	C 	0.32123 0.62240 0.24890 -0.05400
C 	C 	0.36921 0.62150 0.27890 -0.09300
H 	H 	0.38700 0.66840 0.27590 0.07600
C 	C 	0.28630 0.41060 0.30440 0.36000
C 	C 	0.29892 0.69610 0.20870 0.37300
C 	C 	0.66112 0.61360 0.47480 0.34500
C 	C 	0.47176 0.50090 0.36040 0.22200
C 	C 	0.59592 0.88090 0.36850 0.10800
H 	H 	0.59450 0.82510 0.36830 -0.02300
C 	C 	0.55420 0.92410 0.37160 -0.19200
H 	H 	0.52520 0.89730 0.37270 0.09500
C 	C 	0.55530 0.00630 0.37290 0.14200
C 	C 	0.59880 0.04310 0.37170 -0.19500
H 	H 	0.60100 0.09880 0.37230 0.10100
C 	C 	0.63940 0.99660 0.36950 0.11000
H 	H 	0.66880 0.02210 0.37060 -0.01900
C 	C 	0.38740 0.21240 0.37180 0.09800
H 	H 	0.38950 0.26790 0.36650 0.00400
C 	C 	0.42810 0.16750 0.36630 -0.17600
H 	H 	0.45690 0.19270 0.35750 0.09600
C 	C 	0.42609 0.08390 0.37400 0.12300
C 	C 	0.38170 0.05070 0.38280 -0.17700
H 	H 	0.37810 0.99530 0.38540 0.09200
C 	C 	0.34298 0.10020 0.38780 0.09400
H 	H 	0.31340 0.07650 0.39370 -0.00400
C 	C 	0.51250 0.05730 0.37470 -0.09900
H 	H 	0.51730 0.11250 0.37680 0.06400
C 	C 	0.46800 0.03210 0.37370 -0.08200
H 	H 	0.46290 0.97690 0.37260 0.05800
O 	O 	0.23291 0.32551 0.47300 -0.63600
Zn	Zn	0.30158 0.85208 0.14098 1.21400
Zn	Zn	0.21144 0.75270 0.07495 1.21700
O 	O 	0.25858 0.92150 0.20480 -0.46600
O 	O 	0.19425 0.84496 0.17630 -0.42200
O 	O 	0.17581 0.25977 0.28720 -0.47700
O 	O 	0.24227 0.19207 0.32580 -0.45400
O 	O 	0.83645 0.18880 0.01340 -0.44300
O 	O 	0.80497 0.06620 0.01570 -0.27100
O 	O 	0.03772 0.92940 0.14720 -0.22800
N 	N 	0.86187 0.41670 0.13420 -0.28200
N 	N 	0.15495 0.67980 0.11550 -0.24700
N 	N 	0.06046 0.05870 0.15800 -0.24000
H 	H 	0.05000 0.10700 0.15130 0.12800
C 	C 	0.97939 0.03050 0.10920 -0.02800
C 	C 	0.97070 0.10930 0.08710 -0.04500
H 	H 	0.99570 0.14580 0.09010 0.03900
C 	C 	0.92520 0.13570 0.06040 0.00000
H 	H 	0.91990 0.18960 0.04660 0.04300
C 	C 	0.88796 0.08240 0.05430 -0.07600
C 	C 	0.89696 0.00340 0.07370 0.00300
H 	H 	0.87220 0.96650 0.06850 0.04900
C 	C 	0.94232 0.97750 0.10100 -0.04600
H 	H 	0.94760 0.92340 0.11390 0.06500
C 	C 	0.10918 0.05230 0.18690 0.13400
C 	C 	0.13558 0.98230 0.18150 -0.09400
H 	H 	0.12140 0.93530 0.15910 0.09800
C 	C 	0.18373 0.98330 0.21000 -0.04600
C 	C 	0.20480 0.05190 0.24470 0.00100
H 	H 	0.23680 0.05130 0.26410 0.06300
C 	C 	0.17877 0.12240 0.25110 -0.05400
C 	C 	0.13079 0.12150 0.22110 -0.09300
H 	H 	0.11300 0.16840 0.22410 0.07600
C 	C 	0.21370 0.91060 0.19560 0.36100
C 	C 	0.20108 0.19610 0.29130 0.37300
C 	C 	0.83888 0.11360 0.02520 0.34500
C 	C 	0.02824 0.00090 0.13960 0.22100
C 	C 	0.90408 0.38090 0.13150 0.10700
H 	H 	0.90550 0.32510 0.13170 -0.02300
C 	C 	0.94580 0.42410 0.12840 -0.19200
H 	H 	0.97480 0.39730 0.12730 0.09500
C 	C 	0.94470 0.50630 0.12710 0.14200
C 	C 	0.90120 0.54310 0.12830 -0.19500
H 	H 	0.89900 0.59880 0.12770 0.10100
C 	C 	0.86060 0.49660 0.13050 0.11000
H 	H 	0.83120 0.52210 0.12940 -0.01900
C 	C 	0.11260 0.71240 0.12820 0.09900
H 	H 	0.11050 0.76790 0.13350 0.00400
C 	C 	0.07190 0.66750 0.13370 -0.17600
H 	H 	0.04310 0.69270 0.14250 0.09600
C 	C 	0.07391 0.58390 0.12600 0.12400
C 	C 	0.11830 0.55070 0.11720 -0.17800
H 	H 	0.12190 0.49530 0.11460 0.09200
C 	C 	0.15702 0.60020 0.11220 0.09400
H 	H 	0.18660 0.57650 0.10630 -0.00400
C 	C 	0.98750 0.55730 0.12530 -0.09800
H 	H 	0.98270 0.61250 0.12320 0.06400
C 	C 	0.03200 0.53210 0.12630 -0.08300
H 	H 	0.03710 0.47690 0.12740 0.05900
O 	O 	0.26709 0.82551 0.02700 -0.63600
Zn	Zn	0.80158 0.35208 0.14098 1.21400
Zn	Zn	0.71144 0.25270 0.07495 1.21700
O 	O 	0.75858 0.42150 0.20480 -0.46600
O 	O 	0.69425 0.34496 0.17630 -0.42200
O 	O 	0.67581 0.75977 0.28720 -0.47700
O 	O 	0.74227 0.69207 0.32580 -0.45400
O 	O 	0.33645 0.68880 0.01340 -0.44300
O 	O 	0.30497 0.56620 0.01570 -0.27100
O 	O 	0.53772 0.42940 0.14720 -0.22800
N 	N 	0.36187 0.91670 0.13420 -0.28200
N 	N 	0.65495 0.17980 0.11550 -0.24700
N 	N 	0.56046 0.55870 0.15800 -0.24000
H 	H 	0.55000 0.60700 0.15130 0.12800
C 	C 	0.47939 0.53050 0.10920 -0.02900
C 	C 	0.47070 0.60930 0.08710 -0.04400
H 	H 	0.49570 0.64580 0.09010 0.03900
C 	C 	0.42520 0.63570 0.06040 -0.00100
H 	H 	0.41990 0.68960 0.04660 0.04300
C 	C 	0.38796 0.58240 0.05430 -0.07500
C 	C 	0.39696 0.50340 0.07370 0.00100
H 	H 	0.37220 0.46650 0.06850 0.04900
C 	C 	0.44232 0.47750 0.10100 -0.04400
H 	H 	0.44760 0.42340 0.11390 0.06400
C 	C 	0.60918 0.55230 0.18690 0.13400
C 	C 	0.63558 0.48230 0.18150 -0.09400
H 	H 	0.62140 0.43530 0.15910 0.09800
C 	C 	0.68373 0.48330 0.21000 -0.04600
C 	C 	0.70480 0.55190 0.24470 0.00000
H 	H 	0.73680 0.55130 0.26410 0.06300
C 	C 	0.67877 0.62240 0.25110 -0.05400
C 	C 	0.63079 0.62150 0.22110 -0.09300
H 	H 	0.61300 0.66840 0.22410 0.07600
C 	C 	0.71370 0.41060 0.19560 0.36000
C 	C 	0.70108 0.69610 0.29130 0.37300
C 	C 	0.33888 0.61360 0.02520 0.34500
C 	C 	0.52824 0.50090 0.13960 0.22100
C 	C 	0.40408 0.88090 0.13150 0.10800
H 	H 	0.40550 0.82510 0.13170 -0.02300
C 	C 	0.44580 0.92410 0.12840 -0.19200
H 	H 	0.47480 0.89730 0.12730 0.09600
C 	C 	0.44470 0.00630 0.12710 0.14200
C 	C 	0.40120 0.04310 0.12830 -0.19400
H 	H 	0.39900 0.09880 0.12770 0.10100
C 	C 	0.36060 0.99660 0.13050 0.10900
H 	H 	0.33120 0.02210 0.12940 -0.01900
C 	C 	0.61260 0.21240 0.12820 0.09800
H 	H 	0.61050 0.26790 0.13350 0.00400
C 	C 	0.57190 0.16750 0.13370 -0.17500
H 	H 	0.54310 0.19270 0.14250 0.09600
C 	C 	0.57391 0.08390 0.12600 0.12300
C 	C 	0.61830 0.05070 0.11720 -0.17700
H 	H 	0.62190 0.99530 0.11460 0.09100
C 	C 	0.65702 0.10020 0.11220 0.09300
H 	H 	0.68660 0.07650 0.10630 -0.00400
C 	C 	0.48750 0.05730 0.12530 -0.09900
H 	H 	0.48270 0.11250 0.12320 0.06400
C 	C 	0.53200 0.03210 0.12630 -0.08200
H 	H 	0.53710 0.97690 0.12740 0.05800
O 	O 	0.76709 0.32551 0.02700 -0.63600
