data_crystal

_cell_length_a 24.19770
_cell_length_b 13.95280
_cell_length_c 25.10060
_cell_angle_alpha 90.00000
_cell_angle_beta  96.67700
_cell_angle_gamma 90.00000

_symmetry_space_group_name_	'P 1'
_symmetry_space_group_name_H-M	'P 1'

loop_
_symmetry_equiv_pos_as_xyz
  x,y,z

loop_
_atom_site_label
_atom_site_type_symbol
_atom_site_fract_x
_atom_site_fract_y
_atom_site_fract_z
_atom_site_charge
Cd	Cd	0.22996 0.23640 0.92103 1.22200
O 	O 	0.22820 0.23220 0.82820 -0.38800
O 	O 	0.82290 0.26900 0.42750 -0.43600
O 	O 	0.99400 0.26410 0.33900 -0.40100
N 	N 	0.22860 0.40160 0.92510 -0.22900
O 	O 	0.11910 0.24200 0.56180 -0.25100
O 	O 	0.14530 0.23550 0.85500 -0.36000
O 	O 	0.82730 0.23920 0.51370 -0.47600
N 	N 	0.22570 0.07170 0.92850 -0.24600
C 	C 	0.15120 0.23750 0.76050 -0.06700
C 	C 	0.09460 0.24150 0.74680 -0.02000
H 	H 	0.07120 0.24490 0.77360 0.04000
C 	C 	0.07200 0.24030 0.69340 -0.03900
H 	H 	0.03360 0.23920 0.68470 0.03000
C 	C 	0.10640 0.24070 0.65300 -0.04800
C 	C 	0.16270 0.23880 0.66770 -0.03800
H 	H 	0.18650 0.23870 0.64120 0.05000
C 	C 	0.18510 0.23700 0.72080 -0.02100
H 	H 	0.22350 0.23550 0.72950 0.04900
C 	C 	0.00150 0.24950 0.52820 0.11200
C 	C 	0.94380 0.24970 0.52500 -0.06300
H 	H 	0.92660 0.24680 0.55620 0.07000
C 	C 	0.91180 0.25430 0.47580 -0.06400
C 	C 	0.93760 0.25940 0.42920 -0.02000
H 	H 	0.91610 0.26270 0.39600 0.06100
C 	C 	0.99510 0.25940 0.43210 0.00200
C 	C 	0.02720 0.25350 0.48160 -0.14000
H 	H 	0.06580 0.25230 0.48350 0.11200
C 	C 	0.17610 0.23500 0.81810 0.29300
C 	C 	0.84930 0.25410 0.47250 0.38500
C 	C 	0.02330 0.26430 0.38230 0.34300
C 	C 	0.08590 0.24460 0.59430 0.22600
C 	C 	0.26940 0.01850 0.92800 0.09300
H 	H 	0.30390 0.04740 0.92710 -0.00900
C 	C 	0.26600 0.91690 0.92890 -0.15800
H 	H 	0.29820 0.88080 0.92840 0.11200
C 	C 	0.21700 0.87200 0.93050 0.10800
C 	C 	0.17150 0.92860 0.93270 -0.20500
H 	H 	0.13680 0.90150 0.93540 0.10300
C 	C 	0.17750 0.02530 0.93100 0.11800
H 	H 	0.14560 0.06230 0.93170 -0.01600
C 	C 	0.20210 0.77000 0.92790 0.24200
H 	H 	0.16490 0.75170 0.92280 0.27000
C 	C 	0.24320 0.70170 0.93310 0.35500
H 	H 	0.28010 0.72130 0.93870 0.22200
C 	C 	0.18160 0.44920 0.92830 0.04200
H 	H 	0.14840 0.41600 0.92910 0.00600
C 	C 	0.18210 0.55070 0.93030 -0.07400
H 	H 	0.14900 0.58370 0.93190 0.08500
C 	C 	0.23100 0.60140 0.93000 -0.00800
C 	C 	0.27900 0.54840 0.92570 -0.11600
H 	H 	0.31280 0.57930 0.92390 0.06900
C 	C 	0.27600 0.45040 0.92420 0.06100
H 	H 	0.30870 0.41600 0.92250 -0.00200
N 	N 	0.03090 0.24680 0.58040 -0.24200
H 	H 	0.01080 0.24660 0.60650 0.12300
C 	C 	0.22710 0.00610 0.26680 -0.04400
H 	H 	0.22820 0.95740 0.29220 0.04500
C 	C 	0.27180 0.02060 0.24270 -0.03600
H 	H 	0.26990 0.06030 0.21280 0.04000
C 	C 	0.42270 0.94270 0.29970 -0.00900
H 	H 	0.45120 0.94680 0.32780 0.03200
C 	C 	0.37020 0.97850 0.30580 -0.06900
H 	H 	0.36350 0.00650 0.33810 0.05800
C 	C 	0.32760 0.97230 0.26370 0.03600
C 	C 	0.33750 0.93040 0.21550 -0.04500
H 	H 	0.30900 0.92630 0.18740 0.04700
C 	C 	0.39000 0.89460 0.20940 0.02100
H 	H 	0.39660 0.86660 0.17710 0.03100
N 	N 	0.43260 0.90080 0.25150 -0.06500
N 	N 	0.07770 0.17120 0.25310 -0.18900
C 	C 	0.11970 0.19960 0.22310 0.05200
H 	H 	0.11540 0.25460 0.20220 0.00500
C 	C 	0.16810 0.14560 0.22450 -0.11000
H 	H 	0.19620 0.16460 0.20440 0.07900
C 	C 	0.17460 0.06330 0.25570 0.03200
C 	C 	0.13260 0.03490 0.28570 -0.09700
H 	H 	0.13690 0.97990 0.30670 0.06300
C 	C 	0.08410 0.08890 0.28440 0.04700
H 	H 	0.05610 0.06990 0.30440 -0.00500
O 	O 	0.07080 0.30400 0.38740 -0.17600
C 	C 	0.24250 0.76090 0.93430 -0.37900
H 	H 	0.27960 0.74230 0.94060 -0.17500
C 	C 	0.20210 0.71040 0.92690 -0.28500
H 	H 	0.16470 0.72740 0.92110 -0.20500
C 	C 	0.22620 0.00710 0.23790 -0.02900
H 	H 	0.22890 0.98140 0.20410 0.03600
C 	C 	0.27280 0.00000 0.27170 -0.06100
H 	H 	0.27540 0.01300 0.30820 0.04900
C 	C 	0.41360 0.94680 0.21600 0.06100
H 	H 	0.44180 0.96720 0.19650 -0.00300
C 	C 	0.36380 0.99740 0.21300 -0.12400
H 	H 	0.35880 0.05180 0.19160 0.07600
C 	C 	0.32160 0.96680 0.24210 0.06900
C 	C 	0.32910 0.88560 0.27420 -0.12800
H 	H 	0.30090 0.86510 0.29360 0.08700
C 	C 	0.37880 0.83490 0.27710 0.05700
H 	H 	0.38390 0.78050 0.29860 0.00000
N 	N 	0.42110 0.86550 0.24810 -0.16400
N 	N 	0.06790 0.13580 0.25080 -0.03800
C 	C 	0.07740 0.08610 0.20470 -0.01700
H 	H 	0.04950 0.08190 0.17600 0.03000
C 	C 	0.12860 0.04270 0.20150 -0.06700
H 	H 	0.13500 0.00950 0.17070 0.05500
C 	C 	0.17040 0.04900 0.24440 0.04900
C 	C 	0.16090 0.09870 0.29040 -0.04300
H 	H 	0.18880 0.10280 0.31910 0.04700
C 	C 	0.10960 0.14200 0.29360 0.01600
H 	H 	0.10330 0.17530 0.32450 0.03200
O 	O 	0.07170 0.23200 0.38510 -0.20000
Cd	Cd	0.72996 0.73640 0.92103 1.22300
O 	O 	0.72820 0.73220 0.82820 -0.38700
O 	O 	0.32290 0.76900 0.42750 -0.43700
O 	O 	0.49400 0.76410 0.33900 -0.44600
N 	N 	0.72860 0.90160 0.92510 -0.22800
O 	O 	0.61910 0.74200 0.56180 -0.25000
O 	O 	0.64530 0.73550 0.85500 -0.35700
O 	O 	0.32730 0.73920 0.51370 -0.47700
N 	N 	0.72570 0.57170 0.92850 -0.24500
C 	C 	0.65120 0.73750 0.76050 -0.06600
C 	C 	0.59460 0.74150 0.74680 -0.02000
H 	H 	0.57120 0.74490 0.77360 0.04500
C 	C 	0.57200 0.74030 0.69340 -0.03800
H 	H 	0.53360 0.73920 0.68470 0.03600
C 	C 	0.60640 0.74070 0.65300 -0.04800
C 	C 	0.66270 0.73880 0.66770 -0.03800
H 	H 	0.68650 0.73870 0.64120 0.05000
C 	C 	0.68510 0.73700 0.72080 -0.02200
H 	H 	0.72350 0.73550 0.72950 0.04900
C 	C 	0.50150 0.74950 0.52820 0.12200
C 	C 	0.44380 0.74970 0.52500 -0.08500
H 	H 	0.42660 0.74680 0.55620 0.07200
C 	C 	0.41180 0.75430 0.47580 -0.07600
C 	C 	0.43760 0.75940 0.42920 0.01700
H 	H 	0.41610 0.76270 0.39600 0.04700
C 	C 	0.49510 0.75940 0.43210 -0.08500
C 	C 	0.52720 0.75350 0.48160 -0.07700
H 	H 	0.56580 0.75230 0.48350 0.09300
C 	C 	0.67610 0.73500 0.81810 0.29300
C 	C 	0.34930 0.75410 0.47250 0.38800
C 	C 	0.52330 0.76430 0.38230 0.42800
C 	C 	0.58590 0.74460 0.59430 0.22800
C 	C 	0.76940 0.51850 0.92800 0.08900
H 	H 	0.80390 0.54740 0.92710 -0.00800
C 	C 	0.76600 0.41690 0.92890 -0.15300
H 	H 	0.79820 0.38080 0.92840 0.11100
C 	C 	0.71700 0.37200 0.93050 0.10600
C 	C 	0.67150 0.42860 0.93270 -0.19900
H 	H 	0.63680 0.40150 0.93540 0.10300
C 	C 	0.67750 0.52530 0.93100 0.11200
H 	H 	0.64560 0.56230 0.93170 -0.01300
C 	C 	0.70210 0.27000 0.92790 0.23600
H 	H 	0.66490 0.25170 0.92280 0.26600
C 	C 	0.74320 0.20170 0.93310 0.34700
H 	H 	0.78010 0.22130 0.93870 0.21800
C 	C 	0.68160 0.94920 0.92830 0.03800
H 	H 	0.64840 0.91600 0.92910 0.00900
C 	C 	0.68210 0.05070 0.93030 -0.07100
H 	H 	0.64900 0.08370 0.93190 0.08600
C 	C 	0.73100 0.10140 0.93000 -0.00800
C 	C 	0.77900 0.04840 0.92570 -0.11200
H 	H 	0.81280 0.07930 0.92390 0.06900
C 	C 	0.77600 0.95040 0.92420 0.05600
H 	H 	0.80870 0.91600 0.92250 0.00000
N 	N 	0.53090 0.74680 0.58040 -0.24300
H 	H 	0.51080 0.74660 0.60650 0.13100
C 	C 	0.72710 0.50610 0.26680 -0.04700
H 	H 	0.72820 0.45740 0.29220 0.04800
C 	C 	0.77180 0.52060 0.24270 -0.03600
H 	H 	0.76990 0.56030 0.21280 0.03900
C 	C 	0.92270 0.44270 0.29970 -0.01100
H 	H 	0.95120 0.44680 0.32780 0.03900
C 	C 	0.87020 0.47850 0.30580 -0.06200
H 	H 	0.86350 0.50650 0.33810 0.05500
C 	C 	0.82760 0.47230 0.26370 0.03500
C 	C 	0.83750 0.43040 0.21550 -0.04200
H 	H 	0.80900 0.42630 0.18740 0.04600
C 	C 	0.89000 0.39460 0.20940 0.01200
H 	H 	0.89660 0.36660 0.17710 0.03700
N 	N 	0.93260 0.40080 0.25150 -0.06200
N 	N 	0.57770 0.67120 0.25310 -0.19300
C 	C 	0.61970 0.69960 0.22310 0.05500
H 	H 	0.61540 0.75460 0.20220 0.00500
C 	C 	0.66810 0.64560 0.22450 -0.11300
H 	H 	0.69620 0.66460 0.20440 0.08000
C 	C 	0.67460 0.56330 0.25570 0.03300
C 	C 	0.63260 0.53490 0.28570 -0.10400
H 	H 	0.63690 0.47990 0.30670 0.06800
C 	C 	0.58410 0.58890 0.28440 0.04700
H 	H 	0.55610 0.56990 0.30440 0.00100
O 	O 	0.57080 0.80400 0.38740 -0.18500
C 	C 	0.74250 0.26090 0.93430 -0.37000
H 	H 	0.77960 0.24230 0.94060 -0.17000
C 	C 	0.70210 0.21040 0.92690 -0.27900
H 	H 	0.66470 0.22740 0.92110 -0.19900
C 	C 	0.72620 0.50710 0.23790 -0.03100
H 	H 	0.72890 0.48140 0.20410 0.03800
C 	C 	0.77280 0.50000 0.27170 -0.06000
H 	H 	0.77540 0.51300 0.30820 0.04800
C 	C 	0.91360 0.44680 0.21600 0.06600
H 	H 	0.94180 0.46720 0.19650 0.00300
C 	C 	0.86380 0.49740 0.21300 -0.12000
H 	H 	0.85880 0.55180 0.19160 0.07500
C 	C 	0.82160 0.46680 0.24210 0.06800
C 	C 	0.82910 0.38560 0.27420 -0.12900
H 	H 	0.80090 0.36510 0.29360 0.08700
C 	C 	0.87880 0.33490 0.27710 0.05900
H 	H 	0.88390 0.28050 0.29860 0.00000
N 	N 	0.92110 0.36550 0.24810 -0.16200
N 	N 	0.56790 0.63580 0.25080 -0.03000
C 	C 	0.57740 0.58610 0.20470 -0.01900
H 	H 	0.54950 0.58190 0.17600 0.03500
C 	C 	0.62860 0.54270 0.20150 -0.06400
H 	H 	0.63500 0.50950 0.17070 0.05400
C 	C 	0.67040 0.54900 0.24440 0.04800
C 	C 	0.66090 0.59870 0.29040 -0.03700
H 	H 	0.68880 0.60280 0.31910 0.04500
C 	C 	0.60960 0.64200 0.29360 0.01500
H 	H 	0.60330 0.67530 0.32450 0.03400
O 	O 	0.57170 0.73200 0.38510 -0.21200
Cd	Cd	0.77004 0.23640 0.57897 1.22300
O 	O 	0.77180 0.23220 0.67180 -0.38700
O 	O 	0.17710 0.26900 0.07250 -0.43800
O 	O 	0.00600 0.26410 0.16100 -0.48700
N 	N 	0.77140 0.40160 0.57490 -0.22900
O 	O 	0.88090 0.24200 0.93820 -0.24900
O 	O 	0.85470 0.23550 0.64500 -0.35400
O 	O 	0.17270 0.23920 0.98630 -0.47800
N 	N 	0.77430 0.07170 0.57150 -0.24600
C 	C 	0.84880 0.23750 0.73950 -0.06400
C 	C 	0.90540 0.24150 0.75320 -0.02000
H 	H 	0.92880 0.24490 0.72640 0.05100
C 	C 	0.92800 0.24030 0.80660 -0.03600
H 	H 	0.96640 0.23920 0.81530 0.04300
C 	C 	0.89360 0.24070 0.84700 -0.04700
C 	C 	0.83730 0.23880 0.83230 -0.03700
H 	H 	0.81350 0.23870 0.85880 0.05000
C 	C 	0.81490 0.23700 0.77920 -0.02200
H 	H 	0.77650 0.23550 0.77050 0.04900
C 	C 	0.99850 0.24950 0.97180 0.13300
C 	C 	0.05620 0.24970 0.97500 -0.10800
H 	H 	0.07340 0.24680 0.94380 0.07400
C 	C 	0.08820 0.25430 0.02420 -0.08700
C 	C 	0.06240 0.25940 0.07080 0.05300
H 	H 	0.08390 0.26270 0.10400 0.03300
C 	C 	0.00490 0.25940 0.06790 -0.16900
C 	C 	0.97280 0.25350 0.01840 -0.01600
H 	H 	0.93420 0.25230 0.01650 0.07500
C 	C 	0.82390 0.23500 0.68190 0.29200
C 	C 	0.15070 0.25410 0.02750 0.39100
C 	C 	0.97670 0.26430 0.11770 0.51200
C 	C 	0.91410 0.24460 0.90570 0.23000
C 	C 	0.73060 0.01850 0.57200 0.09400
H 	H 	0.69610 0.04740 0.57290 -0.01000
C 	C 	0.73400 0.91690 0.57110 -0.15800
H 	H 	0.70180 0.88080 0.57160 0.11300
C 	C 	0.78300 0.87200 0.56950 0.11000
C 	C 	0.82850 0.92860 0.56730 -0.20700
H 	H 	0.86320 0.90150 0.56460 0.10800
C 	C 	0.82250 0.02530 0.56900 0.11800
H 	H 	0.85440 0.06230 0.56830 -0.01300
C 	C 	0.79790 0.77000 0.57210 0.24400
H 	H 	0.83510 0.75170 0.57720 0.27300
C 	C 	0.75680 0.70170 0.56690 0.35800
H 	H 	0.71990 0.72130 0.56130 0.22300
C 	C 	0.81840 0.44920 0.57170 0.04200
H 	H 	0.85160 0.41600 0.57090 0.01000
C 	C 	0.81790 0.55070 0.56970 -0.07400
H 	H 	0.85100 0.58370 0.56810 0.08900
C 	C 	0.76900 0.60140 0.57000 -0.00800
C 	C 	0.72100 0.54840 0.57430 -0.11600
H 	H 	0.68720 0.57930 0.57610 0.06900
C 	C 	0.72400 0.45040 0.57580 0.06100
H 	H 	0.69130 0.41600 0.57750 -0.00200
N 	N 	0.96910 0.24680 0.91960 -0.24400
H 	H 	0.98920 0.24660 0.89350 0.14000
C 	C 	0.77290 0.00610 0.23320 -0.04300
H 	H 	0.77180 0.95740 0.20780 0.04500
C 	C 	0.72820 0.02060 0.25730 -0.03700
H 	H 	0.73010 0.06030 0.28720 0.04000
C 	C 	0.57730 0.94270 0.20030 -0.00900
H 	H 	0.54880 0.94680 0.17220 0.03200
C 	C 	0.62980 0.97850 0.19420 -0.06900
H 	H 	0.63650 0.00650 0.16190 0.05800
C 	C 	0.67240 0.97230 0.23630 0.03600
C 	C 	0.66250 0.93040 0.28450 -0.04500
H 	H 	0.69100 0.92630 0.31260 0.04700
C 	C 	0.61000 0.89460 0.29060 0.02100
H 	H 	0.60340 0.86660 0.32290 0.03100
N 	N 	0.56740 0.90080 0.24850 -0.06500
N 	N 	0.92230 0.17120 0.24690 -0.18900
C 	C 	0.88030 0.19960 0.27690 0.05500
H 	H 	0.88460 0.25460 0.29780 0.00400
C 	C 	0.83190 0.14560 0.27550 -0.11300
H 	H 	0.80380 0.16460 0.29560 0.08000
C 	C 	0.82540 0.06330 0.24430 0.03300
C 	C 	0.86740 0.03490 0.21430 -0.10000
H 	H 	0.86310 0.97990 0.19330 0.06700
C 	C 	0.91590 0.08890 0.21560 0.05100
H 	H 	0.94390 0.06990 0.19560 0.00700
O 	O 	0.92920 0.30400 0.11260 -0.19400
C 	C 	0.75750 0.76090 0.56570 -0.38100
H 	H 	0.72040 0.74230 0.55940 -0.17600
C 	C 	0.79790 0.71040 0.57310 -0.28700
H 	H 	0.83530 0.72740 0.57890 -0.20500
C 	C 	0.77380 0.00710 0.26210 -0.03000
H 	H 	0.77110 0.98140 0.29590 0.03600
C 	C 	0.72720 0.00000 0.22830 -0.06100
H 	H 	0.72460 0.01300 0.19180 0.04900
C 	C 	0.58640 0.94680 0.28400 0.06100
H 	H 	0.55820 0.96720 0.30350 -0.00300
C 	C 	0.63620 0.99740 0.28700 -0.12400
H 	H 	0.64120 0.05180 0.30840 0.07600
C 	C 	0.67840 0.96680 0.25790 0.06900
C 	C 	0.67090 0.88560 0.22580 -0.12800
H 	H 	0.69910 0.86510 0.20640 0.08700
C 	C 	0.62120 0.83490 0.22290 0.05700
H 	H 	0.61610 0.78050 0.20140 0.00000
N 	N 	0.57890 0.86550 0.25190 -0.16400
N 	N 	0.93210 0.13580 0.24920 -0.03000
C 	C 	0.92260 0.08610 0.29530 -0.01900
H 	H 	0.95050 0.08190 0.32400 0.04100
C 	C 	0.87140 0.04270 0.29850 -0.06200
H 	H 	0.86500 0.00950 0.32930 0.05500
C 	C 	0.82960 0.04900 0.25560 0.04600
C 	C 	0.83910 0.09870 0.20960 -0.03500
H 	H 	0.81120 0.10280 0.18090 0.04500
C 	C 	0.89040 0.14200 0.20640 0.00700
H 	H 	0.89670 0.17530 0.17550 0.04000
O 	O 	0.92830 0.23200 0.11490 -0.22300
Cd	Cd	0.27004 0.73640 0.57897 1.22300
O 	O 	0.27180 0.73220 0.67180 -0.38700
O 	O 	0.67710 0.76900 0.07250 -0.43700
O 	O 	0.50600 0.76410 0.16100 -0.44600
N 	N 	0.27140 0.90160 0.57490 -0.22800
O 	O 	0.38090 0.74200 0.93820 -0.25000
O 	O 	0.35470 0.73550 0.64500 -0.35700
O 	O 	0.67270 0.73920 0.98630 -0.47700
N 	N 	0.27430 0.57170 0.57150 -0.24500
C 	C 	0.34880 0.73750 0.73950 -0.06600
C 	C 	0.40540 0.74150 0.75320 -0.02000
H 	H 	0.42880 0.74490 0.72640 0.04500
C 	C 	0.42800 0.74030 0.80660 -0.03800
H 	H 	0.46640 0.73920 0.81530 0.03600
C 	C 	0.39360 0.74070 0.84700 -0.04800
C 	C 	0.33730 0.73880 0.83230 -0.03800
H 	H 	0.31350 0.73870 0.85880 0.05000
C 	C 	0.31490 0.73700 0.77920 -0.02200
H 	H 	0.27650 0.73550 0.77050 0.04900
C 	C 	0.49850 0.74950 0.97180 0.12200
C 	C 	0.55620 0.74970 0.97500 -0.08500
H 	H 	0.57340 0.74680 0.94380 0.07100
C 	C 	0.58820 0.75430 0.02420 -0.07600
C 	C 	0.56240 0.75940 0.07080 0.01700
H 	H 	0.58390 0.76270 0.10400 0.04700
C 	C 	0.50490 0.75940 0.06790 -0.08500
C 	C 	0.47280 0.75350 0.01840 -0.07800
H 	H 	0.43420 0.75230 0.01650 0.09300
C 	C 	0.32390 0.73500 0.68190 0.29300
C 	C 	0.65070 0.75410 0.02750 0.38800
C 	C 	0.47670 0.76430 0.11770 0.42800
C 	C 	0.41410 0.74460 0.90570 0.22800
C 	C 	0.23060 0.51850 0.57200 0.08900
H 	H 	0.19610 0.54740 0.57290 -0.00900
C 	C 	0.23400 0.41690 0.57110 -0.15300
H 	H 	0.20180 0.38080 0.57160 0.11000
C 	C 	0.28300 0.37200 0.56950 0.10600
C 	C 	0.32850 0.42860 0.56730 -0.19900
H 	H 	0.36320 0.40150 0.56460 0.10300
C 	C 	0.32250 0.52530 0.56900 0.11200
H 	H 	0.35440 0.56230 0.56830 -0.01300
C 	C 	0.29790 0.27000 0.57210 0.23600
H 	H 	0.33510 0.25170 0.57720 0.26500
C 	C 	0.25680 0.20170 0.56690 0.34600
H 	H 	0.21990 0.22130 0.56130 0.21700
C 	C 	0.31840 0.94920 0.57170 0.03800
H 	H 	0.35160 0.91600 0.57090 0.00900
C 	C 	0.31790 0.05070 0.56970 -0.07000
H 	H 	0.35100 0.08370 0.56810 0.08600
C 	C 	0.26900 0.10140 0.57000 -0.00800
C 	C 	0.22100 0.04840 0.57430 -0.11100
H 	H 	0.18720 0.07930 0.57610 0.06700
C 	C 	0.22400 0.95040 0.57580 0.05600
H 	H 	0.19130 0.91600 0.57750 -0.00100
N 	N 	0.46910 0.74680 0.91960 -0.24300
H 	H 	0.48920 0.74660 0.89350 0.13100
C 	C 	0.27290 0.50610 0.23320 -0.04600
H 	H 	0.27180 0.45740 0.20780 0.04700
C 	C 	0.22820 0.52060 0.25730 -0.03900
H 	H 	0.23010 0.56030 0.28720 0.04000
C 	C 	0.07730 0.44270 0.20030 -0.00800
H 	H 	0.04880 0.44680 0.17220 0.02700
C 	C 	0.12980 0.47850 0.19420 -0.06800
H 	H 	0.13650 0.50650 0.16190 0.05500
C 	C 	0.17240 0.47230 0.23630 0.04000
C 	C 	0.16250 0.43040 0.28450 -0.05000
H 	H 	0.19100 0.42630 0.31260 0.04900
C 	C 	0.11000 0.39460 0.29060 0.02100
H 	H 	0.10340 0.36660 0.32290 0.02800
N 	N 	0.06740 0.40080 0.24850 -0.07100
N 	N 	0.42230 0.67120 0.24690 -0.19300
C 	C 	0.38030 0.69960 0.27690 0.05500
H 	H 	0.38460 0.75460 0.29780 0.00500
C 	C 	0.33190 0.64560 0.27550 -0.11300
H 	H 	0.30380 0.66460 0.29560 0.08000
C 	C 	0.32540 0.56330 0.24430 0.03300
C 	C 	0.36740 0.53490 0.21430 -0.10400
H 	H 	0.36310 0.47990 0.19330 0.06800
C 	C 	0.41590 0.58890 0.21560 0.04700
H 	H 	0.44390 0.56990 0.19560 0.00100
O 	O 	0.42920 0.80400 0.11260 -0.18500
C 	C 	0.25750 0.26090 0.56570 -0.37000
H 	H 	0.22040 0.24230 0.55940 -0.17000
C 	C 	0.29790 0.21040 0.57310 -0.27800
H 	H 	0.33530 0.22740 0.57890 -0.19900
C 	C 	0.27380 0.50710 0.26210 -0.03100
H 	H 	0.27110 0.48140 0.29590 0.03800
C 	C 	0.22720 0.50000 0.22830 -0.05900
H 	H 	0.22460 0.51300 0.19180 0.04700
C 	C 	0.08640 0.44680 0.28400 0.06100
H 	H 	0.05820 0.46720 0.30350 -0.00900
C 	C 	0.13620 0.49740 0.28700 -0.11800
H 	H 	0.14120 0.55180 0.30840 0.07200
C 	C 	0.17840 0.46680 0.25790 0.06700
C 	C 	0.17090 0.38560 0.22580 -0.12700
H 	H 	0.19910 0.36510 0.20640 0.08700
C 	C 	0.12120 0.33490 0.22290 0.05500
H 	H 	0.11610 0.28050 0.20140 0.00100
N 	N 	0.07890 0.36550 0.25190 -0.16100
N 	N 	0.43210 0.63580 0.24920 -0.03000
C 	C 	0.42260 0.58610 0.29530 -0.01900
H 	H 	0.45050 0.58190 0.32400 0.03500
C 	C 	0.37140 0.54270 0.29850 -0.06400
H 	H 	0.36500 0.50950 0.32930 0.05400
C 	C 	0.32960 0.54900 0.25560 0.04800
C 	C 	0.33910 0.59870 0.20960 -0.03600
H 	H 	0.31120 0.60280 0.18090 0.04500
C 	C 	0.39040 0.64200 0.20640 0.01500
H 	H 	0.39670 0.67530 0.17550 0.03400
O 	O 	0.42830 0.73200 0.11490 -0.21200
Cd	Cd	0.77004 0.76360 0.07897 1.22300
O 	O 	0.77180 0.76780 0.17180 -0.38700
O 	O 	0.17710 0.73100 0.57250 -0.43800
O 	O 	0.00600 0.73590 0.66100 -0.48800
N 	N 	0.77140 0.59840 0.07490 -0.22900
O 	O 	0.88090 0.75800 0.43820 -0.24900
O 	O 	0.85470 0.76450 0.14500 -0.35400
O 	O 	0.17270 0.76080 0.48630 -0.47900
N 	N 	0.77430 0.92830 0.07150 -0.24200
C 	C 	0.84880 0.76250 0.23950 -0.06400
C 	C 	0.90540 0.75850 0.25320 -0.02000
H 	H 	0.92880 0.75510 0.22640 0.05100
C 	C 	0.92800 0.75970 0.30660 -0.03700
H 	H 	0.96640 0.76080 0.31530 0.04200
C 	C 	0.89360 0.75930 0.34700 -0.04700
C 	C 	0.83730 0.76120 0.33230 -0.03800
H 	H 	0.81350 0.76130 0.35880 0.05000
C 	C 	0.81490 0.76300 0.27920 -0.02200
H 	H 	0.77650 0.76450 0.27050 0.04900
C 	C 	0.99850 0.75050 0.47180 0.13300
C 	C 	0.05620 0.75030 0.47500 -0.10800
H 	H 	0.07340 0.75320 0.44380 0.07300
C 	C 	0.08820 0.74570 0.52420 -0.08700
C 	C 	0.06240 0.74060 0.57080 0.05400
H 	H 	0.08390 0.73730 0.60400 0.03300
C 	C 	0.00490 0.74060 0.56790 -0.17100
C 	C 	0.97280 0.74650 0.51840 -0.01500
H 	H 	0.93420 0.74770 0.51650 0.07400
C 	C 	0.82390 0.76500 0.18190 0.29200
C 	C 	0.15070 0.74590 0.52750 0.39100
C 	C 	0.97670 0.73570 0.61770 0.51200
C 	C 	0.91410 0.75540 0.40570 0.23000
C 	C 	0.73060 0.98150 0.07200 0.08200
H 	H 	0.69610 0.95260 0.07290 -0.00700
C 	C 	0.73400 0.08310 0.07110 -0.14400
H 	H 	0.70180 0.11920 0.07160 0.10800
C 	C 	0.78300 0.12800 0.06950 0.09900
C 	C 	0.82850 0.07140 0.06730 -0.19100
H 	H 	0.86320 0.09850 0.06460 0.10300
C 	C 	0.82250 0.97470 0.06900 0.10500
H 	H 	0.85440 0.93770 0.06830 -0.00900
C 	C 	0.79790 0.23000 0.07210 0.24300
H 	H 	0.83510 0.24830 0.07720 0.27100
C 	C 	0.75680 0.29830 0.06690 0.34900
H 	H 	0.71990 0.27870 0.06130 0.21900
C 	C 	0.81840 0.55080 0.07170 0.04400
H 	H 	0.85160 0.58400 0.07090 0.00900
C 	C 	0.81790 0.44930 0.06970 -0.07600
H 	H 	0.85100 0.41630 0.06810 0.09000
C 	C 	0.76900 0.39860 0.07000 -0.00400
C 	C 	0.72100 0.45160 0.07430 -0.11800
H 	H 	0.68720 0.42070 0.07610 0.07000
C 	C 	0.72400 0.54960 0.07580 0.06200
H 	H 	0.69130 0.58400 0.07750 -0.00200
N 	N 	0.96910 0.75320 0.41960 -0.24400
H 	H 	0.98920 0.75340 0.39350 0.14000
C 	C 	0.77290 0.99390 0.73320 -0.05900
H 	H 	0.77180 0.04260 0.70780 0.05400
C 	C 	0.72820 0.97940 0.75730 -0.01500
H 	H 	0.73010 0.93970 0.78720 0.03100
C 	C 	0.57730 0.05730 0.70030 -0.01200
H 	H 	0.54880 0.05320 0.67220 0.03400
C 	C 	0.62980 0.02150 0.69420 -0.05800
H 	H 	0.63650 0.99350 0.66190 0.05100
C 	C 	0.67240 0.02770 0.73630 0.03400
C 	C 	0.66250 0.06960 0.78450 -0.04800
H 	H 	0.69100 0.07370 0.81260 0.04800
C 	C 	0.61000 0.10540 0.79060 0.01200
H 	H 	0.60340 0.13340 0.82290 0.03400
N 	N 	0.56740 0.09920 0.74850 -0.06900
N 	N 	0.92230 0.82880 0.74690 -0.19700
C 	C 	0.88030 0.80040 0.77690 0.05700
H 	H 	0.88460 0.74540 0.79780 0.00400
C 	C 	0.83190 0.85440 0.77550 -0.11700
H 	H 	0.80380 0.83540 0.79560 0.08100
C 	C 	0.82540 0.93670 0.74430 0.03400
C 	C 	0.86740 0.96510 0.71430 -0.11100
H 	H 	0.86310 0.02010 0.69330 0.07300
C 	C 	0.91590 0.91110 0.71560 0.04500
H 	H 	0.94390 0.93010 0.69560 0.00900
O 	O 	0.92920 0.69600 0.61260 -0.19400
C 	C 	0.75750 0.23910 0.06570 -0.37300
H 	H 	0.72040 0.25770 0.05940 -0.17200
C 	C 	0.79790 0.28960 0.07310 -0.28400
H 	H 	0.83530 0.27260 0.07890 -0.20400
C 	C 	0.77380 0.99290 0.76210 -0.02700
H 	H 	0.77110 0.01860 0.79590 0.03700
C 	C 	0.72720 0.00000 0.72830 -0.07600
H 	H 	0.72460 0.98700 0.69180 0.05200
C 	C 	0.58640 0.05320 0.78400 0.06700
H 	H 	0.55820 0.03280 0.80350 -0.00400
C 	C 	0.63620 0.00260 0.78700 -0.11400
H 	H 	0.64120 0.94820 0.80840 0.07000
C 	C 	0.67840 0.03320 0.75790 0.06900
C 	C 	0.67090 0.11440 0.72580 -0.12600
H 	H 	0.69910 0.13490 0.70640 0.08600
C 	C 	0.62120 0.16510 0.72290 0.05600
H 	H 	0.61610 0.21950 0.70140 -0.00000
N 	N 	0.57890 0.13450 0.75190 -0.15900
N 	N 	0.93210 0.86420 0.74920 -0.02200
C 	C 	0.92260 0.91390 0.79530 -0.02100
H 	H 	0.95050 0.91810 0.82400 0.04100
C 	C 	0.87140 0.95730 0.79850 -0.06300
H 	H 	0.86500 0.99050 0.82930 0.05300
C 	C 	0.82960 0.95100 0.75560 0.04900
C 	C 	0.83910 0.90130 0.70960 -0.03100
H 	H 	0.81120 0.89720 0.68090 0.04300
C 	C 	0.89040 0.85800 0.70640 0.01500
H 	H 	0.89670 0.82470 0.67550 0.03800
O 	O 	0.92830 0.76800 0.61490 -0.22400
Cd	Cd	0.27004 0.26360 0.07897 1.22300
O 	O 	0.27180 0.26780 0.17180 -0.38700
O 	O 	0.67710 0.23100 0.57250 -0.43700
O 	O 	0.50600 0.23590 0.66100 -0.44600
N 	N 	0.27140 0.09840 0.07490 -0.23100
O 	O 	0.38090 0.25800 0.43820 -0.25000
O 	O 	0.35470 0.26450 0.14500 -0.35700
O 	O 	0.67270 0.26080 0.48630 -0.47700
N 	N 	0.27430 0.42830 0.07150 -0.24400
C 	C 	0.34880 0.26250 0.23950 -0.06600
C 	C 	0.40540 0.25850 0.25320 -0.02000
H 	H 	0.42880 0.25510 0.22640 0.04500
C 	C 	0.42800 0.25970 0.30660 -0.03800
H 	H 	0.46640 0.26080 0.31530 0.03600
C 	C 	0.39360 0.25930 0.34700 -0.04800
C 	C 	0.33730 0.26120 0.33230 -0.03800
H 	H 	0.31350 0.26130 0.35880 0.05000
C 	C 	0.31490 0.26300 0.27920 -0.02200
H 	H 	0.27650 0.26450 0.27050 0.04900
C 	C 	0.49850 0.25050 0.47180 0.12200
C 	C 	0.55620 0.25030 0.47500 -0.08500
H 	H 	0.57340 0.25320 0.44380 0.07200
C 	C 	0.58820 0.24570 0.52420 -0.07600
C 	C 	0.56240 0.24060 0.57080 0.01700
H 	H 	0.58390 0.23730 0.60400 0.04700
C 	C 	0.50490 0.24060 0.56790 -0.08500
C 	C 	0.47280 0.24650 0.51840 -0.07700
H 	H 	0.43420 0.24770 0.51650 0.09300
C 	C 	0.32390 0.26500 0.18190 0.29200
C 	C 	0.65070 0.24590 0.52750 0.38800
C 	C 	0.47670 0.23570 0.61770 0.42800
C 	C 	0.41410 0.25540 0.40570 0.22800
C 	C 	0.23060 0.48150 0.07200 0.08700
H 	H 	0.19610 0.45260 0.07290 -0.00800
C 	C 	0.23400 0.58310 0.07110 -0.15000
H 	H 	0.20180 0.61920 0.07160 0.11000
C 	C 	0.28300 0.62800 0.06950 0.10200
C 	C 	0.32850 0.57140 0.06730 -0.19700
H 	H 	0.36320 0.59850 0.06460 0.10200
C 	C 	0.32250 0.47470 0.06900 0.11100
H 	H 	0.35440 0.43770 0.06830 -0.01300
C 	C 	0.29790 0.73000 0.07210 0.24900
H 	H 	0.33510 0.74830 0.07720 0.27600
C 	C 	0.25680 0.79830 0.06690 0.35800
H 	H 	0.21990 0.77870 0.06130 0.22400
C 	C 	0.31840 0.05080 0.07170 0.04800
H 	H 	0.35160 0.08400 0.07090 0.00600
C 	C 	0.31790 0.94930 0.06970 -0.08000
H 	H 	0.35100 0.91630 0.06810 0.08900
C 	C 	0.26900 0.89860 0.07000 -0.00400
C 	C 	0.22100 0.95160 0.07430 -0.12300
H 	H 	0.18720 0.92070 0.07610 0.07000
C 	C 	0.22400 0.04960 0.07580 0.06700
H 	H 	0.19130 0.08400 0.07750 -0.00400
N 	N 	0.46910 0.25320 0.41960 -0.24300
H 	H 	0.48920 0.25340 0.39350 0.13100
C 	C 	0.27290 0.49390 0.73320 -0.04600
H 	H 	0.27180 0.54260 0.70780 0.04700
C 	C 	0.22820 0.47940 0.75730 -0.03900
H 	H 	0.23010 0.43970 0.78720 0.04000
C 	C 	0.07730 0.55730 0.70030 -0.00800
H 	H 	0.04880 0.55320 0.67220 0.02700
C 	C 	0.12980 0.52150 0.69420 -0.06700
H 	H 	0.13650 0.49350 0.66190 0.05500
C 	C 	0.17240 0.52770 0.73630 0.04000
C 	C 	0.16250 0.56960 0.78450 -0.05000
H 	H 	0.19100 0.57370 0.81260 0.04900
C 	C 	0.11000 0.60540 0.79060 0.02100
H 	H 	0.10340 0.63340 0.82290 0.02900
N 	N 	0.06740 0.59920 0.74850 -0.07100
N 	N 	0.42230 0.32880 0.74690 -0.19300
C 	C 	0.38030 0.30040 0.77690 0.05400
H 	H 	0.38460 0.24540 0.79780 0.00500
C 	C 	0.33190 0.35440 0.77550 -0.11300
H 	H 	0.30380 0.33540 0.79560 0.08000
C 	C 	0.32540 0.43670 0.74430 0.03300
C 	C 	0.36740 0.46510 0.71430 -0.10400
H 	H 	0.36310 0.52010 0.69330 0.06800
C 	C 	0.41590 0.41110 0.71560 0.04700
H 	H 	0.44390 0.43010 0.69560 0.00100
O 	O 	0.42920 0.19600 0.61260 -0.18500
C 	C 	0.25750 0.73910 0.06570 -0.38200
H 	H 	0.22040 0.75770 0.05940 -0.17700
C 	C 	0.29790 0.78960 0.07310 -0.29000
H 	H 	0.33530 0.77260 0.07890 -0.21000
C 	C 	0.27380 0.49290 0.76210 -0.03100
H 	H 	0.27110 0.51860 0.79590 0.03800
C 	C 	0.22720 0.50000 0.72830 -0.06000
H 	H 	0.22460 0.48700 0.69180 0.04700
C 	C 	0.08640 0.55320 0.78400 0.06100
H 	H 	0.05820 0.53280 0.80350 -0.00900
C 	C 	0.13620 0.50260 0.78700 -0.11800
H 	H 	0.14120 0.44820 0.80840 0.07200
C 	C 	0.17840 0.53320 0.75790 0.06700
C 	C 	0.17090 0.61440 0.72580 -0.12800
H 	H 	0.19910 0.63490 0.70640 0.08700
C 	C 	0.12120 0.66510 0.72290 0.05700
H 	H 	0.11610 0.71950 0.70140 0.00000
N 	N 	0.07890 0.63450 0.75190 -0.16100
N 	N 	0.43210 0.36420 0.74920 -0.03000
C 	C 	0.42260 0.41390 0.79530 -0.01900
H 	H 	0.45050 0.41810 0.82400 0.03500
C 	C 	0.37140 0.45730 0.79850 -0.06400
H 	H 	0.36500 0.49050 0.82930 0.05400
C 	C 	0.32960 0.45100 0.75560 0.04800
C 	C 	0.33910 0.40130 0.70960 -0.03600
H 	H 	0.31120 0.39720 0.68090 0.04500
C 	C 	0.39040 0.35800 0.70640 0.01500
H 	H 	0.39670 0.32470 0.67550 0.03400
O 	O 	0.42830 0.26800 0.61490 -0.21200
Cd	Cd	0.22996 0.76360 0.42103 1.22300
O 	O 	0.22820 0.76780 0.32820 -0.38700
O 	O 	0.82290 0.73100 0.92750 -0.43600
O 	O 	0.99400 0.73590 0.83900 -0.40100
N 	N 	0.22860 0.59840 0.42510 -0.23000
O 	O 	0.11910 0.75800 0.06180 -0.25100
O 	O 	0.14530 0.76450 0.35500 -0.36000
O 	O 	0.82730 0.76080 0.01370 -0.47600
N 	N 	0.22570 0.92830 0.42850 -0.24200
C 	C 	0.15120 0.76250 0.26050 -0.06800
C 	C 	0.09460 0.75850 0.24680 -0.02000
H 	H 	0.07120 0.75510 0.27360 0.04000
C 	C 	0.07200 0.75970 0.19340 -0.03900
H 	H 	0.03360 0.76080 0.18470 0.03000
C 	C 	0.10640 0.75930 0.15300 -0.04900
C 	C 	0.16270 0.76120 0.16770 -0.03900
H 	H 	0.18650 0.76130 0.14120 0.05000
C 	C 	0.18510 0.76300 0.22080 -0.02100
H 	H 	0.22350 0.76450 0.22950 0.04900
C 	C 	0.00150 0.75050 0.02820 0.11200
C 	C 	0.94380 0.75030 0.02500 -0.06400
H 	H 	0.92660 0.75320 0.05620 0.07000
C 	C 	0.91180 0.74570 0.97580 -0.06400
C 	C 	0.93760 0.74060 0.92920 -0.02000
H 	H 	0.91610 0.73730 0.89600 0.06100
C 	C 	0.99510 0.74060 0.93210 0.00200
C 	C 	0.02720 0.74650 0.98160 -0.14000
H 	H 	0.06580 0.74770 0.98350 0.11200
C 	C 	0.17610 0.76500 0.31810 0.29300
C 	C 	0.84930 0.74590 0.97250 0.38500
C 	C 	0.02330 0.73570 0.88230 0.34300
C 	C 	0.08590 0.75540 0.09430 0.22500
C 	C 	0.26940 0.98150 0.42800 0.08200
H 	H 	0.30390 0.95260 0.42710 -0.00700
C 	C 	0.26600 0.08310 0.42890 -0.14400
H 	H 	0.29820 0.11920 0.42840 0.10800
C 	C 	0.21700 0.12800 0.43050 0.09800
C 	C 	0.17150 0.07140 0.43270 -0.19000
H 	H 	0.13680 0.09850 0.43540 0.09800
C 	C 	0.17750 0.97470 0.43100 0.10500
H 	H 	0.14560 0.93770 0.43170 -0.01300
C 	C 	0.20210 0.23000 0.42790 0.24200
H 	H 	0.16490 0.24830 0.42280 0.26800
C 	C 	0.24320 0.29830 0.43310 0.34600
H 	H 	0.28010 0.27870 0.43870 0.21800
C 	C 	0.18160 0.55080 0.42830 0.04300
H 	H 	0.14840 0.58400 0.42910 0.00600
C 	C 	0.18210 0.44930 0.43030 -0.07700
H 	H 	0.14900 0.41630 0.43190 0.08600
C 	C 	0.23100 0.39860 0.43000 -0.00400
C 	C 	0.27900 0.45160 0.42570 -0.11800
H 	H 	0.31280 0.42070 0.42390 0.07000
C 	C 	0.27600 0.54960 0.42420 0.06200
H 	H 	0.30870 0.58400 0.42250 -0.00200
N 	N 	0.03090 0.75320 0.08040 -0.24200
H 	H 	0.01080 0.75340 0.10650 0.12300
C 	C 	0.22710 0.99390 0.76680 -0.06000
H 	H 	0.22820 0.04260 0.79220 0.05500
C 	C 	0.27180 0.97940 0.74270 -0.01400
H 	H 	0.26990 0.93970 0.71280 0.03100
C 	C 	0.42270 0.05730 0.79970 -0.01200
H 	H 	0.45120 0.05320 0.82780 0.03400
C 	C 	0.37020 0.02150 0.80580 -0.05800
H 	H 	0.36350 0.99350 0.83810 0.05100
C 	C 	0.32760 0.02770 0.76370 0.03300
C 	C 	0.33750 0.06960 0.71550 -0.04800
H 	H 	0.30900 0.07370 0.68740 0.04800
C 	C 	0.39000 0.10540 0.70940 0.01200
H 	H 	0.39660 0.13340 0.67710 0.03400
N 	N 	0.43260 0.09920 0.75150 -0.06900
N 	N 	0.07770 0.82880 0.75310 -0.19600
C 	C 	0.11970 0.80040 0.72310 0.05400
H 	H 	0.11540 0.74540 0.70220 0.00600
C 	C 	0.16810 0.85440 0.72450 -0.11400
H 	H 	0.19620 0.83540 0.70440 0.08000
C 	C 	0.17460 0.93670 0.75570 0.03400
C 	C 	0.13260 0.96510 0.78570 -0.10800
H 	H 	0.13690 0.02010 0.80670 0.07000
C 	C 	0.08410 0.91110 0.78440 0.04100
H 	H 	0.05610 0.93010 0.80440 -0.00400
O 	O 	0.07080 0.69600 0.88740 -0.17600
C 	C 	0.24250 0.23910 0.43430 -0.37100
H 	H 	0.27960 0.25770 0.44060 -0.17000
C 	C 	0.20210 0.28960 0.42690 -0.28200
H 	H 	0.16470 0.27260 0.42110 -0.20400
C 	C 	0.22620 0.99290 0.73790 -0.02700
H 	H 	0.22890 0.01860 0.70410 0.03700
C 	C 	0.27280 0.00000 0.77170 -0.07600
H 	H 	0.27540 0.98700 0.80820 0.05200
C 	C 	0.41360 0.05320 0.71600 0.06700
H 	H 	0.44180 0.03280 0.69650 -0.00400
C 	C 	0.36380 0.00260 0.71300 -0.11400
H 	H 	0.35880 0.94820 0.69160 0.07000
C 	C 	0.32160 0.03320 0.74210 0.06900
C 	C 	0.32910 0.11440 0.77420 -0.12500
H 	H 	0.30090 0.13490 0.79360 0.08600
C 	C 	0.37880 0.16510 0.77710 0.05600
H 	H 	0.38390 0.21950 0.79860 -0.00000
N 	N 	0.42110 0.13450 0.74810 -0.15900
N 	N 	0.06790 0.86420 0.75080 -0.03100
C 	C 	0.07740 0.91390 0.70470 -0.01800
H 	H 	0.04950 0.91810 0.67600 0.03000
C 	C 	0.12860 0.95730 0.70150 -0.06800
H 	H 	0.13500 0.99050 0.67070 0.05300
C 	C 	0.17040 0.95100 0.74440 0.05100
C 	C 	0.16090 0.90130 0.79040 -0.03900
H 	H 	0.18880 0.89720 0.81910 0.04500
C 	C 	0.10960 0.85800 0.79360 0.02300
H 	H 	0.10330 0.82470 0.82450 0.02900
O 	O 	0.07170 0.76800 0.88510 -0.20000
Cd	Cd	0.72996 0.26360 0.42103 1.22300
O 	O 	0.72820 0.26780 0.32820 -0.38700
O 	O 	0.32290 0.23100 0.92750 -0.43700
O 	O 	0.49400 0.23590 0.83900 -0.44600
N 	N 	0.72860 0.09840 0.42510 -0.23100
O 	O 	0.61910 0.25800 0.06180 -0.25000
O 	O 	0.64530 0.26450 0.35500 -0.35700
O 	O 	0.32730 0.26080 0.01370 -0.47700
N 	N 	0.72570 0.42830 0.42850 -0.24400
C 	C 	0.65120 0.26250 0.26050 -0.06600
C 	C 	0.59460 0.25850 0.24680 -0.02000
H 	H 	0.57120 0.25510 0.27360 0.04500
C 	C 	0.57200 0.25970 0.19340 -0.03800
H 	H 	0.53360 0.26080 0.18470 0.03600
C 	C 	0.60640 0.25930 0.15300 -0.04800
C 	C 	0.66270 0.26120 0.16770 -0.03800
H 	H 	0.68650 0.26130 0.14120 0.05000
C 	C 	0.68510 0.26300 0.22080 -0.02200
H 	H 	0.72350 0.26450 0.22950 0.04900
C 	C 	0.50150 0.25050 0.02820 0.12200
C 	C 	0.44380 0.25030 0.02500 -0.08500
H 	H 	0.42660 0.25320 0.05620 0.07200
C 	C 	0.41180 0.24570 0.97580 -0.07600
C 	C 	0.43760 0.24060 0.92920 0.01700
H 	H 	0.41610 0.23730 0.89600 0.04700
C 	C 	0.49510 0.24060 0.93210 -0.08500
C 	C 	0.52720 0.24650 0.98160 -0.07700
H 	H 	0.56580 0.24770 0.98350 0.09300
C 	C 	0.67610 0.26500 0.31810 0.29200
C 	C 	0.34930 0.24590 0.97250 0.38800
C 	C 	0.52330 0.23570 0.88230 0.42800
C 	C 	0.58590 0.25540 0.09430 0.22800
C 	C 	0.76940 0.48150 0.42800 0.08700
H 	H 	0.80390 0.45260 0.42710 -0.00700
C 	C 	0.76600 0.58310 0.42890 -0.14900
H 	H 	0.79820 0.61920 0.42840 0.11100
C 	C 	0.71700 0.62800 0.43050 0.10200
C 	C 	0.67150 0.57140 0.43270 -0.19700
H 	H 	0.63680 0.59850 0.43540 0.10200
C 	C 	0.67750 0.47470 0.43100 0.11100
H 	H 	0.64560 0.43770 0.43170 -0.01300
C 	C 	0.70210 0.73000 0.42790 0.25000
H 	H 	0.66490 0.74830 0.42280 0.27600
C 	C 	0.74320 0.79830 0.43310 0.35800
H 	H 	0.78010 0.77870 0.43870 0.22400
C 	C 	0.68160 0.05080 0.42830 0.04700
H 	H 	0.64840 0.08400 0.42910 0.00700
C 	C 	0.68210 0.94930 0.43030 -0.08000
H 	H 	0.64900 0.91630 0.43190 0.08900
C 	C 	0.73100 0.89860 0.43000 -0.00400
C 	C 	0.77900 0.95160 0.42570 -0.12300
H 	H 	0.81280 0.92070 0.42390 0.07100
C 	C 	0.77600 0.04960 0.42420 0.06700
H 	H 	0.80870 0.08400 0.42250 -0.00300
N 	N 	0.53090 0.25320 0.08040 -0.24300
H 	H 	0.51080 0.25340 0.10650 0.13100
C 	C 	0.72710 0.49390 0.76680 -0.04700
H 	H 	0.72820 0.54260 0.79220 0.04800
C 	C 	0.77180 0.47940 0.74270 -0.03600
H 	H 	0.76990 0.43970 0.71280 0.03900
C 	C 	0.92270 0.55730 0.79970 -0.01200
H 	H 	0.95120 0.55320 0.82780 0.03900
C 	C 	0.87020 0.52150 0.80580 -0.06200
H 	H 	0.86350 0.49350 0.83810 0.05500
C 	C 	0.82760 0.52770 0.76370 0.03500
C 	C 	0.83750 0.56960 0.71550 -0.04200
H 	H 	0.80900 0.57370 0.68740 0.04600
C 	C 	0.89000 0.60540 0.70940 0.01200
H 	H 	0.89660 0.63340 0.67710 0.03700
N 	N 	0.93260 0.59920 0.75150 -0.06200
N 	N 	0.57770 0.32880 0.75310 -0.19300
C 	C 	0.61970 0.30040 0.72310 0.05400
H 	H 	0.61540 0.24540 0.70220 0.00500
C 	C 	0.66810 0.35440 0.72450 -0.11300
H 	H 	0.69620 0.33540 0.70440 0.08000
C 	C 	0.67460 0.43670 0.75570 0.03300
C 	C 	0.63260 0.46510 0.78570 -0.10400
H 	H 	0.63690 0.52010 0.80670 0.06800
C 	C 	0.58410 0.41110 0.78440 0.04700
H 	H 	0.55610 0.43010 0.80440 0.00100
O 	O 	0.57080 0.19600 0.88740 -0.18500
C 	C 	0.74250 0.73910 0.43430 -0.38300
H 	H 	0.77960 0.75770 0.44060 -0.17700
C 	C 	0.70210 0.78960 0.42690 -0.29000
H 	H 	0.66470 0.77260 0.42110 -0.21000
C 	C 	0.72620 0.49290 0.73790 -0.03100
H 	H 	0.72890 0.51860 0.70410 0.03800
C 	C 	0.77280 0.50000 0.77170 -0.06000
H 	H 	0.77540 0.48700 0.80820 0.04800
C 	C 	0.91360 0.55320 0.71600 0.06600
H 	H 	0.94180 0.53280 0.69650 0.00300
C 	C 	0.86380 0.50260 0.71300 -0.12000
H 	H 	0.85880 0.44820 0.69160 0.07500
C 	C 	0.82160 0.53320 0.74210 0.06900
C 	C 	0.82910 0.61440 0.77420 -0.13000
H 	H 	0.80090 0.63490 0.79360 0.08700
C 	C 	0.87880 0.66510 0.77710 0.06000
H 	H 	0.88390 0.71950 0.79860 -0.00100
N 	N 	0.92110 0.63450 0.74810 -0.16200
N 	N 	0.56790 0.36420 0.75080 -0.03000
C 	C 	0.57740 0.41390 0.70470 -0.01900
H 	H 	0.54950 0.41810 0.67600 0.03500
C 	C 	0.62860 0.45730 0.70150 -0.06500
H 	H 	0.63500 0.49050 0.67070 0.05400
C 	C 	0.67040 0.45100 0.74440 0.04800
C 	C 	0.66090 0.40130 0.79040 -0.03700
H 	H 	0.68880 0.39720 0.81910 0.04500
C 	C 	0.60960 0.35800 0.79360 0.01500
H 	H 	0.60330 0.32470 0.82450 0.03400
O 	O 	0.57170 0.26800 0.88510 -0.21200
Cd	Cd	0.00000 0.26758 0.25000 1.21200
Cd	Cd	0.50000 0.76758 0.25000 1.22000
Cd	Cd	-0.00000 0.73242 0.75000 1.21200
Cd	Cd	0.50000 0.23242 0.75000 1.22000
