data_crystal

_cell_length_a 11.42690
_cell_length_b 11.42690
_cell_length_c 18.87310
_cell_angle_alpha 94.75840
_cell_angle_beta  94.75840
_cell_angle_gamma 96.72190

_symmetry_space_group_name_	'P 1'
_symmetry_space_group_name_H-M	'P 1'

loop_
_symmetry_equiv_pos_as_xyz
  x,y,z

loop_
_atom_site_label
_atom_site_type_symbol
_atom_site_fract_x
_atom_site_fract_y
_atom_site_fract_z
_atom_site_charge
Cu	Cu	0.97181 0.09550 0.47205 0.89600
Cu	Cu	0.90450 0.02819 0.02795 0.89300
Cu	Cu	0.02819 0.90450 0.52795 0.89500
Cu	Cu	0.09550 0.97181 0.97205 0.89200
H 	H 	0.77060 0.21500 0.64170 0.06500
H 	H 	0.30580 0.32420 0.53070 0.02000
H 	H 	0.48440 0.42560 0.58590 0.08100
H 	H 	0.52990 0.14990 0.70170 0.09300
H 	H 	0.62510 0.44930 0.69750 0.07800
H 	H 	0.69940 0.36580 0.65150 0.07500
H 	H 	0.35410 0.04690 0.64560 0.02400
H 	H 	0.78500 0.22940 0.85830 0.06500
H 	H 	0.67580 0.69420 0.96930 0.02000
H 	H 	0.57440 0.51560 0.91410 0.08100
H 	H 	0.85010 0.47010 0.79830 0.09300
H 	H 	0.55070 0.37490 0.80250 0.07800
H 	H 	0.63420 0.30060 0.84850 0.07500
H 	H 	0.95310 0.64590 0.85440 0.02400
H 	H 	0.22940 0.78500 0.35830 0.06500
H 	H 	0.69420 0.67580 0.46930 0.02000
H 	H 	0.51560 0.57440 0.41410 0.08100
H 	H 	0.47010 0.85010 0.29830 0.09300
H 	H 	0.37490 0.55070 0.30250 0.07800
H 	H 	0.30060 0.63420 0.34850 0.07500
H 	H 	0.64590 0.95310 0.35440 0.02400
H 	H 	0.21500 0.77060 0.14170 0.06500
H 	H 	0.32420 0.30580 0.03070 0.02000
H 	H 	0.42560 0.48440 0.08590 0.08100
H 	H 	0.14990 0.52990 0.20170 0.09300
H 	H 	0.44930 0.62510 0.19750 0.07800
H 	H 	0.36580 0.69940 0.15150 0.07500
H 	H 	0.04690 0.35410 0.14560 0.02400
H 	H 	0.98360 0.01640 0.75000 0.05200
H 	H 	0.01640 0.98360 0.25000 0.05200
C 	C 	0.80062 0.19068 0.68580 -0.06000
C 	C 	0.88149 0.10947 0.68600 -0.05800
C 	C 	0.19727 0.10959 0.54992 0.37200
C 	C 	0.52389 0.29779 0.64991 0.12400
C 	C 	0.31135 0.17607 0.58353 -0.13300
C 	C 	0.35104 0.28852 0.56552 0.07200
C 	C 	0.45734 0.34904 0.59854 -0.15900
C 	C 	0.48461 0.18559 0.66696 -0.15700
C 	C 	0.63809 0.36605 0.68569 -0.14900
C 	C 	0.37958 0.12446 0.63386 0.07300
C 	C 	0.92170 0.06366 0.61677 0.33000
C 	C 	0.80932 0.19938 0.81420 -0.05900
C 	C 	0.89053 0.11851 0.81400 -0.05800
C 	C 	0.89041 0.80273 0.95008 0.37200
C 	C 	0.70221 0.47611 0.85009 0.12400
C 	C 	0.82393 0.68865 0.91647 -0.13300
C 	C 	0.71148 0.64896 0.93448 0.07200
C 	C 	0.65096 0.54266 0.90146 -0.15900
C 	C 	0.81441 0.51539 0.83304 -0.15700
C 	C 	0.63395 0.36191 0.81431 -0.14900
C 	C 	0.87554 0.62042 0.86614 0.07300
C 	C 	0.93634 0.07830 0.88323 0.33200
C 	C 	0.19938 0.80932 0.31420 -0.06000
C 	C 	0.11851 0.89053 0.31400 -0.05800
C 	C 	0.80273 0.89041 0.45008 0.37200
C 	C 	0.47611 0.70221 0.35009 0.12400
C 	C 	0.68865 0.82393 0.41647 -0.13300
C 	C 	0.64896 0.71148 0.43448 0.07200
C 	C 	0.54266 0.65096 0.40146 -0.15900
C 	C 	0.51539 0.81441 0.33304 -0.15700
C 	C 	0.36191 0.63395 0.31431 -0.14900
C 	C 	0.62042 0.87554 0.36614 0.07300
C 	C 	0.07830 0.93634 0.38323 0.33000
C 	C 	0.19068 0.80062 0.18580 -0.05900
C 	C 	0.10947 0.88149 0.18600 -0.05800
C 	C 	0.10959 0.19727 0.04992 0.37200
C 	C 	0.29779 0.52389 0.14991 0.12400
C 	C 	0.17607 0.31135 0.08353 -0.13300
C 	C 	0.28852 0.35104 0.06552 0.07200
C 	C 	0.34904 0.45734 0.09854 -0.15900
C 	C 	0.18559 0.48461 0.16696 -0.15700
C 	C 	0.36605 0.63809 0.18569 -0.14900
C 	C 	0.12446 0.37958 0.13386 0.07300
C 	C 	0.06366 0.92170 0.11677 0.33200
C 	C 	0.76216 0.23784 0.75000 0.06800
C 	C 	0.92797 0.07203 0.75000 -0.00000
C 	C 	0.23784 0.76216 0.25000 0.06800
C 	C 	0.07203 0.92797 0.25000 -0.00000
N 	N 	0.68140 0.31860 0.75000 -0.08700
N 	N 	0.31860 0.68140 0.25000 -0.08700
O 	O 	0.91231 0.12765 0.56597 -0.40500
O 	O 	0.13085 0.16683 0.51260 -0.40400
O 	O 	0.17632 0.00316 0.56135 -0.41000
O 	O 	0.96285 0.96631 0.61469 -0.38500
O 	O 	0.87235 0.08769 0.93403 -0.40300
O 	O 	0.83317 0.86915 0.98740 -0.40400
O 	O 	0.99684 0.82368 0.93865 -0.40900
O 	O 	0.03369 0.03715 0.88531 -0.38600
O 	O 	0.08769 0.87235 0.43403 -0.40500
O 	O 	0.86915 0.83317 0.48740 -0.40400
O 	O 	0.82368 0.99684 0.43865 -0.41000
O 	O 	0.03715 0.03369 0.38531 -0.38500
O 	O 	0.12765 0.91231 0.06597 -0.40300
O 	O 	0.16683 0.13085 0.01260 -0.40400
O 	O 	0.00316 0.17632 0.06135 -0.40900
O 	O 	0.96631 0.96285 0.11469 -0.38600
