data_crystal

_cell_length_a 12.70350
_cell_length_b 22.65910
_cell_length_c 22.65910
_cell_angle_alpha 90.00000
_cell_angle_beta  90.00000
_cell_angle_gamma 90.00000

_symmetry_space_group_name_	'P 1'
_symmetry_space_group_name_H-M	'P 1'

loop_
_symmetry_equiv_pos_as_xyz
  x,y,z

loop_
_atom_site_label
_atom_site_type_symbol
_atom_site_fract_x
_atom_site_fract_y
_atom_site_fract_z
_atom_site_charge
Co	Co	0.75288 0.74312 0.73755 1.15700
Co	Co	0.75288 0.25688 0.26245 1.15700
Co	Co	0.24712 0.75688 0.23755 1.15700
Co	Co	0.24712 0.24312 0.76245 1.15700
H 	H 	0.47540 0.86490 0.77410 0.04700
H 	H 	0.55160 0.11070 0.72200 0.08800
H 	H 	0.93890 0.77580 0.37450 0.08800
H 	H 	0.37880 0.95240 0.77290 0.05300
H 	H 	0.10980 0.69540 0.52520 0.05300
H 	H 	0.26170 0.68560 0.35080 -0.00600
H 	H 	0.45950 0.19840 0.73320 0.01300
H 	H 	0.69800 0.94160 0.67190 0.04200
H 	H 	0.03880 0.79020 0.29090 0.00500
H 	H 	0.19000 0.11340 0.73840 -0.00800
H 	H 	0.27390 0.02370 0.72900 0.07500
H 	H 	0.60030 0.02850 0.67050 0.06000
H 	H 	0.74700 0.72460 0.52750 0.04300
H 	H 	0.83670 0.72750 0.43810 0.06400
H 	H 	0.02070 0.69380 0.61380 0.05000
H 	H 	0.16680 0.66660 0.43540 0.07600
H 	H 	0.47540 0.13510 0.22590 0.04800
H 	H 	0.55160 0.88930 0.27800 0.08900
H 	H 	0.93890 0.22420 0.62550 0.08900
H 	H 	0.37880 0.04760 0.22710 0.05400
H 	H 	0.10980 0.30460 0.47480 0.05300
H 	H 	0.26170 0.31440 0.64920 -0.00600
H 	H 	0.45950 0.80160 0.26680 0.01300
H 	H 	0.69800 0.05840 0.32810 0.04200
H 	H 	0.03880 0.20980 0.70910 0.00500
H 	H 	0.19000 0.88660 0.26160 -0.00800
H 	H 	0.27390 0.97630 0.27100 0.07500
H 	H 	0.60030 0.97150 0.32950 0.06000
H 	H 	0.74700 0.27540 0.47250 0.04300
H 	H 	0.83670 0.27250 0.56190 0.06400
H 	H 	0.02070 0.30620 0.38620 0.05000
H 	H 	0.16680 0.33340 0.56460 0.07600
H 	H 	0.52460 0.63510 0.27410 0.04800
H 	H 	0.44840 0.38930 0.22200 0.08900
H 	H 	0.06110 0.72420 0.87450 0.08900
H 	H 	0.62120 0.54760 0.27290 0.05400
H 	H 	0.89020 0.80460 0.02520 0.05300
H 	H 	0.73830 0.81440 0.85080 -0.00600
H 	H 	0.54050 0.30160 0.23320 0.01300
H 	H 	0.30200 0.55840 0.17190 0.04200
H 	H 	0.96120 0.70980 0.79090 0.00500
H 	H 	0.81000 0.38660 0.23840 -0.00800
H 	H 	0.72610 0.47630 0.22900 0.07500
H 	H 	0.39970 0.47150 0.17050 0.06000
H 	H 	0.25300 0.77540 0.02750 0.04300
H 	H 	0.16330 0.77250 0.93810 0.06400
H 	H 	0.97930 0.80620 0.11380 0.05000
H 	H 	0.83320 0.83340 0.93540 0.07600
H 	H 	0.52460 0.36490 0.72590 0.04800
H 	H 	0.44840 0.61070 0.77800 0.08900
H 	H 	0.06110 0.27580 0.12550 0.08900
H 	H 	0.62120 0.45240 0.72710 0.05400
H 	H 	0.89020 0.19540 0.97480 0.05300
H 	H 	0.73830 0.18560 0.14920 -0.00600
H 	H 	0.54050 0.69840 0.76680 0.01300
H 	H 	0.30200 0.44160 0.82810 0.04200
H 	H 	0.96120 0.29020 0.20910 0.00500
H 	H 	0.81000 0.61340 0.76160 -0.00800
H 	H 	0.72610 0.52370 0.77100 0.07500
H 	H 	0.39970 0.52850 0.82950 0.06000
H 	H 	0.25300 0.22460 0.97250 0.04300
H 	H 	0.16330 0.22750 0.06190 0.06400
H 	H 	0.97930 0.19380 0.88620 0.05000
H 	H 	0.83320 0.16660 0.06460 0.07600
C 	C 	0.66290 0.84020 0.72810 0.29000
C 	C 	0.59760 0.89560 0.72380 -0.07500
C 	C 	0.87540 0.71110 0.58000 -0.07800
C 	C 	0.48180 0.99980 0.72320 0.01700
C 	C 	0.50140 0.89840 0.75360 0.00000
C 	C 	0.82070 0.71610 0.63760 0.29600
C 	C 	0.98380 0.71380 0.47210 0.01400
C 	C 	0.04290 0.72120 0.41570 0.07300
C 	C 	0.42380 0.05680 0.72590 0.07100
C 	C 	0.47720 0.11000 0.72630 -0.12900
C 	C 	0.00550 0.75710 0.37090 -0.13800
C 	C 	0.44440 0.95040 0.75290 -0.07300
C 	C 	0.03610 0.70240 0.52560 -0.07300
C 	C 	0.19520 0.70410 0.35570 0.07900
C 	C 	0.42150 0.16230 0.73300 0.07000
C 	C 	0.63340 0.94380 0.69290 0.00600
C 	C 	0.06540 0.76520 0.32110 0.07100
C 	C 	0.26460 0.11270 0.73620 0.07800
C 	C 	0.31410 0.05900 0.73020 -0.13400
C 	C 	0.57550 0.99550 0.69230 -0.07600
C 	C 	0.82130 0.71970 0.52700 0.01000
C 	C 	0.87450 0.72130 0.47380 -0.07700
C 	C 	0.98330 0.70130 0.57820 0.00500
C 	C 	0.13970 0.69310 0.40660 -0.13700
C 	C 	0.66290 0.15980 0.27190 0.29000
C 	C 	0.59760 0.10440 0.27620 -0.07500
C 	C 	0.87540 0.28890 0.42000 -0.07800
C 	C 	0.48180 0.00020 0.27680 0.01700
C 	C 	0.50140 0.10160 0.24640 0.00000
C 	C 	0.82070 0.28390 0.36240 0.29600
C 	C 	0.98380 0.28620 0.52790 0.01400
C 	C 	0.04290 0.27880 0.58430 0.07300
C 	C 	0.42380 0.94320 0.27410 0.07100
C 	C 	0.47720 0.89000 0.27370 -0.12900
C 	C 	0.00550 0.24290 0.62910 -0.13800
C 	C 	0.44440 0.04960 0.24710 -0.07300
C 	C 	0.03610 0.29760 0.47440 -0.07300
C 	C 	0.19520 0.29590 0.64430 0.07900
C 	C 	0.42150 0.83770 0.26700 0.07000
C 	C 	0.63340 0.05620 0.30710 0.00600
C 	C 	0.06540 0.23480 0.67890 0.07100
C 	C 	0.26460 0.88730 0.26380 0.07800
C 	C 	0.31410 0.94100 0.26980 -0.13400
C 	C 	0.57550 0.00450 0.30770 -0.07600
C 	C 	0.82130 0.28030 0.47300 0.01000
C 	C 	0.87450 0.27870 0.52620 -0.07700
C 	C 	0.98330 0.29870 0.42180 0.00500
C 	C 	0.13970 0.30690 0.59340 -0.13700
C 	C 	0.33710 0.65980 0.22810 0.29000
C 	C 	0.40240 0.60440 0.22380 -0.07500
C 	C 	0.12460 0.78890 0.08000 -0.07800
C 	C 	0.51820 0.50020 0.22320 0.01700
C 	C 	0.49860 0.60160 0.25360 0.00000
C 	C 	0.17930 0.78390 0.13760 0.29600
C 	C 	0.01620 0.78620 0.97210 0.01400
C 	C 	0.95710 0.77880 0.91570 0.07300
C 	C 	0.57620 0.44320 0.22590 0.07100
C 	C 	0.52280 0.39000 0.22630 -0.12900
C 	C 	0.99450 0.74290 0.87090 -0.13800
C 	C 	0.55560 0.54960 0.25290 -0.07300
C 	C 	0.96390 0.79760 0.02560 -0.07400
C 	C 	0.80480 0.79590 0.85570 0.07900
C 	C 	0.57850 0.33770 0.23300 0.07000
C 	C 	0.36660 0.55620 0.19290 0.00600
C 	C 	0.93460 0.73480 0.82110 0.07100
C 	C 	0.73540 0.38730 0.23620 0.07800
C 	C 	0.68590 0.44100 0.23020 -0.13500
C 	C 	0.42450 0.50450 0.19230 -0.07600
C 	C 	0.17870 0.78030 0.02700 0.01000
C 	C 	0.12550 0.77870 0.97380 -0.07700
C 	C 	0.01670 0.79870 0.07820 0.00500
C 	C 	0.86030 0.80690 0.90660 -0.13700
C 	C 	0.33710 0.34020 0.77190 0.29000
C 	C 	0.40240 0.39560 0.77620 -0.07500
C 	C 	0.12460 0.21110 0.92000 -0.07800
C 	C 	0.51820 0.49980 0.77680 0.01700
C 	C 	0.49860 0.39840 0.74640 0.00000
C 	C 	0.17930 0.21610 0.86240 0.29600
C 	C 	0.01620 0.21380 0.02790 0.01400
C 	C 	0.95710 0.22120 0.08430 0.07300
C 	C 	0.57620 0.55680 0.77410 0.07100
C 	C 	0.52280 0.61000 0.77370 -0.12900
C 	C 	0.99450 0.25710 0.12910 -0.13800
C 	C 	0.55560 0.45040 0.74710 -0.07300
C 	C 	0.96390 0.20240 0.97440 -0.07400
C 	C 	0.80480 0.20410 0.14430 0.07900
C 	C 	0.57850 0.66230 0.76700 0.07000
C 	C 	0.36660 0.44380 0.80710 0.00600
C 	C 	0.93460 0.26520 0.17890 0.07100
C 	C 	0.73540 0.61270 0.76380 0.07800
C 	C 	0.68590 0.55900 0.76980 -0.13500
C 	C 	0.42450 0.49550 0.80770 -0.07600
C 	C 	0.17870 0.21970 0.97300 0.01000
C 	C 	0.12550 0.22130 0.02620 -0.07700
C 	C 	0.01670 0.20130 0.92180 0.00500
C 	C 	0.86030 0.19310 0.09340 -0.13700
N 	N 	0.31680 0.16428 0.73915 -0.24600
N 	N 	0.16040 0.73956 0.31293 -0.24700
N 	N 	0.31680 0.83572 0.26085 -0.24600
N 	N 	0.16040 0.26044 0.68707 -0.24700
N 	N 	0.68320 0.33572 0.23915 -0.24600
N 	N 	0.83960 0.76044 0.81293 -0.24700
N 	N 	0.68320 0.66428 0.76085 -0.24600
N 	N 	0.83960 0.23956 0.18707 -0.24700
O 	O 	0.87400 0.71679 0.68447 -0.40000
O 	O 	0.62290 0.79475 0.75263 -0.39600
O 	O 	0.75460 0.83922 0.70802 -0.35800
O 	O 	0.72110 0.72263 0.63970 -0.34600
O 	O 	0.87400 0.28321 0.31553 -0.40000
O 	O 	0.62290 0.20525 0.24737 -0.39600
O 	O 	0.75460 0.16078 0.29198 -0.35800
O 	O 	0.72110 0.27737 0.36030 -0.34600
O 	O 	0.12600 0.78321 0.18447 -0.40000
O 	O 	0.37710 0.70525 0.25263 -0.39600
O 	O 	0.24540 0.66078 0.20802 -0.35800
O 	O 	0.27890 0.77737 0.13970 -0.34600
O 	O 	0.12600 0.21679 0.81553 -0.40000
O 	O 	0.37710 0.29475 0.74737 -0.39600
O 	O 	0.24540 0.33922 0.79198 -0.35800
O 	O 	0.27890 0.22263 0.86030 -0.34600
Co	Co	0.75288 0.76245 0.24312 1.15800
Co	Co	0.75288 0.23755 0.75688 1.15800
Co	Co	0.24712 0.73755 0.74312 1.15800
Co	Co	0.24712 0.26245 0.25688 1.15800
H 	H 	0.47540 0.72590 0.36490 0.04800
H 	H 	0.55160 0.77800 0.61070 0.08900
H 	H 	0.93890 0.12550 0.27580 0.08900
H 	H 	0.37880 0.72710 0.45240 0.05400
H 	H 	0.10980 0.97480 0.19540 0.05300
H 	H 	0.26170 0.14920 0.18560 -0.00600
H 	H 	0.45950 0.76680 0.69840 0.01300
H 	H 	0.69800 0.82810 0.44160 0.04200
H 	H 	0.03880 0.20910 0.29020 0.00500
H 	H 	0.19000 0.76160 0.61340 -0.00800
H 	H 	0.27390 0.77100 0.52370 0.07500
H 	H 	0.60030 0.82950 0.52850 0.06000
H 	H 	0.74700 0.97250 0.22460 0.04300
H 	H 	0.83670 0.06190 0.22750 0.06400
H 	H 	0.02070 0.88620 0.19380 0.05000
H 	H 	0.16680 0.06460 0.16660 0.07600
H 	H 	0.47540 0.27410 0.63510 0.04800
H 	H 	0.55160 0.22200 0.38930 0.08900
H 	H 	0.93890 0.87450 0.72420 0.08900
H 	H 	0.37880 0.27290 0.54760 0.05400
H 	H 	0.10980 0.02520 0.80460 0.05300
H 	H 	0.26170 0.85080 0.81440 -0.00600
H 	H 	0.45950 0.23320 0.30160 0.01300
H 	H 	0.69800 0.17190 0.55840 0.04200
H 	H 	0.03880 0.79090 0.70980 0.00500
H 	H 	0.19000 0.23840 0.38660 -0.00800
H 	H 	0.27390 0.22900 0.47630 0.07500
H 	H 	0.60030 0.17050 0.47150 0.06000
H 	H 	0.74700 0.02750 0.77540 0.04300
H 	H 	0.83670 0.93810 0.77250 0.06400
H 	H 	0.02070 0.11380 0.80620 0.05000
H 	H 	0.16680 0.93540 0.83340 0.07600
H 	H 	0.52460 0.77410 0.86490 0.04800
H 	H 	0.44840 0.72200 0.11070 0.08900
H 	H 	0.06110 0.37450 0.77580 0.08900
H 	H 	0.62120 0.77290 0.95240 0.05400
H 	H 	0.89020 0.52520 0.69540 0.05300
H 	H 	0.73830 0.35080 0.68560 -0.00600
H 	H 	0.54050 0.73320 0.19840 0.01300
H 	H 	0.30200 0.67190 0.94160 0.04200
H 	H 	0.96120 0.29090 0.79020 0.00500
H 	H 	0.81000 0.73840 0.11340 -0.00800
H 	H 	0.72610 0.72900 0.02370 0.07500
H 	H 	0.39970 0.67050 0.02850 0.06000
H 	H 	0.25300 0.52750 0.72460 0.04300
H 	H 	0.16330 0.43810 0.72750 0.06400
H 	H 	0.97930 0.61380 0.69380 0.05000
H 	H 	0.83320 0.43540 0.66660 0.07600
H 	H 	0.52460 0.22590 0.13510 0.04800
H 	H 	0.44840 0.27800 0.88930 0.08900
H 	H 	0.06110 0.62550 0.22420 0.08900
H 	H 	0.62120 0.22710 0.04760 0.05400
H 	H 	0.89020 0.47480 0.30460 0.05300
H 	H 	0.73830 0.64920 0.31440 -0.00600
H 	H 	0.54050 0.26680 0.80160 0.01300
H 	H 	0.30200 0.32810 0.05840 0.04200
H 	H 	0.96120 0.70910 0.20980 0.00500
H 	H 	0.81000 0.26160 0.88660 -0.00800
H 	H 	0.72610 0.27100 0.97630 0.07500
H 	H 	0.39970 0.32950 0.97150 0.06000
H 	H 	0.25300 0.47250 0.27540 0.04300
H 	H 	0.16330 0.56190 0.27250 0.06400
H 	H 	0.97930 0.38620 0.30620 0.05000
H 	H 	0.83320 0.56460 0.33340 0.07600
C 	C 	0.66290 0.77190 0.34020 0.29000
C 	C 	0.59760 0.77620 0.39560 -0.07500
C 	C 	0.87540 0.92000 0.21110 -0.07800
C 	C 	0.48180 0.77680 0.49980 0.01700
C 	C 	0.50140 0.74640 0.39840 0.00000
C 	C 	0.82070 0.86240 0.21610 0.29600
C 	C 	0.98380 0.02790 0.21380 0.01400
C 	C 	0.04290 0.08430 0.22120 0.07300
C 	C 	0.42380 0.77410 0.55680 0.07100
C 	C 	0.47720 0.77370 0.61000 -0.12900
C 	C 	0.00550 0.12910 0.25710 -0.13800
C 	C 	0.44440 0.74710 0.45040 -0.07300
C 	C 	0.03610 0.97440 0.20240 -0.07400
C 	C 	0.19520 0.14430 0.20410 0.07900
C 	C 	0.42150 0.76700 0.66230 0.07000
C 	C 	0.63340 0.80710 0.44380 0.00600
C 	C 	0.06540 0.17890 0.26520 0.07100
C 	C 	0.26460 0.76380 0.61270 0.07800
C 	C 	0.31410 0.76980 0.55900 -0.13500
C 	C 	0.57550 0.80770 0.49550 -0.07600
C 	C 	0.82130 0.97300 0.21970 0.01000
C 	C 	0.87450 0.02620 0.22130 -0.07700
C 	C 	0.98330 0.92180 0.20130 0.00500
C 	C 	0.13970 0.09340 0.19310 -0.13700
C 	C 	0.66290 0.22810 0.65980 0.29000
C 	C 	0.59760 0.22380 0.60440 -0.07500
C 	C 	0.87540 0.08000 0.78890 -0.07800
C 	C 	0.48180 0.22320 0.50020 0.01700
C 	C 	0.50140 0.25360 0.60160 0.00000
C 	C 	0.82070 0.13760 0.78390 0.29600
C 	C 	0.98380 0.97210 0.78620 0.01400
C 	C 	0.04290 0.91570 0.77880 0.07300
C 	C 	0.42380 0.22590 0.44320 0.07100
C 	C 	0.47720 0.22630 0.39000 -0.12900
C 	C 	0.00550 0.87090 0.74290 -0.13800
C 	C 	0.44440 0.25290 0.54960 -0.07300
C 	C 	0.03610 0.02560 0.79760 -0.07400
C 	C 	0.19520 0.85570 0.79590 0.07900
C 	C 	0.42150 0.23300 0.33770 0.07000
C 	C 	0.63340 0.19290 0.55620 0.00600
C 	C 	0.06540 0.82110 0.73480 0.07100
C 	C 	0.26460 0.23620 0.38730 0.07800
C 	C 	0.31410 0.23020 0.44100 -0.13500
C 	C 	0.57550 0.19230 0.50450 -0.07600
C 	C 	0.82130 0.02700 0.78030 0.01000
C 	C 	0.87450 0.97380 0.77870 -0.07700
C 	C 	0.98330 0.07820 0.79870 0.00500
C 	C 	0.13970 0.90660 0.80690 -0.13700
C 	C 	0.33710 0.72810 0.84020 0.29000
C 	C 	0.40240 0.72380 0.89560 -0.07500
C 	C 	0.12460 0.58000 0.71110 -0.07800
C 	C 	0.51820 0.72320 0.99980 0.01700
C 	C 	0.49860 0.75360 0.89840 0.00000
C 	C 	0.17930 0.63760 0.71610 0.29600
C 	C 	0.01620 0.47210 0.71380 0.01400
C 	C 	0.95710 0.41570 0.72120 0.07300
C 	C 	0.57620 0.72590 0.05680 0.07100
C 	C 	0.52280 0.72630 0.11000 -0.12900
C 	C 	0.99450 0.37090 0.75710 -0.13800
C 	C 	0.55560 0.75290 0.95040 -0.07300
C 	C 	0.96390 0.52560 0.70240 -0.07300
C 	C 	0.80480 0.35570 0.70410 0.07900
C 	C 	0.57850 0.73300 0.16230 0.07000
C 	C 	0.36660 0.69290 0.94380 0.00600
C 	C 	0.93460 0.32110 0.76520 0.07100
C 	C 	0.73540 0.73620 0.11270 0.07800
C 	C 	0.68590 0.73020 0.05900 -0.13400
C 	C 	0.42450 0.69230 0.99550 -0.07600
C 	C 	0.17870 0.52700 0.71970 0.01000
C 	C 	0.12550 0.47380 0.72130 -0.07700
C 	C 	0.01670 0.57820 0.70130 0.00500
C 	C 	0.86030 0.40660 0.69310 -0.13700
C 	C 	0.33710 0.27190 0.15980 0.29000
C 	C 	0.40240 0.27620 0.10440 -0.07500
C 	C 	0.12460 0.42000 0.28890 -0.07800
C 	C 	0.51820 0.27680 0.00020 0.01700
C 	C 	0.49860 0.24640 0.10160 0.00000
C 	C 	0.17930 0.36240 0.28390 0.29600
C 	C 	0.01620 0.52790 0.28620 0.01400
C 	C 	0.95710 0.58430 0.27880 0.07300
C 	C 	0.57620 0.27410 0.94320 0.07100
C 	C 	0.52280 0.27370 0.89000 -0.12900
C 	C 	0.99450 0.62910 0.24290 -0.13800
C 	C 	0.55560 0.24710 0.04960 -0.07300
C 	C 	0.96390 0.47440 0.29760 -0.07300
C 	C 	0.80480 0.64430 0.29590 0.07900
C 	C 	0.57850 0.26700 0.83770 0.07000
C 	C 	0.36660 0.30710 0.05620 0.00600
C 	C 	0.93460 0.67890 0.23480 0.07100
C 	C 	0.73540 0.26380 0.88730 0.07800
C 	C 	0.68590 0.26980 0.94100 -0.13400
C 	C 	0.42450 0.30770 0.00450 -0.07600
C 	C 	0.17870 0.47300 0.28030 0.01000
C 	C 	0.12550 0.52620 0.27870 -0.07700
C 	C 	0.01670 0.42180 0.29870 0.00500
C 	C 	0.86030 0.59340 0.30690 -0.13700
N 	N 	0.31680 0.76085 0.66428 -0.24600
N 	N 	0.16040 0.18707 0.23956 -0.24700
N 	N 	0.31680 0.23915 0.33572 -0.24600
N 	N 	0.16040 0.81293 0.76044 -0.24700
N 	N 	0.68320 0.73915 0.16428 -0.24600
N 	N 	0.83960 0.31293 0.73956 -0.24700
N 	N 	0.68320 0.26085 0.83572 -0.24600
N 	N 	0.83960 0.68707 0.26044 -0.24700
O 	O 	0.87400 0.81553 0.21679 -0.40000
O 	O 	0.62290 0.74737 0.29475 -0.39600
O 	O 	0.75460 0.79198 0.33922 -0.35800
O 	O 	0.72110 0.86030 0.22263 -0.34600
O 	O 	0.87400 0.18447 0.78321 -0.40000
O 	O 	0.62290 0.25263 0.70525 -0.39600
O 	O 	0.75460 0.20802 0.66078 -0.35800
O 	O 	0.72110 0.13970 0.77737 -0.34600
O 	O 	0.12600 0.68447 0.71679 -0.40000
O 	O 	0.37710 0.75263 0.79475 -0.39600
O 	O 	0.24540 0.70802 0.83922 -0.35800
O 	O 	0.27890 0.63970 0.72263 -0.34600
O 	O 	0.12600 0.31553 0.28321 -0.40000
O 	O 	0.37710 0.24737 0.20525 -0.39600
O 	O 	0.24540 0.29198 0.16078 -0.35800
O 	O 	0.27890 0.36030 0.27737 -0.34600
