data_crystal

_cell_length_a 18.51530
_cell_length_b 18.51530
_cell_length_c 25.05760
_cell_angle_alpha 90.00000
_cell_angle_beta  90.00000
_cell_angle_gamma 90.00000

_symmetry_space_group_name_	'P 1'
_symmetry_space_group_name_H-M	'P 1'

loop_
_symmetry_equiv_pos_as_xyz
  x,y,z

loop_
_atom_site_label
_atom_site_type_symbol
_atom_site_fract_x
_atom_site_fract_y
_atom_site_fract_z
_atom_site_charge
Cu	Cu	0.40334 0.59666 0.50000 0.87900
Cu	Cu	0.59666 0.40334 0.50000 0.87900
Cu	Cu	0.90334 0.90334 -0.00000 0.88100
Cu	Cu	0.09666 0.09666 -0.00000 0.87100
Cu	Cu	0.50000 0.50000 0.39839 0.87400
Cu	Cu	-0.00000 0.00000 0.89839 0.85200
Cu	Cu	-0.00000 -0.00000 0.10161 0.85100
Cu	Cu	0.50000 0.50000 0.60161 0.87600
Si	Si	0.50000 0.00000 0.25000 0.73400
Si	Si	0.50000 0.00000 0.75000 0.73400
Si	Si	-0.00000 0.50000 0.25000 0.73400
Si	Si	-0.00000 0.50000 0.75000 0.73400
H 	H 	0.56520 0.75180 0.29460 0.08700
H 	H 	0.56760 0.85770 0.24500 -0.01400
H 	H 	0.44030 0.95430 0.35330 -0.01000
H 	H 	0.43750 0.84800 0.40290 0.08800
H 	H 	0.43480 0.24820 0.29460 0.08800
H 	H 	0.43240 0.14230 0.24500 -0.02900
H 	H 	0.55970 0.04570 0.35330 -0.03200
H 	H 	0.56250 0.15200 0.40290 0.08800
H 	H 	0.74820 0.06520 0.79460 0.11900
H 	H 	0.64230 0.06760 0.74500 -0.04700
H 	H 	0.54570 0.94030 0.85330 -0.04700
H 	H 	0.65200 0.93750 0.90290 0.11900
H 	H 	0.25180 0.93480 0.79460 0.05800
H 	H 	0.35770 0.93240 0.74500 0.00700
H 	H 	0.45430 0.05970 0.85330 0.00800
H 	H 	0.34800 0.06250 0.90290 0.06200
H 	H 	0.93480 0.25180 0.20540 0.05800
H 	H 	0.93240 0.35770 0.25500 0.00600
H 	H 	0.05970 0.45430 0.14670 0.00400
H 	H 	0.06250 0.34800 0.09710 0.05700
H 	H 	0.06520 0.74820 0.20540 0.11700
H 	H 	0.06760 0.64230 0.25500 -0.04700
H 	H 	0.94030 0.54570 0.14670 -0.04900
H 	H 	0.93750 0.65200 0.09710 0.11200
H 	H 	0.75180 0.56520 0.70540 0.08800
H 	H 	0.85770 0.56760 0.75500 -0.01200
H 	H 	0.95430 0.44030 0.64670 -0.01000
H 	H 	0.84800 0.43750 0.59710 0.08800
H 	H 	0.24820 0.43480 0.70540 0.08900
H 	H 	0.14230 0.43240 0.75500 -0.02800
H 	H 	0.04570 0.55970 0.64670 -0.03200
H 	H 	0.15200 0.56250 0.59710 0.08800
H 	H 	0.43480 0.24820 0.70540 0.08900
H 	H 	0.43240 0.14230 0.75500 -0.02800
H 	H 	0.55970 0.04570 0.64670 -0.03200
H 	H 	0.56250 0.15200 0.59710 0.08800
H 	H 	0.56520 0.75180 0.70540 0.08800
H 	H 	0.56760 0.85770 0.75500 -0.01200
H 	H 	0.44030 0.95430 0.64670 -0.01000
H 	H 	0.43750 0.84800 0.59710 0.08800
H 	H 	0.25180 0.93480 0.20540 0.05800
H 	H 	0.35770 0.93240 0.25500 0.00600
H 	H 	0.45430 0.05970 0.14670 0.00400
H 	H 	0.34800 0.06250 0.09710 0.05700
H 	H 	0.74820 0.06520 0.20540 0.11700
H 	H 	0.64230 0.06760 0.25500 -0.04700
H 	H 	0.54570 0.94030 0.14670 -0.04900
H 	H 	0.65200 0.93750 0.09710 0.11200
H 	H 	0.06520 0.74820 0.79460 0.11900
H 	H 	0.06760 0.64230 0.74500 -0.04700
H 	H 	0.94030 0.54570 0.85330 -0.04700
H 	H 	0.93750 0.65200 0.90290 0.11900
H 	H 	0.93480 0.25180 0.79460 0.05800
H 	H 	0.93240 0.35770 0.74500 0.00700
H 	H 	0.05970 0.45430 0.85330 0.00800
H 	H 	0.06250 0.34800 0.90290 0.06200
H 	H 	0.24820 0.43480 0.29460 0.08800
H 	H 	0.14230 0.43240 0.24500 -0.02900
H 	H 	0.04570 0.55970 0.35330 -0.03200
H 	H 	0.15200 0.56250 0.40290 0.08800
H 	H 	0.75180 0.56520 0.29460 0.08700
H 	H 	0.85770 0.56760 0.24500 -0.01400
H 	H 	0.95430 0.44030 0.35330 -0.01000
H 	H 	0.84800 0.43750 0.40290 0.08800
C 	C 	0.49354 0.72117 0.38312 0.09000
C 	C 	0.49995 0.78936 0.35332 0.07500
C 	C 	0.53907 0.79284 0.30663 -0.15200
C 	C 	0.54039 0.85626 0.27710 0.11800
C 	C 	0.50322 0.91743 0.29304 -0.26700
C 	C 	0.46559 0.91304 0.34060 0.11700
C 	C 	0.46394 0.84954 0.37038 -0.15100
C 	C 	0.50646 0.27883 0.38312 0.08300
C 	C 	0.50005 0.21064 0.35332 0.08200
C 	C 	0.46093 0.20716 0.30663 -0.16800
C 	C 	0.45961 0.14374 0.27710 0.13200
C 	C 	0.49678 0.08257 0.29304 -0.30500
C 	C 	0.53441 0.08696 0.34060 0.13300
C 	C 	0.53606 0.15046 0.37038 -0.16900
C 	C 	0.77883 0.99354 0.88312 0.09300
C 	C 	0.71064 0.99995 0.85332 0.16900
C 	C 	0.70716 0.03907 0.80663 -0.26500
C 	C 	0.64374 0.04039 0.77710 0.20000
C 	C 	0.58257 0.00322 0.79304 -0.37700
C 	C 	0.58696 0.96559 0.84060 0.23200
C 	C 	0.65046 0.96394 0.87038 -0.23300
C 	C 	0.22117 0.00646 0.88312 0.08200
C 	C 	0.28936 0.00005 0.85332 -0.01100
C 	C 	0.29284 0.96093 0.80663 -0.05100
C 	C 	0.35626 0.95961 0.77710 0.05000
C 	C 	0.41743 0.99678 0.79304 -0.19300
C 	C 	0.41304 0.03441 0.84060 0.01800
C 	C 	0.34954 0.03606 0.87038 -0.08400
C 	C 	0.00646 0.22117 0.11688 0.08000
C 	C 	0.00005 0.28936 0.14668 -0.01200
C 	C 	0.96093 0.29284 0.19337 -0.05400
C 	C 	0.95961 0.35626 0.22290 0.05000
C 	C 	0.99678 0.41743 0.20696 -0.19500
C 	C 	0.03441 0.41304 0.15940 0.01800
C 	C 	0.03606 0.34954 0.12962 -0.08600
C 	C 	0.99354 0.77883 0.11688 0.09100
C 	C 	0.99995 0.71064 0.14668 0.16300
C 	C 	0.03907 0.70716 0.19337 -0.26300
C 	C 	0.04039 0.64374 0.22290 0.19700
C 	C 	0.00322 0.58257 0.20696 -0.37600
C 	C 	0.96559 0.58696 0.15940 0.22700
C 	C 	0.96394 0.65046 0.12962 -0.23200
C 	C 	0.72117 0.49354 0.61688 0.09000
C 	C 	0.78936 0.49995 0.64668 0.07500
C 	C 	0.79284 0.53907 0.69337 -0.15100
C 	C 	0.85626 0.54039 0.72290 0.11800
C 	C 	0.91743 0.50322 0.70696 -0.26700
C 	C 	0.91304 0.46559 0.65940 0.11600
C 	C 	0.84954 0.46394 0.62962 -0.15000
C 	C 	0.27883 0.50646 0.61688 0.08400
C 	C 	0.21064 0.50005 0.64668 0.08200
C 	C 	0.20716 0.46093 0.69337 -0.16800
C 	C 	0.14374 0.45961 0.72290 0.13200
C 	C 	0.08257 0.49678 0.70696 -0.30500
C 	C 	0.08696 0.53441 0.65940 0.13300
C 	C 	0.15046 0.53606 0.62962 -0.16900
C 	C 	0.50646 0.27883 0.61688 0.08400
C 	C 	0.50005 0.21064 0.64668 0.08200
C 	C 	0.46093 0.20716 0.69337 -0.16800
C 	C 	0.45961 0.14374 0.72290 0.13200
C 	C 	0.49678 0.08257 0.70696 -0.30500
C 	C 	0.53441 0.08696 0.65940 0.13300
C 	C 	0.53606 0.15046 0.62962 -0.16900
C 	C 	0.49354 0.72117 0.61688 0.09000
C 	C 	0.49995 0.78936 0.64668 0.07500
C 	C 	0.53907 0.79284 0.69337 -0.15100
C 	C 	0.54039 0.85626 0.72290 0.11800
C 	C 	0.50322 0.91743 0.70696 -0.26700
C 	C 	0.46559 0.91304 0.65940 0.11600
C 	C 	0.46394 0.84954 0.62962 -0.15000
C 	C 	0.22117 0.00646 0.11688 0.08000
C 	C 	0.28936 0.00005 0.14668 -0.01200
C 	C 	0.29284 0.96093 0.19337 -0.05400
C 	C 	0.35626 0.95961 0.22290 0.05000
C 	C 	0.41743 0.99678 0.20696 -0.19500
C 	C 	0.41304 0.03441 0.15940 0.01800
C 	C 	0.34954 0.03606 0.12962 -0.08600
C 	C 	0.77883 0.99354 0.11688 0.09100
C 	C 	0.71064 0.99995 0.14668 0.16300
C 	C 	0.70716 0.03907 0.19337 -0.26300
C 	C 	0.64374 0.04039 0.22290 0.19700
C 	C 	0.58257 0.00322 0.20696 -0.37600
C 	C 	0.58696 0.96559 0.15940 0.22700
C 	C 	0.65046 0.96394 0.12962 -0.23200
C 	C 	0.99354 0.77883 0.88312 0.09300
C 	C 	0.99995 0.71064 0.85332 0.16900
C 	C 	0.03907 0.70716 0.80663 -0.26500
C 	C 	0.04039 0.64374 0.77710 0.20000
C 	C 	0.00322 0.58257 0.79304 -0.37700
C 	C 	0.96559 0.58696 0.84060 0.23200
C 	C 	0.96394 0.65046 0.87038 -0.23300
C 	C 	0.00646 0.22117 0.88312 0.08200
C 	C 	0.00005 0.28936 0.85332 -0.01100
C 	C 	0.96093 0.29284 0.80663 -0.05100
C 	C 	0.95961 0.35626 0.77710 0.05000
C 	C 	0.99678 0.41743 0.79304 -0.19300
C 	C 	0.03441 0.41304 0.84060 0.01800
C 	C 	0.03606 0.34954 0.87038 -0.08400
C 	C 	0.27883 0.50646 0.38312 0.08300
C 	C 	0.21064 0.50005 0.35332 0.08200
C 	C 	0.20716 0.46093 0.30663 -0.16800
C 	C 	0.14374 0.45961 0.27710 0.13200
C 	C 	0.08257 0.49678 0.29304 -0.30500
C 	C 	0.08696 0.53441 0.34060 0.13300
C 	C 	0.15046 0.53606 0.37038 -0.16900
C 	C 	0.72117 0.49354 0.38312 0.09000
C 	C 	0.78936 0.49995 0.35332 0.07500
C 	C 	0.79284 0.53907 0.30663 -0.15200
C 	C 	0.85626 0.54039 0.27710 0.11800
C 	C 	0.91743 0.50322 0.29304 -0.26700
C 	C 	0.91304 0.46559 0.34060 0.11700
C 	C 	0.84954 0.46394 0.37038 -0.15100
N 	N 	0.45992 0.64582 0.44104 -0.14200
N 	N 	0.49600 0.61068 0.40280 -0.14000
N 	N 	0.51796 0.65695 0.36592 -0.09700
N 	N 	0.45774 0.71575 0.42940 -0.09700
N 	N 	0.54008 0.35418 0.44104 -0.14300
N 	N 	0.50400 0.38932 0.40280 -0.14100
N 	N 	0.48204 0.34305 0.36592 -0.09800
N 	N 	0.54226 0.28425 0.42940 -0.09900
N 	N 	0.85418 0.95992 0.94104 -0.12900
N 	N 	0.88932 0.99600 0.90280 -0.10800
N 	N 	0.84305 0.01796 0.86592 -0.12000
N 	N 	0.78425 0.95774 0.92940 -0.09100
N 	N 	0.14582 0.04008 0.94104 -0.14000
N 	N 	0.11068 0.00400 0.90280 -0.15800
N 	N 	0.15695 0.98204 0.86592 -0.07000
N 	N 	0.21575 0.04226 0.92940 -0.09800
N 	N 	0.04008 0.14582 0.05896 -0.14800
N 	N 	0.00400 0.11068 0.09720 -0.16000
N 	N 	0.98204 0.15695 0.13408 -0.07200
N 	N 	0.04226 0.21575 0.07060 -0.10400
N 	N 	0.95992 0.85418 0.05896 -0.13800
N 	N 	0.99600 0.88932 0.09720 -0.11100
N 	N 	0.01796 0.84305 0.13408 -0.12000
N 	N 	0.95774 0.78425 0.07060 -0.09800
N 	N 	0.64582 0.45992 0.55896 -0.14200
N 	N 	0.61068 0.49600 0.59720 -0.14000
N 	N 	0.65695 0.51796 0.63408 -0.09600
N 	N 	0.71575 0.45774 0.57060 -0.09700
N 	N 	0.35418 0.54008 0.55896 -0.14300
N 	N 	0.38932 0.50400 0.59720 -0.14000
N 	N 	0.34305 0.48204 0.63408 -0.09700
N 	N 	0.28425 0.54226 0.57060 -0.09900
N 	N 	0.54008 0.35418 0.55896 -0.14300
N 	N 	0.50400 0.38932 0.59720 -0.14000
N 	N 	0.48204 0.34305 0.63408 -0.09700
N 	N 	0.54226 0.28425 0.57060 -0.09900
N 	N 	0.45992 0.64582 0.55896 -0.14200
N 	N 	0.49600 0.61068 0.59720 -0.14000
N 	N 	0.51796 0.65695 0.63408 -0.09600
N 	N 	0.45774 0.71575 0.57060 -0.09700
N 	N 	0.14582 0.04008 0.05896 -0.14800
N 	N 	0.11068 0.00400 0.09720 -0.16000
N 	N 	0.15695 0.98204 0.13408 -0.07200
N 	N 	0.21575 0.04226 0.07060 -0.10400
N 	N 	0.85418 0.95992 0.05896 -0.13800
N 	N 	0.88932 0.99600 0.09720 -0.11100
N 	N 	0.84305 0.01796 0.13408 -0.12000
N 	N 	0.78425 0.95774 0.07060 -0.09800
N 	N 	0.95992 0.85418 0.94104 -0.12900
N 	N 	0.99600 0.88932 0.90280 -0.10800
N 	N 	0.01796 0.84305 0.86592 -0.12000
N 	N 	0.95774 0.78425 0.92940 -0.09100
N 	N 	0.04008 0.14582 0.94104 -0.14000
N 	N 	0.00400 0.11068 0.90280 -0.15800
N 	N 	0.98204 0.15695 0.86592 -0.07000
N 	N 	0.04226 0.21575 0.92940 -0.09800
N 	N 	0.35418 0.54008 0.44104 -0.14300
N 	N 	0.38932 0.50400 0.40280 -0.14100
N 	N 	0.34305 0.48204 0.36592 -0.09800
N 	N 	0.28425 0.54226 0.42940 -0.09900
N 	N 	0.64582 0.45992 0.44104 -0.14200
N 	N 	0.61068 0.49600 0.40280 -0.14000
N 	N 	0.65695 0.51796 0.36592 -0.09700
N 	N 	0.71575 0.45774 0.42940 -0.09700
Cl	Cl	0.50000 0.50000 0.50000 -0.69300
Cl	Cl	-0.00000 0.00000 -0.00000 -0.75400
