data_crystal

_cell_length_a 26.85500
_cell_length_b 26.85500
_cell_length_c 26.90750
_cell_angle_alpha 60.06450
_cell_angle_beta  60.06450
_cell_angle_gamma 90.00000

_symmetry_space_group_name_	'P 1'
_symmetry_space_group_name_H-M	'P 1'

loop_
_symmetry_equiv_pos_as_xyz
  x,y,z

loop_
_atom_site_label
_atom_site_type_symbol
_atom_site_fract_x
_atom_site_fract_y
_atom_site_fract_z
_atom_site_charge
Zn	Zn	0.18440 0.23626 0.28939 1.19900
Zn	Zn	0.06344 0.13569 0.40182 1.19800
Zn	Zn	0.52621 0.47436 0.28938 1.19900
Zn	Zn	0.53474 0.46249 0.40182 1.19800
Zn	Zn	0.23626 0.52620 0.28939 1.19900
Zn	Zn	0.13569 0.53474 0.40182 1.19800
Zn	Zn	0.47436 0.18441 0.28938 1.19900
Zn	Zn	0.46249 0.06344 0.40182 1.19800
Zn	Zn	0.81560 0.76374 0.71061 1.20200
Zn	Zn	0.93656 0.86431 0.59818 1.19800
Zn	Zn	0.47379 0.52564 0.71062 1.20100
Zn	Zn	0.46526 0.53751 0.59818 1.19700
Zn	Zn	0.76373 0.47379 0.71062 1.20100
Zn	Zn	0.86431 0.46526 0.59818 1.19700
Zn	Zn	0.52564 0.81559 0.71062 1.20100
Zn	Zn	0.53751 0.93656 0.59818 1.19700
Zn	Zn	0.20960 0.54965 -0.00000 1.17600
Zn	Zn	0.10009 0.56728 -0.00000 1.17400
Zn	Zn	0.79040 0.45035 -0.00000 1.17500
Zn	Zn	0.89991 0.43272 1.00000 1.22100
Zn	Zn	0.54965 0.79040 1.00000 1.22200
Zn	Zn	0.56728 0.89991 -0.00000 1.17500
Zn	Zn	0.45035 0.20960 -0.00000 1.17600
Zn	Zn	0.43272 0.10009 -0.00000 1.17400
H 	H 	0.26720 0.90490 0.67240 0.13800
H 	H 	0.10760 0.92940 0.60700 0.13400
H 	H 	0.08310 0.70840 0.80460 0.13700
H 	H 	0.18850 0.75470 0.82000 0.08700
H 	H 	0.32950 0.73310 0.83480 0.05100
H 	H 	0.35040 0.88920 0.67400 0.06100
H 	H 	0.26140 0.98620 0.53400 0.09400
H 	H 	0.28820 0.14640 0.37220 0.04300
H 	H 	0.12080 0.02340 0.52440 0.06500
H 	H 	0.02070 0.78860 0.71260 0.07400
H 	H 	0.87620 0.64050 0.82600 0.04400
H 	H 	0.00490 0.62720 0.86320 0.05900
H 	H 	0.06040 0.42270 0.67240 0.13700
H 	H 	0.28540 0.46360 0.60700 0.13300
H 	H 	0.11230 0.48700 0.80460 0.13700
H 	H 	0.99150 0.42530 0.82000 0.08700
H 	H 	0.83570 0.43210 0.83480 0.05100
H 	H 	0.97560 0.43680 0.67400 0.06200
H 	H 	0.20460 0.47980 0.53400 0.08300
H 	H 	0.33960 0.48140 0.37220 0.04000
H 	H 	0.35480 0.45220 0.52440 0.06100
H 	H 	0.26670 0.49880 0.71260 0.08400
H 	H 	0.29780 0.53350 0.82600 0.04800
H 	H 	0.13190 0.50960 0.86320 0.06700
H 	H 	0.90490 0.06040 0.67240 0.13700
H 	H 	0.92940 0.28540 0.60700 0.13400
H 	H 	0.70840 0.11230 0.80460 0.13700
H 	H 	0.75470 0.99150 0.82000 0.08800
H 	H 	0.73310 0.83570 0.83480 0.05100
H 	H 	0.88920 0.97560 0.67400 0.06200
H 	H 	0.98620 0.20460 0.53400 0.09300
H 	H 	0.14640 0.33960 0.37220 0.04300
H 	H 	0.02340 0.35480 0.52440 0.06500
H 	H 	0.78860 0.26670 0.71260 0.08400
H 	H 	0.64050 0.29780 0.82600 0.04800
H 	H 	0.62720 0.13190 0.86320 0.06800
H 	H 	0.42270 0.26720 0.67240 0.13700
H 	H 	0.46360 0.10760 0.60700 0.13200
H 	H 	0.48700 0.08310 0.80460 0.13700
H 	H 	0.42530 0.18850 0.82000 0.08600
H 	H 	0.43210 0.32950 0.83480 0.05100
H 	H 	0.43680 0.35040 0.67400 0.06000
H 	H 	0.47980 0.26140 0.53400 0.08300
H 	H 	0.48140 0.28820 0.37220 0.04000
H 	H 	0.45220 0.12080 0.52440 0.06100
H 	H 	0.49880 0.02070 0.71260 0.07200
H 	H 	0.53350 0.87620 0.82600 0.04300
H 	H 	0.50960 0.00490 0.86320 0.05700
H 	H 	0.73280 0.09510 0.32760 0.13200
H 	H 	0.89240 0.07060 0.39300 0.12900
H 	H 	0.91690 0.29160 0.19540 0.12900
H 	H 	0.81150 0.24530 0.18000 0.07200
H 	H 	0.67050 0.26690 0.16520 0.03300
H 	H 	0.64960 0.11080 0.32600 0.05400
H 	H 	0.73860 0.01380 0.46600 0.07200
H 	H 	0.71180 0.85360 0.62780 0.04200
H 	H 	0.87920 0.97660 0.47560 0.05700
H 	H 	0.97930 0.21140 0.28740 0.09100
H 	H 	0.12380 0.35950 0.17400 0.03800
H 	H 	0.99510 0.37280 0.13680 0.06200
H 	H 	0.93960 0.57730 0.32760 0.13400
H 	H 	0.71460 0.53640 0.39300 0.13000
H 	H 	0.88770 0.51300 0.19540 0.12900
H 	H 	0.00850 0.57470 0.18000 0.07100
H 	H 	0.16430 0.56790 0.16520 0.03300
H 	H 	0.02440 0.56320 0.32600 0.05300
H 	H 	0.79540 0.52020 0.46600 0.08300
H 	H 	0.66040 0.51860 0.62780 0.04500
H 	H 	0.64520 0.54780 0.47560 0.06000
H 	H 	0.73330 0.50120 0.28740 0.07800
H 	H 	0.70220 0.46650 0.17400 0.03300
H 	H 	0.86810 0.49040 0.13680 0.04900
H 	H 	0.09510 0.93960 0.32760 0.13300
H 	H 	0.07060 0.71460 0.39300 0.12900
H 	H 	0.29160 0.88770 0.19540 0.12900
H 	H 	0.24530 0.00850 0.18000 0.07100
H 	H 	0.26690 0.16430 0.16520 0.03300
H 	H 	0.11080 0.02440 0.32600 0.05300
H 	H 	0.01380 0.79540 0.46600 0.07300
H 	H 	0.85360 0.66040 0.62780 0.04200
H 	H 	0.97660 0.64520 0.47560 0.05600
H 	H 	0.21140 0.73330 0.28740 0.07800
H 	H 	0.35950 0.70220 0.17400 0.03300
H 	H 	0.37280 0.86810 0.13680 0.04900
H 	H 	0.57730 0.73280 0.32760 0.13300
H 	H 	0.53640 0.89240 0.39300 0.13100
H 	H 	0.51300 0.91690 0.19540 0.13000
H 	H 	0.57470 0.81150 0.18000 0.07300
H 	H 	0.56790 0.67050 0.16520 0.03300
H 	H 	0.56320 0.64960 0.32600 0.05500
H 	H 	0.52020 0.73860 0.46600 0.08300
H 	H 	0.51860 0.71180 0.62780 0.04500
H 	H 	0.54780 0.87920 0.47560 0.06100
H 	H 	0.50120 0.97930 0.28740 0.09000
H 	H 	0.46650 0.12380 0.17400 0.03800
H 	H 	0.49040 0.99510 0.13680 0.06200
C 	C 	0.19775 0.85404 0.69904 0.21000
C 	C 	0.14833 0.89237 0.64904 0.20500
C 	C 	0.11335 0.79323 0.73480 0.20300
C 	C 	0.26523 0.82756 0.74076 0.11200
C 	C 	0.22903 0.76990 0.80220 -0.07400
C 	C 	0.25302 0.73505 0.83692 -0.06700
C 	C 	0.31351 0.75704 0.81118 0.01800
C 	C 	0.35024 0.81555 0.74930 -0.08000
C 	C 	0.32615 0.85032 0.71482 -0.06900
C 	C 	0.21531 0.67126 0.90120 0.39500
C 	C 	0.41637 0.83840 0.71886 0.41600
C 	C 	0.18373 0.99541 0.54076 0.13400
C 	C 	0.24589 0.01249 0.51150 -0.09900
C 	C 	0.28468 0.06958 0.44808 -0.06400
C 	C 	0.26202 0.10867 0.41438 0.01300
C 	C 	0.20076 0.09191 0.44308 -0.07400
C 	C 	0.16204 0.03492 0.50582 -0.09200
C 	C 	0.35224 0.08651 0.41486 0.38800
C 	C 	0.17541 0.13112 0.40544 0.39400
C 	C 	0.02102 0.71195 0.78694 0.09800
C 	C 	0.99934 0.74732 0.74802 -0.05100
C 	C 	0.94523 0.71972 0.76308 -0.08400
C 	C 	0.91291 0.65821 0.81544 0.02900
C 	C 	0.93665 0.62330 0.85202 -0.08600
C 	C 	0.98986 0.65058 0.83794 -0.05200
C 	C 	0.92172 0.75650 0.72098 0.40800
C 	C 	0.90377 0.55649 0.90548 0.41500
C 	C 	0.10321 0.44692 0.69904 0.20900
C 	C 	0.20263 0.45859 0.64904 0.20400
C 	C 	0.15185 0.47197 0.73480 0.20400
C 	C 	0.99401 0.43168 0.74076 0.11500
C 	C 	0.96877 0.42790 0.80220 -0.07500
C 	C 	0.91006 0.42803 0.83692 -0.06800
C 	C 	0.87531 0.43178 0.81118 0.01800
C 	C 	0.90046 0.43515 0.74930 -0.08000
C 	C 	0.95903 0.43486 0.71482 -0.07000
C 	C 	0.88349 0.42754 0.90120 0.39700
C 	C 	0.86477 0.44274 0.71886 0.41500
C 	C 	0.27551 0.46383 0.54076 0.11600
C 	C 	0.24261 0.47601 0.51150 -0.07700
C 	C 	0.26724 0.48234 0.44808 -0.07400
C 	C 	0.32360 0.47695 0.41438 0.02200
C 	C 	0.35616 0.46501 0.44308 -0.08200
C 	C 	0.33214 0.45926 0.50582 -0.07700
C 	C 	0.23290 0.49863 0.41486 0.39200
C 	C 	0.41915 0.46344 0.40544 0.39700
C 	C 	0.19204 0.50111 0.78694 0.11500
C 	C 	0.25264 0.50466 0.74802 -0.07200
C 	C 	0.29169 0.51720 0.76308 -0.07400
C 	C 	0.27165 0.52635 0.81544 0.01900
C 	C 	0.21133 0.52468 0.85202 -0.07500
C 	C 	0.17220 0.51148 0.83794 -0.07200
C 	C 	0.35730 0.52252 0.72098 0.40500
C 	C 	0.19075 0.53803 0.90548 0.40900
C 	C 	0.85404 0.10321 0.69904 0.20900
C 	C 	0.89237 0.20263 0.64904 0.20500
C 	C 	0.79323 0.15185 0.73480 0.20400
C 	C 	0.82756 0.99401 0.74076 0.11600
C 	C 	0.76990 0.96877 0.80220 -0.07500
C 	C 	0.73505 0.91006 0.83692 -0.06700
C 	C 	0.75704 0.87531 0.81118 0.01700
C 	C 	0.81555 0.90046 0.74930 -0.07900
C 	C 	0.85032 0.95903 0.71482 -0.07100
C 	C 	0.67126 0.88349 0.90120 0.39700
C 	C 	0.83840 0.86477 0.71886 0.41500
C 	C 	0.99541 0.27551 0.54076 0.13300
C 	C 	0.01249 0.24261 0.51150 -0.09800
C 	C 	0.06958 0.26724 0.44808 -0.06400
C 	C 	0.10867 0.32360 0.41438 0.01300
C 	C 	0.09191 0.35616 0.44308 -0.07400
C 	C 	0.03492 0.33214 0.50582 -0.09200
C 	C 	0.08651 0.23290 0.41486 0.38800
C 	C 	0.13112 0.41915 0.40544 0.39400
C 	C 	0.71195 0.19204 0.78694 0.11600
C 	C 	0.74732 0.25264 0.74802 -0.07200
C 	C 	0.71972 0.29169 0.76308 -0.07400
C 	C 	0.65821 0.27165 0.81544 0.01900
C 	C 	0.62330 0.21133 0.85202 -0.07500
C 	C 	0.65058 0.17220 0.83794 -0.07300
C 	C 	0.75650 0.35730 0.72098 0.40400
C 	C 	0.55649 0.19075 0.90548 0.40900
C 	C 	0.44692 0.19775 0.69904 0.20900
C 	C 	0.45859 0.14833 0.64904 0.20300
C 	C 	0.47197 0.11335 0.73480 0.20300
C 	C 	0.43168 0.26523 0.74076 0.11200
C 	C 	0.42790 0.22903 0.80220 -0.07300
C 	C 	0.42803 0.25302 0.83692 -0.06800
C 	C 	0.43178 0.31351 0.81118 0.01800
C 	C 	0.43515 0.35024 0.74930 -0.08100
C 	C 	0.43486 0.32615 0.71482 -0.06900
C 	C 	0.42754 0.21531 0.90120 0.39500
C 	C 	0.44274 0.41637 0.71886 0.41600
C 	C 	0.46383 0.18373 0.54076 0.11600
C 	C 	0.47601 0.24589 0.51150 -0.07700
C 	C 	0.48234 0.28468 0.44808 -0.07400
C 	C 	0.47695 0.26202 0.41438 0.02200
C 	C 	0.46501 0.20076 0.44308 -0.08200
C 	C 	0.45926 0.16204 0.50582 -0.07700
C 	C 	0.49863 0.35224 0.41486 0.39200
C 	C 	0.46344 0.17541 0.40544 0.39700
C 	C 	0.50111 0.02102 0.78694 0.09400
C 	C 	0.50466 0.99934 0.74802 -0.04700
C 	C 	0.51720 0.94523 0.76308 -0.08600
C 	C 	0.52635 0.91291 0.81544 0.03200
C 	C 	0.52468 0.93665 0.85202 -0.08800
C 	C 	0.51148 0.98986 0.83794 -0.04700
C 	C 	0.52252 0.92172 0.72098 0.40900
C 	C 	0.53803 0.90377 0.90548 0.41600
C 	C 	0.80225 0.14596 0.30096 0.20300
C 	C 	0.85167 0.10763 0.35096 0.19800
C 	C 	0.88665 0.20677 0.26520 0.19700
C 	C 	0.73477 0.17244 0.25924 0.09700
C 	C 	0.77097 0.23010 0.19780 -0.06200
C 	C 	0.74698 0.26495 0.16308 -0.09400
C 	C 	0.68649 0.24296 0.18882 0.02900
C 	C 	0.64976 0.18445 0.25070 -0.09700
C 	C 	0.67385 0.14968 0.28518 -0.06000
C 	C 	0.78469 0.32874 0.09880 0.40800
C 	C 	0.58363 0.16160 0.28114 0.42000
C 	C 	0.81627 0.00459 0.45924 0.09600
C 	C 	0.75411 0.98751 0.48850 -0.05500
C 	C 	0.71532 0.93042 0.55192 -0.08300
C 	C 	0.73798 0.89133 0.58562 0.02900
C 	C 	0.79924 0.90809 0.55692 -0.08800
C 	C 	0.83796 0.96508 0.49418 -0.06300
C 	C 	0.64776 0.91349 0.58514 0.39400
C 	C 	0.82459 0.86888 0.59456 0.39800
C 	C 	0.97898 0.28805 0.21306 0.12500
C 	C 	0.00066 0.25268 0.25198 -0.09500
C 	C 	0.05477 0.28028 0.23692 -0.07500
C 	C 	0.08709 0.34179 0.18456 0.01500
C 	C 	0.06335 0.37670 0.14798 -0.08700
C 	C 	0.01014 0.34942 0.16206 -0.09300
C 	C 	0.07828 0.24350 0.27902 0.40200
C 	C 	0.09623 0.44351 0.09452 0.41200
C 	C 	0.89679 0.55308 0.30096 0.20400
C 	C 	0.79737 0.54141 0.35096 0.19900
C 	C 	0.84815 0.52803 0.26520 0.19700
C 	C 	0.00599 0.56832 0.25924 0.09200
C 	C 	0.03123 0.57210 0.19780 -0.06000
C 	C 	0.08994 0.57197 0.16308 -0.09500
C 	C 	0.12469 0.56822 0.18882 0.03000
C 	C 	0.09954 0.56485 0.25070 -0.09800
C 	C 	0.04097 0.56514 0.28518 -0.05800
C 	C 	0.11651 0.57246 0.09880 0.40600
C 	C 	0.13523 0.55726 0.28114 0.42000
C 	C 	0.72449 0.53617 0.45924 0.11500
C 	C 	0.75739 0.52399 0.48850 -0.07800
C 	C 	0.73276 0.51766 0.55192 -0.07200
C 	C 	0.67640 0.52305 0.58562 0.01900
C 	C 	0.64384 0.53499 0.55692 -0.08000
C 	C 	0.66786 0.54074 0.49418 -0.07900
C 	C 	0.76710 0.50137 0.58514 0.39000
C 	C 	0.58085 0.53656 0.59456 0.39500
C 	C 	0.80796 0.49889 0.21306 0.09900
C 	C 	0.74736 0.49534 0.25198 -0.06500
C 	C 	0.70831 0.48280 0.23692 -0.08900
C 	C 	0.72835 0.47365 0.18456 0.03000
C 	C 	0.78867 0.47532 0.14798 -0.10300
C 	C 	0.82780 0.48852 0.16206 -0.06200
C 	C 	0.64270 0.47748 0.27902 0.40800
C 	C 	0.80925 0.46197 0.09452 0.42100
C 	C 	0.14596 0.89679 0.30096 0.20300
C 	C 	0.10763 0.79737 0.35096 0.19800
C 	C 	0.20677 0.84815 0.26520 0.19600
C 	C 	0.17244 0.00599 0.25924 0.09200
C 	C 	0.23010 0.03123 0.19780 -0.06000
C 	C 	0.26495 0.08994 0.16308 -0.09600
C 	C 	0.24296 0.12469 0.18882 0.03000
C 	C 	0.18445 0.09954 0.25070 -0.09900
C 	C 	0.14968 0.04097 0.28518 -0.05800
C 	C 	0.32874 0.11651 0.09880 0.40600
C 	C 	0.16160 0.13523 0.28114 0.42000
C 	C 	0.00459 0.72449 0.45924 0.09600
C 	C 	0.98751 0.75739 0.48850 -0.05500
C 	C 	0.93042 0.73276 0.55192 -0.08300
C 	C 	0.89133 0.67640 0.58562 0.02900
C 	C 	0.90809 0.64384 0.55692 -0.08900
C 	C 	0.96508 0.66786 0.49418 -0.06300
C 	C 	0.91349 0.76710 0.58514 0.39400
C 	C 	0.86888 0.58085 0.59456 0.39800
C 	C 	0.28805 0.80796 0.21306 0.09900
C 	C 	0.25268 0.74736 0.25198 -0.06500
C 	C 	0.28028 0.70831 0.23692 -0.09000
C 	C 	0.34179 0.72835 0.18456 0.03000
C 	C 	0.37670 0.78867 0.14798 -0.10300
C 	C 	0.34942 0.82780 0.16206 -0.06100
C 	C 	0.24350 0.64270 0.27902 0.40800
C 	C 	0.44351 0.80925 0.09452 0.42100
C 	C 	0.55308 0.80225 0.30096 0.20400
C 	C 	0.54141 0.85167 0.35096 0.20000
C 	C 	0.52803 0.88665 0.26520 0.19700
C 	C 	0.56832 0.73477 0.25924 0.09800
C 	C 	0.57210 0.77097 0.19780 -0.06200
C 	C 	0.57197 0.74698 0.16308 -0.09400
C 	C 	0.56822 0.68649 0.18882 0.02900
C 	C 	0.56485 0.64976 0.25070 -0.09700
C 	C 	0.56514 0.67385 0.28518 -0.06100
C 	C 	0.57246 0.78469 0.09880 0.40800
C 	C 	0.55726 0.58363 0.28114 0.42000
C 	C 	0.53617 0.81627 0.45924 0.11500
C 	C 	0.52399 0.75411 0.48850 -0.07900
C 	C 	0.51766 0.71532 0.55192 -0.07200
C 	C 	0.52305 0.73798 0.58562 0.01900
C 	C 	0.53499 0.79924 0.55692 -0.08000
C 	C 	0.54074 0.83796 0.49418 -0.07900
C 	C 	0.50137 0.64776 0.58514 0.39000
C 	C 	0.53656 0.82459 0.59456 0.39500
C 	C 	0.49889 0.97898 0.21306 0.12300
C 	C 	0.49534 0.00066 0.25198 -0.09300
C 	C 	0.48280 0.05477 0.23692 -0.07500
C 	C 	0.47365 0.08709 0.18456 0.01600
C 	C 	0.47532 0.06335 0.14798 -0.08800
C 	C 	0.48852 0.01014 0.16206 -0.09100
C 	C 	0.47748 0.07828 0.27902 0.40200
C 	C 	0.46197 0.09623 0.09452 0.41300
N 	N 	0.15925 0.79886 0.74186 -0.17800
N 	N 	0.19552 0.90363 0.65046 -0.17700
N 	N 	0.10458 0.83806 0.69144 -0.17700
N 	N 	0.24547 0.86701 0.70032 -0.23500
N 	N 	0.14231 0.93759 0.60026 -0.23800
N 	N 	0.07412 0.73514 0.77832 -0.23000
N 	N 	0.09889 0.45928 0.74186 -0.17800
N 	N 	0.15402 0.44591 0.65046 -0.17700
N 	N 	0.20398 0.47050 0.69144 -0.17700
N 	N 	0.05421 0.43267 0.70032 -0.23700
N 	N 	0.25743 0.46215 0.60026 -0.23400
N 	N 	0.14756 0.48654 0.77832 -0.23300
N 	N 	0.79886 0.09889 0.74186 -0.17900
N 	N 	0.90363 0.15402 0.65046 -0.17700
N 	N 	0.83806 0.20398 0.69144 -0.17700
N 	N 	0.86701 0.05421 0.70032 -0.23800
N 	N 	0.93759 0.25743 0.60026 -0.23800
N 	N 	0.73514 0.14756 0.77832 -0.23300
N 	N 	0.45928 0.15925 0.74186 -0.17800
N 	N 	0.44591 0.19552 0.65046 -0.17700
N 	N 	0.47050 0.10458 0.69144 -0.17700
N 	N 	0.43267 0.24547 0.70032 -0.23500
N 	N 	0.46215 0.14231 0.60026 -0.23400
N 	N 	0.48654 0.07412 0.77832 -0.22900
N 	N 	0.84075 0.20114 0.25814 -0.18000
N 	N 	0.80448 0.09637 0.34954 -0.17800
N 	N 	0.89542 0.16194 0.30856 -0.17900
N 	N 	0.75453 0.13299 0.29968 -0.23400
N 	N 	0.85769 0.06241 0.39974 -0.23100
N 	N 	0.92588 0.26486 0.22168 -0.23500
N 	N 	0.90111 0.54072 0.25814 -0.17900
N 	N 	0.84598 0.55409 0.34954 -0.17800
N 	N 	0.79602 0.52950 0.30856 -0.17800
N 	N 	0.94579 0.56733 0.29968 -0.23100
N 	N 	0.74257 0.53785 0.39974 -0.23400
N 	N 	0.85244 0.51346 0.22168 -0.23100
N 	N 	0.20114 0.90111 0.25814 -0.17900
N 	N 	0.09637 0.84598 0.34954 -0.17800
N 	N 	0.16194 0.79602 0.30856 -0.17800
N 	N 	0.13299 0.94579 0.29968 -0.23100
N 	N 	0.06241 0.74257 0.39974 -0.23100
N 	N 	0.26486 0.85244 0.22168 -0.23100
N 	N 	0.54072 0.84075 0.25814 -0.18000
N 	N 	0.55409 0.80448 0.34954 -0.17800
N 	N 	0.52950 0.89542 0.30856 -0.17900
N 	N 	0.56733 0.75453 0.29968 -0.23400
N 	N 	0.53785 0.85769 0.39974 -0.23400
N 	N 	0.51346 0.92588 0.22168 -0.23500
O 	O 	0.16066 0.65320 0.92450 -0.45000
O 	O 	0.24171 0.63961 0.92568 -0.45500
O 	O 	0.43648 0.80394 0.74996 -0.48400
O 	O 	0.44614 0.89099 0.66434 -0.49200
O 	O 	0.37245 0.04671 0.44184 -0.46900
O 	O 	0.38378 0.13978 0.36092 -0.48700
O 	O 	0.21238 0.18084 0.34742 -0.47800
O 	O 	0.11955 0.11222 0.43318 -0.49200
O 	O 	0.95728 0.80783 0.66540 -0.47300
O 	O 	0.86883 0.73232 0.74398 -0.48800
O 	O 	0.85123 0.53654 0.92564 -0.46600
O 	O 	0.93223 0.52483 0.92596 -0.46100
O 	O 	0.91484 0.42230 0.92450 -0.45900
O 	O 	0.83261 0.43471 0.92568 -0.45800
O 	O 	0.81356 0.44610 0.74996 -0.48400
O 	O 	0.88952 0.44467 0.66434 -0.49200
O 	O 	0.18571 0.51145 0.44184 -0.46800
O 	O 	0.25530 0.49930 0.36092 -0.48800
O 	O 	0.44020 0.47174 0.34742 -0.47900
O 	O 	0.44727 0.45460 0.43318 -0.49200
O 	O 	0.37732 0.52677 0.66540 -0.47400
O 	O 	0.38719 0.52370 0.74398 -0.48700
O 	O 	0.22313 0.53782 0.92564 -0.46200
O 	O 	0.14181 0.54921 0.92596 -0.45200
O 	O 	0.65320 0.91484 0.92450 -0.45100
O 	O 	0.63961 0.83261 0.92568 -0.46500
O 	O 	0.80394 0.81356 0.74996 -0.48400
O 	O 	0.89099 0.88952 0.66434 -0.49100
O 	O 	0.04671 0.18571 0.44184 -0.46900
O 	O 	0.13978 0.25530 0.36092 -0.48700
O 	O 	0.18084 0.44020 0.34742 -0.47800
O 	O 	0.11222 0.44727 0.43318 -0.49200
O 	O 	0.80783 0.37732 0.66540 -0.47400
O 	O 	0.73232 0.38719 0.74398 -0.48700
O 	O 	0.53654 0.22313 0.92564 -0.46200
O 	O 	0.52483 0.14181 0.92596 -0.45200
O 	O 	0.42230 0.16066 0.92450 -0.45000
O 	O 	0.43471 0.24171 0.92568 -0.45500
O 	O 	0.44610 0.43648 0.74996 -0.48400
O 	O 	0.44467 0.44614 0.66434 -0.49300
O 	O 	0.51145 0.37245 0.44184 -0.46800
O 	O 	0.49930 0.38378 0.36092 -0.48800
O 	O 	0.47174 0.21238 0.34742 -0.47900
O 	O 	0.45460 0.11955 0.43318 -0.49300
O 	O 	0.52677 0.95728 0.66540 -0.47400
O 	O 	0.52370 0.86883 0.74398 -0.48800
O 	O 	0.53782 0.85123 0.92564 -0.47300
O 	O 	0.54921 0.93223 0.92596 -0.45400
O 	O 	0.83934 0.34680 0.07550 -0.50900
O 	O 	0.75829 0.36039 0.07432 -0.50900
O 	O 	0.56352 0.19606 0.25004 -0.49700
O 	O 	0.55386 0.10901 0.33566 -0.49700
O 	O 	0.62755 0.95329 0.55816 -0.46800
O 	O 	0.61622 0.86022 0.63908 -0.48400
O 	O 	0.78762 0.81916 0.65258 -0.47400
O 	O 	0.88045 0.88778 0.56682 -0.49200
O 	O 	0.04272 0.19217 0.33460 -0.47700
O 	O 	0.13117 0.26768 0.25602 -0.49700
O 	O 	0.14877 0.46346 0.07436 -0.51300
O 	O 	0.06777 0.47517 0.07404 -0.50100
O 	O 	0.08516 0.57770 0.07550 -0.50100
O 	O 	0.16739 0.56529 0.07432 -0.50800
O 	O 	0.18644 0.55390 0.25004 -0.49700
O 	O 	0.11048 0.55533 0.33566 -0.49700
O 	O 	0.81429 0.48855 0.55816 -0.46800
O 	O 	0.74470 0.50070 0.63908 -0.48300
O 	O 	0.55980 0.52826 0.65258 -0.47300
O 	O 	0.55273 0.54540 0.56682 -0.49200
O 	O 	0.62268 0.47323 0.33460 -0.47700
O 	O 	0.61281 0.47630 0.25602 -0.49800
O 	O 	0.77687 0.46218 0.07436 -0.51500
O 	O 	0.85819 0.45079 0.07404 -0.50900
O 	O 	0.34680 0.08516 0.07550 -0.50100
O 	O 	0.36039 0.16739 0.07432 -0.50800
O 	O 	0.19606 0.18644 0.25004 -0.49700
O 	O 	0.10901 0.11048 0.33566 -0.49800
O 	O 	0.95329 0.81429 0.55816 -0.46800
O 	O 	0.86022 0.74470 0.63908 -0.48400
O 	O 	0.81916 0.55980 0.65258 -0.47400
O 	O 	0.88778 0.55273 0.56682 -0.49300
O 	O 	0.19217 0.62268 0.33460 -0.47700
O 	O 	0.26768 0.61281 0.25602 -0.49800
O 	O 	0.46346 0.77687 0.07436 -0.52300
O 	O 	0.47517 0.85819 0.07404 -0.50200
O 	O 	0.57770 0.83934 0.07550 -0.50100
O 	O 	0.56529 0.75829 0.07432 -0.51700
O 	O 	0.55390 0.56352 0.25004 -0.49700
O 	O 	0.55533 0.55386 0.33566 -0.49600
O 	O 	0.48855 0.62755 0.55816 -0.46800
O 	O 	0.50070 0.61622 0.63908 -0.48300
O 	O 	0.52826 0.78762 0.65258 -0.47300
O 	O 	0.54540 0.88045 0.56682 -0.49200
O 	O 	0.47323 0.04272 0.33460 -0.47700
O 	O 	0.47630 0.13117 0.25602 -0.49700
O 	O 	0.46218 0.14877 0.07436 -0.51200
O 	O 	0.45079 0.06777 0.07404 -0.50100
