data_crystal

_cell_length_a 17.98310
_cell_length_b 28.25450
_cell_length_c 13.04790
_cell_angle_alpha 90.00000
_cell_angle_beta  135.58700
_cell_angle_gamma 90.00000

_symmetry_space_group_name_	'P 1'
_symmetry_space_group_name_H-M	'P 1'

loop_
_symmetry_equiv_pos_as_xyz
  x,y,z

loop_
_atom_site_label
_atom_site_type_symbol
_atom_site_fract_x
_atom_site_fract_y
_atom_site_fract_z
_atom_site_charge
N 	N 	0.13410 0.93990 0.99800 -0.22000
C 	C 	0.20750 0.91310 0.11600 0.01500
H 	H 	0.22340 0.91900 0.20150 -0.00100
C 	C 	0.26180 0.87700 0.11960 -0.05800
H 	H 	0.31280 0.85860 0.20590 0.03600
C 	C 	0.24130 0.86800 0.99720 0.06000
C 	C 	0.16810 0.89700 0.87700 -0.00300
H 	H 	0.15200 0.89260 0.79100 0.02400
C 	C 	0.11870 0.93230 0.88400 0.06800
H 	H 	0.07050 0.95240 0.80090 -0.01600
C 	C 	0.30270 0.83340 0.99580 0.02200
C 	C 	0.40870 0.84330 0.08200 -0.10000
H 	H 	0.43990 0.87100 0.14140 0.07900
C 	C 	0.46820 0.81320 0.08260 -0.05800
H 	H 	0.54120 0.82060 0.14480 0.03400
C 	C 	0.42890 0.77230 0.99740 0.15900
C 	C 	0.31870 0.76550 0.89930 -0.06700
H 	H 	0.28580 0.74000 0.83130 0.04400
C 	C 	0.25700 0.79480 0.89920 -0.03100
H 	H 	0.18310 0.78870 0.83320 0.03200
C 	C 	0.56720 0.70920 0.13850 0.10400
C 	C 	0.61840 0.66930 0.15120 -0.06400
H 	H 	0.61550 0.66180 0.07740 0.03600
C 	C 	0.67400 0.64040 0.27390 -0.02600
H 	H 	0.69590 0.61010 0.27230 0.03100
C 	C 	0.69860 0.65310 0.39510 0.03600
C 	C 	0.63750 0.69060 0.37600 -0.02700
H 	H 	0.64050 0.69680 0.45070 0.03500
C 	C 	0.57120 0.71930 0.24700 -0.08500
H 	H 	0.53100 0.74460 0.23590 0.05300
C 	C 	0.76490 0.62460 0.53140 -0.03400
C 	C 	0.83630 0.59140 0.57000 0.27100
H 	H 	0.84310 0.58410 0.50620 -0.05600
C 	C 	0.89540 0.56970 0.69580 -0.27900
H 	H 	0.94160 0.54630 0.71410 0.10500
N 	N 	0.90060 0.57540 0.80080 -0.21600
C 	C 	0.81850 0.60230 0.76000 0.35300
H 	H 	0.81110 0.60460 0.82460 -0.12700
C 	C 	0.74450 0.62680 0.62300 -0.38300
H 	H 	0.68560 0.64360 0.59260 0.14900
H 	H 	0.09700 0.86030 0.78360 0.05200
H 	H 	0.01290 0.92140 0.79220 0.00400
C 	C 	0.23460 0.92820 0.11700 0.00700
C 	C 	0.28940 0.89270 0.12200 -0.06400
C 	C 	0.13490 0.87780 0.87120 -0.10900
C 	C 	0.08520 0.91450 0.87790 -0.02300
H 	H 	0.27070 0.94570 0.20430 0.00300
H 	H 	0.36020 0.88540 0.21180 0.03900
C 	C 	0.32130 0.84110 0.91200 -0.02000
H 	H 	0.28860 0.86780 0.84830 0.06300
C 	C 	0.38380 0.81280 0.91290 -0.09100
H 	H 	0.39620 0.82110 0.85560 0.05200
C 	C 	0.41710 0.76400 0.09180 -0.13400
H 	H 	0.44860 0.73710 0.15440 0.06400
C 	C 	0.36100 0.79460 0.09070 0.00800
H 	H 	0.35990 0.78990 0.16170 0.01700
C 	C 	0.53760 0.66670 0.14470 -0.05700
H 	H 	0.47010 0.65470 0.05860 0.03300
C 	C 	0.60010 0.63970 0.26920 -0.04200
H 	H 	0.57310 0.61040 0.26680 0.03600
C 	C 	0.74680 0.68910 0.38200 -0.03900
H 	H 	0.82170 0.69330 0.45490 0.04000
C 	C 	0.67760 0.71910 0.25140 -0.06700
H 	H 	0.70630 0.74500 0.24250 0.05000
C 	C 	0.79650 0.57240 0.69530 -0.33500
H 	H 	0.76540 0.55240 0.71480 0.11400
C 	C 	0.72990 0.59310 0.56800 0.33200
H 	H 	0.65620 0.58600 0.49960 -0.07900
C 	C 	0.88040 0.62370 0.62860 -0.34400
H 	H 	0.91120 0.63970 0.60210 0.14000
C 	C 	0.94530 0.59840 0.76300 0.32800
H 	H 	0.02010 0.59740 0.82700 -0.12300
N 	N 	0.86590 0.93990 0.00200 -0.23900
C 	C 	0.79250 0.91310 0.88400 0.04000
H 	H 	0.77660 0.91900 0.79850 -0.00300
C 	C 	0.73820 0.87700 0.88040 -0.02000
H 	H 	0.68720 0.85860 0.79410 0.02700
C 	C 	0.75870 0.86800 0.00280 0.01200
C 	C 	0.83190 0.89700 0.12300 0.02300
H 	H 	0.84800 0.89260 0.20900 0.01900
C 	C 	0.88130 0.93230 0.11600 0.07400
H 	H 	0.92950 0.95240 0.19910 -0.01200
C 	C 	0.69730 0.83340 0.00420 -0.00400
C 	C 	0.59130 0.84330 0.91800 -0.06400
H 	H 	0.56010 0.87100 0.85860 0.07200
C 	C 	0.53180 0.81320 0.91740 -0.01100
H 	H 	0.45880 0.82060 0.85520 0.01900
C 	C 	0.57110 0.77230 0.00260 0.06900
C 	C 	0.68130 0.76550 0.10070 -0.05600
H 	H 	0.71420 0.74000 0.16870 0.03800
C 	C 	0.74300 0.79480 0.10080 -0.04100
H 	H 	0.81690 0.78870 0.16680 0.03700
C 	C 	0.43280 0.70920 0.86150 0.11900
C 	C 	0.38160 0.66930 0.84880 -0.05900
H 	H 	0.38450 0.66180 0.92260 0.05200
C 	C 	0.32600 0.64040 0.72610 -0.04500
H 	H 	0.30410 0.61010 0.72770 0.03800
C 	C 	0.30140 0.65310 0.60490 0.08000
C 	C 	0.36250 0.69060 0.62400 -0.04300
H 	H 	0.35950 0.69680 0.54930 0.04300
C 	C 	0.42880 0.71930 0.75300 -0.07700
H 	H 	0.46900 0.74460 0.76410 0.05200
C 	C 	0.23510 0.62460 0.46860 -0.11700
C 	C 	0.16370 0.59140 0.43000 0.64500
H 	H 	0.15690 0.58410 0.49380 -0.18200
C 	C 	0.10460 0.56970 0.30420 -0.60500
H 	H 	0.05840 0.54630 0.28590 0.18700
N 	N 	0.09940 0.57540 0.19920 -0.20600
C 	C 	0.18150 0.60230 0.24000 0.60400
H 	H 	0.18890 0.60460 0.17540 -0.23700
C 	C 	0.25550 0.62680 0.37700 -0.58200
H 	H 	0.31440 0.64360 0.40740 0.21700
H 	H 	0.90300 0.86030 0.21640 0.06200
H 	H 	0.98710 0.92140 0.20780 0.03100
C 	C 	0.76540 0.92820 0.88300 0.00600
C 	C 	0.71060 0.89270 0.87800 -0.05500
C 	C 	0.86510 0.87780 0.12880 -0.12100
C 	C 	0.91480 0.91450 0.12210 -0.04600
H 	H 	0.72930 0.94570 0.79570 0.00700
H 	H 	0.63980 0.88540 0.78820 0.03900
C 	C 	0.67870 0.84110 0.08800 -0.05300
H 	H 	0.71140 0.86780 0.15170 0.07500
C 	C 	0.61620 0.81280 0.08710 -0.07700
H 	H 	0.60380 0.82110 0.14440 0.04100
C 	C 	0.58290 0.76400 0.90820 -0.07800
H 	H 	0.55140 0.73710 0.84560 0.04900
C 	C 	0.63900 0.79460 0.90930 0.01700
H 	H 	0.64010 0.78990 0.83830 0.02000
C 	C 	0.46240 0.66670 0.85530 -0.06300
H 	H 	0.52990 0.65470 0.94140 0.05400
C 	C 	0.39990 0.63970 0.73080 -0.04600
H 	H 	0.42690 0.61040 0.73320 0.03800
C 	C 	0.25320 0.68910 0.61800 -0.04600
H 	H 	0.17830 0.69330 0.54510 0.04000
C 	C 	0.32240 0.71910 0.74860 -0.07000
H 	H 	0.29370 0.74500 0.75750 0.04800
C 	C 	0.20350 0.57240 0.30470 -0.59100
H 	H 	0.23460 0.55240 0.28520 0.19000
C 	C 	0.27010 0.59310 0.43200 0.58700
H 	H 	0.34380 0.58600 0.50040 -0.16100
C 	C 	0.11960 0.62370 0.37140 -0.63700
H 	H 	0.08880 0.63970 0.39790 0.23000
C 	C 	0.05470 0.59840 0.23700 0.59700
H 	H 	0.97990 0.59740 0.17300 -0.22100
N 	N 	0.86590 0.06010 0.00200 -0.23700
C 	C 	0.79250 0.08690 0.88400 0.04100
H 	H 	0.77660 0.08100 0.79850 -0.00300
C 	C 	0.73820 0.12300 0.88040 -0.01900
H 	H 	0.68720 0.14140 0.79410 0.02700
C 	C 	0.75870 0.13200 0.00280 0.01200
C 	C 	0.83190 0.10300 0.12300 0.02800
H 	H 	0.84800 0.10740 0.20900 0.01800
C 	C 	0.88130 0.06770 0.11600 0.07800
H 	H 	0.92950 0.04760 0.19910 -0.01100
C 	C 	0.69730 0.16660 0.00420 -0.00400
C 	C 	0.59130 0.15670 0.91800 -0.06400
H 	H 	0.56010 0.12900 0.85860 0.07200
C 	C 	0.53180 0.18680 0.91740 -0.01100
H 	H 	0.45880 0.17940 0.85520 0.01900
C 	C 	0.57110 0.22770 0.00260 0.06900
C 	C 	0.68130 0.23450 0.10070 -0.05600
H 	H 	0.71420 0.26000 0.16870 0.03800
C 	C 	0.74300 0.20520 0.10080 -0.04100
H 	H 	0.81690 0.21130 0.16680 0.03700
C 	C 	0.43280 0.29080 0.86150 0.11900
C 	C 	0.38160 0.33070 0.84880 -0.05900
H 	H 	0.38450 0.33820 0.92260 0.05200
C 	C 	0.32600 0.35960 0.72610 -0.04500
H 	H 	0.30410 0.38990 0.72770 0.03800
C 	C 	0.30140 0.34690 0.60490 0.08000
C 	C 	0.36250 0.30940 0.62400 -0.04300
H 	H 	0.35950 0.30320 0.54930 0.04300
C 	C 	0.42880 0.28070 0.75300 -0.07700
H 	H 	0.46900 0.25540 0.76410 0.05200
C 	C 	0.23510 0.37540 0.46860 -0.11700
C 	C 	0.16370 0.40860 0.43000 0.64500
H 	H 	0.15690 0.41590 0.49380 -0.18200
C 	C 	0.10460 0.43030 0.30420 -0.60500
H 	H 	0.05840 0.45370 0.28590 0.18700
N 	N 	0.09940 0.42460 0.19920 -0.20600
C 	C 	0.18150 0.39770 0.24000 0.60400
H 	H 	0.18890 0.39540 0.17540 -0.23700
C 	C 	0.25550 0.37320 0.37700 -0.58200
H 	H 	0.31440 0.35640 0.40740 0.21700
H 	H 	0.90300 0.13970 0.21640 0.06300
H 	H 	0.98710 0.07860 0.20780 0.03300
C 	C 	0.76540 0.07180 0.88300 0.00500
C 	C 	0.71060 0.10730 0.87800 -0.05500
C 	C 	0.86510 0.12220 0.12880 -0.12500
C 	C 	0.91480 0.08550 0.12210 -0.05000
H 	H 	0.72930 0.05430 0.79570 0.00900
H 	H 	0.63980 0.11460 0.78820 0.03900
C 	C 	0.67870 0.15890 0.08800 -0.05300
H 	H 	0.71140 0.13220 0.15170 0.07500
C 	C 	0.61620 0.18720 0.08710 -0.07700
H 	H 	0.60380 0.17890 0.14440 0.04100
C 	C 	0.58290 0.23600 0.90820 -0.07800
H 	H 	0.55140 0.26290 0.84560 0.04900
C 	C 	0.63900 0.20540 0.90930 0.01700
H 	H 	0.64010 0.21010 0.83830 0.02000
C 	C 	0.46240 0.33330 0.85530 -0.06300
H 	H 	0.52990 0.34530 0.94140 0.05400
C 	C 	0.39990 0.36030 0.73080 -0.04600
H 	H 	0.42690 0.38960 0.73320 0.03800
C 	C 	0.25320 0.31090 0.61800 -0.04600
H 	H 	0.17830 0.30670 0.54510 0.04000
C 	C 	0.32240 0.28090 0.74860 -0.07000
H 	H 	0.29370 0.25500 0.75750 0.04800
C 	C 	0.20350 0.42760 0.30470 -0.59100
H 	H 	0.23460 0.44760 0.28520 0.19000
C 	C 	0.27010 0.40690 0.43200 0.58700
H 	H 	0.34380 0.41400 0.50040 -0.16100
C 	C 	0.11960 0.37630 0.37140 -0.63700
H 	H 	0.08880 0.36030 0.39790 0.22900
C 	C 	0.05470 0.40160 0.23700 0.59700
H 	H 	0.97990 0.40260 0.17300 -0.22100
N 	N 	0.13410 0.06010 0.99800 -0.21900
C 	C 	0.20750 0.08690 0.11600 0.01500
H 	H 	0.22340 0.08100 0.20150 -0.00000
C 	C 	0.26180 0.12300 0.11960 -0.05700
H 	H 	0.31280 0.14140 0.20590 0.03600
C 	C 	0.24130 0.13200 0.99720 0.06000
C 	C 	0.16810 0.10300 0.87700 0.00200
H 	H 	0.15200 0.10740 0.79100 0.02300
C 	C 	0.11870 0.06770 0.88400 0.07200
H 	H 	0.07050 0.04760 0.80090 -0.01500
C 	C 	0.30270 0.16660 0.99580 0.02200
C 	C 	0.40870 0.15670 0.08200 -0.10000
H 	H 	0.43990 0.12900 0.14140 0.07900
C 	C 	0.46820 0.18680 0.08260 -0.05900
H 	H 	0.54120 0.17940 0.14480 0.03400
C 	C 	0.42890 0.22770 0.99740 0.15900
C 	C 	0.31870 0.23450 0.89930 -0.06700
H 	H 	0.28580 0.26000 0.83130 0.04400
C 	C 	0.25700 0.20520 0.89920 -0.03100
H 	H 	0.18310 0.21130 0.83320 0.03200
C 	C 	0.56720 0.29080 0.13850 0.10400
C 	C 	0.61840 0.33070 0.15120 -0.06400
H 	H 	0.61550 0.33820 0.07740 0.03600
C 	C 	0.67400 0.35960 0.27390 -0.02600
H 	H 	0.69590 0.38990 0.27230 0.03100
C 	C 	0.69860 0.34690 0.39510 0.03600
C 	C 	0.63750 0.30940 0.37600 -0.02700
H 	H 	0.64050 0.30320 0.45070 0.03500
C 	C 	0.57120 0.28070 0.24700 -0.08500
H 	H 	0.53100 0.25540 0.23590 0.05300
C 	C 	0.76490 0.37540 0.53140 -0.03400
C 	C 	0.83630 0.40860 0.57000 0.27100
H 	H 	0.84310 0.41590 0.50620 -0.05600
C 	C 	0.89540 0.43030 0.69580 -0.27800
H 	H 	0.94160 0.45370 0.71410 0.10500
N 	N 	0.90060 0.42460 0.80080 -0.21600
C 	C 	0.81850 0.39770 0.76000 0.35300
H 	H 	0.81110 0.39540 0.82460 -0.12600
C 	C 	0.74450 0.37320 0.62300 -0.38300
H 	H 	0.68560 0.35640 0.59260 0.14900
H 	H 	0.09700 0.13970 0.78360 0.05300
H 	H 	0.01290 0.07860 0.79220 0.00600
C 	C 	0.23460 0.07180 0.11700 0.00600
C 	C 	0.28940 0.10730 0.12200 -0.06400
C 	C 	0.13490 0.12220 0.87120 -0.11300
C 	C 	0.08520 0.08550 0.87790 -0.02700
H 	H 	0.27070 0.05430 0.20430 0.00500
H 	H 	0.36020 0.11460 0.21180 0.04000
C 	C 	0.32130 0.15890 0.91200 -0.02000
H 	H 	0.28860 0.13220 0.84830 0.06400
C 	C 	0.38380 0.18720 0.91290 -0.09100
H 	H 	0.39620 0.17890 0.85560 0.05200
C 	C 	0.41710 0.23600 0.09180 -0.13400
H 	H 	0.44860 0.26290 0.15440 0.06400
C 	C 	0.36100 0.20540 0.09070 0.00800
H 	H 	0.35990 0.21010 0.16170 0.01700
C 	C 	0.53760 0.33330 0.14470 -0.05700
H 	H 	0.47010 0.34530 0.05860 0.03300
C 	C 	0.60010 0.36030 0.26920 -0.04200
H 	H 	0.57310 0.38960 0.26680 0.03600
C 	C 	0.74680 0.31090 0.38200 -0.03900
H 	H 	0.82170 0.30670 0.45490 0.04000
C 	C 	0.67760 0.28090 0.25140 -0.06700
H 	H 	0.70630 0.25500 0.24250 0.05000
C 	C 	0.79650 0.42760 0.69530 -0.33500
H 	H 	0.76540 0.44760 0.71480 0.11400
C 	C 	0.72990 0.40690 0.56800 0.33200
H 	H 	0.65620 0.41400 0.49960 -0.07900
C 	C 	0.88040 0.37630 0.62860 -0.34400
H 	H 	0.91120 0.36030 0.60210 0.14000
C 	C 	0.94530 0.40160 0.76300 0.32800
H 	H 	0.02010 0.40260 0.82700 -0.12300
C 	C 	0.50000 0.74100 -0.00000 -0.16100
C 	C 	0.50000 0.25900 -0.00000 -0.16100
Cu	Cu	0.00000 0.54592 -0.00000 0.77700
Cu	Cu	-0.00000 0.45408 -0.00000 0.77700
Cu	Cu	0.07056 -0.00000 0.99990 0.79700
I 	I 	0.86669 -0.00000 0.74430 -0.44300
Cu	Cu	0.92944 -0.00000 0.00010 0.79200
I 	I 	0.13331 0.00000 0.25570 -0.48300
I 	I 	0.13968 0.50000 0.01274 -0.46400
I 	I 	0.86032 0.50000 0.98726 -0.39900
N 	N 	0.63410 0.43990 0.99800 -0.21800
C 	C 	0.70750 0.41310 0.11600 0.01900
H 	H 	0.72340 0.41900 0.20150 0.00000
C 	C 	0.76180 0.37700 0.11960 -0.05300
H 	H 	0.81280 0.35860 0.20590 0.03600
C 	C 	0.74130 0.36800 0.99720 0.06400
C 	C 	0.66810 0.39700 0.87700 0.00600
H 	H 	0.65200 0.39260 0.79100 0.02400
C 	C 	0.61870 0.43230 0.88400 0.07400
H 	H 	0.57050 0.45240 0.80090 -0.01300
C 	C 	0.80270 0.33340 0.99580 0.01400
C 	C 	0.90870 0.34330 0.08200 -0.15400
H 	H 	0.93990 0.37100 0.14140 0.10900
C 	C 	0.96820 0.31320 0.08260 0.00700
H 	H 	0.04120 0.32060 0.14480 0.00300
C 	C 	0.92890 0.27230 0.99740 0.18700
C 	C 	0.81870 0.26550 0.89930 -0.05300
H 	H 	0.78580 0.24000 0.83130 0.04100
C 	C 	0.75700 0.29480 0.89920 -0.05200
H 	H 	0.68310 0.28870 0.83320 0.04100
C 	C 	0.06720 0.20920 0.13850 0.13000
C 	C 	0.11840 0.16930 0.15120 -0.00300
H 	H 	0.11550 0.16180 0.07740 0.01700
C 	C 	0.17400 0.14040 0.27390 -0.09600
H 	H 	0.19590 0.11010 0.27230 0.05400
C 	C 	0.19860 0.15310 0.39510 0.04500
C 	C 	0.13750 0.19060 0.37600 -0.05200
H 	H 	0.14050 0.19680 0.45070 0.04300
C 	C 	0.07120 0.21930 0.24700 -0.06700
H 	H 	0.03100 0.24460 0.23590 0.03500
C 	C 	0.26490 0.12460 0.53140 -0.07300
C 	C 	0.33630 0.09140 0.57000 0.46300
H 	H 	0.34310 0.08410 0.50620 -0.12000
C 	C 	0.39540 0.06970 0.69580 -0.44800
H 	H 	0.44160 0.04630 0.71410 0.15100
N 	N 	0.40060 0.07540 0.80080 -0.20800
C 	C 	0.31850 0.10230 0.76000 0.48500
H 	H 	0.31110 0.10460 0.82460 -0.18200
C 	C 	0.24450 0.12680 0.62300 -0.48900
H 	H 	0.18560 0.14360 0.59260 0.18300
H 	H 	0.59700 0.36030 0.78360 0.05800
H 	H 	0.51290 0.42140 0.79220 0.01700
C 	C 	0.73460 0.42820 0.11700 0.00100
C 	C 	0.78940 0.39270 0.12200 -0.07000
C 	C 	0.63490 0.37780 0.87120 -0.11800
C 	C 	0.58520 0.41450 0.87790 -0.03100
H 	H 	0.77070 0.44570 0.20430 0.00600
H 	H 	0.86020 0.38540 0.21180 0.04400
C 	C 	0.82130 0.34110 0.91200 0.03500
H 	H 	0.78860 0.36780 0.84830 0.03400
C 	C 	0.88380 0.31280 0.91290 -0.14200
H 	H 	0.89620 0.32110 0.85560 0.06800
C 	C 	0.91710 0.26400 0.09180 -0.17800
H 	H 	0.94860 0.23710 0.15440 0.09100
C 	C 	0.86100 0.29460 0.09070 0.04800
H 	H 	0.85990 0.28990 0.16170 0.00600
C 	C 	0.03760 0.16670 0.14470 -0.16000
H 	H 	0.97010 0.15470 0.05860 0.07700
C 	C 	0.10010 0.13970 0.26920 0.03900
H 	H 	0.07310 0.11040 0.26680 0.00100
C 	C 	0.24680 0.18910 0.38200 -0.01000
H 	H 	0.32170 0.19330 0.45490 0.02900
C 	C 	0.17760 0.21910 0.25140 -0.10400
H 	H 	0.20630 0.24500 0.24250 0.06200
C 	C 	0.29650 0.07240 0.69530 -0.47000
H 	H 	0.26540 0.05240 0.71480 0.15300
C 	C 	0.22990 0.09310 0.56800 0.46600
H 	H 	0.15620 0.08600 0.49960 -0.12400
C 	C 	0.38040 0.12370 0.62860 -0.49600
H 	H 	0.41120 0.13970 0.60210 0.18700
C 	C 	0.44530 0.09840 0.76300 0.46800
H 	H 	0.52010 0.09740 0.82700 -0.17000
N 	N 	0.36590 0.43990 0.00200 -0.24000
C 	C 	0.29250 0.41310 0.88400 0.03700
H 	H 	0.27660 0.41900 0.79850 -0.00300
C 	C 	0.23820 0.37700 0.88040 -0.02500
H 	H 	0.18720 0.35860 0.79410 0.02700
C 	C 	0.25870 0.36800 0.00280 0.01800
C 	C 	0.33190 0.39700 0.12300 0.01700
H 	H 	0.34800 0.39260 0.20900 0.01900
C 	C 	0.38130 0.43230 0.11600 0.07400
H 	H 	0.42950 0.45240 0.19910 -0.01400
C 	C 	0.19730 0.33340 0.00420 -0.02000
C 	C 	0.09130 0.34330 0.91800 0.00000
H 	H 	0.06010 0.37100 0.85860 0.03800
C 	C 	0.03180 0.31320 0.91740 -0.09100
H 	H 	0.95880 0.32060 0.85520 0.05500
C 	C 	0.07110 0.27230 0.00260 0.09700
C 	C 	0.18130 0.26550 0.10070 -0.09000
H 	H 	0.21420 0.24000 0.16870 0.04700
C 	C 	0.24300 0.29480 0.10080 -0.00700
H 	H 	0.31690 0.28870 0.16680 0.02300
C 	C 	0.93280 0.20920 0.86150 0.14800
C 	C 	0.88160 0.16930 0.84880 -0.12200
H 	H 	0.88450 0.16180 0.92260 0.07000
C 	C 	0.82600 0.14040 0.72610 0.02200
H 	H 	0.80410 0.11010 0.72770 0.01700
C 	C 	0.80140 0.15310 0.60490 0.05100
C 	C 	0.86250 0.19060 0.62400 -0.00600
H 	H 	0.85950 0.19680 0.54930 0.03200
C 	C 	0.92880 0.21930 0.75300 -0.11500
H 	H 	0.96900 0.24460 0.76410 0.07600
C 	C 	0.73510 0.12460 0.46860 -0.07000
C 	C 	0.66370 0.09140 0.43000 0.45300
H 	H 	0.65690 0.08410 0.49380 -0.11700
C 	C 	0.60460 0.06970 0.30420 -0.43700
H 	H 	0.55840 0.04630 0.28590 0.14200
N 	N 	0.59940 0.07540 0.19920 -0.21600
C 	C 	0.68150 0.10230 0.24000 0.47800
H 	H 	0.68890 0.10460 0.17540 -0.18600
C 	C 	0.75550 0.12680 0.37700 -0.48100
H 	H 	0.81440 0.14360 0.40740 0.18500
H 	H 	0.40300 0.36030 0.21640 0.05800
H 	H 	0.48710 0.42140 0.20780 0.02000
C 	C 	0.26540 0.42820 0.88300 0.01000
C 	C 	0.21060 0.39270 0.87800 -0.05200
C 	C 	0.36510 0.37780 0.12880 -0.11900
C 	C 	0.41480 0.41450 0.12210 -0.04300
H 	H 	0.22930 0.44570 0.79570 0.00600
H 	H 	0.13980 0.38540 0.78820 0.03600
C 	C 	0.17870 0.34110 0.08800 -0.08800
H 	H 	0.21140 0.36780 0.15170 0.09700
C 	C 	0.11620 0.31280 0.08710 -0.05100
H 	H 	0.10380 0.32110 0.14440 0.03400
C 	C 	0.08290 0.26400 0.90820 -0.06300
H 	H 	0.05140 0.23710 0.84560 0.03300
C 	C 	0.13900 0.29460 0.90930 -0.00100
H 	H 	0.14010 0.28990 0.83830 0.02400
C 	C 	0.96240 0.16670 0.85530 0.00300
H 	H 	0.02990 0.15470 0.94140 0.02400
C 	C 	0.89990 0.13970 0.73080 -0.09800
H 	H 	0.92690 0.11040 0.73320 0.06400
C 	C 	0.75320 0.18910 0.61800 -0.05600
H 	H 	0.67830 0.19330 0.54510 0.04400
C 	C 	0.82240 0.21910 0.74860 -0.06000
H 	H 	0.79370 0.24500 0.75750 0.04600
C 	C 	0.70350 0.07240 0.30470 -0.45800
H 	H 	0.73460 0.05240 0.28520 0.15100
C 	C 	0.77010 0.09310 0.43200 0.45300
H 	H 	0.84380 0.08600 0.50040 -0.11500
C 	C 	0.61960 0.12370 0.37140 -0.49000
H 	H 	0.58880 0.13970 0.39790 0.18500
C 	C 	0.55470 0.09840 0.23700 0.46200
H 	H 	0.47990 0.09740 0.17300 -0.17800
N 	N 	0.36590 0.56010 0.00200 -0.24000
C 	C 	0.29250 0.58690 0.88400 0.03700
H 	H 	0.27660 0.58100 0.79850 -0.00300
C 	C 	0.23820 0.62300 0.88040 -0.02500
H 	H 	0.18720 0.64140 0.79410 0.02700
C 	C 	0.25870 0.63200 0.00280 0.01800
C 	C 	0.33190 0.60300 0.12300 0.01700
H 	H 	0.34800 0.60740 0.20900 0.01900
C 	C 	0.38130 0.56770 0.11600 0.07400
H 	H 	0.42950 0.54760 0.19910 -0.01400
C 	C 	0.19730 0.66660 0.00420 -0.02000
C 	C 	0.09130 0.65670 0.91800 -0.00000
H 	H 	0.06010 0.62900 0.85860 0.03800
C 	C 	0.03180 0.68680 0.91740 -0.09100
H 	H 	0.95880 0.67940 0.85520 0.05400
C 	C 	0.07110 0.72770 0.00260 0.09700
C 	C 	0.18130 0.73450 0.10070 -0.09000
H 	H 	0.21420 0.76000 0.16870 0.04700
C 	C 	0.24300 0.70520 0.10080 -0.00800
H 	H 	0.31690 0.71130 0.16680 0.02300
C 	C 	0.93280 0.79080 0.86150 0.14800
C 	C 	0.88160 0.83070 0.84880 -0.12200
H 	H 	0.88450 0.83820 0.92260 0.07000
C 	C 	0.82600 0.85960 0.72610 0.02200
H 	H 	0.80410 0.88990 0.72770 0.01600
C 	C 	0.80140 0.84690 0.60490 0.05000
C 	C 	0.86250 0.80940 0.62400 -0.00500
H 	H 	0.85950 0.80320 0.54930 0.03200
C 	C 	0.92880 0.78070 0.75300 -0.11500
H 	H 	0.96900 0.75540 0.76410 0.07600
C 	C 	0.73510 0.87540 0.46860 -0.07000
C 	C 	0.66370 0.90860 0.43000 0.45300
H 	H 	0.65690 0.91590 0.49380 -0.11800
C 	C 	0.60460 0.93030 0.30420 -0.43800
H 	H 	0.55840 0.95370 0.28590 0.14000
N 	N 	0.59940 0.92460 0.19920 -0.21700
C 	C 	0.68150 0.89770 0.24000 0.47800
H 	H 	0.68890 0.89540 0.17540 -0.18600
C 	C 	0.75550 0.87320 0.37700 -0.48100
H 	H 	0.81440 0.85640 0.40740 0.18500
H 	H 	0.40300 0.63970 0.21640 0.05800
H 	H 	0.48710 0.57860 0.20780 0.02000
C 	C 	0.26540 0.57180 0.88300 0.01000
C 	C 	0.21060 0.60730 0.87800 -0.05200
C 	C 	0.36510 0.62220 0.12880 -0.11900
C 	C 	0.41480 0.58550 0.12210 -0.04300
H 	H 	0.22930 0.55430 0.79570 0.00600
H 	H 	0.13980 0.61460 0.78820 0.03600
C 	C 	0.17870 0.65890 0.08800 -0.08800
H 	H 	0.21140 0.63220 0.15170 0.09700
C 	C 	0.11620 0.68720 0.08710 -0.05100
H 	H 	0.10380 0.67890 0.14440 0.03400
C 	C 	0.08290 0.73600 0.90820 -0.06300
H 	H 	0.05140 0.76290 0.84560 0.03300
C 	C 	0.13900 0.70540 0.90930 -0.00100
H 	H 	0.14010 0.71010 0.83830 0.02400
C 	C 	0.96240 0.83330 0.85530 0.00300
H 	H 	0.02990 0.84530 0.94140 0.02400
C 	C 	0.89990 0.86030 0.73080 -0.09800
H 	H 	0.92690 0.88960 0.73320 0.06300
C 	C 	0.75320 0.81090 0.61800 -0.05600
H 	H 	0.67830 0.80670 0.54510 0.04400
C 	C 	0.82240 0.78090 0.74860 -0.06100
H 	H 	0.79370 0.75500 0.75750 0.04600
C 	C 	0.70350 0.92760 0.30470 -0.45900
H 	H 	0.73460 0.94760 0.28520 0.15000
C 	C 	0.77010 0.90690 0.43200 0.45300
H 	H 	0.84380 0.91400 0.50040 -0.11500
C 	C 	0.61960 0.87630 0.37140 -0.49000
H 	H 	0.58880 0.86030 0.39790 0.18500
C 	C 	0.55470 0.90160 0.23700 0.46300
H 	H 	0.47990 0.90260 0.17300 -0.17900
N 	N 	0.63410 0.56010 0.99800 -0.21800
C 	C 	0.70750 0.58690 0.11600 0.01900
H 	H 	0.72340 0.58100 0.20150 0.00000
C 	C 	0.76180 0.62300 0.11960 -0.05300
H 	H 	0.81280 0.64140 0.20590 0.03600
C 	C 	0.74130 0.63200 0.99720 0.06400
C 	C 	0.66810 0.60300 0.87700 0.00600
H 	H 	0.65200 0.60740 0.79100 0.02400
C 	C 	0.61870 0.56770 0.88400 0.07400
H 	H 	0.57050 0.54760 0.80090 -0.01300
C 	C 	0.80270 0.66660 0.99580 0.01400
C 	C 	0.90870 0.65670 0.08200 -0.15400
H 	H 	0.93990 0.62900 0.14140 0.10900
C 	C 	0.96820 0.68680 0.08260 0.00800
H 	H 	0.04120 0.67940 0.14480 0.00300
C 	C 	0.92890 0.72770 0.99740 0.18700
C 	C 	0.81870 0.73450 0.89930 -0.05300
H 	H 	0.78580 0.76000 0.83130 0.04100
C 	C 	0.75700 0.70520 0.89920 -0.05200
H 	H 	0.68310 0.71130 0.83320 0.04100
C 	C 	0.06720 0.79080 0.13850 0.13100
C 	C 	0.11840 0.83070 0.15120 -0.00300
H 	H 	0.11550 0.83820 0.07740 0.01700
C 	C 	0.17400 0.85960 0.27390 -0.09600
H 	H 	0.19590 0.88990 0.27230 0.05300
C 	C 	0.19860 0.84690 0.39510 0.04500
C 	C 	0.13750 0.80940 0.37600 -0.05200
H 	H 	0.14050 0.80320 0.45070 0.04300
C 	C 	0.07120 0.78070 0.24700 -0.06700
H 	H 	0.03100 0.75540 0.23590 0.03500
C 	C 	0.26490 0.87540 0.53140 -0.07200
C 	C 	0.33630 0.90860 0.57000 0.46200
H 	H 	0.34310 0.91590 0.50620 -0.12100
C 	C 	0.39540 0.93030 0.69580 -0.44800
H 	H 	0.44160 0.95370 0.71410 0.14900
N 	N 	0.40060 0.92460 0.80080 -0.20900
C 	C 	0.31850 0.89770 0.76000 0.48600
H 	H 	0.31110 0.89540 0.82460 -0.18300
C 	C 	0.24450 0.87320 0.62300 -0.48900
H 	H 	0.18560 0.85640 0.59260 0.18300
H 	H 	0.59700 0.63970 0.78360 0.05800
H 	H 	0.51290 0.57860 0.79220 0.01700
C 	C 	0.73460 0.57180 0.11700 0.00100
C 	C 	0.78940 0.60730 0.12200 -0.07000
C 	C 	0.63490 0.62220 0.87120 -0.11800
C 	C 	0.58520 0.58550 0.87790 -0.03100
H 	H 	0.77070 0.55430 0.20430 0.00600
H 	H 	0.86020 0.61460 0.21180 0.04400
C 	C 	0.82130 0.65890 0.91200 0.03500
H 	H 	0.78860 0.63220 0.84830 0.03400
C 	C 	0.88380 0.68720 0.91290 -0.14200
H 	H 	0.89620 0.67890 0.85560 0.06800
C 	C 	0.91710 0.73600 0.09180 -0.17800
H 	H 	0.94860 0.76290 0.15440 0.09100
C 	C 	0.86100 0.70540 0.09070 0.04800
H 	H 	0.85990 0.71010 0.16170 0.00600
C 	C 	0.03760 0.83330 0.14470 -0.16100
H 	H 	0.97010 0.84530 0.05860 0.07700
C 	C 	0.10010 0.86030 0.26920 0.03900
H 	H 	0.07310 0.88960 0.26680 0.00100
C 	C 	0.24680 0.81090 0.38200 -0.01000
H 	H 	0.32170 0.80670 0.45490 0.02900
C 	C 	0.17760 0.78090 0.25140 -0.10400
H 	H 	0.20630 0.75500 0.24250 0.06200
C 	C 	0.29650 0.92760 0.69530 -0.47000
H 	H 	0.26540 0.94760 0.71480 0.15200
C 	C 	0.22990 0.90690 0.56800 0.46500
H 	H 	0.15620 0.91400 0.49960 -0.12500
C 	C 	0.38040 0.87630 0.62860 -0.49600
H 	H 	0.41120 0.86030 0.60210 0.18700
C 	C 	0.44530 0.90160 0.76300 0.46900
H 	H 	0.52010 0.90260 0.82700 -0.17100
C 	C 	0.00000 0.24100 -0.00000 -0.20700
C 	C 	-0.00000 0.75900 -0.00000 -0.20700
Cu	Cu	0.50000 0.04592 -0.00000 0.78400
Cu	Cu	0.50000 0.95408 -0.00000 0.78200
Cu	Cu	0.57056 0.50000 0.99990 0.80100
I 	I 	0.36669 0.50000 0.74430 -0.46200
Cu	Cu	0.42944 0.50000 0.00010 0.78600
I 	I 	0.63331 0.50000 0.25570 -0.47200
I 	I 	0.63968 -0.00000 0.01274 -0.45100
I 	I 	0.36032 0.00000 0.98726 -0.40800
