data_crystal

_cell_length_a 13.19950
_cell_length_b 13.19950
_cell_length_c 27.71580
_cell_angle_alpha 90.00000
_cell_angle_beta  90.00000
_cell_angle_gamma 90.00000

_symmetry_space_group_name_	'P 1'
_symmetry_space_group_name_H-M	'P 1'

loop_
_symmetry_equiv_pos_as_xyz
  x,y,z

loop_
_atom_site_label
_atom_site_type_symbol
_atom_site_fract_x
_atom_site_fract_y
_atom_site_fract_z
_atom_site_charge
C 	C 	0.26590 0.87310 0.44160 0.16000
H 	H 	0.23280 0.91570 0.46420 -0.04400
C 	C 	0.20710 0.82160 0.40660 -0.19700
H 	H 	0.13650 0.83440 0.40420 0.09100
C 	C 	0.35560 0.74520 0.37820 0.06400
H 	H 	0.39030 0.69940 0.35760 0.00000
C 	C 	0.40980 0.80420 0.41050 -0.10200
H 	H 	0.48170 0.80260 0.40940 0.04300
C 	C 	0.17350 0.58810 0.35340 -0.01100
H 	H 	0.20480 0.55880 0.38090 0.02100
C 	C 	0.11050 0.52820 0.32360 -0.07600
H 	H 	0.09760 0.45980 0.33220 0.04300
C 	C 	0.08550 0.67160 0.27190 -0.08000
H 	H 	0.05430 0.70240 0.24470 0.05300
C 	C 	0.14960 0.72880 0.30200 -0.01200
H 	H 	0.16480 0.79680 0.29340 0.02600
C 	C 	0.73410 0.12690 0.44160 0.21300
H 	H 	0.76720 0.08430 0.46420 -0.05900
C 	C 	0.79290 0.17840 0.40660 -0.25400
H 	H 	0.86350 0.16560 0.40420 0.10900
C 	C 	0.64440 0.25480 0.37820 0.12900
H 	H 	0.60970 0.30060 0.35760 -0.02100
C 	C 	0.59020 0.19580 0.41050 -0.15700
H 	H 	0.51830 0.19740 0.40940 0.06300
C 	C 	0.82650 0.41190 0.35340 -0.02100
H 	H 	0.79520 0.44120 0.38090 0.02700
C 	C 	0.88950 0.47180 0.32360 -0.06700
H 	H 	0.90240 0.54020 0.33220 0.04200
C 	C 	0.91450 0.32840 0.27190 -0.07200
H 	H 	0.94570 0.29760 0.24470 0.04800
C 	C 	0.85040 0.27120 0.30200 -0.02100
H 	H 	0.83520 0.20320 0.29340 0.02800
C 	C 	0.62690 0.76590 0.94160 0.32200
H 	H 	0.58430 0.73280 0.96420 -0.08900
C 	C 	0.67840 0.70710 0.90660 -0.36400
H 	H 	0.66560 0.63650 0.90420 0.14800
C 	C 	0.75480 0.85560 0.87820 0.24500
H 	H 	0.80060 0.89030 0.85760 -0.05900
C 	C 	0.69580 0.90980 0.91050 -0.26100
H 	H 	0.69740 0.98170 0.90940 0.10000
C 	C 	0.91190 0.67350 0.85340 -0.00100
H 	H 	0.94120 0.70480 0.88090 0.01200
C 	C 	0.97180 0.61050 0.82360 -0.08600
H 	H 	0.04020 0.59760 0.83220 0.05000
C 	C 	0.82840 0.58550 0.77190 -0.08000
H 	H 	0.79760 0.55430 0.74470 0.05100
C 	C 	0.77120 0.64960 0.80200 -0.01300
H 	H 	0.70320 0.66480 0.79340 0.02600
C 	C 	0.37310 0.23410 0.94160 0.37700
H 	H 	0.41570 0.26720 0.96420 -0.10700
C 	C 	0.32160 0.29290 0.90660 -0.42500
H 	H 	0.33440 0.36350 0.90420 0.16700
C 	C 	0.24520 0.14440 0.87820 0.30800
H 	H 	0.19940 0.10970 0.85760 -0.07800
C 	C 	0.30420 0.09020 0.91050 -0.31600
H 	H 	0.30260 0.01830 0.90940 0.12300
C 	C 	0.08810 0.32650 0.85340 -0.01800
H 	H 	0.05880 0.29520 0.88090 0.02400
C 	C 	0.02820 0.38950 0.82360 -0.06100
H 	H 	0.95980 0.40240 0.83220 0.03800
C 	C 	0.17160 0.41450 0.77190 -0.07200
H 	H 	0.20240 0.44570 0.74470 0.04900
C 	C 	0.22880 0.35040 0.80200 -0.02400
H 	H 	0.29680 0.33520 0.79340 0.02900
C 	C 	0.73410 0.87310 0.05840 -0.08600
H 	H 	0.76720 0.91570 0.03580 0.03400
C 	C 	0.79290 0.82160 0.09340 0.07000
H 	H 	0.86350 0.83440 0.09580 0.00200
C 	C 	0.64440 0.74520 0.12180 -0.21600
H 	H 	0.60970 0.69940 0.14240 0.09200
C 	C 	0.59020 0.80420 0.08950 0.14000
H 	H 	0.51830 0.80260 0.09060 -0.04100
C 	C 	0.82650 0.58810 0.14660 -0.02900
H 	H 	0.79520 0.55880 0.11910 0.03700
C 	C 	0.88950 0.52820 0.17640 -0.06500
H 	H 	0.90240 0.45980 0.16780 0.04100
C 	C 	0.91450 0.67160 0.22810 -0.07400
H 	H 	0.94570 0.70240 0.25530 0.04700
C 	C 	0.85040 0.72880 0.19800 -0.01600
H 	H 	0.83520 0.79680 0.20660 0.02700
C 	C 	0.26590 0.12690 0.05840 -0.03300
H 	H 	0.23280 0.08430 0.03580 0.01800
C 	C 	0.20710 0.17840 0.09340 0.01200
H 	H 	0.13650 0.16560 0.09580 0.02300
C 	C 	0.35560 0.25480 0.12180 -0.15100
H 	H 	0.39030 0.30060 0.14240 0.07100
C 	C 	0.40980 0.19580 0.08950 0.08500
H 	H 	0.48170 0.19740 0.09060 -0.02100
C 	C 	0.17350 0.41190 0.14660 -0.02100
H 	H 	0.20480 0.44120 0.11910 0.03300
C 	C 	0.11050 0.47180 0.17640 -0.07200
H 	H 	0.09760 0.54020 0.16780 0.04200
C 	C 	0.08550 0.32840 0.22810 -0.07900
H 	H 	0.05430 0.29760 0.25530 0.05200
C 	C 	0.14960 0.27120 0.19800 -0.01100
H 	H 	0.16480 0.20320 0.20660 0.02700
C 	C 	0.37310 0.76590 0.55840 0.17200
H 	H 	0.41570 0.73280 0.53580 -0.04700
C 	C 	0.32160 0.70710 0.59340 -0.20800
H 	H 	0.33440 0.63650 0.59580 0.09500
C 	C 	0.24520 0.85560 0.62180 0.08000
H 	H 	0.19940 0.89030 0.64240 -0.00500
C 	C 	0.30420 0.90980 0.58950 -0.11500
H 	H 	0.30260 0.98170 0.59060 0.04600
C 	C 	0.08810 0.67350 0.64660 -0.02300
H 	H 	0.05880 0.70480 0.61910 0.02900
C 	C 	0.02820 0.61050 0.67640 -0.06000
H 	H 	0.95980 0.59760 0.66780 0.03700
C 	C 	0.17160 0.58550 0.72810 -0.07400
H 	H 	0.20240 0.55430 0.75530 0.04800
C 	C 	0.22880 0.64960 0.69800 -0.02000
H 	H 	0.29680 0.66480 0.70660 0.02800
C 	C 	0.62690 0.23410 0.55840 0.22700
H 	H 	0.58430 0.26720 0.53580 -0.06400
C 	C 	0.67840 0.29290 0.59340 -0.26900
H 	H 	0.66560 0.36350 0.59580 0.11400
C 	C 	0.75480 0.14440 0.62180 0.14200
H 	H 	0.80060 0.10970 0.64240 -0.02400
C 	C 	0.69580 0.09020 0.58950 -0.16900
H 	H 	0.69740 0.01830 0.59060 0.06900
C 	C 	0.91190 0.32650 0.64660 -0.00700
H 	H 	0.94120 0.29520 0.61910 0.01800
C 	C 	0.97180 0.38950 0.67640 -0.08400
H 	H 	0.04020 0.40240 0.66780 0.04900
C 	C 	0.82840 0.41450 0.72810 -0.08000
H 	H 	0.79760 0.44570 0.75530 0.05100
C 	C 	0.77120 0.35040 0.69800 -0.01300
H 	H 	0.70320 0.33520 0.70660 0.02600
C 	C 	0.73410 0.12690 0.55840 0.22600
H 	H 	0.76720 0.08430 0.53580 -0.06400
C 	C 	0.79290 0.17840 0.59340 -0.26700
H 	H 	0.86350 0.16560 0.59580 0.11400
C 	C 	0.64440 0.25480 0.62180 0.14300
H 	H 	0.60970 0.30060 0.64240 -0.02500
C 	C 	0.59020 0.19580 0.58950 -0.16900
H 	H 	0.51830 0.19740 0.59060 0.06700
C 	C 	0.82650 0.41190 0.64660 -0.02000
H 	H 	0.79520 0.44120 0.61910 0.02600
C 	C 	0.88950 0.47180 0.67640 -0.06800
H 	H 	0.90240 0.54020 0.66780 0.04200
C 	C 	0.91450 0.32840 0.72810 -0.07300
H 	H 	0.94570 0.29760 0.75530 0.04700
C 	C 	0.85040 0.27120 0.69800 -0.02100
H 	H 	0.83520 0.20320 0.70660 0.02800
C 	C 	0.26590 0.87310 0.55840 0.17300
H 	H 	0.23280 0.91570 0.53580 -0.04700
C 	C 	0.20710 0.82160 0.59340 -0.21000
H 	H 	0.13650 0.83440 0.59580 0.09500
C 	C 	0.35560 0.74520 0.62180 0.07900
H 	H 	0.39030 0.69940 0.64240 -0.00400
C 	C 	0.40980 0.80420 0.58950 -0.11500
H 	H 	0.48170 0.80260 0.59060 0.04800
C 	C 	0.17350 0.58810 0.64660 -0.01000
H 	H 	0.20480 0.55880 0.61910 0.02000
C 	C 	0.11050 0.52820 0.67640 -0.07600
H 	H 	0.09760 0.45980 0.66780 0.04300
C 	C 	0.08550 0.67160 0.72810 -0.08100
H 	H 	0.05430 0.70240 0.75530 0.05200
C 	C 	0.14960 0.72880 0.69800 -0.01200
H 	H 	0.16480 0.79680 0.70660 0.02600
C 	C 	0.37310 0.23410 0.05840 -0.03200
H 	H 	0.41570 0.26720 0.03580 0.01700
C 	C 	0.32160 0.29290 0.09340 0.01100
H 	H 	0.33440 0.36350 0.09580 0.02200
C 	C 	0.24520 0.14440 0.12180 -0.15200
H 	H 	0.19940 0.10970 0.14240 0.07200
C 	C 	0.30420 0.09020 0.08950 0.08500
H 	H 	0.30260 0.01830 0.09060 -0.01900
C 	C 	0.08810 0.32650 0.14660 -0.03400
H 	H 	0.05880 0.29520 0.11910 0.04100
C 	C 	0.02820 0.38950 0.17640 -0.05500
H 	H 	0.95980 0.40240 0.16780 0.03500
C 	C 	0.17160 0.41450 0.22810 -0.07300
H 	H 	0.20240 0.44570 0.25530 0.04800
C 	C 	0.22880 0.35040 0.19800 -0.01900
H 	H 	0.29680 0.33520 0.20660 0.02800
C 	C 	0.62690 0.76590 0.05840 -0.08700
H 	H 	0.58430 0.73280 0.03580 0.03500
C 	C 	0.67840 0.70710 0.09340 0.07200
H 	H 	0.66560 0.63650 0.09580 0.00200
C 	C 	0.75480 0.85560 0.12180 -0.21500
H 	H 	0.80060 0.89030 0.14240 0.09100
C 	C 	0.69580 0.90980 0.08950 0.13900
H 	H 	0.69740 0.98170 0.09060 -0.04200
C 	C 	0.91190 0.67350 0.14660 -0.01700
H 	H 	0.94120 0.70480 0.11910 0.02900
C 	C 	0.97180 0.61050 0.17640 -0.08000
H 	H 	0.04020 0.59760 0.16780 0.04700
C 	C 	0.82840 0.58550 0.22810 -0.08100
H 	H 	0.79760 0.55430 0.25530 0.05100
C 	C 	0.77120 0.64960 0.19800 -0.00900
H 	H 	0.70320 0.66480 0.20660 0.02500
C 	C 	0.26590 0.12690 0.94160 0.37600
H 	H 	0.23280 0.08430 0.96420 -0.10600
C 	C 	0.20710 0.17840 0.90660 -0.42300
H 	H 	0.13650 0.16560 0.90420 0.16800
C 	C 	0.35560 0.25480 0.87820 0.30900
H 	H 	0.39030 0.30060 0.85760 -0.07900
C 	C 	0.40980 0.19580 0.91050 -0.31600
H 	H 	0.48170 0.19740 0.90940 0.12100
C 	C 	0.17350 0.41190 0.85340 -0.00500
H 	H 	0.20480 0.44120 0.88090 0.01600
C 	C 	0.11050 0.47180 0.82360 -0.07700
H 	H 	0.09760 0.54020 0.83220 0.04400
C 	C 	0.08550 0.32840 0.77190 -0.07900
H 	H 	0.05430 0.29760 0.74470 0.05200
C 	C 	0.14960 0.27120 0.80200 -0.01600
H 	H 	0.16480 0.20320 0.79340 0.02700
C 	C 	0.73410 0.87310 0.94160 0.32300
H 	H 	0.76720 0.91570 0.96420 -0.09000
C 	C 	0.79290 0.82160 0.90660 -0.36600
H 	H 	0.86350 0.83440 0.90420 0.14700
C 	C 	0.64440 0.74520 0.87820 0.24400
H 	H 	0.60970 0.69940 0.85760 -0.05800
C 	C 	0.59020 0.80420 0.91050 -0.26100
H 	H 	0.51830 0.80260 0.90940 0.10100
C 	C 	0.82650 0.58810 0.85340 -0.01300
H 	H 	0.79520 0.55880 0.88090 0.02000
C 	C 	0.88950 0.52820 0.82360 -0.07000
H 	H 	0.90240 0.45980 0.83220 0.04300
C 	C 	0.91450 0.67160 0.77190 -0.07400
H 	H 	0.94570 0.70240 0.74470 0.04700
C 	C 	0.85040 0.72880 0.80200 -0.02100
H 	H 	0.83520 0.79680 0.79340 0.02800
C 	C 	0.62690 0.23410 0.44160 0.21400
H 	H 	0.58430 0.26720 0.46420 -0.06000
C 	C 	0.67840 0.29290 0.40660 -0.25500
H 	H 	0.66560 0.36350 0.40420 0.11000
C 	C 	0.75480 0.14440 0.37820 0.12700
H 	H 	0.80060 0.10970 0.35760 -0.02000
C 	C 	0.69580 0.09020 0.41050 -0.15600
H 	H 	0.69740 0.01830 0.40940 0.06400
C 	C 	0.91190 0.32650 0.35340 -0.00800
H 	H 	0.94120 0.29520 0.38090 0.01900
C 	C 	0.97180 0.38950 0.32360 -0.08300
H 	H 	0.04020 0.40240 0.33220 0.04800
C 	C 	0.82840 0.41450 0.27190 -0.07900
H 	H 	0.79760 0.44570 0.24470 0.05100
C 	C 	0.77120 0.35040 0.30200 -0.01300
H 	H 	0.70320 0.33520 0.29340 0.02600
C 	C 	0.37310 0.76590 0.44160 0.16000
H 	H 	0.41570 0.73280 0.46420 -0.04200
C 	C 	0.32160 0.70710 0.40660 -0.19500
H 	H 	0.33440 0.63650 0.40420 0.09000
C 	C 	0.24520 0.85560 0.37820 0.06600
H 	H 	0.19940 0.89030 0.35760 -0.00000
C 	C 	0.30420 0.90980 0.41050 -0.10300
H 	H 	0.30260 0.98170 0.40940 0.04200
C 	C 	0.08810 0.67350 0.35340 -0.02400
H 	H 	0.05880 0.70480 0.38090 0.02900
C 	C 	0.02820 0.61050 0.32360 -0.06000
H 	H 	0.95980 0.59760 0.33220 0.03600
C 	C 	0.17160 0.58550 0.27190 -0.07300
H 	H 	0.20240 0.55430 0.24470 0.04900
C 	C 	0.22880 0.64960 0.30200 -0.02000
H 	H 	0.29680 0.66480 0.29340 0.02800
N 	N 	0.36390 0.86390 0.44350 -0.24200
C 	C 	0.25260 0.75260 0.37590 0.06400
C 	C 	0.19010 0.69010 0.34250 -0.02000
C 	C 	0.06740 0.56740 0.28230 0.10100
N 	N 	0.63610 0.13610 0.44350 -0.24400
C 	C 	0.74740 0.24740 0.37590 0.06000
C 	C 	0.80990 0.30990 0.34250 -0.02000
C 	C 	0.93260 0.43260 0.28230 0.10200
N 	N 	0.36390 0.13610 0.94350 -0.24300
C 	C 	0.25260 0.24740 0.87590 0.05000
C 	C 	0.19010 0.30990 0.84250 -0.01500
C 	C 	0.06740 0.43260 0.78230 0.10200
N 	N 	0.63610 0.86390 0.05650 -0.23300
C 	C 	0.74740 0.75260 0.12410 0.08000
C 	C 	0.80990 0.69010 0.15750 -0.02600
C 	C 	0.93260 0.56740 0.21770 0.10100
N 	N 	0.36390 0.13610 0.05650 -0.23500
C 	C 	0.25260 0.24740 0.12410 0.07300
C 	C 	0.19010 0.30990 0.15750 -0.01900
C 	C 	0.06740 0.43260 0.21770 0.09800
N 	N 	0.63610 0.13610 0.55650 -0.24400
C 	C 	0.74740 0.24740 0.62410 0.06000
C 	C 	0.80990 0.30990 0.65750 -0.02100
C 	C 	0.93260 0.43260 0.71770 0.10300
N 	N 	0.36390 0.86390 0.55650 -0.24200
C 	C 	0.25260 0.75260 0.62410 0.06300
C 	C 	0.19010 0.69010 0.65750 -0.02100
C 	C 	0.06740 0.56740 0.71770 0.10200
N 	N 	0.63610 0.86390 0.94350 -0.24100
C 	C 	0.74740 0.75260 0.87590 0.05600
C 	C 	0.80990 0.69010 0.84250 -0.02200
C 	C 	0.93260 0.56740 0.78230 0.10500
C 	C 	0.00000 0.50000 0.25000 -0.12500
C 	C 	0.00000 0.50000 0.75000 -0.12800
Cu	Cu	0.43388 0.93388 0.50000 0.79800
Cu	Cu	0.56612 0.06612 0.50000 0.79900
Cu	Cu	0.56612 0.93388 -0.00000 0.79200
Cu	Cu	0.43388 0.06612 -0.00000 0.79400
I 	I 	0.37945 0.12055 0.50000 -0.46800
I 	I 	0.62055 0.87945 0.50000 -0.47500
I 	I 	0.62055 0.12055 -0.00000 -0.49400
I 	I 	0.37945 0.87945 -0.00000 -0.49700
C 	C 	0.76590 0.37310 0.94160 0.32200
H 	H 	0.73280 0.41570 0.96420 -0.08900
C 	C 	0.70710 0.32160 0.90660 -0.36400
H 	H 	0.63650 0.33440 0.90420 0.14800
C 	C 	0.85560 0.24520 0.87820 0.24600
H 	H 	0.89030 0.19940 0.85760 -0.05900
C 	C 	0.90980 0.30420 0.91050 -0.26200
H 	H 	0.98170 0.30260 0.90940 0.10000
C 	C 	0.67350 0.08810 0.85340 -0.01700
H 	H 	0.70480 0.05880 0.88090 0.02300
C 	C 	0.61050 0.02820 0.82360 -0.06200
H 	H 	0.59760 0.95980 0.83220 0.03800
C 	C 	0.58550 0.17160 0.77190 -0.07300
H 	H 	0.55430 0.20240 0.74470 0.04900
C 	C 	0.64960 0.22880 0.80200 -0.02200
H 	H 	0.66480 0.29680 0.79340 0.02900
C 	C 	0.23410 0.62690 0.94160 0.37700
H 	H 	0.26720 0.58430 0.96420 -0.10700
C 	C 	0.29290 0.67840 0.90660 -0.42500
H 	H 	0.36350 0.66560 0.90420 0.16700
C 	C 	0.14440 0.75480 0.87820 0.30700
H 	H 	0.10970 0.80060 0.85760 -0.07800
C 	C 	0.09020 0.69580 0.91050 -0.31500
H 	H 	0.01830 0.69740 0.90940 0.12200
C 	C 	0.32650 0.91190 0.85340 -0.00100
H 	H 	0.29520 0.94120 0.88090 0.01300
C 	C 	0.38950 0.97180 0.82360 -0.08500
H 	H 	0.40240 0.04020 0.83220 0.05000
C 	C 	0.41450 0.82840 0.77190 -0.08000
H 	H 	0.44570 0.79760 0.74470 0.05100
C 	C 	0.35040 0.77120 0.80200 -0.01500
H 	H 	0.33520 0.70320 0.79340 0.02600
C 	C 	0.12690 0.26590 0.44160 0.21400
H 	H 	0.08430 0.23280 0.46420 -0.05900
C 	C 	0.17840 0.20710 0.40660 -0.25400
H 	H 	0.16560 0.13650 0.40420 0.11000
C 	C 	0.25480 0.35560 0.37820 0.12900
H 	H 	0.30060 0.39030 0.35760 -0.02100
C 	C 	0.19580 0.40980 0.41050 -0.15700
H 	H 	0.19740 0.48170 0.40940 0.06300
C 	C 	0.41190 0.17350 0.35340 -0.01200
H 	H 	0.44120 0.20480 0.38090 0.02200
C 	C 	0.47180 0.11050 0.32360 -0.07500
H 	H 	0.54020 0.09760 0.33220 0.04300
C 	C 	0.32840 0.08550 0.27190 -0.07800
H 	H 	0.29760 0.05430 0.24470 0.05300
C 	C 	0.27120 0.14960 0.30200 -0.01400
H 	H 	0.20320 0.16480 0.29340 0.02700
C 	C 	0.87310 0.73410 0.44160 0.16000
H 	H 	0.91570 0.76720 0.46420 -0.04300
C 	C 	0.82160 0.79290 0.40660 -0.19600
H 	H 	0.83440 0.86350 0.40420 0.09000
C 	C 	0.74520 0.64440 0.37820 0.06400
H 	H 	0.69940 0.60970 0.35760 0.00100
C 	C 	0.80420 0.59020 0.41050 -0.10200
H 	H 	0.80260 0.51830 0.40940 0.04300
C 	C 	0.58810 0.82650 0.35340 -0.02000
H 	H 	0.55880 0.79520 0.38090 0.02600
C 	C 	0.52820 0.88950 0.32360 -0.06800
H 	H 	0.45980 0.90240 0.33220 0.04200
C 	C 	0.67160 0.91450 0.27190 -0.07300
H 	H 	0.70240 0.94570 0.24470 0.04800
C 	C 	0.72880 0.85040 0.30200 -0.01900
H 	H 	0.79680 0.83520 0.29340 0.02700
C 	C 	0.23410 0.37310 0.55840 0.22700
H 	H 	0.26720 0.41570 0.53580 -0.06400
C 	C 	0.29290 0.32160 0.59340 -0.26900
H 	H 	0.36350 0.33440 0.59580 0.11500
C 	C 	0.14440 0.24520 0.62180 0.14200
H 	H 	0.10970 0.19940 0.64240 -0.02400
C 	C 	0.09020 0.30420 0.58950 -0.16900
H 	H 	0.01830 0.30260 0.59060 0.06900
C 	C 	0.32650 0.08810 0.64660 -0.02400
H 	H 	0.29520 0.05880 0.61910 0.02900
C 	C 	0.38950 0.02820 0.67640 -0.05900
H 	H 	0.40240 0.95980 0.66780 0.03600
C 	C 	0.41450 0.17160 0.72810 -0.07300
H 	H 	0.44570 0.20240 0.75530 0.04800
C 	C 	0.35040 0.22880 0.69800 -0.02200
H 	H 	0.33520 0.29680 0.70660 0.02900
C 	C 	0.76590 0.62690 0.55840 0.17200
H 	H 	0.73280 0.58430 0.53580 -0.04700
C 	C 	0.70710 0.67840 0.59340 -0.20800
H 	H 	0.63650 0.66560 0.59580 0.09500
C 	C 	0.85560 0.75480 0.62180 0.07900
H 	H 	0.89030 0.80060 0.64240 -0.00500
C 	C 	0.90980 0.69580 0.58950 -0.11500
H 	H 	0.98170 0.69740 0.59060 0.04600
C 	C 	0.67350 0.91190 0.64660 -0.00700
H 	H 	0.70480 0.94120 0.61910 0.01700
C 	C 	0.61050 0.97180 0.67640 -0.08400
H 	H 	0.59760 0.04020 0.66780 0.04900
C 	C 	0.58550 0.82840 0.72810 -0.08100
H 	H 	0.55430 0.79760 0.75530 0.05100
C 	C 	0.64960 0.77120 0.69800 -0.01100
H 	H 	0.66480 0.70320 0.70660 0.02500
C 	C 	0.87310 0.26590 0.05840 -0.08600
H 	H 	0.91570 0.23280 0.03580 0.03400
C 	C 	0.82160 0.20710 0.09340 0.07000
H 	H 	0.83440 0.13650 0.09580 0.00300
C 	C 	0.74520 0.35560 0.12180 -0.21500
H 	H 	0.69940 0.39030 0.14240 0.09200
C 	C 	0.80420 0.40980 0.08950 0.13900
H 	H 	0.80260 0.48170 0.09060 -0.04100
C 	C 	0.58810 0.17350 0.14660 -0.02000
H 	H 	0.55880 0.20480 0.11910 0.03200
C 	C 	0.52820 0.11050 0.17640 -0.07200
H 	H 	0.45980 0.09760 0.16780 0.04200
C 	C 	0.67160 0.08550 0.22810 -0.08000
H 	H 	0.70240 0.05430 0.25530 0.05200
C 	C 	0.72880 0.14960 0.19800 -0.00900
H 	H 	0.79680 0.16480 0.20660 0.02600
C 	C 	0.12690 0.73410 0.05840 -0.03300
H 	H 	0.08430 0.76720 0.03580 0.01800
C 	C 	0.17840 0.79290 0.09340 0.01300
H 	H 	0.16560 0.86350 0.09580 0.02200
C 	C 	0.25480 0.64440 0.12180 -0.15100
H 	H 	0.30060 0.60970 0.14240 0.07100
C 	C 	0.19580 0.59020 0.08950 0.08500
H 	H 	0.19740 0.51830 0.09060 -0.02100
C 	C 	0.41190 0.82650 0.14660 -0.03000
H 	H 	0.44120 0.79520 0.11910 0.03800
C 	C 	0.47180 0.88950 0.17640 -0.06400
H 	H 	0.54020 0.90240 0.16780 0.04000
C 	C 	0.32840 0.91450 0.22810 -0.07300
H 	H 	0.29760 0.94570 0.25530 0.04700
C 	C 	0.27120 0.85040 0.19800 -0.01800
H 	H 	0.20320 0.83520 0.20660 0.02800
C 	C 	0.23410 0.62690 0.05840 -0.03200
H 	H 	0.26720 0.58430 0.03580 0.01700
C 	C 	0.29290 0.67840 0.09340 0.01100
H 	H 	0.36350 0.66560 0.09580 0.02200
C 	C 	0.14440 0.75480 0.12180 -0.15300
H 	H 	0.10970 0.80060 0.14240 0.07200
C 	C 	0.09020 0.69580 0.08950 0.08500
H 	H 	0.01830 0.69740 0.09060 -0.01900
C 	C 	0.32650 0.91190 0.14660 -0.01800
H 	H 	0.29520 0.94120 0.11910 0.03000
C 	C 	0.38950 0.97180 0.17640 -0.08000
H 	H 	0.40240 0.04020 0.16780 0.04700
C 	C 	0.41450 0.82840 0.22810 -0.08000
H 	H 	0.44570 0.79760 0.25530 0.05100
C 	C 	0.35040 0.77120 0.19800 -0.01000
H 	H 	0.33520 0.70320 0.20660 0.02600
C 	C 	0.76590 0.37310 0.05840 -0.08700
H 	H 	0.73280 0.41570 0.03580 0.03500
C 	C 	0.70710 0.32160 0.09340 0.07200
H 	H 	0.63650 0.33440 0.09580 0.00200
C 	C 	0.85560 0.24520 0.12180 -0.21400
H 	H 	0.89030 0.19940 0.14240 0.09100
C 	C 	0.90980 0.30420 0.08950 0.13900
H 	H 	0.98170 0.30260 0.09060 -0.04200
C 	C 	0.67350 0.08810 0.14660 -0.03300
H 	H 	0.70480 0.05880 0.11910 0.04000
C 	C 	0.61050 0.02820 0.17640 -0.05600
H 	H 	0.59760 0.95980 0.16780 0.03500
C 	C 	0.58550 0.17160 0.22810 -0.07400
H 	H 	0.55430 0.20240 0.25530 0.04900
C 	C 	0.64960 0.22880 0.19800 -0.01700
H 	H 	0.66480 0.29680 0.20660 0.02800
C 	C 	0.87310 0.73410 0.55840 0.17300
H 	H 	0.91570 0.76720 0.53580 -0.04800
C 	C 	0.82160 0.79290 0.59340 -0.21000
H 	H 	0.83440 0.86350 0.59580 0.09400
C 	C 	0.74520 0.64440 0.62180 0.07800
H 	H 	0.69940 0.60970 0.64240 -0.00400
C 	C 	0.80420 0.59020 0.58950 -0.11400
H 	H 	0.80260 0.51830 0.59060 0.04700
C 	C 	0.58810 0.82650 0.64660 -0.01900
H 	H 	0.55880 0.79520 0.61910 0.02600
C 	C 	0.52820 0.88950 0.67640 -0.06800
H 	H 	0.45980 0.90240 0.66780 0.04200
C 	C 	0.67160 0.91450 0.72810 -0.07500
H 	H 	0.70240 0.94570 0.75530 0.04700
C 	C 	0.72880 0.85040 0.69800 -0.01900
H 	H 	0.79680 0.83520 0.70660 0.02700
C 	C 	0.12690 0.26590 0.55840 0.22600
H 	H 	0.08430 0.23280 0.53580 -0.06300
C 	C 	0.17840 0.20710 0.59340 -0.26800
H 	H 	0.16560 0.13650 0.59580 0.11500
C 	C 	0.25480 0.35560 0.62180 0.14400
H 	H 	0.30060 0.39030 0.64240 -0.02500
C 	C 	0.19580 0.40980 0.58950 -0.17000
H 	H 	0.19740 0.48170 0.59060 0.06700
C 	C 	0.41190 0.17350 0.64660 -0.01100
H 	H 	0.44120 0.20480 0.61910 0.02100
C 	C 	0.47180 0.11050 0.67640 -0.07500
H 	H 	0.54020 0.09760 0.66780 0.04300
C 	C 	0.32840 0.08550 0.72810 -0.08000
H 	H 	0.29760 0.05430 0.75530 0.05200
C 	C 	0.27120 0.14960 0.69800 -0.01400
H 	H 	0.20320 0.16480 0.70660 0.02700
C 	C 	0.76590 0.62690 0.44160 0.15900
H 	H 	0.73280 0.58430 0.46420 -0.04200
C 	C 	0.70710 0.67840 0.40660 -0.19500
H 	H 	0.63650 0.66560 0.40420 0.09000
C 	C 	0.85560 0.75480 0.37820 0.06500
H 	H 	0.89030 0.80060 0.35760 -0.00100
C 	C 	0.90980 0.69580 0.41050 -0.10200
H 	H 	0.98170 0.69740 0.40940 0.04100
C 	C 	0.67350 0.91190 0.35340 -0.00800
H 	H 	0.70480 0.94120 0.38090 0.01800
C 	C 	0.61050 0.97180 0.32360 -0.08400
H 	H 	0.59760 0.04020 0.33220 0.04900
C 	C 	0.58550 0.82840 0.27190 -0.08000
H 	H 	0.55430 0.79760 0.24470 0.05200
C 	C 	0.64960 0.77120 0.30200 -0.01100
H 	H 	0.66480 0.70320 0.29340 0.02500
C 	C 	0.23410 0.37310 0.44160 0.21400
H 	H 	0.26720 0.41570 0.46420 -0.06000
C 	C 	0.29290 0.32160 0.40660 -0.25500
H 	H 	0.36350 0.33440 0.40420 0.11000
C 	C 	0.14440 0.24520 0.37820 0.12800
H 	H 	0.10970 0.19940 0.35760 -0.01900
C 	C 	0.09020 0.30420 0.41050 -0.15700
H 	H 	0.01830 0.30260 0.40940 0.06500
C 	C 	0.32650 0.08810 0.35340 -0.02500
H 	H 	0.29520 0.05880 0.38090 0.03000
C 	C 	0.38950 0.02820 0.32360 -0.05900
H 	H 	0.40240 0.95980 0.33220 0.03600
C 	C 	0.41450 0.17160 0.27190 -0.07200
H 	H 	0.44570 0.20240 0.24470 0.04900
C 	C 	0.35040 0.22880 0.30200 -0.02200
H 	H 	0.33520 0.29680 0.29340 0.02900
C 	C 	0.12690 0.73410 0.94160 0.37500
H 	H 	0.08430 0.76720 0.96420 -0.10600
C 	C 	0.17840 0.79290 0.90660 -0.42300
H 	H 	0.16560 0.86350 0.90420 0.16700
C 	C 	0.25480 0.64440 0.87820 0.30900
H 	H 	0.30060 0.60970 0.85760 -0.07900
C 	C 	0.19580 0.59020 0.91050 -0.31600
H 	H 	0.19740 0.51830 0.90940 0.12100
C 	C 	0.41190 0.82650 0.85340 -0.01400
H 	H 	0.44120 0.79520 0.88090 0.02100
C 	C 	0.47180 0.88950 0.82360 -0.06900
H 	H 	0.54020 0.90240 0.83220 0.04300
C 	C 	0.32840 0.91450 0.77190 -0.07300
H 	H 	0.29760 0.94570 0.74470 0.04700
C 	C 	0.27120 0.85040 0.80200 -0.02300
H 	H 	0.20320 0.83520 0.79340 0.02900
C 	C 	0.87310 0.26590 0.94160 0.32300
H 	H 	0.91570 0.23280 0.96420 -0.09000
C 	C 	0.82160 0.20710 0.90660 -0.36600
H 	H 	0.83440 0.13650 0.90420 0.14800
C 	C 	0.74520 0.35560 0.87820 0.24500
H 	H 	0.69940 0.39030 0.85760 -0.05800
C 	C 	0.80420 0.40980 0.91050 -0.26100
H 	H 	0.80260 0.48170 0.90940 0.10200
C 	C 	0.58810 0.17350 0.85340 -0.00400
H 	H 	0.55880 0.20480 0.88090 0.01500
C 	C 	0.52820 0.11050 0.82360 -0.07800
H 	H 	0.45980 0.09760 0.83220 0.04500
C 	C 	0.67160 0.08550 0.77190 -0.08000
H 	H 	0.70240 0.05430 0.74470 0.05200
C 	C 	0.72880 0.14960 0.80200 -0.01400
H 	H 	0.79680 0.16480 0.79340 0.02600
N 	N 	0.13610 0.36390 0.44350 -0.24400
C 	C 	0.24740 0.25260 0.37590 0.05900
C 	C 	0.30990 0.19010 0.34250 -0.01700
C 	C 	0.43260 0.06740 0.28230 0.10000
N 	N 	0.86390 0.63610 0.44350 -0.24200
C 	C 	0.75260 0.74740 0.37590 0.06500
C 	C 	0.69010 0.80990 0.34250 -0.02400
C 	C 	0.56740 0.93260 0.28230 0.10300
N 	N 	0.86390 0.36390 0.05650 -0.23300
C 	C 	0.75260 0.25260 0.12410 0.07800
C 	C 	0.69010 0.19010 0.15750 -0.02300
C 	C 	0.56740 0.06740 0.21770 0.09900
N 	N 	0.13610 0.63610 0.05650 -0.23500
C 	C 	0.24740 0.74740 0.12410 0.07500
C 	C 	0.30990 0.80990 0.15750 -0.02200
C 	C 	0.43260 0.93260 0.21770 0.10000
N 	N 	0.86390 0.63610 0.55650 -0.24200
C 	C 	0.75260 0.74740 0.62410 0.06500
C 	C 	0.69010 0.80990 0.65750 -0.02400
C 	C 	0.56740 0.93260 0.71770 0.10400
N 	N 	0.13610 0.36390 0.55650 -0.24400
C 	C 	0.24740 0.25260 0.62410 0.05800
C 	C 	0.30990 0.19010 0.65750 -0.01700
C 	C 	0.43260 0.06740 0.71770 0.10100
N 	N 	0.13610 0.63610 0.94350 -0.24300
C 	C 	0.24740 0.74740 0.87590 0.05100
C 	C 	0.30990 0.80990 0.84250 -0.01900
C 	C 	0.43260 0.93260 0.78230 0.10300
N 	N 	0.86390 0.36390 0.94350 -0.24100
C 	C 	0.75260 0.25260 0.87590 0.05500
C 	C 	0.69010 0.19010 0.84250 -0.01900
C 	C 	0.56740 0.06740 0.78230 0.10300
C 	C 	0.50000 0.00000 0.25000 -0.12500
C 	C 	0.50000 -0.00000 0.75000 -0.12800
Cu	Cu	0.06612 0.43388 0.50000 0.79900
Cu	Cu	0.93388 0.56612 0.50000 0.79700
Cu	Cu	0.93388 0.43388 -0.00000 0.79200
Cu	Cu	0.06612 0.56612 -0.00000 0.79400
I 	I 	0.87945 0.37945 0.50000 -0.47300
I 	I 	0.12055 0.62055 0.50000 -0.46900
I 	I 	0.12055 0.37945 -0.00000 -0.49200
I 	I 	0.87945 0.62055 -0.00000 -0.49900
