data_crystal

_cell_length_a 15.69200
_cell_length_b 8.83350
_cell_length_c 9.52900
_cell_angle_alpha 90.00000
_cell_angle_beta  125.56000
_cell_angle_gamma 90.00000

_symmetry_space_group_name_	'P 1'
_symmetry_space_group_name_H-M	'P 1'

loop_
_symmetry_equiv_pos_as_xyz
  x,y,z

loop_
_atom_site_label
_atom_site_type_symbol
_atom_site_fract_x
_atom_site_fract_y
_atom_site_fract_z
_atom_site_charge
N 	N 	0.20422 0.03390 0.08460 -0.23700
N 	N 	0.24870 0.96800 0.21630 -0.04800
N 	N 	0.29283 0.89890 0.34520 -0.19100
N 	N 	0.42276 0.22870 0.24280 -0.20700
N 	N 	0.70422 0.53390 0.08460 -0.24400
N 	N 	0.74870 0.46800 0.21630 -0.05300
N 	N 	0.79283 0.39890 0.34520 -0.19900
N 	N 	0.92276 0.72870 0.24280 -0.23600
N 	N 	0.79578 0.03390 0.41540 -0.19200
N 	N 	0.75130 0.96800 0.28370 -0.04900
N 	N 	0.70717 0.89890 0.15480 -0.23200
N 	N 	0.57724 0.22870 0.25720 -0.21100
N 	N 	0.29578 0.53390 0.41540 -0.18300
N 	N 	0.25130 0.46800 0.28370 -0.04400
N 	N 	0.20717 0.39890 0.15480 -0.22500
N 	N 	0.07724 0.72870 0.25720 -0.20500
N 	N 	0.79578 0.96610 0.91540 -0.11300
N 	N 	0.75130 0.03200 0.78370 -0.02100
N 	N 	0.70717 0.10110 0.65480 -0.17000
N 	N 	0.57724 0.77130 0.75720 -0.14000
N 	N 	0.29578 0.46610 0.91540 -0.10400
N 	N 	0.25130 0.53200 0.78370 -0.01600
N 	N 	0.20717 0.60110 0.65480 -0.16200
N 	N 	0.07724 0.27130 0.75720 -0.13400
N 	N 	0.20422 0.96610 0.58460 -0.17200
N 	N 	0.24870 0.03200 0.71630 -0.02000
N 	N 	0.29283 0.10110 0.84520 -0.11500
N 	N 	0.42276 0.77130 0.74280 -0.14900
N 	N 	0.70422 0.46610 0.58460 -0.17900
N 	N 	0.74870 0.53200 0.71630 -0.02400
N 	N 	0.79283 0.60110 0.84520 -0.12300
N 	N 	0.92276 0.27130 0.74280 -0.17700
Cd	Cd	0.25000 0.25000 -0.00000 1.13900
Cd	Cd	0.75000 0.25000 0.50000 1.19900
Cd	Cd	0.75000 0.75000 -0.00000 1.13500
Cd	Cd	0.25000 0.75000 0.50000 1.20200
N 	N 	0.50000 0.23000 0.25000 -0.06100
N 	N 	0.00000 0.73000 0.25000 -0.03100
N 	N 	0.50000 0.77000 0.75000 -0.01800
N 	N 	0.00000 0.27000 0.75000 0.01000
