data_crystal

_cell_length_a 5.77820
_cell_length_b 20.40810
_cell_length_c 16.10090
_cell_angle_alpha 90.00000
_cell_angle_beta  94.67400
_cell_angle_gamma 90.00000

_symmetry_space_group_name_	'P 1'
_symmetry_space_group_name_H-M	'P 1'

loop_
_symmetry_equiv_pos_as_xyz
  x,y,z

loop_
_atom_site_label
_atom_site_type_symbol
_atom_site_fract_x
_atom_site_fract_y
_atom_site_fract_z
_atom_site_charge
Ag	Ag	0.28821 0.53080 0.54090 0.41900
Ag	Ag	0.80857 0.57300 0.60284 0.45800
N 	N 	0.43890 0.47851 0.64293 -0.19600
N 	N 	0.65520 0.49979 0.67474 -0.18400
N 	N 	0.50200 0.28798 0.96570 -0.14100
N 	N 	0.91680 0.62532 0.49828 -0.19000
N 	N 	0.12420 0.60577 0.46946 -0.19500
N 	N 	0.91100 0.84535 0.21202 -0.19100
C 	C 	0.71180 0.46573 0.74470 0.03300
H 	H 	0.85320 0.47050 0.77860 0.00600
C 	C 	0.53350 0.42220 0.76080 -0.06600
C 	C 	0.36560 0.43290 0.69450 0.02500
H 	H 	0.22030 0.41100 0.68720 0.00500
C 	C 	0.69140 0.32490 0.95610 0.07200
H 	H 	0.82070 0.32060 0.99610 0.01100
C 	C 	0.70820 0.36870 0.89120 -0.14700
H 	H 	0.84580 0.39370 0.88810 0.07800
C 	C 	0.52400 0.37611 0.83040 0.09400
C 	C 	0.32790 0.33790 0.83970 -0.14800
H 	H 	0.19640 0.34120 0.80040 0.08000
C 	C 	0.32580 0.29520 0.90630 0.07100
H 	H 	0.19090 0.26920 0.91050 0.00600
C 	C 	0.17240 0.64750 0.40940 0.03000
H 	H 	0.30700 0.64550 0.37930 0.00800
C 	C 	0.99860 0.69427 0.39700 -0.06500
C 	C 	0.83930 0.67786 0.45550 0.02700
H 	H 	0.69920 0.70060 0.46320 0.01100
C 	C 	0.09660 0.80530 0.21640 0.08100
H 	H 	0.20750 0.81080 0.17650 -0.01700
C 	C 	0.13470 0.75700 0.27530 -0.15600
H 	H 	0.26900 0.73010 0.27540 0.08300
C 	C 	0.97440 0.74725 0.33570 0.09800
C 	C 	0.78470 0.79020 0.33150 -0.15500
H 	H 	0.67190 0.78670 0.37110 0.08500
C 	C 	0.76080 0.83740 0.27050 0.07900
H 	H 	0.63070 0.86590 0.26970 -0.01300
Ag	Ag	0.71179 0.03080 0.95910 0.41600
Ag	Ag	0.19143 0.07300 0.89716 0.45600
N 	N 	0.56110 0.97851 0.85707 -0.19500
N 	N 	0.34480 0.99979 0.82526 -0.18300
N 	N 	0.49800 0.78798 0.53430 -0.14000
N 	N 	0.08320 0.12532 0.00172 -0.18800
N 	N 	0.87580 0.10577 0.03054 -0.19400
N 	N 	0.08900 0.34535 0.28798 -0.19000
C 	C 	0.28820 0.96573 0.75530 0.03300
H 	H 	0.14680 0.97050 0.72140 0.00600
C 	C 	0.46650 0.92220 0.73920 -0.06600
C 	C 	0.63440 0.93290 0.80550 0.02500
H 	H 	0.77970 0.91100 0.81280 0.00600
C 	C 	0.30860 0.82490 0.54390 0.07200
H 	H 	0.17930 0.82060 0.50390 0.01200
C 	C 	0.29180 0.86870 0.60880 -0.14700
H 	H 	0.15420 0.89370 0.61190 0.07800
C 	C 	0.47600 0.87611 0.66960 0.09400
C 	C 	0.67210 0.83790 0.66030 -0.14800
H 	H 	0.80360 0.84120 0.69960 0.08000
C 	C 	0.67420 0.79520 0.59370 0.07100
H 	H 	0.80910 0.76920 0.58950 0.00600
C 	C 	0.82760 0.14750 0.09060 0.03000
H 	H 	0.69300 0.14550 0.12070 0.00800
C 	C 	0.00140 0.19427 0.10300 -0.06500
C 	C 	0.16070 0.17786 0.04450 0.02800
H 	H 	0.30080 0.20060 0.03680 0.01200
C 	C 	0.90340 0.30530 0.28360 0.08100
H 	H 	0.79250 0.31080 0.32350 -0.01600
C 	C 	0.86530 0.25700 0.22470 -0.15600
H 	H 	0.73100 0.23010 0.22460 0.08300
C 	C 	0.02560 0.24725 0.16430 0.09800
C 	C 	0.21530 0.29020 0.16850 -0.15500
H 	H 	0.32810 0.28670 0.12890 0.08500
C 	C 	0.23920 0.33740 0.22950 0.07900
H 	H 	0.36930 0.36590 0.23030 -0.01200
Ag	Ag	0.71179 0.46920 0.45910 0.41900
Ag	Ag	0.19143 0.42700 0.39716 0.45800
N 	N 	0.56110 0.52149 0.35707 -0.19600
N 	N 	0.34480 0.50021 0.32526 -0.18400
N 	N 	0.49800 0.71202 0.03430 -0.14100
N 	N 	0.08320 0.37468 0.50172 -0.19000
N 	N 	0.87580 0.39423 0.53054 -0.19500
N 	N 	0.08900 0.15465 0.78798 -0.19100
C 	C 	0.28820 0.53427 0.25530 0.03300
H 	H 	0.14680 0.52950 0.22140 0.00600
C 	C 	0.46650 0.57780 0.23920 -0.06600
C 	C 	0.63440 0.56710 0.30550 0.02500
H 	H 	0.77970 0.58900 0.31280 0.00500
C 	C 	0.30860 0.67510 0.04390 0.07200
H 	H 	0.17930 0.67940 0.00390 0.01100
C 	C 	0.29180 0.63130 0.10880 -0.14700
H 	H 	0.15420 0.60630 0.11190 0.07800
C 	C 	0.47600 0.62389 0.16960 0.09400
C 	C 	0.67210 0.66210 0.16030 -0.14800
H 	H 	0.80360 0.65880 0.19960 0.08000
C 	C 	0.67420 0.70480 0.09370 0.07100
H 	H 	0.80910 0.73080 0.08950 0.00600
C 	C 	0.82760 0.35250 0.59060 0.03000
H 	H 	0.69300 0.35450 0.62070 0.00800
C 	C 	0.00140 0.30573 0.60300 -0.06500
C 	C 	0.16070 0.32214 0.54450 0.02700
H 	H 	0.30080 0.29940 0.53680 0.01100
C 	C 	0.90340 0.19470 0.78360 0.08100
H 	H 	0.79250 0.18920 0.82350 -0.01700
C 	C 	0.86530 0.24300 0.72470 -0.15600
H 	H 	0.73100 0.26990 0.72460 0.08300
C 	C 	0.02560 0.25275 0.66430 0.09800
C 	C 	0.21530 0.20980 0.66850 -0.15500
H 	H 	0.32810 0.21330 0.62890 0.08500
C 	C 	0.23920 0.16260 0.72950 0.07900
H 	H 	0.36930 0.13410 0.73030 -0.01300
Ag	Ag	0.28821 0.96920 0.04090 0.41600
Ag	Ag	0.80857 0.92700 0.10284 0.45600
N 	N 	0.43890 0.02149 0.14293 -0.19500
N 	N 	0.65520 0.00021 0.17474 -0.18300
N 	N 	0.50200 0.21202 0.46570 -0.14000
N 	N 	0.91680 0.87468 0.99828 -0.18800
N 	N 	0.12420 0.89423 0.96946 -0.19400
N 	N 	0.91100 0.65465 0.71202 -0.19000
C 	C 	0.71180 0.03427 0.24470 0.03300
H 	H 	0.85320 0.02950 0.27860 0.00600
C 	C 	0.53350 0.07780 0.26080 -0.06600
C 	C 	0.36560 0.06710 0.19450 0.02500
H 	H 	0.22030 0.08900 0.18720 0.00600
C 	C 	0.69140 0.17510 0.45610 0.07200
H 	H 	0.82070 0.17940 0.49610 0.01200
C 	C 	0.70820 0.13130 0.39120 -0.14700
H 	H 	0.84580 0.10630 0.38810 0.07800
C 	C 	0.52400 0.12389 0.33040 0.09400
C 	C 	0.32790 0.16210 0.33970 -0.14800
H 	H 	0.19640 0.15880 0.30040 0.08000
C 	C 	0.32580 0.20480 0.40630 0.07100
H 	H 	0.19090 0.23080 0.41050 0.00600
C 	C 	0.17240 0.85250 0.90940 0.03000
H 	H 	0.30700 0.85450 0.87930 0.00800
C 	C 	0.99860 0.80573 0.89700 -0.06500
C 	C 	0.83930 0.82214 0.95550 0.02800
H 	H 	0.69920 0.79940 0.96320 0.01200
C 	C 	0.09660 0.69470 0.71640 0.08100
H 	H 	0.20750 0.68920 0.67650 -0.01600
C 	C 	0.13470 0.74300 0.77530 -0.15600
H 	H 	0.26900 0.76990 0.77540 0.08300
C 	C 	0.97440 0.75275 0.83570 0.09800
C 	C 	0.78470 0.70980 0.83150 -0.15500
H 	H 	0.67190 0.71330 0.87110 0.08500
C 	C 	0.76080 0.66260 0.77050 0.07900
H 	H 	0.63070 0.63410 0.76970 -0.01200
