data_crystal

_cell_length_a 9.59960
_cell_length_b 9.76380
_cell_length_c 9.86600
_cell_angle_alpha 88.15000
_cell_angle_beta  77.43100
_cell_angle_gamma 64.29300

_symmetry_space_group_name_	'P 1'
_symmetry_space_group_name_H-M	'P 1'

loop_
_symmetry_equiv_pos_as_xyz
  x,y,z

loop_
_atom_site_label
_atom_site_type_symbol
_atom_site_fract_x
_atom_site_fract_y
_atom_site_fract_z
_atom_site_charge
Cd	Cd	0.95194 0.22667 0.02831 1.21000
Cd	Cd	0.04806 0.77333 0.97169 1.21000
H 	H 	0.41560 0.13120 0.43450 0.06400
H 	H 	0.76670 0.67210 0.11440 -0.01300
H 	H 	0.20640 0.41670 0.30610 0.04400
H 	H 	0.62950 0.00550 0.54090 0.06400
H 	H 	0.71680 0.90800 0.81330 0.04800
H 	H 	0.58440 0.86880 0.56550 0.06300
H 	H 	0.37050 0.99450 0.45910 0.06300
H 	H 	0.79360 0.58330 0.69390 0.04300
H 	H 	0.47980 0.16830 0.17040 0.04900
H 	H 	0.77330 0.47100 0.50140 0.05600
H 	H 	0.22670 0.52900 0.49860 0.05600
H 	H 	0.52020 0.83170 0.82960 0.04900
H 	H 	0.84530 0.95680 0.31080 -0.00000
H 	H 	0.15470 0.04320 0.68920 -0.00000
H 	H 	0.23330 0.32790 0.88560 -0.01400
H 	H 	0.28320 0.09200 0.18670 0.04800
C 	C 	0.37030 0.05500 0.11150 -0.02700
C 	C 	0.19750 0.10570 0.71300 0.09400
C 	C 	0.62970 0.94500 0.88850 -0.02700
C 	C 	0.41610 0.05200 0.49650 -0.05800
C 	C 	0.12250 0.45070 0.38400 -0.02400
C 	C 	0.01230 0.56570 0.61790 -0.05900
C 	C 	0.86460 0.48290 0.50010 -0.02500
C 	C 	0.98770 0.43430 0.38210 -0.05900
C 	C 	0.80250 0.89430 0.28700 0.09400
C 	C 	0.24220 0.25900 0.81750 0.10000
C 	C 	0.02530 0.63620 0.74390 0.28900
C 	C 	0.48780 0.10040 0.10180 -0.01600
C 	C 	0.87750 0.54930 0.61600 -0.02400
C 	C 	0.97470 0.36380 0.25610 0.28900
C 	C 	0.62070 0.04570 0.98950 -0.07900
C 	C 	0.24770 0.90950 0.01570 0.32600
C 	C 	0.13540 0.51710 0.49990 -0.02500
C 	C 	0.51220 0.89960 0.89820 -0.01600
C 	C 	0.75780 0.74100 0.18250 0.10000
C 	C 	0.58390 0.94800 0.50350 -0.05800
C 	C 	0.75230 0.09050 0.98430 0.32600
C 	C 	0.37930 0.95430 0.01050 -0.07900
N 	N 	0.64840 0.78030 0.29940 -0.09500
N 	N 	0.85470 0.80790 0.16950 -0.25000
N 	N 	0.35160 0.21970 0.70060 -0.09500
N 	N 	0.32000 0.12150 0.63410 -0.09000
N 	N 	0.68000 0.87850 0.36590 -0.09000
N 	N 	0.14530 0.19210 0.83050 -0.25000
O 	O 	0.05760 0.36450 0.13950 -0.38000
O 	O 	0.12060 0.69540 0.73090 -0.35900
O 	O 	0.88540 0.01590 0.90330 -0.44400
O 	O 	0.94240 0.63550 0.86050 -0.38000
O 	O 	0.72770 0.19920 0.06430 -0.42300
O 	O 	0.11460 0.98410 0.09670 -0.44400
O 	O 	0.87940 0.30460 0.26910 -0.35900
O 	O 	0.27230 0.80080 0.93570 -0.42300
