data_crystal

_cell_length_a 40.77000
_cell_length_b 40.77000
_cell_length_c 40.77000
_cell_angle_alpha 90.00000
_cell_angle_beta  90.00000
_cell_angle_gamma 90.00000

_symmetry_space_group_name_	'P 1'
_symmetry_space_group_name_H-M	'P 1'

loop_
_symmetry_equiv_pos_as_xyz
  x,y,z

loop_
_atom_site_label
_atom_site_type_symbol
_atom_site_fract_x
_atom_site_fract_y
_atom_site_fract_z
_atom_site_charge
O 	O 	0.01470 0.31244 0.06500 -0.46500
H 	H 	0.05520 0.33280 0.17410 0.07500
H 	H 	0.07320 0.29610 0.17690 0.05400
H 	H 	0.07310 0.32060 0.20560 0.06400
O 	O 	0.01470 0.81244 0.56500 -0.46500
H 	H 	0.05520 0.83280 0.67410 0.07500
H 	H 	0.07320 0.79610 0.67690 0.05400
H 	H 	0.07310 0.82060 0.70560 0.06400
O 	O 	0.51470 0.31244 0.56500 -0.46500
H 	H 	0.55520 0.33280 0.67410 0.07500
H 	H 	0.57320 0.29610 0.67690 0.05400
H 	H 	0.57310 0.32060 0.70560 0.06400
O 	O 	0.51470 0.81244 0.06500 -0.46500
H 	H 	0.55520 0.83280 0.17410 0.07500
H 	H 	0.57320 0.79610 0.17690 0.05400
H 	H 	0.57310 0.82060 0.20560 0.06400
O 	O 	0.98530 0.68756 0.06500 -0.46400
H 	H 	0.94480 0.66720 0.17410 0.07500
H 	H 	0.92680 0.70390 0.17690 0.05400
H 	H 	0.92690 0.67940 0.20560 0.06400
O 	O 	0.98530 0.18756 0.56500 -0.46400
H 	H 	0.94480 0.16720 0.67410 0.07600
H 	H 	0.92680 0.20390 0.67690 0.05500
H 	H 	0.92690 0.17940 0.70560 0.06500
O 	O 	0.48530 0.68756 0.56500 -0.46400
H 	H 	0.44480 0.66720 0.67410 0.07600
H 	H 	0.42680 0.70390 0.67690 0.05500
H 	H 	0.42690 0.67940 0.70560 0.06500
O 	O 	0.48530 0.18756 0.06500 -0.46400
H 	H 	0.44480 0.16720 0.17410 0.07600
H 	H 	0.42680 0.20390 0.17690 0.05500
H 	H 	0.42690 0.17940 0.20560 0.06500
O 	O 	0.98530 0.31244 0.93500 -0.46300
H 	H 	0.94480 0.33280 0.82590 0.07600
H 	H 	0.92680 0.29610 0.82310 0.05500
H 	H 	0.92690 0.32060 0.79440 0.06500
O 	O 	0.98530 0.81244 0.43500 -0.46300
H 	H 	0.94480 0.83280 0.32590 0.07600
H 	H 	0.92680 0.79610 0.32310 0.05500
H 	H 	0.92690 0.82060 0.29440 0.06500
O 	O 	0.48530 0.31244 0.43500 -0.46400
H 	H 	0.44480 0.33280 0.32590 0.07600
H 	H 	0.42680 0.29610 0.32310 0.05500
H 	H 	0.42690 0.32060 0.29440 0.06500
O 	O 	0.48530 0.81244 0.93500 -0.46400
H 	H 	0.44480 0.83280 0.82590 0.07600
H 	H 	0.42680 0.79610 0.82310 0.05500
H 	H 	0.42690 0.82060 0.79440 0.06500
O 	O 	0.01470 0.68756 0.93500 -0.46400
H 	H 	0.05520 0.66720 0.82590 0.07600
H 	H 	0.07320 0.70390 0.82310 0.05500
H 	H 	0.07310 0.67940 0.79440 0.06500
O 	O 	0.01470 0.18756 0.43500 -0.46400
H 	H 	0.05520 0.16720 0.32590 0.07600
H 	H 	0.07320 0.20390 0.32310 0.05500
H 	H 	0.07310 0.17940 0.29440 0.06500
O 	O 	0.51470 0.68756 0.43500 -0.46400
H 	H 	0.55520 0.66720 0.32590 0.07600
H 	H 	0.57320 0.70390 0.32310 0.05500
H 	H 	0.57310 0.67940 0.29440 0.06500
O 	O 	0.51470 0.18756 0.93500 -0.46400
H 	H 	0.55520 0.16720 0.82590 0.07600
H 	H 	0.57320 0.20390 0.82310 0.05500
H 	H 	0.57310 0.17940 0.79440 0.06500
O 	O 	0.06500 0.01470 0.31244 -0.46400
H 	H 	0.17410 0.05520 0.33280 0.07600
H 	H 	0.17690 0.07320 0.29610 0.05500
H 	H 	0.20560 0.07310 0.32060 0.06500
O 	O 	0.06500 0.51470 0.81244 -0.46400
H 	H 	0.17410 0.55520 0.83280 0.07600
H 	H 	0.17690 0.57320 0.79610 0.05500
H 	H 	0.20560 0.57310 0.82060 0.06500
O 	O 	0.56500 0.01470 0.81244 -0.46400
H 	H 	0.67410 0.05520 0.83280 0.07600
H 	H 	0.67690 0.07320 0.79610 0.05500
H 	H 	0.70560 0.07310 0.82060 0.06500
O 	O 	0.56500 0.51470 0.31244 -0.46400
H 	H 	0.67410 0.55520 0.33280 0.07600
H 	H 	0.67690 0.57320 0.29610 0.05500
H 	H 	0.70560 0.57310 0.32060 0.06500
O 	O 	0.06500 0.98530 0.68756 -0.46300
H 	H 	0.17410 0.94480 0.66720 0.07600
H 	H 	0.17690 0.92680 0.70390 0.05500
H 	H 	0.20560 0.92690 0.67940 0.06500
O 	O 	0.06500 0.48530 0.18756 -0.46400
H 	H 	0.17410 0.44480 0.16720 0.07600
H 	H 	0.17690 0.42680 0.20390 0.05500
H 	H 	0.20560 0.42690 0.17940 0.06500
O 	O 	0.56500 0.98530 0.18756 -0.46300
H 	H 	0.67410 0.94480 0.16720 0.07600
H 	H 	0.67690 0.92680 0.20390 0.05500
H 	H 	0.70560 0.92690 0.17940 0.06500
O 	O 	0.56500 0.48530 0.68756 -0.46400
H 	H 	0.67410 0.44480 0.66720 0.07600
H 	H 	0.67690 0.42680 0.70390 0.05500
H 	H 	0.70560 0.42690 0.67940 0.06500
O 	O 	0.93500 0.98530 0.31244 -0.46300
H 	H 	0.82590 0.94480 0.33280 0.07600
H 	H 	0.82310 0.92680 0.29610 0.05500
H 	H 	0.79440 0.92690 0.32060 0.06500
O 	O 	0.93500 0.48530 0.81244 -0.46400
H 	H 	0.82590 0.44480 0.83280 0.07600
H 	H 	0.82310 0.42680 0.79610 0.05500
H 	H 	0.79440 0.42690 0.82060 0.06500
O 	O 	0.43500 0.98530 0.81244 -0.46300
H 	H 	0.32590 0.94480 0.83280 0.07600
H 	H 	0.32310 0.92680 0.79610 0.05500
H 	H 	0.29440 0.92690 0.82060 0.06500
O 	O 	0.43500 0.48530 0.31244 -0.46400
H 	H 	0.32590 0.44480 0.33280 0.07600
H 	H 	0.32310 0.42680 0.29610 0.05500
H 	H 	0.29440 0.42690 0.32060 0.06500
O 	O 	0.93500 0.01470 0.68756 -0.46400
H 	H 	0.82590 0.05520 0.66720 0.07600
H 	H 	0.82310 0.07320 0.70390 0.05500
H 	H 	0.79440 0.07310 0.67940 0.06500
O 	O 	0.93500 0.51470 0.18756 -0.46400
H 	H 	0.82590 0.55520 0.16720 0.07600
H 	H 	0.82310 0.57320 0.20390 0.05500
H 	H 	0.79440 0.57310 0.17940 0.06500
O 	O 	0.43500 0.01470 0.18756 -0.46400
H 	H 	0.32590 0.05520 0.16720 0.07600
H 	H 	0.32310 0.07320 0.20390 0.05500
H 	H 	0.29440 0.07310 0.17940 0.06500
O 	O 	0.43500 0.51470 0.68756 -0.46400
H 	H 	0.32590 0.55520 0.66720 0.07600
H 	H 	0.32310 0.57320 0.70390 0.05500
H 	H 	0.29440 0.57310 0.67940 0.06500
O 	O 	0.31244 0.06500 0.01470 -0.46400
H 	H 	0.33280 0.17410 0.05520 0.07600
H 	H 	0.29610 0.17690 0.07320 0.05500
H 	H 	0.32060 0.20560 0.07310 0.06500
O 	O 	0.31244 0.56500 0.51470 -0.46400
H 	H 	0.33280 0.67410 0.55520 0.07600
H 	H 	0.29610 0.67690 0.57320 0.05500
H 	H 	0.32060 0.70560 0.57310 0.06500
O 	O 	0.81244 0.06500 0.51470 -0.46400
H 	H 	0.83280 0.17410 0.55520 0.07600
H 	H 	0.79610 0.17690 0.57320 0.05500
H 	H 	0.82060 0.20560 0.57310 0.06500
O 	O 	0.81244 0.56500 0.01470 -0.46400
H 	H 	0.83280 0.67410 0.05520 0.07600
H 	H 	0.79610 0.67690 0.07320 0.05500
H 	H 	0.82060 0.70560 0.07310 0.06500
O 	O 	0.68756 0.06500 0.98530 -0.46300
H 	H 	0.66720 0.17410 0.94480 0.07600
H 	H 	0.70390 0.17690 0.92680 0.05500
H 	H 	0.67940 0.20560 0.92690 0.06500
O 	O 	0.68756 0.56500 0.48530 -0.46400
H 	H 	0.66720 0.67410 0.44480 0.07600
H 	H 	0.70390 0.67690 0.42680 0.05500
H 	H 	0.67940 0.70560 0.42690 0.06500
O 	O 	0.18756 0.06500 0.48530 -0.46400
H 	H 	0.16720 0.17410 0.44480 0.07600
H 	H 	0.20390 0.17690 0.42680 0.05500
H 	H 	0.17940 0.20560 0.42690 0.06500
O 	O 	0.18756 0.56500 0.98530 -0.46300
H 	H 	0.16720 0.67410 0.94480 0.07600
H 	H 	0.20390 0.67690 0.92680 0.05500
H 	H 	0.17940 0.70560 0.92690 0.06500
O 	O 	0.31244 0.93500 0.98530 -0.46300
H 	H 	0.33280 0.82590 0.94480 0.07600
H 	H 	0.29610 0.82310 0.92680 0.05500
H 	H 	0.32060 0.79440 0.92690 0.06500
O 	O 	0.31244 0.43500 0.48530 -0.46400
H 	H 	0.33280 0.32590 0.44480 0.07600
H 	H 	0.29610 0.32310 0.42680 0.05500
H 	H 	0.32060 0.29440 0.42690 0.06500
O 	O 	0.81244 0.93500 0.48530 -0.46400
H 	H 	0.83280 0.82590 0.44480 0.07600
H 	H 	0.79610 0.82310 0.42680 0.05500
H 	H 	0.82060 0.79440 0.42690 0.06500
O 	O 	0.81244 0.43500 0.98530 -0.46300
H 	H 	0.83280 0.32590 0.94480 0.07600
H 	H 	0.79610 0.32310 0.92680 0.05500
H 	H 	0.82060 0.29440 0.92690 0.06500
O 	O 	0.68756 0.93500 0.01470 -0.46400
H 	H 	0.66720 0.82590 0.05520 0.07600
H 	H 	0.70390 0.82310 0.07320 0.05500
H 	H 	0.67940 0.79440 0.07310 0.06500
O 	O 	0.68756 0.43500 0.51470 -0.46400
H 	H 	0.66720 0.32590 0.55520 0.07600
H 	H 	0.70390 0.32310 0.57320 0.05500
H 	H 	0.67940 0.29440 0.57310 0.06500
O 	O 	0.18756 0.93500 0.51470 -0.46400
H 	H 	0.16720 0.82590 0.55520 0.07600
H 	H 	0.20390 0.82310 0.57320 0.05500
H 	H 	0.17940 0.79440 0.57310 0.06500
O 	O 	0.18756 0.43500 0.01470 -0.46400
H 	H 	0.16720 0.32590 0.05520 0.07600
H 	H 	0.20390 0.32310 0.07320 0.05500
H 	H 	0.17940 0.29440 0.07310 0.06500
O 	O 	0.31244 0.01470 0.93500 -0.46400
H 	H 	0.33280 0.05520 0.82590 0.07600
H 	H 	0.29610 0.07320 0.82310 0.05500
H 	H 	0.32060 0.07310 0.79440 0.06500
O 	O 	0.31244 0.51470 0.43500 -0.46400
H 	H 	0.33280 0.55520 0.32590 0.07600
H 	H 	0.29610 0.57320 0.32310 0.05500
H 	H 	0.32060 0.57310 0.29440 0.06500
O 	O 	0.81244 0.01470 0.43500 -0.46400
H 	H 	0.83280 0.05520 0.32590 0.07600
H 	H 	0.79610 0.07320 0.32310 0.05500
H 	H 	0.82060 0.07310 0.29440 0.06500
O 	O 	0.81244 0.51470 0.93500 -0.46400
H 	H 	0.83280 0.55520 0.82590 0.07600
H 	H 	0.79610 0.57320 0.82310 0.05500
H 	H 	0.82060 0.57310 0.79440 0.06500
O 	O 	0.68756 0.98530 0.93500 -0.46300
H 	H 	0.66720 0.94480 0.82590 0.07600
H 	H 	0.70390 0.92680 0.82310 0.05500
H 	H 	0.67940 0.92690 0.79440 0.06500
O 	O 	0.68756 0.48530 0.43500 -0.46400
H 	H 	0.66720 0.44480 0.32590 0.07600
H 	H 	0.70390 0.42680 0.32310 0.05500
H 	H 	0.67940 0.42690 0.29440 0.06500
O 	O 	0.18756 0.98530 0.43500 -0.46300
H 	H 	0.16720 0.94480 0.32590 0.07600
H 	H 	0.20390 0.92680 0.32310 0.05500
H 	H 	0.17940 0.92690 0.29440 0.06500
O 	O 	0.18756 0.48530 0.93500 -0.46400
H 	H 	0.16720 0.44480 0.82590 0.07600
H 	H 	0.20390 0.42680 0.82310 0.05500
H 	H 	0.17940 0.42690 0.79440 0.06500
O 	O 	0.31244 0.98530 0.06500 -0.46300
H 	H 	0.33280 0.94480 0.17410 0.07600
H 	H 	0.29610 0.92680 0.17690 0.05500
H 	H 	0.32060 0.92690 0.20560 0.06500
O 	O 	0.31244 0.48530 0.56500 -0.46400
H 	H 	0.33280 0.44480 0.67410 0.07600
H 	H 	0.29610 0.42680 0.67690 0.05500
H 	H 	0.32060 0.42690 0.70560 0.06500
O 	O 	0.81244 0.98530 0.56500 -0.46300
H 	H 	0.83280 0.94480 0.67410 0.07600
H 	H 	0.79610 0.92680 0.67690 0.05500
H 	H 	0.82060 0.92690 0.70560 0.06500
O 	O 	0.81244 0.48530 0.06500 -0.46400
H 	H 	0.83280 0.44480 0.17410 0.07600
H 	H 	0.79610 0.42680 0.17690 0.05500
H 	H 	0.82060 0.42690 0.20560 0.06500
O 	O 	0.68756 0.01470 0.06500 -0.46400
H 	H 	0.66720 0.05520 0.17410 0.07600
H 	H 	0.70390 0.07320 0.17690 0.05500
H 	H 	0.67940 0.07310 0.20560 0.06500
O 	O 	0.68756 0.51470 0.56500 -0.46400
H 	H 	0.66720 0.55520 0.67410 0.07600
H 	H 	0.70390 0.57320 0.67690 0.05500
H 	H 	0.67940 0.57310 0.70560 0.06500
O 	O 	0.18756 0.01470 0.56500 -0.46400
H 	H 	0.16720 0.05520 0.67410 0.07600
H 	H 	0.20390 0.07320 0.67690 0.05500
H 	H 	0.17940 0.07310 0.70560 0.06500
O 	O 	0.18756 0.51470 0.06500 -0.46400
H 	H 	0.16720 0.55520 0.17410 0.07600
H 	H 	0.20390 0.57320 0.17690 0.05500
H 	H 	0.17940 0.57310 0.20560 0.06500
O 	O 	0.01470 0.06500 0.68756 -0.46400
H 	H 	0.05520 0.17410 0.66720 0.07600
H 	H 	0.07320 0.17690 0.70390 0.05500
H 	H 	0.07310 0.20560 0.67940 0.06500
O 	O 	0.01470 0.56500 0.18756 -0.46400
H 	H 	0.05520 0.67410 0.16720 0.07600
H 	H 	0.07320 0.67690 0.20390 0.05500
H 	H 	0.07310 0.70560 0.17940 0.06500
O 	O 	0.51470 0.06500 0.18756 -0.46400
H 	H 	0.55520 0.17410 0.16720 0.07600
H 	H 	0.57320 0.17690 0.20390 0.05500
H 	H 	0.57310 0.20560 0.17940 0.06500
O 	O 	0.51470 0.56500 0.68756 -0.46400
H 	H 	0.55520 0.67410 0.66720 0.07600
H 	H 	0.57320 0.67690 0.70390 0.05500
H 	H 	0.57310 0.70560 0.67940 0.06500
O 	O 	0.98530 0.06500 0.31244 -0.46300
H 	H 	0.94480 0.17410 0.33280 0.07600
H 	H 	0.92680 0.17690 0.29610 0.05500
H 	H 	0.92690 0.20560 0.32060 0.06500
O 	O 	0.98530 0.56500 0.81244 -0.46300
H 	H 	0.94480 0.67410 0.83280 0.07600
H 	H 	0.92680 0.67690 0.79610 0.05500
H 	H 	0.92690 0.70560 0.82060 0.06500
O 	O 	0.48530 0.06500 0.81244 -0.46400
H 	H 	0.44480 0.17410 0.83280 0.07600
H 	H 	0.42680 0.17690 0.79610 0.05500
H 	H 	0.42690 0.20560 0.82060 0.06500
O 	O 	0.48530 0.56500 0.31244 -0.46400
H 	H 	0.44480 0.67410 0.33280 0.07600
H 	H 	0.42680 0.67690 0.29610 0.05500
H 	H 	0.42690 0.70560 0.32060 0.06500
O 	O 	0.98530 0.93500 0.68756 -0.46300
H 	H 	0.94480 0.82590 0.66720 0.07600
H 	H 	0.92680 0.82310 0.70390 0.05500
H 	H 	0.92690 0.79440 0.67940 0.06500
O 	O 	0.98530 0.43500 0.18756 -0.46300
H 	H 	0.94480 0.32590 0.16720 0.07600
H 	H 	0.92680 0.32310 0.20390 0.05500
H 	H 	0.92690 0.29440 0.17940 0.06500
O 	O 	0.48530 0.93500 0.18756 -0.46400
H 	H 	0.44480 0.82590 0.16720 0.07600
H 	H 	0.42680 0.82310 0.20390 0.05500
H 	H 	0.42690 0.79440 0.17940 0.06500
O 	O 	0.48530 0.43500 0.68756 -0.46400
H 	H 	0.44480 0.32590 0.66720 0.07600
H 	H 	0.42680 0.32310 0.70390 0.05500
H 	H 	0.42690 0.29440 0.67940 0.06500
O 	O 	0.01470 0.93500 0.31244 -0.46400
H 	H 	0.05520 0.82590 0.33280 0.07600
H 	H 	0.07320 0.82310 0.29610 0.05500
H 	H 	0.07310 0.79440 0.32060 0.06500
O 	O 	0.01470 0.43500 0.81244 -0.46400
H 	H 	0.05520 0.32590 0.83280 0.07600
H 	H 	0.07320 0.32310 0.79610 0.05500
H 	H 	0.07310 0.29440 0.82060 0.06500
O 	O 	0.51470 0.93500 0.81244 -0.46400
H 	H 	0.55520 0.82590 0.83280 0.07600
H 	H 	0.57320 0.82310 0.79610 0.05500
H 	H 	0.57310 0.79440 0.82060 0.06500
O 	O 	0.51470 0.43500 0.31244 -0.46400
H 	H 	0.55520 0.32590 0.33280 0.07600
H 	H 	0.57320 0.32310 0.29610 0.05500
H 	H 	0.57310 0.29440 0.32060 0.06500
O 	O 	0.06500 0.31244 0.98530 -0.46300
H 	H 	0.17410 0.33280 0.94480 0.07600
H 	H 	0.17690 0.29610 0.92680 0.05500
H 	H 	0.20560 0.32060 0.92690 0.06500
O 	O 	0.06500 0.81244 0.48530 -0.46400
H 	H 	0.17410 0.83280 0.44480 0.07600
H 	H 	0.17690 0.79610 0.42680 0.05500
H 	H 	0.20560 0.82060 0.42690 0.06500
O 	O 	0.56500 0.31244 0.48530 -0.46400
H 	H 	0.67410 0.33280 0.44480 0.07600
H 	H 	0.67690 0.29610 0.42680 0.05500
H 	H 	0.70560 0.32060 0.42690 0.06500
O 	O 	0.56500 0.81244 0.98530 -0.46300
H 	H 	0.67410 0.83280 0.94480 0.07600
H 	H 	0.67690 0.79610 0.92680 0.05500
H 	H 	0.70560 0.82060 0.92690 0.06500
O 	O 	0.06500 0.68756 0.01470 -0.46400
H 	H 	0.17410 0.66720 0.05520 0.07600
H 	H 	0.17690 0.70390 0.07320 0.05500
H 	H 	0.20560 0.67940 0.07310 0.06500
O 	O 	0.06500 0.18756 0.51470 -0.46400
H 	H 	0.17410 0.16720 0.55520 0.07600
H 	H 	0.17690 0.20390 0.57320 0.05500
H 	H 	0.20560 0.17940 0.57310 0.06500
O 	O 	0.56500 0.68756 0.51470 -0.46400
H 	H 	0.67410 0.66720 0.55520 0.07600
H 	H 	0.67690 0.70390 0.57320 0.05500
H 	H 	0.70560 0.67940 0.57310 0.06500
O 	O 	0.56500 0.18756 0.01470 -0.46400
H 	H 	0.67410 0.16720 0.05520 0.07600
H 	H 	0.67690 0.20390 0.07320 0.05500
H 	H 	0.70560 0.17940 0.07310 0.06500
O 	O 	0.93500 0.31244 0.01470 -0.46400
H 	H 	0.82590 0.33280 0.05520 0.07600
H 	H 	0.82310 0.29610 0.07320 0.05500
H 	H 	0.79440 0.32060 0.07310 0.06500
O 	O 	0.93500 0.81244 0.51470 -0.46400
H 	H 	0.82590 0.83280 0.55520 0.07600
H 	H 	0.82310 0.79610 0.57320 0.05500
H 	H 	0.79440 0.82060 0.57310 0.06500
O 	O 	0.43500 0.31244 0.51470 -0.46400
H 	H 	0.32590 0.33280 0.55520 0.07600
H 	H 	0.32310 0.29610 0.57320 0.05500
H 	H 	0.29440 0.32060 0.57310 0.06500
O 	O 	0.43500 0.81244 0.01470 -0.46400
H 	H 	0.32590 0.83280 0.05520 0.07600
H 	H 	0.32310 0.79610 0.07320 0.05500
H 	H 	0.29440 0.82060 0.07310 0.06500
O 	O 	0.93500 0.68756 0.98530 -0.46300
H 	H 	0.82590 0.66720 0.94480 0.07600
H 	H 	0.82310 0.70390 0.92680 0.05500
H 	H 	0.79440 0.67940 0.92690 0.06500
O 	O 	0.93500 0.18756 0.48530 -0.46400
H 	H 	0.82590 0.16720 0.44480 0.07600
H 	H 	0.82310 0.20390 0.42680 0.05500
H 	H 	0.79440 0.17940 0.42690 0.06500
O 	O 	0.43500 0.68756 0.48530 -0.46400
H 	H 	0.32590 0.66720 0.44480 0.07600
H 	H 	0.32310 0.70390 0.42680 0.05500
H 	H 	0.29440 0.67940 0.42690 0.06500
O 	O 	0.43500 0.18756 0.98530 -0.46300
H 	H 	0.32590 0.16720 0.94480 0.07600
H 	H 	0.32310 0.20390 0.92680 0.05500
H 	H 	0.29440 0.17940 0.92690 0.06500
O 	O 	0.98530 0.68756 0.93500 -0.46300
H 	H 	0.94480 0.66720 0.82590 0.07600
H 	H 	0.92680 0.70390 0.82310 0.05500
H 	H 	0.92690 0.67940 0.79440 0.06500
O 	O 	0.98530 0.18756 0.43500 -0.46300
H 	H 	0.94480 0.16720 0.32590 0.07600
H 	H 	0.92680 0.20390 0.32310 0.05500
H 	H 	0.92690 0.17940 0.29440 0.06500
O 	O 	0.48530 0.68756 0.43500 -0.46400
H 	H 	0.44480 0.66720 0.32590 0.07600
H 	H 	0.42680 0.70390 0.32310 0.05500
H 	H 	0.42690 0.67940 0.29440 0.06500
O 	O 	0.48530 0.18756 0.93500 -0.46400
H 	H 	0.44480 0.16720 0.82590 0.07600
H 	H 	0.42680 0.20390 0.82310 0.05500
H 	H 	0.42690 0.17940 0.79440 0.06500
O 	O 	0.01470 0.31244 0.93500 -0.46400
H 	H 	0.05520 0.33280 0.82590 0.07600
H 	H 	0.07320 0.29610 0.82310 0.05500
H 	H 	0.07310 0.32060 0.79440 0.06500
O 	O 	0.01470 0.81244 0.43500 -0.46400
H 	H 	0.05520 0.83280 0.32590 0.07600
H 	H 	0.07320 0.79610 0.32310 0.05500
H 	H 	0.07310 0.82060 0.29440 0.06500
O 	O 	0.51470 0.31244 0.43500 -0.46400
H 	H 	0.55520 0.33280 0.32590 0.07600
H 	H 	0.57320 0.29610 0.32310 0.05500
H 	H 	0.57310 0.32060 0.29440 0.06500
O 	O 	0.51470 0.81244 0.93500 -0.46400
H 	H 	0.55520 0.83280 0.82590 0.07600
H 	H 	0.57320 0.79610 0.82310 0.05500
H 	H 	0.57310 0.82060 0.79440 0.06500
O 	O 	0.01470 0.68756 0.06500 -0.46400
H 	H 	0.05520 0.66720 0.17410 0.07600
H 	H 	0.07320 0.70390 0.17690 0.05500
H 	H 	0.07310 0.67940 0.20560 0.06500
O 	O 	0.01470 0.18756 0.56500 -0.46400
H 	H 	0.05520 0.16720 0.67410 0.07600
H 	H 	0.07320 0.20390 0.67690 0.05500
H 	H 	0.07310 0.17940 0.70560 0.06500
O 	O 	0.51470 0.68756 0.56500 -0.46400
H 	H 	0.55520 0.66720 0.67410 0.07600
H 	H 	0.57320 0.70390 0.67690 0.05500
H 	H 	0.57310 0.67940 0.70560 0.06500
O 	O 	0.51470 0.18756 0.06500 -0.46400
H 	H 	0.55520 0.16720 0.17410 0.07600
H 	H 	0.57320 0.20390 0.17690 0.05500
H 	H 	0.57310 0.17940 0.20560 0.06500
O 	O 	0.98530 0.31244 0.06500 -0.46300
H 	H 	0.94480 0.33280 0.17410 0.07600
H 	H 	0.92680 0.29610 0.17690 0.05500
H 	H 	0.92690 0.32060 0.20560 0.06500
O 	O 	0.98530 0.81244 0.56500 -0.46300
H 	H 	0.94480 0.83280 0.67410 0.07600
H 	H 	0.92680 0.79610 0.67690 0.05500
H 	H 	0.92690 0.82060 0.70560 0.06500
O 	O 	0.48530 0.31244 0.56500 -0.46400
H 	H 	0.44480 0.33280 0.67410 0.07600
H 	H 	0.42680 0.29610 0.67690 0.05500
H 	H 	0.42690 0.32060 0.70560 0.06500
O 	O 	0.48530 0.81244 0.06500 -0.46400
H 	H 	0.44480 0.83280 0.17410 0.07600
H 	H 	0.42680 0.79610 0.17690 0.05500
H 	H 	0.42690 0.82060 0.20560 0.06500
O 	O 	0.93500 0.98530 0.68756 -0.46300
H 	H 	0.82590 0.94480 0.66720 0.07600
H 	H 	0.82310 0.92680 0.70390 0.05500
H 	H 	0.79440 0.92690 0.67940 0.06500
O 	O 	0.93500 0.48530 0.18756 -0.46400
H 	H 	0.82590 0.44480 0.16720 0.07600
H 	H 	0.82310 0.42680 0.20390 0.05500
H 	H 	0.79440 0.42690 0.17940 0.06500
O 	O 	0.43500 0.98530 0.18756 -0.46300
H 	H 	0.32590 0.94480 0.16720 0.07600
H 	H 	0.32310 0.92680 0.20390 0.05500
H 	H 	0.29440 0.92690 0.17940 0.06500
O 	O 	0.43500 0.48530 0.68756 -0.46400
H 	H 	0.32590 0.44480 0.66720 0.07600
H 	H 	0.32310 0.42680 0.70390 0.05500
H 	H 	0.29440 0.42690 0.67940 0.06500
O 	O 	0.93500 0.01470 0.31244 -0.46400
H 	H 	0.82590 0.05520 0.33280 0.07600
H 	H 	0.82310 0.07320 0.29610 0.05500
H 	H 	0.79440 0.07310 0.32060 0.06500
O 	O 	0.93500 0.51470 0.81244 -0.46400
H 	H 	0.82590 0.55520 0.83280 0.07600
H 	H 	0.82310 0.57320 0.79610 0.05500
H 	H 	0.79440 0.57310 0.82060 0.06500
O 	O 	0.43500 0.01470 0.81244 -0.46400
H 	H 	0.32590 0.05520 0.83280 0.07600
H 	H 	0.32310 0.07320 0.79610 0.05500
H 	H 	0.29440 0.07310 0.82060 0.06500
O 	O 	0.43500 0.51470 0.31244 -0.46400
H 	H 	0.32590 0.55520 0.33280 0.07600
H 	H 	0.32310 0.57320 0.29610 0.05500
H 	H 	0.29440 0.57310 0.32060 0.06500
O 	O 	0.06500 0.01470 0.68756 -0.46400
H 	H 	0.17410 0.05520 0.66720 0.07600
H 	H 	0.17690 0.07320 0.70390 0.05500
H 	H 	0.20560 0.07310 0.67940 0.06500
O 	O 	0.06500 0.51470 0.18756 -0.46400
H 	H 	0.17410 0.55520 0.16720 0.07600
H 	H 	0.17690 0.57320 0.20390 0.05500
H 	H 	0.20560 0.57310 0.17940 0.06500
O 	O 	0.56500 0.01470 0.18756 -0.46400
H 	H 	0.67410 0.05520 0.16720 0.07600
H 	H 	0.67690 0.07320 0.20390 0.05500
H 	H 	0.70560 0.07310 0.17940 0.06500
O 	O 	0.56500 0.51470 0.68756 -0.46400
H 	H 	0.67410 0.55520 0.66720 0.07600
H 	H 	0.67690 0.57320 0.70390 0.05500
H 	H 	0.70560 0.57310 0.67940 0.06500
O 	O 	0.06500 0.98530 0.31244 -0.46300
H 	H 	0.17410 0.94480 0.33280 0.07600
H 	H 	0.17690 0.92680 0.29610 0.05500
H 	H 	0.20560 0.92690 0.32060 0.06500
O 	O 	0.06500 0.48530 0.81244 -0.46400
H 	H 	0.17410 0.44480 0.83280 0.07600
H 	H 	0.17690 0.42680 0.79610 0.05500
H 	H 	0.20560 0.42690 0.82060 0.06500
O 	O 	0.56500 0.98530 0.81244 -0.46300
H 	H 	0.67410 0.94480 0.83280 0.07600
H 	H 	0.67690 0.92680 0.79610 0.05500
H 	H 	0.70560 0.92690 0.82060 0.06500
O 	O 	0.56500 0.48530 0.31244 -0.46400
H 	H 	0.67410 0.44480 0.33280 0.07600
H 	H 	0.67690 0.42680 0.29610 0.05500
H 	H 	0.70560 0.42690 0.32060 0.06500
O 	O 	0.68756 0.93500 0.98530 -0.46300
H 	H 	0.66720 0.82590 0.94480 0.07600
H 	H 	0.70390 0.82310 0.92680 0.05500
H 	H 	0.67940 0.79440 0.92690 0.06500
O 	O 	0.68756 0.43500 0.48530 -0.46400
H 	H 	0.66720 0.32590 0.44480 0.07600
H 	H 	0.70390 0.32310 0.42680 0.05500
H 	H 	0.67940 0.29440 0.42690 0.06500
O 	O 	0.18756 0.93500 0.48530 -0.46400
H 	H 	0.16720 0.82590 0.44480 0.07600
H 	H 	0.20390 0.82310 0.42680 0.05500
H 	H 	0.17940 0.79440 0.42690 0.06500
O 	O 	0.18756 0.43500 0.98530 -0.46300
H 	H 	0.16720 0.32590 0.94480 0.07600
H 	H 	0.20390 0.32310 0.92680 0.05500
H 	H 	0.17940 0.29440 0.92690 0.06500
O 	O 	0.31244 0.93500 0.01470 -0.46400
H 	H 	0.33280 0.82590 0.05520 0.07600
H 	H 	0.29610 0.82310 0.07320 0.05500
H 	H 	0.32060 0.79440 0.07310 0.06500
O 	O 	0.31244 0.43500 0.51470 -0.46400
H 	H 	0.33280 0.32590 0.55520 0.07600
H 	H 	0.29610 0.32310 0.57320 0.05500
H 	H 	0.32060 0.29440 0.57310 0.06500
O 	O 	0.81244 0.93500 0.51470 -0.46400
H 	H 	0.83280 0.82590 0.55520 0.07600
H 	H 	0.79610 0.82310 0.57320 0.05500
H 	H 	0.82060 0.79440 0.57310 0.06500
O 	O 	0.81244 0.43500 0.01470 -0.46400
H 	H 	0.83280 0.32590 0.05520 0.07600
H 	H 	0.79610 0.32310 0.07320 0.05500
H 	H 	0.82060 0.29440 0.07310 0.06500
O 	O 	0.68756 0.06500 0.01470 -0.46400
H 	H 	0.66720 0.17410 0.05520 0.07600
H 	H 	0.70390 0.17690 0.07320 0.05500
H 	H 	0.67940 0.20560 0.07310 0.06500
O 	O 	0.68756 0.56500 0.51470 -0.46400
H 	H 	0.66720 0.67410 0.55520 0.07600
H 	H 	0.70390 0.67690 0.57320 0.05500
H 	H 	0.67940 0.70560 0.57310 0.06500
O 	O 	0.18756 0.06500 0.51470 -0.46400
H 	H 	0.16720 0.17410 0.55520 0.07600
H 	H 	0.20390 0.17690 0.57320 0.05500
H 	H 	0.17940 0.20560 0.57310 0.06500
O 	O 	0.18756 0.56500 0.01470 -0.46400
H 	H 	0.16720 0.67410 0.05520 0.07600
H 	H 	0.20390 0.67690 0.07320 0.05500
H 	H 	0.17940 0.70560 0.07310 0.06500
O 	O 	0.31244 0.06500 0.98530 -0.46300
H 	H 	0.33280 0.17410 0.94480 0.07600
H 	H 	0.29610 0.17690 0.92680 0.05500
H 	H 	0.32060 0.20560 0.92690 0.06500
O 	O 	0.31244 0.56500 0.48530 -0.46400
H 	H 	0.33280 0.67410 0.44480 0.07600
H 	H 	0.29610 0.67690 0.42680 0.05500
H 	H 	0.32060 0.70560 0.42690 0.06500
O 	O 	0.81244 0.06500 0.48530 -0.46400
H 	H 	0.83280 0.17410 0.44480 0.07600
H 	H 	0.79610 0.17690 0.42680 0.05500
H 	H 	0.82060 0.20560 0.42690 0.06500
O 	O 	0.81244 0.56500 0.98530 -0.46300
H 	H 	0.83280 0.67410 0.94480 0.07600
H 	H 	0.79610 0.67690 0.92680 0.05500
H 	H 	0.82060 0.70560 0.92690 0.06500
O 	O 	0.68756 0.98530 0.06500 -0.46300
H 	H 	0.66720 0.94480 0.17410 0.07600
H 	H 	0.70390 0.92680 0.17690 0.05500
H 	H 	0.67940 0.92690 0.20560 0.06500
O 	O 	0.68756 0.48530 0.56500 -0.46400
H 	H 	0.66720 0.44480 0.67410 0.07600
H 	H 	0.70390 0.42680 0.67690 0.05500
H 	H 	0.67940 0.42690 0.70560 0.06500
O 	O 	0.18756 0.98530 0.56500 -0.46300
H 	H 	0.16720 0.94480 0.67410 0.07600
H 	H 	0.20390 0.92680 0.67690 0.05500
H 	H 	0.17940 0.92690 0.70560 0.06500
O 	O 	0.18756 0.48530 0.06500 -0.46400
H 	H 	0.16720 0.44480 0.17410 0.07600
H 	H 	0.20390 0.42680 0.17690 0.05500
H 	H 	0.17940 0.42690 0.20560 0.06500
O 	O 	0.31244 0.01470 0.06500 -0.46400
H 	H 	0.33280 0.05520 0.17410 0.07600
H 	H 	0.29610 0.07320 0.17690 0.05500
H 	H 	0.32060 0.07310 0.20560 0.06500
O 	O 	0.31244 0.51470 0.56500 -0.46400
H 	H 	0.33280 0.55520 0.67410 0.07600
H 	H 	0.29610 0.57320 0.67690 0.05500
H 	H 	0.32060 0.57310 0.70560 0.06500
O 	O 	0.81244 0.01470 0.56500 -0.46400
H 	H 	0.83280 0.05520 0.67410 0.07600
H 	H 	0.79610 0.07320 0.67690 0.05500
H 	H 	0.82060 0.07310 0.70560 0.06500
O 	O 	0.81244 0.51470 0.06500 -0.46400
H 	H 	0.83280 0.55520 0.17410 0.07600
H 	H 	0.79610 0.57320 0.17690 0.05500
H 	H 	0.82060 0.57310 0.20560 0.06500
O 	O 	0.68756 0.01470 0.93500 -0.46400
H 	H 	0.66720 0.05520 0.82590 0.07600
H 	H 	0.70390 0.07320 0.82310 0.05500
H 	H 	0.67940 0.07310 0.79440 0.06500
O 	O 	0.68756 0.51470 0.43500 -0.46400
H 	H 	0.66720 0.55520 0.32590 0.07600
H 	H 	0.70390 0.57320 0.32310 0.05500
H 	H 	0.67940 0.57310 0.29440 0.06500
O 	O 	0.18756 0.01470 0.43500 -0.46400
H 	H 	0.16720 0.05520 0.32590 0.07600
H 	H 	0.20390 0.07320 0.32310 0.05500
H 	H 	0.17940 0.07310 0.29440 0.06500
O 	O 	0.18756 0.51470 0.93500 -0.46400
H 	H 	0.16720 0.55520 0.82590 0.07600
H 	H 	0.20390 0.57320 0.82310 0.05500
H 	H 	0.17940 0.57310 0.79440 0.06500
O 	O 	0.31244 0.98530 0.93500 -0.46300
H 	H 	0.33280 0.94480 0.82590 0.07600
H 	H 	0.29610 0.92680 0.82310 0.05500
H 	H 	0.32060 0.92690 0.79440 0.06500
O 	O 	0.31244 0.48530 0.43500 -0.46400
H 	H 	0.33280 0.44480 0.32590 0.07600
H 	H 	0.29610 0.42680 0.32310 0.05500
H 	H 	0.32060 0.42690 0.29440 0.06500
O 	O 	0.81244 0.98530 0.43500 -0.46300
H 	H 	0.83280 0.94480 0.32590 0.07600
H 	H 	0.79610 0.92680 0.32310 0.05500
H 	H 	0.82060 0.92690 0.29440 0.06500
O 	O 	0.81244 0.48530 0.93500 -0.46400
H 	H 	0.83280 0.44480 0.82590 0.07600
H 	H 	0.79610 0.42680 0.82310 0.05500
H 	H 	0.82060 0.42690 0.79440 0.06500
O 	O 	0.98530 0.93500 0.31244 -0.46300
H 	H 	0.94480 0.82590 0.33280 0.07600
H 	H 	0.92680 0.82310 0.29610 0.05500
H 	H 	0.92690 0.79440 0.32060 0.06500
O 	O 	0.98530 0.43500 0.81244 -0.46300
H 	H 	0.94480 0.32590 0.83280 0.07600
H 	H 	0.92680 0.32310 0.79610 0.05500
H 	H 	0.92690 0.29440 0.82060 0.06500
O 	O 	0.48530 0.93500 0.81244 -0.46400
H 	H 	0.44480 0.82590 0.83280 0.07600
H 	H 	0.42680 0.82310 0.79610 0.05500
H 	H 	0.42690 0.79440 0.82060 0.06500
O 	O 	0.48530 0.43500 0.31244 -0.46400
H 	H 	0.44480 0.32590 0.33280 0.07600
H 	H 	0.42680 0.32310 0.29610 0.05500
H 	H 	0.42690 0.29440 0.32060 0.06500
O 	O 	0.01470 0.93500 0.68756 -0.46400
H 	H 	0.05520 0.82590 0.66720 0.07600
H 	H 	0.07320 0.82310 0.70390 0.05500
H 	H 	0.07310 0.79440 0.67940 0.06500
O 	O 	0.01470 0.43500 0.18756 -0.46400
H 	H 	0.05520 0.32590 0.16720 0.07600
H 	H 	0.07320 0.32310 0.20390 0.05500
H 	H 	0.07310 0.29440 0.17940 0.06500
O 	O 	0.51470 0.93500 0.18756 -0.46400
H 	H 	0.55520 0.82590 0.16720 0.07600
H 	H 	0.57320 0.82310 0.20390 0.05500
H 	H 	0.57310 0.79440 0.17940 0.06500
O 	O 	0.51470 0.43500 0.68756 -0.46400
H 	H 	0.55520 0.32590 0.66720 0.07600
H 	H 	0.57320 0.32310 0.70390 0.05500
H 	H 	0.57310 0.29440 0.67940 0.06500
O 	O 	0.01470 0.06500 0.31244 -0.46400
H 	H 	0.05520 0.17410 0.33280 0.07600
H 	H 	0.07320 0.17690 0.29610 0.05500
H 	H 	0.07310 0.20560 0.32060 0.06500
O 	O 	0.01470 0.56500 0.81244 -0.46400
H 	H 	0.05520 0.67410 0.83280 0.07600
H 	H 	0.07320 0.67690 0.79610 0.05500
H 	H 	0.07310 0.70560 0.82060 0.06500
O 	O 	0.51470 0.06500 0.81244 -0.46400
H 	H 	0.55520 0.17410 0.83280 0.07600
H 	H 	0.57320 0.17690 0.79610 0.05500
H 	H 	0.57310 0.20560 0.82060 0.06500
O 	O 	0.51470 0.56500 0.31244 -0.46400
H 	H 	0.55520 0.67410 0.33280 0.07600
H 	H 	0.57320 0.67690 0.29610 0.05500
H 	H 	0.57310 0.70560 0.32060 0.06500
O 	O 	0.98530 0.06500 0.68756 -0.46300
H 	H 	0.94480 0.17410 0.66720 0.07600
H 	H 	0.92680 0.17690 0.70390 0.05500
H 	H 	0.92690 0.20560 0.67940 0.06500
O 	O 	0.98530 0.56500 0.18756 -0.46300
H 	H 	0.94480 0.67410 0.16720 0.07600
H 	H 	0.92680 0.67690 0.20390 0.05500
H 	H 	0.92690 0.70560 0.17940 0.06500
O 	O 	0.48530 0.06500 0.18756 -0.46400
H 	H 	0.44480 0.17410 0.16720 0.07600
H 	H 	0.42680 0.17690 0.20390 0.05500
H 	H 	0.42690 0.20560 0.17940 0.06500
O 	O 	0.48530 0.56500 0.68756 -0.46400
H 	H 	0.44480 0.67410 0.66720 0.07600
H 	H 	0.42680 0.67690 0.70390 0.05500
H 	H 	0.42690 0.70560 0.67940 0.06500
O 	O 	0.93500 0.68756 0.01470 -0.46400
H 	H 	0.82590 0.66720 0.05520 0.07600
H 	H 	0.82310 0.70390 0.07320 0.05500
H 	H 	0.79440 0.67940 0.07310 0.06500
O 	O 	0.93500 0.18756 0.51470 -0.46400
H 	H 	0.82590 0.16720 0.55520 0.07600
H 	H 	0.82310 0.20390 0.57320 0.05500
H 	H 	0.79440 0.17940 0.57310 0.06500
O 	O 	0.43500 0.68756 0.51470 -0.46400
H 	H 	0.32590 0.66720 0.55520 0.07600
H 	H 	0.32310 0.70390 0.57320 0.05500
H 	H 	0.29440 0.67940 0.57310 0.06500
O 	O 	0.43500 0.18756 0.01470 -0.46400
H 	H 	0.32590 0.16720 0.05520 0.07600
H 	H 	0.32310 0.20390 0.07320 0.05500
H 	H 	0.29440 0.17940 0.07310 0.06500
O 	O 	0.93500 0.31244 0.98530 -0.46300
H 	H 	0.82590 0.33280 0.94480 0.07600
H 	H 	0.82310 0.29610 0.92680 0.05500
H 	H 	0.79440 0.32060 0.92690 0.06500
O 	O 	0.93500 0.81244 0.48530 -0.46400
H 	H 	0.82590 0.83280 0.44480 0.07600
H 	H 	0.82310 0.79610 0.42680 0.05500
H 	H 	0.79440 0.82060 0.42690 0.06500
O 	O 	0.43500 0.31244 0.48530 -0.46400
H 	H 	0.32590 0.33280 0.44480 0.07600
H 	H 	0.32310 0.29610 0.42680 0.05500
H 	H 	0.29440 0.32060 0.42690 0.06500
O 	O 	0.43500 0.81244 0.98530 -0.46300
H 	H 	0.32590 0.83280 0.94480 0.07600
H 	H 	0.32310 0.79610 0.92680 0.05500
H 	H 	0.29440 0.82060 0.92690 0.06500
O 	O 	0.06500 0.68756 0.98530 -0.46300
H 	H 	0.17410 0.66720 0.94480 0.07600
H 	H 	0.17690 0.70390 0.92680 0.05500
H 	H 	0.20560 0.67940 0.92690 0.06500
O 	O 	0.06500 0.18756 0.48530 -0.46400
H 	H 	0.17410 0.16720 0.44480 0.07600
H 	H 	0.17690 0.20390 0.42680 0.05500
H 	H 	0.20560 0.17940 0.42690 0.06500
O 	O 	0.56500 0.68756 0.48530 -0.46400
H 	H 	0.67410 0.66720 0.44480 0.07600
H 	H 	0.67690 0.70390 0.42680 0.05500
H 	H 	0.70560 0.67940 0.42690 0.06500
O 	O 	0.56500 0.18756 0.98530 -0.46300
H 	H 	0.67410 0.16720 0.94480 0.07600
H 	H 	0.67690 0.20390 0.92680 0.05500
H 	H 	0.70560 0.17940 0.92690 0.06500
O 	O 	0.06500 0.31244 0.01470 -0.46400
H 	H 	0.17410 0.33280 0.05520 0.07600
H 	H 	0.17690 0.29610 0.07320 0.05500
H 	H 	0.20560 0.32060 0.07310 0.06500
O 	O 	0.06500 0.81244 0.51470 -0.46400
H 	H 	0.17410 0.83280 0.55520 0.07600
H 	H 	0.17690 0.79610 0.57320 0.05500
H 	H 	0.20560 0.82060 0.57310 0.06500
O 	O 	0.56500 0.31244 0.51470 -0.46400
H 	H 	0.67410 0.33280 0.55520 0.07600
H 	H 	0.67690 0.29610 0.57320 0.05500
H 	H 	0.70560 0.32060 0.57310 0.06500
O 	O 	0.56500 0.81244 0.01470 -0.46400
H 	H 	0.67410 0.83280 0.05520 0.07600
H 	H 	0.67690 0.79610 0.07320 0.05500
H 	H 	0.70560 0.82060 0.07310 0.06500
Fe	Fe	0.00000 0.35990 -0.00000 1.22200
O 	O 	-0.00000 0.31220 -0.00000 -1.05200
Fe	Fe	0.00000 0.85990 0.50000 1.22200
O 	O 	-0.00000 0.81220 0.50000 -1.05100
Fe	Fe	0.50000 0.35990 0.50000 1.22200
O 	O 	0.50000 0.31220 0.50000 -1.05100
Fe	Fe	0.50000 0.85990 -0.00000 1.22200
O 	O 	0.50000 0.81220 -0.00000 -1.05100
Fe	Fe	-0.00000 0.64010 -0.00000 1.22200
O 	O 	-0.00000 0.68780 -0.00000 -1.05200
Fe	Fe	-0.00000 0.14010 0.50000 1.22200
O 	O 	-0.00000 0.18780 0.50000 -1.05100
Fe	Fe	0.50000 0.64010 0.50000 1.22200
O 	O 	0.50000 0.68780 0.50000 -1.05100
Fe	Fe	0.50000 0.14010 -0.00000 1.22200
O 	O 	0.50000 0.18780 -0.00000 -1.05100
Fe	Fe	0.00000 0.00000 0.35990 1.22200
O 	O 	-0.00000 -0.00000 0.31220 -1.05200
Fe	Fe	0.00000 0.50000 0.85990 1.22200
O 	O 	-0.00000 0.50000 0.81220 -1.05100
Fe	Fe	0.50000 0.00000 0.85990 1.22200
O 	O 	0.50000 -0.00000 0.81220 -1.05100
Fe	Fe	0.50000 0.50000 0.35990 1.22200
O 	O 	0.50000 0.50000 0.31220 -1.05100
Fe	Fe	0.00000 0.00000 0.64010 1.22200
O 	O 	0.00000 0.00000 0.68780 -1.05200
Fe	Fe	-0.00000 0.50000 0.14010 1.22200
O 	O 	-0.00000 0.50000 0.18780 -1.05100
Fe	Fe	0.50000 0.00000 0.14010 1.22200
O 	O 	0.50000 0.00000 0.18780 -1.05100
Fe	Fe	0.50000 0.50000 0.64010 1.22200
O 	O 	0.50000 0.50000 0.68780 -1.05100
Fe	Fe	0.35990 0.00000 -0.00000 1.22200
O 	O 	0.31220 0.00000 -0.00000 -1.05200
Fe	Fe	0.35990 0.50000 0.50000 1.22200
O 	O 	0.31220 0.50000 0.50000 -1.05100
Fe	Fe	0.85990 0.00000 0.50000 1.22200
O 	O 	0.81220 0.00000 0.50000 -1.05100
Fe	Fe	0.85990 0.50000 -0.00000 1.22200
O 	O 	0.81220 0.50000 -0.00000 -1.05100
Fe	Fe	0.64010 0.00000 -0.00000 1.22200
O 	O 	0.68780 0.00000 -0.00000 -1.05200
Fe	Fe	0.64010 0.50000 0.50000 1.22200
O 	O 	0.68780 0.50000 0.50000 -1.05100
Fe	Fe	0.14010 0.00000 0.50000 1.22200
O 	O 	0.18780 0.00000 0.50000 -1.05100
Fe	Fe	0.14010 0.50000 -0.00000 1.22200
O 	O 	0.18780 0.50000 -0.00000 -1.05100
Fe	Fe	0.02727 0.28953 0.02727 0.95600
Fe	Fe	0.02727 0.78953 0.52727 0.95600
Fe	Fe	0.52727 0.28953 0.52727 0.95600
Fe	Fe	0.52727 0.78953 0.02727 0.95600
Fe	Fe	0.97273 0.71047 0.02727 0.95600
Fe	Fe	0.97273 0.21047 0.52727 0.95600
Fe	Fe	0.47273 0.71047 0.52727 0.95600
Fe	Fe	0.47273 0.21047 0.02727 0.95600
Fe	Fe	0.97273 0.28953 0.97273 0.95600
Fe	Fe	0.97273 0.78953 0.47273 0.95600
Fe	Fe	0.47273 0.28953 0.47273 0.95600
Fe	Fe	0.47273 0.78953 0.97273 0.95600
Fe	Fe	0.02727 0.71047 0.97273 0.95600
Fe	Fe	0.02727 0.21047 0.47273 0.95600
Fe	Fe	0.52727 0.71047 0.47273 0.95600
Fe	Fe	0.52727 0.21047 0.97273 0.95600
Fe	Fe	0.02727 0.02727 0.28953 0.95600
Fe	Fe	0.02727 0.52727 0.78953 0.95600
Fe	Fe	0.52727 0.02727 0.78953 0.95600
Fe	Fe	0.52727 0.52727 0.28953 0.95600
Fe	Fe	0.02727 0.97273 0.71047 0.95600
Fe	Fe	0.02727 0.47273 0.21047 0.95600
Fe	Fe	0.52727 0.97273 0.21047 0.95600
Fe	Fe	0.52727 0.47273 0.71047 0.95600
Fe	Fe	0.97273 0.97273 0.28953 0.95600
Fe	Fe	0.97273 0.47273 0.78953 0.95600
Fe	Fe	0.47273 0.97273 0.78953 0.95600
Fe	Fe	0.47273 0.47273 0.28953 0.95600
Fe	Fe	0.97273 0.02727 0.71047 0.95600
Fe	Fe	0.97273 0.52727 0.21047 0.95600
Fe	Fe	0.47273 0.02727 0.21047 0.95600
Fe	Fe	0.47273 0.52727 0.71047 0.95600
Fe	Fe	0.28953 0.02727 0.02727 0.95600
Fe	Fe	0.28953 0.52727 0.52727 0.95600
Fe	Fe	0.78953 0.02727 0.52727 0.95600
Fe	Fe	0.78953 0.52727 0.02727 0.95600
Fe	Fe	0.71047 0.02727 0.97273 0.95600
Fe	Fe	0.71047 0.52727 0.47273 0.95600
Fe	Fe	0.21047 0.02727 0.47273 0.95600
Fe	Fe	0.21047 0.52727 0.97273 0.95600
Fe	Fe	0.28953 0.97273 0.97273 0.95600
Fe	Fe	0.28953 0.47273 0.47273 0.95600
Fe	Fe	0.78953 0.97273 0.47273 0.95600
Fe	Fe	0.78953 0.47273 0.97273 0.95600
Fe	Fe	0.71047 0.97273 0.02727 0.95600
Fe	Fe	0.71047 0.47273 0.52727 0.95600
Fe	Fe	0.21047 0.97273 0.52727 0.95600
Fe	Fe	0.21047 0.47273 0.02727 0.95600
Fe	Fe	0.28953 0.02727 0.97273 0.95600
Fe	Fe	0.28953 0.52727 0.47273 0.95600
Fe	Fe	0.78953 0.02727 0.47273 0.95600
Fe	Fe	0.78953 0.52727 0.97273 0.95600
Fe	Fe	0.71047 0.97273 0.97273 0.95600
Fe	Fe	0.71047 0.47273 0.47273 0.95600
Fe	Fe	0.21047 0.97273 0.47273 0.95600
Fe	Fe	0.21047 0.47273 0.97273 0.95600
Fe	Fe	0.28953 0.97273 0.02727 0.95600
Fe	Fe	0.28953 0.47273 0.52727 0.95600
Fe	Fe	0.78953 0.97273 0.52727 0.95600
Fe	Fe	0.78953 0.47273 0.02727 0.95600
Fe	Fe	0.71047 0.02727 0.02727 0.95600
Fe	Fe	0.71047 0.52727 0.52727 0.95600
Fe	Fe	0.21047 0.02727 0.52727 0.95600
Fe	Fe	0.21047 0.52727 0.02727 0.95600
Fe	Fe	0.02727 0.02727 0.71047 0.95600
Fe	Fe	0.02727 0.52727 0.21047 0.95600
Fe	Fe	0.52727 0.02727 0.21047 0.95600
Fe	Fe	0.52727 0.52727 0.71047 0.95600
Fe	Fe	0.97273 0.02727 0.28953 0.95600
Fe	Fe	0.97273 0.52727 0.78953 0.95600
Fe	Fe	0.47273 0.02727 0.78953 0.95600
Fe	Fe	0.47273 0.52727 0.28953 0.95600
Fe	Fe	0.97273 0.97273 0.71047 0.95600
Fe	Fe	0.97273 0.47273 0.21047 0.95600
Fe	Fe	0.47273 0.97273 0.21047 0.95600
Fe	Fe	0.47273 0.47273 0.71047 0.95600
Fe	Fe	0.02727 0.97273 0.28953 0.95600
Fe	Fe	0.02727 0.47273 0.78953 0.95600
Fe	Fe	0.52727 0.97273 0.78953 0.95600
Fe	Fe	0.52727 0.47273 0.28953 0.95600
Fe	Fe	0.02727 0.28953 0.97273 0.95600
Fe	Fe	0.02727 0.78953 0.47273 0.95600
Fe	Fe	0.52727 0.28953 0.47273 0.95600
Fe	Fe	0.52727 0.78953 0.97273 0.95600
Fe	Fe	0.02727 0.71047 0.02727 0.95600
Fe	Fe	0.02727 0.21047 0.52727 0.95600
Fe	Fe	0.52727 0.71047 0.52727 0.95600
Fe	Fe	0.52727 0.21047 0.02727 0.95600
Fe	Fe	0.97273 0.28953 0.02727 0.95600
Fe	Fe	0.97273 0.78953 0.52727 0.95600
Fe	Fe	0.47273 0.28953 0.52727 0.95600
Fe	Fe	0.47273 0.78953 0.02727 0.95600
Fe	Fe	0.97273 0.71047 0.97273 0.95600
Fe	Fe	0.97273 0.21047 0.47273 0.95600
Fe	Fe	0.47273 0.71047 0.47273 0.95600
Fe	Fe	0.47273 0.21047 0.97273 0.95600
O 	O 	0.00000 0.36249 0.05044 -0.48200
C 	C 	0.00000 0.33935 0.07160 0.59000
C 	C 	0.00000 0.35181 0.10642 -0.20800
C 	C 	0.00000 0.32770 0.13054 0.02400
H 	H 	0.00000 0.30520 0.12450 0.00900
O 	O 	0.00000 0.86249 0.55044 -0.48200
C 	C 	0.00000 0.83935 0.57160 0.59000
C 	C 	-0.00000 0.85181 0.60642 -0.20800
C 	C 	-0.00000 0.82770 0.63054 0.02400
H 	H 	-0.00000 0.80520 0.62450 0.00900
O 	O 	0.50000 0.36249 0.55044 -0.48200
C 	C 	0.50000 0.33935 0.57160 0.59000
C 	C 	0.50000 0.35181 0.60642 -0.20800
C 	C 	0.50000 0.32770 0.63054 0.02400
H 	H 	0.50000 0.30520 0.62450 0.00900
O 	O 	0.50000 0.86249 0.05044 -0.48200
C 	C 	0.50000 0.83935 0.07160 0.59000
C 	C 	0.50000 0.85181 0.10642 -0.20800
C 	C 	0.50000 0.82770 0.13054 0.02400
H 	H 	0.50000 0.80520 0.12450 0.00900
O 	O 	0.00000 0.63751 0.05044 -0.48200
C 	C 	-0.00000 0.66065 0.07160 0.59000
C 	C 	-0.00000 0.64819 0.10642 -0.20800
C 	C 	0.00000 0.67230 0.13054 0.02400
H 	H 	-0.00000 0.69480 0.12450 0.00900
O 	O 	-0.00000 0.13751 0.55044 -0.48200
C 	C 	-0.00000 0.16065 0.57160 0.59000
C 	C 	0.00000 0.14819 0.60642 -0.20800
C 	C 	-0.00000 0.17230 0.63054 0.02400
H 	H 	-0.00000 0.19480 0.62450 0.00900
O 	O 	0.50000 0.63751 0.55044 -0.48200
C 	C 	0.50000 0.66065 0.57160 0.59000
C 	C 	0.50000 0.64819 0.60642 -0.20800
C 	C 	0.50000 0.67230 0.63054 0.02400
H 	H 	0.50000 0.69480 0.62450 0.00900
O 	O 	0.50000 0.13751 0.05044 -0.48200
C 	C 	0.50000 0.16065 0.07160 0.59000
C 	C 	0.50000 0.14819 0.10642 -0.20800
C 	C 	0.50000 0.17230 0.13054 0.02400
H 	H 	0.50000 0.19480 0.12450 0.00900
O 	O 	-0.00000 0.36249 0.94956 -0.48200
C 	C 	0.00000 0.33935 0.92840 0.59000
C 	C 	0.00000 0.35181 0.89358 -0.20800
C 	C 	-0.00000 0.32770 0.86946 0.02400
H 	H 	-0.00000 0.30520 0.87550 0.00900
O 	O 	0.00000 0.86249 0.44956 -0.48200
C 	C 	0.00000 0.83935 0.42840 0.59000
C 	C 	0.00000 0.85181 0.39358 -0.20800
C 	C 	0.00000 0.82770 0.36946 0.02400
H 	H 	-0.00000 0.80520 0.37550 0.00900
O 	O 	0.50000 0.36249 0.44956 -0.48200
C 	C 	0.50000 0.33935 0.42840 0.59000
C 	C 	0.50000 0.35181 0.39358 -0.20800
C 	C 	0.50000 0.32770 0.36946 0.02400
H 	H 	0.50000 0.30520 0.37550 0.00900
O 	O 	0.50000 0.86249 0.94956 -0.48100
C 	C 	0.50000 0.83935 0.92840 0.59000
C 	C 	0.50000 0.85181 0.89358 -0.20800
C 	C 	0.50000 0.82770 0.86946 0.02400
H 	H 	0.50000 0.80520 0.87550 0.00900
O 	O 	-0.00000 0.63751 0.94956 -0.48200
C 	C 	-0.00000 0.66065 0.92840 0.59000
C 	C 	-0.00000 0.64819 0.89358 -0.20800
C 	C 	0.00000 0.67230 0.86946 0.02400
H 	H 	-0.00000 0.69480 0.87550 0.00900
O 	O 	-0.00000 0.13751 0.44956 -0.48200
C 	C 	0.00000 0.16065 0.42840 0.59000
C 	C 	0.00000 0.14819 0.39358 -0.20800
C 	C 	-0.00000 0.17230 0.36946 0.02400
H 	H 	0.00000 0.19480 0.37550 0.00900
O 	O 	0.50000 0.63751 0.44956 -0.48200
C 	C 	0.50000 0.66065 0.42840 0.59000
C 	C 	0.50000 0.64819 0.39358 -0.20800
C 	C 	0.50000 0.67230 0.36946 0.02400
H 	H 	0.50000 0.69480 0.37550 0.00900
O 	O 	0.50000 0.13751 0.94956 -0.48200
C 	C 	0.50000 0.16065 0.92840 0.59000
C 	C 	0.50000 0.14819 0.89358 -0.20800
C 	C 	0.50000 0.17230 0.86946 0.02400
H 	H 	0.50000 0.19480 0.87550 0.00900
O 	O 	0.05044 0.00000 0.36249 -0.48200
C 	C 	0.07160 0.00000 0.33935 0.59000
C 	C 	0.10642 0.00000 0.35181 -0.20800
C 	C 	0.13054 0.00000 0.32770 0.02400
H 	H 	0.12450 0.00000 0.30520 0.00900
O 	O 	0.05044 0.50000 0.86249 -0.48200
C 	C 	0.07160 0.50000 0.83935 0.59000
C 	C 	0.10642 0.50000 0.85181 -0.20800
C 	C 	0.13054 0.50000 0.82770 0.02400
H 	H 	0.12450 0.50000 0.80520 0.00900
O 	O 	0.55044 0.00000 0.86249 -0.48200
C 	C 	0.57160 0.00000 0.83935 0.59000
C 	C 	0.60642 0.00000 0.85181 -0.20800
C 	C 	0.63054 0.00000 0.82770 0.02400
H 	H 	0.62450 -0.00000 0.80520 0.00900
O 	O 	0.55044 0.50000 0.36249 -0.48200
C 	C 	0.57160 0.50000 0.33935 0.59000
C 	C 	0.60642 0.50000 0.35181 -0.20800
C 	C 	0.63054 0.50000 0.32770 0.02400
H 	H 	0.62450 0.50000 0.30520 0.00900
O 	O 	0.05044 0.00000 0.63751 -0.48200
C 	C 	0.07160 -0.00000 0.66065 0.59000
C 	C 	0.10642 0.00000 0.64819 -0.20800
C 	C 	0.13054 0.00000 0.67230 0.02400
H 	H 	0.12450 0.00000 0.69480 0.00900
O 	O 	0.05044 0.50000 0.13751 -0.48200
C 	C 	0.07160 0.50000 0.16065 0.59000
C 	C 	0.10642 0.50000 0.14819 -0.20800
C 	C 	0.13054 0.50000 0.17230 0.02400
H 	H 	0.12450 0.50000 0.19480 0.00900
O 	O 	0.55044 0.00000 0.13751 -0.48200
C 	C 	0.57160 0.00000 0.16065 0.59000
C 	C 	0.60642 -0.00000 0.14819 -0.20800
C 	C 	0.63054 0.00000 0.17230 0.02400
H 	H 	0.62450 0.00000 0.19480 0.00900
O 	O 	0.55044 0.50000 0.63751 -0.48200
C 	C 	0.57160 0.50000 0.66065 0.59000
C 	C 	0.60642 0.50000 0.64819 -0.20800
C 	C 	0.63054 0.50000 0.67230 0.02400
H 	H 	0.62450 0.50000 0.69480 0.00900
O 	O 	0.94956 0.00000 0.36249 -0.48200
C 	C 	0.92840 0.00000 0.33935 0.59000
C 	C 	0.89358 0.00000 0.35181 -0.20800
C 	C 	0.86946 0.00000 0.32770 0.02400
H 	H 	0.87550 0.00000 0.30520 0.00900
O 	O 	0.94956 0.50000 0.86249 -0.48100
C 	C 	0.92840 0.50000 0.83935 0.59000
C 	C 	0.89358 0.50000 0.85181 -0.20800
C 	C 	0.86946 0.50000 0.82770 0.02400
H 	H 	0.87550 0.50000 0.80520 0.00900
O 	O 	0.44956 0.00000 0.86249 -0.48200
C 	C 	0.42840 0.00000 0.83935 0.59000
C 	C 	0.39358 0.00000 0.85181 -0.20800
C 	C 	0.36946 0.00000 0.82770 0.02400
H 	H 	0.37550 -0.00000 0.80520 0.00900
O 	O 	0.44956 0.50000 0.36249 -0.48200
C 	C 	0.42840 0.50000 0.33935 0.59000
C 	C 	0.39358 0.50000 0.35181 -0.20800
C 	C 	0.36946 0.50000 0.32770 0.02400
H 	H 	0.37550 0.50000 0.30520 0.00900
O 	O 	0.94956 0.00000 0.63751 -0.48200
C 	C 	0.92840 -0.00000 0.66065 0.59000
C 	C 	0.89358 0.00000 0.64819 -0.20800
C 	C 	0.86946 0.00000 0.67230 0.02400
H 	H 	0.87550 0.00000 0.69480 0.00900
O 	O 	0.94956 0.50000 0.13751 -0.48200
C 	C 	0.92840 0.50000 0.16065 0.59000
C 	C 	0.89358 0.50000 0.14819 -0.20800
C 	C 	0.86946 0.50000 0.17230 0.02400
H 	H 	0.87550 0.50000 0.19480 0.00900
O 	O 	0.44956 0.00000 0.13751 -0.48200
C 	C 	0.42840 0.00000 0.16065 0.59000
C 	C 	0.39358 -0.00000 0.14819 -0.20800
C 	C 	0.36946 0.00000 0.17230 0.02400
H 	H 	0.37550 0.00000 0.19480 0.00900
O 	O 	0.44956 0.50000 0.63751 -0.48200
C 	C 	0.42840 0.50000 0.66065 0.59000
C 	C 	0.39358 0.50000 0.64819 -0.20800
C 	C 	0.36946 0.50000 0.67230 0.02400
H 	H 	0.37550 0.50000 0.69480 0.00900
O 	O 	0.36249 0.05044 -0.00000 -0.48200
C 	C 	0.33935 0.07160 -0.00000 0.59000
C 	C 	0.35181 0.10642 -0.00000 -0.20800
C 	C 	0.32770 0.13054 -0.00000 0.02400
H 	H 	0.30520 0.12450 -0.00000 0.00900
O 	O 	0.36249 0.55044 0.50000 -0.48200
C 	C 	0.33935 0.57160 0.50000 0.59000
C 	C 	0.35181 0.60642 0.50000 -0.20800
C 	C 	0.32770 0.63054 0.50000 0.02400
H 	H 	0.30520 0.62450 0.50000 0.00900
O 	O 	0.86249 0.05044 0.50000 -0.48200
C 	C 	0.83935 0.07160 0.50000 0.59000
C 	C 	0.85181 0.10642 0.50000 -0.20800
C 	C 	0.82770 0.13054 0.50000 0.02400
H 	H 	0.80520 0.12450 0.50000 0.00900
O 	O 	0.86249 0.55044 -0.00000 -0.48200
C 	C 	0.83935 0.57160 -0.00000 0.59000
C 	C 	0.85181 0.60642 -0.00000 -0.20800
C 	C 	0.82770 0.63054 -0.00000 0.02400
H 	H 	0.80520 0.62450 -0.00000 0.00900
O 	O 	0.63751 0.05044 -0.00000 -0.48200
C 	C 	0.66065 0.07160 -0.00000 0.59000
C 	C 	0.64819 0.10642 -0.00000 -0.20800
C 	C 	0.67230 0.13054 -0.00000 0.02400
H 	H 	0.69480 0.12450 -0.00000 0.00900
O 	O 	0.63751 0.55044 0.50000 -0.48200
C 	C 	0.66065 0.57160 0.50000 0.59000
C 	C 	0.64819 0.60642 0.50000 -0.20800
C 	C 	0.67230 0.63054 0.50000 0.02400
H 	H 	0.69480 0.62450 0.50000 0.00900
O 	O 	0.13751 0.05044 0.50000 -0.48200
C 	C 	0.16065 0.07160 0.50000 0.59000
C 	C 	0.14819 0.10642 0.50000 -0.20800
C 	C 	0.17230 0.13054 0.50000 0.02400
H 	H 	0.19480 0.12450 0.50000 0.00900
O 	O 	0.13751 0.55044 -0.00000 -0.48200
C 	C 	0.16065 0.57160 -0.00000 0.59000
C 	C 	0.14819 0.60642 -0.00000 -0.20800
C 	C 	0.17230 0.63054 -0.00000 0.02400
H 	H 	0.19480 0.62450 -0.00000 0.00900
O 	O 	0.36249 0.94956 -0.00000 -0.48200
C 	C 	0.33935 0.92840 -0.00000 0.59000
C 	C 	0.35181 0.89358 -0.00000 -0.20800
C 	C 	0.32770 0.86946 -0.00000 0.02400
H 	H 	0.30520 0.87550 -0.00000 0.00900
O 	O 	0.36249 0.44956 0.50000 -0.48200
C 	C 	0.33935 0.42840 0.50000 0.59000
C 	C 	0.35181 0.39358 0.50000 -0.20800
C 	C 	0.32770 0.36946 0.50000 0.02400
H 	H 	0.30520 0.37550 0.50000 0.00900
O 	O 	0.86249 0.94956 0.50000 -0.48100
C 	C 	0.83935 0.92840 0.50000 0.59000
C 	C 	0.85181 0.89358 0.50000 -0.20800
C 	C 	0.82770 0.86946 0.50000 0.02400
H 	H 	0.80520 0.87550 0.50000 0.00900
O 	O 	0.86249 0.44956 -0.00000 -0.48200
C 	C 	0.83935 0.42840 -0.00000 0.59000
C 	C 	0.85181 0.39358 -0.00000 -0.20800
C 	C 	0.82770 0.36946 -0.00000 0.02400
H 	H 	0.80520 0.37550 -0.00000 0.00900
O 	O 	0.63751 0.94956 -0.00000 -0.48200
C 	C 	0.66065 0.92840 -0.00000 0.59000
C 	C 	0.64819 0.89358 -0.00000 -0.20800
C 	C 	0.67230 0.86946 -0.00000 0.02400
H 	H 	0.69480 0.87550 -0.00000 0.00900
O 	O 	0.63751 0.44956 0.50000 -0.48200
C 	C 	0.66065 0.42840 0.50000 0.59000
C 	C 	0.64819 0.39358 0.50000 -0.20800
C 	C 	0.67230 0.36946 0.50000 0.02400
H 	H 	0.69480 0.37550 0.50000 0.00900
O 	O 	0.13751 0.94956 0.50000 -0.48200
C 	C 	0.16065 0.92840 0.50000 0.59000
C 	C 	0.14819 0.89358 0.50000 -0.20800
C 	C 	0.17230 0.86946 0.50000 0.02400
H 	H 	0.19480 0.87550 0.50000 0.00900
O 	O 	0.13751 0.44956 -0.00000 -0.48200
C 	C 	0.16065 0.42840 -0.00000 0.59000
C 	C 	0.14819 0.39358 -0.00000 -0.20800
C 	C 	0.17230 0.36946 -0.00000 0.02400
H 	H 	0.19480 0.37550 -0.00000 0.00900
O 	O 	0.36249 0.00000 0.94956 -0.48200
C 	C 	0.33935 0.00000 0.92840 0.59000
C 	C 	0.35181 0.00000 0.89358 -0.20800
C 	C 	0.32770 -0.00000 0.86946 0.02400
H 	H 	0.30520 -0.00000 0.87550 0.00900
O 	O 	0.36249 0.50000 0.44956 -0.48200
C 	C 	0.33935 0.50000 0.42840 0.59000
C 	C 	0.35181 0.50000 0.39358 -0.20800
C 	C 	0.32770 0.50000 0.36946 0.02400
H 	H 	0.30520 0.50000 0.37550 0.00900
O 	O 	0.86249 0.00000 0.44956 -0.48200
C 	C 	0.83935 -0.00000 0.42840 0.59000
C 	C 	0.85181 0.00000 0.39358 -0.20800
C 	C 	0.82770 0.00000 0.36946 0.02400
H 	H 	0.80520 0.00000 0.37550 0.00900
O 	O 	0.86249 0.50000 0.94956 -0.48100
C 	C 	0.83935 0.50000 0.92840 0.59000
C 	C 	0.85181 0.50000 0.89358 -0.20800
C 	C 	0.82770 0.50000 0.86946 0.02400
H 	H 	0.80520 0.50000 0.87550 0.00900
O 	O 	0.63751 0.00000 0.94956 -0.48200
C 	C 	0.66065 0.00000 0.92840 0.59000
C 	C 	0.64819 0.00000 0.89358 -0.20800
C 	C 	0.67230 -0.00000 0.86946 0.02400
H 	H 	0.69480 -0.00000 0.87550 0.00900
O 	O 	0.63751 0.50000 0.44956 -0.48200
C 	C 	0.66065 0.50000 0.42840 0.59000
C 	C 	0.64819 0.50000 0.39358 -0.20800
C 	C 	0.67230 0.50000 0.36946 0.02400
H 	H 	0.69480 0.50000 0.37550 0.00900
O 	O 	0.13751 0.00000 0.44956 -0.48200
C 	C 	0.16065 -0.00000 0.42840 0.59000
C 	C 	0.14819 0.00000 0.39358 -0.20800
C 	C 	0.17230 0.00000 0.36946 0.02400
H 	H 	0.19480 0.00000 0.37550 0.00900
O 	O 	0.13751 0.50000 0.94956 -0.48200
C 	C 	0.16065 0.50000 0.92840 0.59000
C 	C 	0.14819 0.50000 0.89358 -0.20800
C 	C 	0.17230 0.50000 0.86946 0.02400
H 	H 	0.19480 0.50000 0.87550 0.00900
O 	O 	0.36249 0.00000 0.05044 -0.48200
C 	C 	0.33935 -0.00000 0.07160 0.59000
C 	C 	0.35181 0.00000 0.10642 -0.20800
C 	C 	0.32770 0.00000 0.13054 0.02400
H 	H 	0.30520 0.00000 0.12450 0.00900
O 	O 	0.36249 0.50000 0.55044 -0.48200
C 	C 	0.33935 0.50000 0.57160 0.59000
C 	C 	0.35181 0.50000 0.60642 -0.20800
C 	C 	0.32770 0.50000 0.63054 0.02400
H 	H 	0.30520 0.50000 0.62450 0.00900
O 	O 	0.86249 0.00000 0.55044 -0.48200
C 	C 	0.83935 0.00000 0.57160 0.59000
C 	C 	0.85181 0.00000 0.60642 -0.20800
C 	C 	0.82770 0.00000 0.63054 0.02400
H 	H 	0.80520 -0.00000 0.62450 0.00900
O 	O 	0.86249 0.50000 0.05044 -0.48200
C 	C 	0.83935 0.50000 0.07160 0.59000
C 	C 	0.85181 0.50000 0.10642 -0.20800
C 	C 	0.82770 0.50000 0.13054 0.02400
H 	H 	0.80520 0.50000 0.12450 0.00900
O 	O 	0.63751 0.00000 0.05044 -0.48200
C 	C 	0.66065 -0.00000 0.07160 0.59000
C 	C 	0.64819 0.00000 0.10642 -0.20800
C 	C 	0.67230 0.00000 0.13054 0.02400
H 	H 	0.69480 0.00000 0.12450 0.00900
O 	O 	0.63751 0.50000 0.55044 -0.48200
C 	C 	0.66065 0.50000 0.57160 0.59000
C 	C 	0.64819 0.50000 0.60642 -0.20800
C 	C 	0.67230 0.50000 0.63054 0.02400
H 	H 	0.69480 0.50000 0.62450 0.00900
O 	O 	0.13751 0.00000 0.55044 -0.48200
C 	C 	0.16065 0.00000 0.57160 0.59000
C 	C 	0.14819 0.00000 0.60642 -0.20800
C 	C 	0.17230 0.00000 0.63054 0.02400
H 	H 	0.19480 -0.00000 0.62450 0.00900
O 	O 	0.13751 0.50000 0.05044 -0.48200
C 	C 	0.16065 0.50000 0.07160 0.59000
C 	C 	0.14819 0.50000 0.10642 -0.20800
C 	C 	0.17230 0.50000 0.13054 0.02400
H 	H 	0.19480 0.50000 0.12450 0.00900
O 	O 	0.00000 0.05044 0.63751 -0.48200
C 	C 	-0.00000 0.07160 0.66065 0.59000
C 	C 	-0.00000 0.10642 0.64819 -0.20800
C 	C 	0.00000 0.13054 0.67230 0.02400
H 	H 	-0.00000 0.12450 0.69480 0.00900
O 	O 	-0.00000 0.55044 0.13751 -0.48200
C 	C 	-0.00000 0.57160 0.16065 0.59000
C 	C 	0.00000 0.60642 0.14819 -0.20800
C 	C 	-0.00000 0.63054 0.17230 0.02400
H 	H 	-0.00000 0.62450 0.19480 0.00900
O 	O 	0.50000 0.05044 0.13751 -0.48200
C 	C 	0.50000 0.07160 0.16065 0.59000
C 	C 	0.50000 0.10642 0.14819 -0.20800
C 	C 	0.50000 0.13054 0.17230 0.02400
H 	H 	0.50000 0.12450 0.19480 0.00900
O 	O 	0.50000 0.55044 0.63751 -0.48200
C 	C 	0.50000 0.57160 0.66065 0.59000
C 	C 	0.50000 0.60642 0.64819 -0.20800
C 	C 	0.50000 0.63054 0.67230 0.02400
H 	H 	0.50000 0.62450 0.69480 0.00900
O 	O 	0.00000 0.05044 0.36249 -0.48200
C 	C 	0.00000 0.07160 0.33935 0.59000
C 	C 	0.00000 0.10642 0.35181 -0.20800
C 	C 	0.00000 0.13054 0.32770 0.02400
H 	H 	0.00000 0.12450 0.30520 0.00900
O 	O 	0.00000 0.55044 0.86249 -0.48200
C 	C 	-0.00000 0.57160 0.83935 0.59000
C 	C 	-0.00000 0.60642 0.85181 -0.20800
C 	C 	-0.00000 0.63054 0.82770 0.02400
H 	H 	-0.00000 0.62450 0.80520 0.00900
O 	O 	0.50000 0.05044 0.86249 -0.48200
C 	C 	0.50000 0.07160 0.83935 0.59000
C 	C 	0.50000 0.10642 0.85181 -0.20800
C 	C 	0.50000 0.13054 0.82770 0.02400
H 	H 	0.50000 0.12450 0.80520 0.00900
O 	O 	0.50000 0.55044 0.36249 -0.48200
C 	C 	0.50000 0.57160 0.33935 0.59000
C 	C 	0.50000 0.60642 0.35181 -0.20800
C 	C 	0.50000 0.63054 0.32770 0.02400
H 	H 	0.50000 0.62450 0.30520 0.00900
O 	O 	-0.00000 0.94956 0.63751 -0.48200
C 	C 	-0.00000 0.92840 0.66065 0.59000
C 	C 	-0.00000 0.89358 0.64819 -0.20800
C 	C 	0.00000 0.86946 0.67230 0.02400
H 	H 	0.00000 0.87550 0.69480 0.00900
O 	O 	-0.00000 0.44956 0.13751 -0.48200
C 	C 	0.00000 0.42840 0.16065 0.59000
C 	C 	0.00000 0.39358 0.14819 -0.20800
C 	C 	-0.00000 0.36946 0.17230 0.02400
H 	H 	0.00000 0.37550 0.19480 0.00900
O 	O 	0.50000 0.94956 0.13751 -0.48200
C 	C 	0.50000 0.92840 0.16065 0.59000
C 	C 	0.50000 0.89358 0.14819 -0.20800
C 	C 	0.50000 0.86946 0.17230 0.02400
H 	H 	0.50000 0.87550 0.19480 0.00900
O 	O 	0.50000 0.44956 0.63751 -0.48200
C 	C 	0.50000 0.42840 0.66065 0.59000
C 	C 	0.50000 0.39358 0.64819 -0.20800
C 	C 	0.50000 0.36946 0.67230 0.02400
H 	H 	0.50000 0.37550 0.69480 0.00900
O 	O 	-0.00000 0.94956 0.36249 -0.48200
C 	C 	0.00000 0.92840 0.33935 0.59000
C 	C 	0.00000 0.89358 0.35181 -0.20800
C 	C 	-0.00000 0.86946 0.32770 0.02400
H 	H 	-0.00000 0.87550 0.30520 0.00900
O 	O 	0.00000 0.44956 0.86249 -0.48200
C 	C 	0.00000 0.42840 0.83935 0.59000
C 	C 	-0.00000 0.39358 0.85181 -0.20800
C 	C 	0.00000 0.36946 0.82770 0.02400
H 	H 	-0.00000 0.37550 0.80520 0.00900
O 	O 	0.50000 0.94956 0.86249 -0.48100
C 	C 	0.50000 0.92840 0.83935 0.59000
C 	C 	0.50000 0.89358 0.85181 -0.20800
C 	C 	0.50000 0.86946 0.82770 0.02400
H 	H 	0.50000 0.87550 0.80520 0.00900
O 	O 	0.50000 0.44956 0.36249 -0.48200
C 	C 	0.50000 0.42840 0.33935 0.59000
C 	C 	0.50000 0.39358 0.35181 -0.20800
C 	C 	0.50000 0.36946 0.32770 0.02400
H 	H 	0.50000 0.37550 0.30520 0.00900
O 	O 	0.05044 0.36249 -0.00000 -0.48200
C 	C 	0.07160 0.33935 -0.00000 0.59000
C 	C 	0.10642 0.35181 -0.00000 -0.20800
C 	C 	0.13054 0.32770 -0.00000 0.02400
H 	H 	0.12450 0.30520 -0.00000 0.00900
O 	O 	0.05044 0.86249 0.50000 -0.48200
C 	C 	0.07160 0.83935 0.50000 0.59000
C 	C 	0.10642 0.85181 0.50000 -0.20800
C 	C 	0.13054 0.82770 0.50000 0.02400
H 	H 	0.12450 0.80520 0.50000 0.00900
O 	O 	0.55044 0.36249 0.50000 -0.48200
C 	C 	0.57160 0.33935 0.50000 0.59000
C 	C 	0.60642 0.35181 0.50000 -0.20800
C 	C 	0.63054 0.32770 0.50000 0.02400
H 	H 	0.62450 0.30520 0.50000 0.00900
O 	O 	0.55044 0.86249 -0.00000 -0.48200
C 	C 	0.57160 0.83935 -0.00000 0.59000
C 	C 	0.60642 0.85181 -0.00000 -0.20800
C 	C 	0.63054 0.82770 -0.00000 0.02400
H 	H 	0.62450 0.80520 -0.00000 0.00900
O 	O 	0.05044 0.63751 -0.00000 -0.48200
C 	C 	0.07160 0.66065 -0.00000 0.59000
C 	C 	0.10642 0.64819 -0.00000 -0.20800
C 	C 	0.13054 0.67230 -0.00000 0.02400
H 	H 	0.12450 0.69480 -0.00000 0.00900
O 	O 	0.05044 0.13751 0.50000 -0.48200
C 	C 	0.07160 0.16065 0.50000 0.59000
C 	C 	0.10642 0.14819 0.50000 -0.20800
C 	C 	0.13054 0.17230 0.50000 0.02400
H 	H 	0.12450 0.19480 0.50000 0.00900
O 	O 	0.55044 0.63751 0.50000 -0.48200
C 	C 	0.57160 0.66065 0.50000 0.59000
C 	C 	0.60642 0.64819 0.50000 -0.20800
C 	C 	0.63054 0.67230 0.50000 0.02400
H 	H 	0.62450 0.69480 0.50000 0.00900
O 	O 	0.55044 0.13751 -0.00000 -0.48200
C 	C 	0.57160 0.16065 -0.00000 0.59000
C 	C 	0.60642 0.14819 -0.00000 -0.20800
C 	C 	0.63054 0.17230 -0.00000 0.02400
H 	H 	0.62450 0.19480 -0.00000 0.00900
O 	O 	0.94956 0.36249 -0.00000 -0.48200
C 	C 	0.92840 0.33935 -0.00000 0.59000
C 	C 	0.89358 0.35181 -0.00000 -0.20800
C 	C 	0.86946 0.32770 -0.00000 0.02400
H 	H 	0.87550 0.30520 -0.00000 0.00900
O 	O 	0.94956 0.86249 0.50000 -0.48100
C 	C 	0.92840 0.83935 0.50000 0.59000
C 	C 	0.89358 0.85181 0.50000 -0.20800
C 	C 	0.86946 0.82770 0.50000 0.02400
H 	H 	0.87550 0.80520 0.50000 0.00900
O 	O 	0.44956 0.36249 0.50000 -0.48200
C 	C 	0.42840 0.33935 0.50000 0.59000
C 	C 	0.39358 0.35181 0.50000 -0.20800
C 	C 	0.36946 0.32770 0.50000 0.02400
H 	H 	0.37550 0.30520 0.50000 0.00900
O 	O 	0.44956 0.86249 -0.00000 -0.48200
C 	C 	0.42840 0.83935 -0.00000 0.59000
C 	C 	0.39358 0.85181 -0.00000 -0.20800
C 	C 	0.36946 0.82770 -0.00000 0.02400
H 	H 	0.37550 0.80520 -0.00000 0.00900
O 	O 	0.94956 0.63751 -0.00000 -0.48200
C 	C 	0.92840 0.66065 -0.00000 0.59000
C 	C 	0.89358 0.64819 -0.00000 -0.20800
C 	C 	0.86946 0.67230 -0.00000 0.02400
H 	H 	0.87550 0.69480 -0.00000 0.00900
O 	O 	0.94956 0.13751 0.50000 -0.48200
C 	C 	0.92840 0.16065 0.50000 0.59000
C 	C 	0.89358 0.14819 0.50000 -0.20800
C 	C 	0.86946 0.17230 0.50000 0.02400
H 	H 	0.87550 0.19480 0.50000 0.00900
O 	O 	0.44956 0.63751 0.50000 -0.48200
C 	C 	0.42840 0.66065 0.50000 0.59000
C 	C 	0.39358 0.64819 0.50000 -0.20800
C 	C 	0.36946 0.67230 0.50000 0.02400
H 	H 	0.37550 0.69480 0.50000 0.00900
O 	O 	0.44956 0.13751 -0.00000 -0.48200
C 	C 	0.42840 0.16065 -0.00000 0.59000
C 	C 	0.39358 0.14819 -0.00000 -0.20800
C 	C 	0.36946 0.17230 -0.00000 0.02400
H 	H 	0.37550 0.19480 -0.00000 0.00900
C 	C 	-0.00000 0.38475 0.11525 0.13400
H 	H 	-0.00000 0.40120 0.09880 0.00600
C 	C 	0.00000 0.33653 0.16347 -0.00900
C 	C 	0.00000 0.31088 0.18912 -0.15800
C 	C 	0.00000 0.26265 0.23735 0.07200
C 	C 	0.50000 0.38475 0.61525 0.13500
H 	H 	0.50000 0.40120 0.59880 0.00600
C 	C 	0.50000 0.33653 0.66347 -0.00900
C 	C 	0.50000 0.31088 0.68912 -0.15800
C 	C 	0.50000 0.26265 0.73735 0.07200
C 	C 	0.00000 0.61525 0.11525 0.13400
H 	H 	0.00000 0.59880 0.09880 0.00600
C 	C 	-0.00000 0.66347 0.16347 -0.00900
C 	C 	0.00000 0.68912 0.18912 -0.15800
C 	C 	-0.00000 0.73735 0.23735 0.07200
C 	C 	0.50000 0.61525 0.61525 0.13500
H 	H 	0.50000 0.59880 0.59880 0.00600
C 	C 	0.50000 0.66347 0.66347 -0.00900
C 	C 	0.50000 0.68912 0.68912 -0.15800
C 	C 	0.50000 0.73735 0.73735 0.07200
C 	C 	0.50000 0.11525 0.11525 0.13500
H 	H 	0.50000 0.09880 0.09880 0.00600
C 	C 	0.50000 0.16347 0.16347 -0.00900
C 	C 	0.50000 0.18912 0.18912 -0.15800
C 	C 	0.50000 0.23735 0.23735 0.07200
C 	C 	0.00000 0.38475 0.88475 0.13400
H 	H 	-0.00000 0.40120 0.90120 0.00600
C 	C 	0.00000 0.33653 0.83653 -0.00900
C 	C 	-0.00000 0.31088 0.81088 -0.15800
C 	C 	0.00000 0.26265 0.76265 0.07200
C 	C 	0.50000 0.38475 0.38475 0.13500
H 	H 	0.50000 0.40120 0.40120 0.00600
C 	C 	0.50000 0.33653 0.33653 -0.00900
C 	C 	0.50000 0.31088 0.31088 -0.15800
C 	C 	0.50000 0.26265 0.26265 0.07200
C 	C 	-0.00000 0.61525 0.88475 0.13400
H 	H 	-0.00000 0.59880 0.90120 0.00600
C 	C 	-0.00000 0.66347 0.83653 -0.00900
C 	C 	-0.00000 0.68912 0.81088 -0.15800
C 	C 	0.00000 0.73735 0.76265 0.07200
C 	C 	-0.00000 0.11525 0.38475 0.13400
H 	H 	-0.00000 0.09880 0.40120 0.00600
C 	C 	0.00000 0.16347 0.33653 -0.00900
C 	C 	0.00000 0.18912 0.31088 -0.15800
C 	C 	0.00000 0.23735 0.26265 0.07200
C 	C 	0.50000 0.61525 0.38475 0.13500
H 	H 	0.50000 0.59880 0.40120 0.00600
C 	C 	0.50000 0.66347 0.33653 -0.00900
C 	C 	0.50000 0.68912 0.31088 -0.15800
C 	C 	0.50000 0.73735 0.26265 0.07200
C 	C 	0.11525 0.00000 0.38475 0.13400
H 	H 	0.09880 -0.00000 0.40120 0.00600
C 	C 	0.16347 0.00000 0.33653 -0.00900
C 	C 	0.18912 0.00000 0.31088 -0.15800
C 	C 	0.23735 0.00000 0.26265 0.07200
C 	C 	0.11525 0.50000 0.88475 0.13500
H 	H 	0.09880 0.50000 0.90120 0.00600
C 	C 	0.16347 0.50000 0.83653 -0.00900
C 	C 	0.18912 0.50000 0.81088 -0.15800
C 	C 	0.23735 0.50000 0.76265 0.07200
C 	C 	0.11525 0.00000 0.61525 0.13400
H 	H 	0.09880 0.00000 0.59880 0.00600
C 	C 	0.16347 -0.00000 0.66347 -0.00900
C 	C 	0.18912 0.00000 0.68912 -0.15800
C 	C 	0.23735 0.00000 0.73735 0.07200
C 	C 	0.11525 0.50000 0.11525 0.13500
H 	H 	0.09880 0.50000 0.09880 0.00600
C 	C 	0.16347 0.50000 0.16347 -0.00900
C 	C 	0.18912 0.50000 0.18912 -0.15800
C 	C 	0.23735 0.50000 0.23735 0.07200
C 	C 	0.88475 0.00000 0.38475 0.13400
H 	H 	0.90120 -0.00000 0.40120 0.00600
C 	C 	0.83653 0.00000 0.33653 -0.00900
C 	C 	0.81088 0.00000 0.31088 -0.15800
C 	C 	0.76265 0.00000 0.26265 0.07200
C 	C 	0.88475 0.50000 0.88475 0.13400
H 	H 	0.90120 0.50000 0.90120 0.00600
C 	C 	0.83653 0.50000 0.83653 -0.00900
C 	C 	0.81088 0.50000 0.81088 -0.15800
C 	C 	0.76265 0.50000 0.76265 0.07200
C 	C 	0.38475 0.50000 0.38475 0.13500
H 	H 	0.40120 0.50000 0.40120 0.00600
C 	C 	0.33653 0.50000 0.33653 -0.00900
C 	C 	0.31088 0.50000 0.31088 -0.15800
C 	C 	0.26265 0.50000 0.26265 0.07200
C 	C 	0.88475 0.00000 0.61525 0.13400
H 	H 	0.90120 0.00000 0.59880 0.00600
C 	C 	0.83653 -0.00000 0.66347 -0.00900
C 	C 	0.81088 0.00000 0.68912 -0.15800
C 	C 	0.76265 0.00000 0.73735 0.07200
C 	C 	0.88475 0.50000 0.11525 0.13500
H 	H 	0.90120 0.50000 0.09880 0.00600
C 	C 	0.83653 0.50000 0.16347 -0.00900
C 	C 	0.81088 0.50000 0.18912 -0.15800
C 	C 	0.76265 0.50000 0.23735 0.07200
C 	C 	0.38475 0.00000 0.11525 0.13400
H 	H 	0.40120 -0.00000 0.09880 0.00600
C 	C 	0.33653 0.00000 0.16347 -0.00900
C 	C 	0.31088 -0.00000 0.18912 -0.15800
C 	C 	0.26265 -0.00000 0.23735 0.07200
C 	C 	0.38475 0.11525 -0.00000 0.13400
H 	H 	0.40120 0.09880 -0.00000 0.00600
C 	C 	0.33653 0.16347 -0.00000 -0.00900
C 	C 	0.31088 0.18912 -0.00000 -0.15800
C 	C 	0.26265 0.23735 -0.00000 0.07200
C 	C 	0.38475 0.61525 0.50000 0.13500
H 	H 	0.40120 0.59880 0.50000 0.00600
C 	C 	0.33653 0.66347 0.50000 -0.00900
C 	C 	0.31088 0.68912 0.50000 -0.15800
C 	C 	0.26265 0.73735 0.50000 0.07200
C 	C 	0.61525 0.11525 -0.00000 0.13400
H 	H 	0.59880 0.09880 -0.00000 0.00600
C 	C 	0.66347 0.16347 -0.00000 -0.00900
C 	C 	0.68912 0.18912 -0.00000 -0.15800
C 	C 	0.73735 0.23735 -0.00000 0.07200
C 	C 	0.61525 0.61525 0.50000 0.13500
H 	H 	0.59880 0.59880 0.50000 0.00600
C 	C 	0.66347 0.66347 0.50000 -0.00900
C 	C 	0.68912 0.68912 0.50000 -0.15800
C 	C 	0.73735 0.73735 0.50000 0.07200
C 	C 	0.11525 0.11525 0.50000 0.13500
H 	H 	0.09880 0.09880 0.50000 0.00600
C 	C 	0.16347 0.16347 0.50000 -0.00900
C 	C 	0.18912 0.18912 0.50000 -0.15800
C 	C 	0.23735 0.23735 0.50000 0.07200
C 	C 	0.38475 0.88475 -0.00000 0.13400
H 	H 	0.40120 0.90120 -0.00000 0.00600
C 	C 	0.33653 0.83653 -0.00000 -0.00900
C 	C 	0.31088 0.81088 -0.00000 -0.15800
C 	C 	0.26265 0.76265 -0.00000 0.07200
C 	C 	0.38475 0.38475 0.50000 0.13500
H 	H 	0.40120 0.40120 0.50000 0.00600
C 	C 	0.33653 0.33653 0.50000 -0.00900
C 	C 	0.31088 0.31088 0.50000 -0.15800
C 	C 	0.26265 0.26265 0.50000 0.07200
C 	C 	0.61525 0.88475 -0.00000 0.13400
H 	H 	0.59880 0.90120 -0.00000 0.00600
C 	C 	0.66347 0.83653 -0.00000 -0.00900
C 	C 	0.68912 0.81088 -0.00000 -0.15800
C 	C 	0.73735 0.76265 -0.00000 0.07200
C 	C 	0.61525 0.38475 0.50000 0.13500
H 	H 	0.59880 0.40120 0.50000 0.00600
C 	C 	0.66347 0.33653 0.50000 -0.00900
C 	C 	0.68912 0.31088 0.50000 -0.15800
C 	C 	0.73735 0.26265 0.50000 0.07200
C 	C 	0.11525 0.38475 -0.00000 0.13400
H 	H 	0.09880 0.40120 -0.00000 0.00600
C 	C 	0.16347 0.33653 -0.00000 -0.00900
C 	C 	0.18912 0.31088 -0.00000 -0.15800
C 	C 	0.23735 0.26265 -0.00000 0.07200
C 	C 	0.38475 0.00000 0.88475 0.13400
H 	H 	0.40120 0.00000 0.90120 0.00600
C 	C 	0.33653 -0.00000 0.83653 -0.00900
C 	C 	0.31088 0.00000 0.81088 -0.15800
C 	C 	0.26265 0.00000 0.76265 0.07200
C 	C 	0.61525 0.00000 0.88475 0.13400
H 	H 	0.59880 0.00000 0.90120 0.00600
C 	C 	0.66347 -0.00000 0.83653 -0.00900
C 	C 	0.68912 0.00000 0.81088 -0.15800
C 	C 	0.73735 0.00000 0.76265 0.07200
C 	C 	0.61525 0.50000 0.38475 0.13500
H 	H 	0.59880 0.50000 0.40120 0.00600
C 	C 	0.66347 0.50000 0.33653 -0.00900
C 	C 	0.68912 0.50000 0.31088 -0.15800
C 	C 	0.73735 0.50000 0.26265 0.07200
C 	C 	0.38475 0.50000 0.61525 0.13500
H 	H 	0.40120 0.50000 0.59880 0.00600
C 	C 	0.33653 0.50000 0.66347 -0.00900
C 	C 	0.31088 0.50000 0.68912 -0.15800
C 	C 	0.26265 0.50000 0.73735 0.07200
C 	C 	0.61525 0.00000 0.11525 0.13400
H 	H 	0.59880 -0.00000 0.09880 0.00600
C 	C 	0.66347 0.00000 0.16347 -0.00900
C 	C 	0.68912 -0.00000 0.18912 -0.15800
C 	C 	0.73735 -0.00000 0.23735 0.07200
C 	C 	0.61525 0.50000 0.61525 0.13500
H 	H 	0.59880 0.50000 0.59880 0.00600
C 	C 	0.66347 0.50000 0.66347 -0.00900
C 	C 	0.68912 0.50000 0.68912 -0.15800
C 	C 	0.73735 0.50000 0.73735 0.07200
C 	C 	0.00000 0.11525 0.61525 0.13400
H 	H 	0.00000 0.09880 0.59880 0.00600
C 	C 	-0.00000 0.16347 0.66347 -0.00900
C 	C 	-0.00000 0.18912 0.68912 -0.15800
C 	C 	-0.00000 0.23735 0.73735 0.07200
C 	C 	0.50000 0.11525 0.88475 0.13500
H 	H 	0.50000 0.09880 0.90120 0.00600
C 	C 	0.50000 0.16347 0.83653 -0.00900
C 	C 	0.50000 0.18912 0.81088 -0.15800
C 	C 	0.50000 0.23735 0.76265 0.07200
C 	C 	0.00000 0.88475 0.61525 0.13400
H 	H 	-0.00000 0.90120 0.59880 0.00600
C 	C 	-0.00000 0.83653 0.66347 -0.00900
C 	C 	-0.00000 0.81088 0.68912 -0.15800
C 	C 	0.00000 0.76265 0.73735 0.07200
C 	C 	0.50000 0.88475 0.11525 0.13500
H 	H 	0.50000 0.90120 0.09880 0.00600
C 	C 	0.50000 0.83653 0.16347 -0.00900
C 	C 	0.50000 0.81088 0.18912 -0.15800
C 	C 	0.50000 0.76265 0.23735 0.07200
C 	C 	0.00000 0.88475 0.38475 0.13400
H 	H 	-0.00000 0.90120 0.40120 0.00600
C 	C 	0.00000 0.83653 0.33653 -0.00900
C 	C 	-0.00000 0.81088 0.31088 -0.15800
C 	C 	0.00000 0.76265 0.26265 0.07200
C 	C 	0.50000 0.88475 0.88475 0.13400
H 	H 	0.50000 0.90120 0.90120 0.00600
C 	C 	0.50000 0.83653 0.83653 -0.00900
C 	C 	0.50000 0.81088 0.81088 -0.15800
C 	C 	0.50000 0.76265 0.76265 0.07200
C 	C 	0.11525 0.88475 0.50000 0.13500
H 	H 	0.09880 0.90120 0.50000 0.00600
C 	C 	0.16347 0.83653 0.50000 -0.00900
C 	C 	0.18912 0.81088 0.50000 -0.15800
C 	C 	0.23735 0.76265 0.50000 0.07200
C 	C 	0.11525 0.61525 -0.00000 0.13400
H 	H 	0.09880 0.59880 -0.00000 0.00600
C 	C 	0.16347 0.66347 -0.00000 -0.00900
C 	C 	0.18912 0.68912 -0.00000 -0.15800
C 	C 	0.23735 0.73735 -0.00000 0.07200
C 	C 	0.88475 0.38475 -0.00000 0.13400
H 	H 	0.90120 0.40120 -0.00000 0.00600
C 	C 	0.83653 0.33653 -0.00000 -0.00900
C 	C 	0.81088 0.31088 -0.00000 -0.15800
C 	C 	0.76265 0.26265 -0.00000 0.07200
C 	C 	0.88475 0.88475 0.50000 0.13400
H 	H 	0.90120 0.90120 0.50000 0.00600
C 	C 	0.83653 0.83653 0.50000 -0.00900
C 	C 	0.81088 0.81088 0.50000 -0.15800
C 	C 	0.76265 0.76265 0.50000 0.07200
C 	C 	0.88475 0.61525 -0.00000 0.13400
H 	H 	0.90120 0.59880 -0.00000 0.00600
C 	C 	0.83653 0.66347 -0.00000 -0.00900
C 	C 	0.81088 0.68912 -0.00000 -0.15800
C 	C 	0.76265 0.73735 -0.00000 0.07200
C 	C 	0.88475 0.11525 0.50000 0.13500
H 	H 	0.90120 0.09880 0.50000 0.00600
C 	C 	0.83653 0.16347 0.50000 -0.00900
C 	C 	0.81088 0.18912 0.50000 -0.15800
C 	C 	0.76265 0.23735 0.50000 0.07200
C 	C 	0.02953 0.29882 0.20118 0.18100
C 	C 	0.02953 0.27471 0.22529 -0.21900
H 	H 	0.04970 0.26650 0.23350 0.07700
C 	C 	0.06047 0.31315 0.18685 -0.45800
C 	C 	0.52953 0.29882 0.70118 0.18100
C 	C 	0.52953 0.27471 0.72529 -0.21900
H 	H 	0.54970 0.26650 0.73350 0.07700
C 	C 	0.56047 0.31315 0.68685 -0.45800
C 	C 	0.97047 0.70118 0.20118 0.18200
C 	C 	0.97047 0.72529 0.22529 -0.21900
H 	H 	0.95030 0.73350 0.23350 0.07700
C 	C 	0.93953 0.68685 0.18685 -0.45800
C 	C 	0.47047 0.70118 0.70118 0.18100
C 	C 	0.47047 0.72529 0.72529 -0.21900
H 	H 	0.45030 0.73350 0.73350 0.07700
C 	C 	0.43953 0.68685 0.68685 -0.45800
C 	C 	0.47047 0.20118 0.20118 0.18100
C 	C 	0.47047 0.22529 0.22529 -0.21900
H 	H 	0.45030 0.23350 0.23350 0.07700
C 	C 	0.43953 0.18685 0.18685 -0.45800
C 	C 	0.97047 0.29882 0.79882 0.18200
C 	C 	0.97047 0.27471 0.77471 -0.21900
H 	H 	0.95030 0.26650 0.76650 0.07700
C 	C 	0.93953 0.31315 0.81315 -0.45800
C 	C 	0.47047 0.29882 0.29882 0.18100
C 	C 	0.47047 0.27471 0.27471 -0.21900
H 	H 	0.45030 0.26650 0.26650 0.07700
C 	C 	0.43953 0.31315 0.31315 -0.45800
C 	C 	0.02953 0.70118 0.79882 0.18100
C 	C 	0.02953 0.72529 0.77471 -0.21900
H 	H 	0.04970 0.73350 0.76650 0.07700
C 	C 	0.06047 0.68685 0.81315 -0.45800
C 	C 	0.02953 0.20118 0.29882 0.18100
C 	C 	0.02953 0.22529 0.27471 -0.21900
H 	H 	0.04970 0.23350 0.26650 0.07700
C 	C 	0.06047 0.18685 0.31315 -0.45800
C 	C 	0.52953 0.70118 0.29882 0.18100
C 	C 	0.52953 0.72529 0.27471 -0.21900
H 	H 	0.54970 0.73350 0.26650 0.07700
C 	C 	0.56047 0.68685 0.31315 -0.45800
C 	C 	0.20118 0.02953 0.29882 0.18100
C 	C 	0.22529 0.02953 0.27471 -0.21900
H 	H 	0.23350 0.04970 0.26650 0.07700
C 	C 	0.18685 0.06047 0.31315 -0.45800
C 	C 	0.20118 0.52953 0.79882 0.18100
C 	C 	0.22529 0.52953 0.77471 -0.21900
H 	H 	0.23350 0.54970 0.76650 0.07700
C 	C 	0.18685 0.56047 0.81315 -0.45800
C 	C 	0.20118 0.97047 0.70118 0.18200
C 	C 	0.22529 0.97047 0.72529 -0.21900
H 	H 	0.23350 0.95030 0.73350 0.07700
C 	C 	0.18685 0.93953 0.68685 -0.45800
C 	C 	0.20118 0.47047 0.20118 0.18100
C 	C 	0.22529 0.47047 0.22529 -0.21900
H 	H 	0.23350 0.45030 0.23350 0.07700
C 	C 	0.18685 0.43953 0.18685 -0.45800
C 	C 	0.79882 0.97047 0.29882 0.18200
C 	C 	0.77471 0.97047 0.27471 -0.21900
H 	H 	0.76650 0.95030 0.26650 0.07700
C 	C 	0.81315 0.93953 0.31315 -0.45800
C 	C 	0.79882 0.47047 0.79882 0.18100
C 	C 	0.77471 0.47047 0.77471 -0.21900
H 	H 	0.76650 0.45030 0.76650 0.07700
C 	C 	0.81315 0.43953 0.81315 -0.45800
C 	C 	0.29882 0.47047 0.29882 0.18100
C 	C 	0.27471 0.47047 0.27471 -0.21900
H 	H 	0.26650 0.45030 0.26650 0.07700
C 	C 	0.31315 0.43953 0.31315 -0.45800
C 	C 	0.79882 0.02953 0.70118 0.18100
C 	C 	0.77471 0.02953 0.72529 -0.21900
H 	H 	0.76650 0.04970 0.73350 0.07700
C 	C 	0.81315 0.06047 0.68685 -0.45800
C 	C 	0.79882 0.52953 0.20118 0.18100
C 	C 	0.77471 0.52953 0.22529 -0.21900
H 	H 	0.76650 0.54970 0.23350 0.07700
C 	C 	0.81315 0.56047 0.18685 -0.45800
C 	C 	0.29882 0.02953 0.20118 0.18100
C 	C 	0.27471 0.02953 0.22529 -0.21900
H 	H 	0.26650 0.04970 0.23350 0.07700
C 	C 	0.31315 0.06047 0.18685 -0.45800
C 	C 	0.29882 0.20118 0.02953 0.18100
C 	C 	0.27471 0.22529 0.02953 -0.21900
H 	H 	0.26650 0.23350 0.04970 0.07700
C 	C 	0.31315 0.18685 0.06047 -0.45800
C 	C 	0.29882 0.70118 0.52953 0.18100
C 	C 	0.27471 0.72529 0.52953 -0.21900
H 	H 	0.26650 0.73350 0.54970 0.07700
C 	C 	0.31315 0.68685 0.56047 -0.45800
C 	C 	0.70118 0.20118 0.97047 0.18200
C 	C 	0.72529 0.22529 0.97047 -0.21900
H 	H 	0.73350 0.23350 0.95030 0.07700
C 	C 	0.68685 0.18685 0.93953 -0.45800
C 	C 	0.70118 0.70118 0.47047 0.18100
C 	C 	0.72529 0.72529 0.47047 -0.21900
H 	H 	0.73350 0.73350 0.45030 0.07700
C 	C 	0.68685 0.68685 0.43953 -0.45800
C 	C 	0.20118 0.20118 0.47047 0.18100
C 	C 	0.22529 0.22529 0.47047 -0.21900
H 	H 	0.23350 0.23350 0.45030 0.07700
C 	C 	0.18685 0.18685 0.43953 -0.45800
C 	C 	0.29882 0.79882 0.97047 0.18200
C 	C 	0.27471 0.77471 0.97047 -0.21900
H 	H 	0.26650 0.76650 0.95030 0.07700
C 	C 	0.31315 0.81315 0.93953 -0.45800
C 	C 	0.29882 0.29882 0.47047 0.18100
C 	C 	0.27471 0.27471 0.47047 -0.21900
H 	H 	0.26650 0.26650 0.45030 0.07700
C 	C 	0.31315 0.31315 0.43953 -0.45800
C 	C 	0.70118 0.79882 0.02953 0.18100
C 	C 	0.72529 0.77471 0.02953 -0.21900
H 	H 	0.73350 0.76650 0.04970 0.07700
C 	C 	0.68685 0.81315 0.06047 -0.45800
C 	C 	0.70118 0.29882 0.52953 0.18100
C 	C 	0.72529 0.27471 0.52953 -0.21900
H 	H 	0.73350 0.26650 0.54970 0.07700
C 	C 	0.68685 0.31315 0.56047 -0.45800
C 	C 	0.20118 0.29882 0.02953 0.18100
C 	C 	0.22529 0.27471 0.02953 -0.21900
H 	H 	0.23350 0.26650 0.04970 0.07700
C 	C 	0.18685 0.31315 0.06047 -0.45800
C 	C 	0.29882 0.02953 0.79882 0.18100
C 	C 	0.27471 0.02953 0.77471 -0.21900
H 	H 	0.26650 0.04970 0.76650 0.07700
C 	C 	0.31315 0.06047 0.81315 -0.45800
C 	C 	0.29882 0.52953 0.29882 0.18100
C 	C 	0.27471 0.52953 0.27471 -0.21900
H 	H 	0.26650 0.54970 0.26650 0.07700
C 	C 	0.31315 0.56047 0.31315 -0.45800
C 	C 	0.70118 0.97047 0.79882 0.18200
C 	C 	0.72529 0.97047 0.77471 -0.21900
H 	H 	0.73350 0.95030 0.76650 0.07700
C 	C 	0.68685 0.93953 0.81315 -0.45800
C 	C 	0.70118 0.47047 0.29882 0.18100
C 	C 	0.72529 0.47047 0.27471 -0.21900
H 	H 	0.73350 0.45030 0.26650 0.07700
C 	C 	0.68685 0.43953 0.31315 -0.45800
C 	C 	0.20118 0.97047 0.29882 0.18200
C 	C 	0.22529 0.97047 0.27471 -0.21900
H 	H 	0.23350 0.95030 0.26650 0.07700
C 	C 	0.18685 0.93953 0.31315 -0.45800
C 	C 	0.29882 0.97047 0.20118 0.18200
C 	C 	0.27471 0.97047 0.22529 -0.21900
H 	H 	0.26650 0.95030 0.23350 0.07700
C 	C 	0.31315 0.93953 0.18685 -0.45800
C 	C 	0.29882 0.47047 0.70118 0.18100
C 	C 	0.27471 0.47047 0.72529 -0.21900
H 	H 	0.26650 0.45030 0.73350 0.07700
C 	C 	0.31315 0.43953 0.68685 -0.45800
C 	C 	0.70118 0.02953 0.20118 0.18100
C 	C 	0.72529 0.02953 0.22529 -0.21900
H 	H 	0.73350 0.04970 0.23350 0.07700
C 	C 	0.68685 0.06047 0.18685 -0.45800
C 	C 	0.70118 0.52953 0.70118 0.18100
C 	C 	0.72529 0.52953 0.72529 -0.21900
H 	H 	0.73350 0.54970 0.73350 0.07700
C 	C 	0.68685 0.56047 0.68685 -0.45800
C 	C 	0.20118 0.52953 0.20118 0.18100
C 	C 	0.22529 0.52953 0.22529 -0.21900
H 	H 	0.23350 0.54970 0.23350 0.07700
C 	C 	0.18685 0.56047 0.18685 -0.45800
C 	C 	0.02953 0.20118 0.70118 0.18100
C 	C 	0.02953 0.22529 0.72529 -0.21900
H 	H 	0.04970 0.23350 0.73350 0.07700
C 	C 	0.06047 0.18685 0.68685 -0.45800
C 	C 	0.52953 0.20118 0.20118 0.18100
C 	C 	0.52953 0.22529 0.22529 -0.21900
H 	H 	0.54970 0.23350 0.23350 0.07700
C 	C 	0.56047 0.18685 0.18685 -0.45800
C 	C 	0.97047 0.20118 0.29882 0.18200
C 	C 	0.97047 0.22529 0.27471 -0.21900
H 	H 	0.95030 0.23350 0.26650 0.07700
C 	C 	0.93953 0.18685 0.31315 -0.45800
C 	C 	0.47047 0.20118 0.79882 0.18100
C 	C 	0.47047 0.22529 0.77471 -0.21900
H 	H 	0.45030 0.23350 0.76650 0.07700
C 	C 	0.43953 0.18685 0.81315 -0.45800
C 	C 	0.97047 0.79882 0.70118 0.18200
C 	C 	0.97047 0.77471 0.72529 -0.21900
H 	H 	0.95030 0.76650 0.73350 0.07700
C 	C 	0.93953 0.81315 0.68685 -0.45800
C 	C 	0.97047 0.29882 0.20118 0.18200
C 	C 	0.97047 0.27471 0.22529 -0.21900
H 	H 	0.95030 0.26650 0.23350 0.07700
C 	C 	0.93953 0.31315 0.18685 -0.45800
C 	C 	0.47047 0.79882 0.20118 0.18100
C 	C 	0.47047 0.77471 0.22529 -0.21900
H 	H 	0.45030 0.76650 0.23350 0.07700
C 	C 	0.43953 0.81315 0.18685 -0.45800
C 	C 	0.02953 0.79882 0.29882 0.18100
C 	C 	0.02953 0.77471 0.27471 -0.21900
H 	H 	0.04970 0.76650 0.26650 0.07700
C 	C 	0.06047 0.81315 0.31315 -0.45800
C 	C 	0.52953 0.79882 0.79882 0.18100
C 	C 	0.52953 0.77471 0.77471 -0.21900
H 	H 	0.54970 0.76650 0.76650 0.07700
C 	C 	0.56047 0.81315 0.81315 -0.45800
C 	C 	0.52953 0.29882 0.29882 0.18100
C 	C 	0.52953 0.27471 0.27471 -0.21900
H 	H 	0.54970 0.26650 0.26650 0.07700
C 	C 	0.56047 0.31315 0.31315 -0.45800
C 	C 	0.20118 0.29882 0.97047 0.18200
C 	C 	0.22529 0.27471 0.97047 -0.21900
H 	H 	0.23350 0.26650 0.95030 0.07700
C 	C 	0.18685 0.31315 0.93953 -0.45800
C 	C 	0.20118 0.79882 0.47047 0.18100
C 	C 	0.22529 0.77471 0.47047 -0.21900
H 	H 	0.23350 0.76650 0.45030 0.07700
C 	C 	0.18685 0.81315 0.43953 -0.45800
C 	C 	0.20118 0.70118 0.02953 0.18100
C 	C 	0.22529 0.72529 0.02953 -0.21900
H 	H 	0.23350 0.73350 0.04970 0.07700
C 	C 	0.18685 0.68685 0.06047 -0.45800
C 	C 	0.20118 0.20118 0.52953 0.18100
C 	C 	0.22529 0.22529 0.52953 -0.21900
H 	H 	0.23350 0.23350 0.54970 0.07700
C 	C 	0.18685 0.18685 0.56047 -0.45800
C 	C 	0.79882 0.29882 0.02953 0.18100
C 	C 	0.77471 0.27471 0.02953 -0.21900
H 	H 	0.76650 0.26650 0.04970 0.07700
C 	C 	0.81315 0.31315 0.06047 -0.45800
C 	C 	0.79882 0.79882 0.52953 0.18100
C 	C 	0.77471 0.77471 0.52953 -0.21900
H 	H 	0.76650 0.76650 0.54970 0.07700
C 	C 	0.81315 0.81315 0.56047 -0.45800
C 	C 	0.29882 0.29882 0.52953 0.18100
C 	C 	0.27471 0.27471 0.52953 -0.21900
H 	H 	0.26650 0.26650 0.54970 0.07700
C 	C 	0.31315 0.31315 0.56047 -0.45800
C 	C 	0.79882 0.70118 0.97047 0.18200
C 	C 	0.77471 0.72529 0.97047 -0.21900
H 	H 	0.76650 0.73350 0.95030 0.07700
C 	C 	0.81315 0.68685 0.93953 -0.45800
C 	C 	0.79882 0.20118 0.47047 0.18100
C 	C 	0.77471 0.22529 0.47047 -0.21900
H 	H 	0.76650 0.23350 0.45030 0.07700
C 	C 	0.81315 0.18685 0.43953 -0.45800
C 	C 	0.29882 0.20118 0.97047 0.18200
C 	C 	0.27471 0.22529 0.97047 -0.21900
H 	H 	0.26650 0.23350 0.95030 0.07700
C 	C 	0.31315 0.18685 0.93953 -0.45800
C 	C 	0.97047 0.70118 0.79882 0.18200
C 	C 	0.97047 0.72529 0.77471 -0.21900
H 	H 	0.95030 0.73350 0.76650 0.07700
C 	C 	0.93953 0.68685 0.81315 -0.45800
C 	C 	0.47047 0.70118 0.29882 0.18100
C 	C 	0.47047 0.72529 0.27471 -0.21900
H 	H 	0.45030 0.73350 0.26650 0.07700
C 	C 	0.43953 0.68685 0.31315 -0.45800
C 	C 	0.02953 0.29882 0.79882 0.18100
C 	C 	0.02953 0.27471 0.77471 -0.21900
H 	H 	0.04970 0.26650 0.76650 0.07700
C 	C 	0.06047 0.31315 0.81315 -0.45800
C 	C 	0.02953 0.70118 0.20118 0.18100
C 	C 	0.02953 0.72529 0.22529 -0.21900
H 	H 	0.04970 0.73350 0.23350 0.07700
C 	C 	0.06047 0.68685 0.18685 -0.45800
C 	C 	0.52953 0.70118 0.70118 0.18100
C 	C 	0.52953 0.72529 0.72529 -0.21900
H 	H 	0.54970 0.73350 0.73350 0.07700
C 	C 	0.56047 0.68685 0.68685 -0.45800
C 	C 	0.47047 0.29882 0.70118 0.18100
C 	C 	0.47047 0.27471 0.72529 -0.21900
H 	H 	0.45030 0.26650 0.73350 0.07700
C 	C 	0.43953 0.31315 0.68685 -0.45800
C 	C 	0.79882 0.97047 0.70118 0.18200
C 	C 	0.77471 0.97047 0.72529 -0.21900
H 	H 	0.76650 0.95030 0.73350 0.07700
C 	C 	0.81315 0.93953 0.68685 -0.45800
C 	C 	0.79882 0.47047 0.20118 0.18100
C 	C 	0.77471 0.47047 0.22529 -0.21900
H 	H 	0.76650 0.45030 0.23350 0.07700
C 	C 	0.81315 0.43953 0.18685 -0.45800
C 	C 	0.79882 0.02953 0.29882 0.18100
C 	C 	0.77471 0.02953 0.27471 -0.21900
H 	H 	0.76650 0.04970 0.26650 0.07700
C 	C 	0.81315 0.06047 0.31315 -0.45800
C 	C 	0.79882 0.52953 0.79882 0.18100
C 	C 	0.77471 0.52953 0.77471 -0.21900
H 	H 	0.76650 0.54970 0.76650 0.07700
C 	C 	0.81315 0.56047 0.81315 -0.45800
C 	C 	0.20118 0.02953 0.70118 0.18100
C 	C 	0.22529 0.02953 0.72529 -0.21900
H 	H 	0.23350 0.04970 0.73350 0.07700
C 	C 	0.18685 0.06047 0.68685 -0.45800
C 	C 	0.20118 0.47047 0.79882 0.18100
C 	C 	0.22529 0.47047 0.77471 -0.21900
H 	H 	0.23350 0.45030 0.76650 0.07700
C 	C 	0.18685 0.43953 0.81315 -0.45800
C 	C 	0.70118 0.79882 0.97047 0.18200
C 	C 	0.72529 0.77471 0.97047 -0.21900
H 	H 	0.73350 0.76650 0.95030 0.07700
C 	C 	0.68685 0.81315 0.93953 -0.45800
C 	C 	0.70118 0.29882 0.47047 0.18100
C 	C 	0.72529 0.27471 0.47047 -0.21900
H 	H 	0.73350 0.26650 0.45030 0.07700
C 	C 	0.68685 0.31315 0.43953 -0.45800
C 	C 	0.29882 0.79882 0.02953 0.18100
C 	C 	0.27471 0.77471 0.02953 -0.21900
H 	H 	0.26650 0.76650 0.04970 0.07700
C 	C 	0.31315 0.81315 0.06047 -0.45800
C 	C 	0.70118 0.20118 0.02953 0.18100
C 	C 	0.72529 0.22529 0.02953 -0.21900
H 	H 	0.73350 0.23350 0.04970 0.07700
C 	C 	0.68685 0.18685 0.06047 -0.45800
C 	C 	0.70118 0.70118 0.52953 0.18100
C 	C 	0.72529 0.72529 0.52953 -0.21900
H 	H 	0.73350 0.73350 0.54970 0.07700
C 	C 	0.68685 0.68685 0.56047 -0.45800
C 	C 	0.29882 0.70118 0.47047 0.18100
C 	C 	0.27471 0.72529 0.47047 -0.21900
H 	H 	0.26650 0.73350 0.45030 0.07700
C 	C 	0.31315 0.68685 0.43953 -0.45800
C 	C 	0.70118 0.97047 0.20118 0.18200
C 	C 	0.72529 0.97047 0.22529 -0.21900
H 	H 	0.73350 0.95030 0.23350 0.07700
C 	C 	0.68685 0.93953 0.18685 -0.45800
C 	C 	0.70118 0.47047 0.70118 0.18100
C 	C 	0.72529 0.47047 0.72529 -0.21900
H 	H 	0.73350 0.45030 0.73350 0.07700
C 	C 	0.68685 0.43953 0.68685 -0.45800
C 	C 	0.29882 0.52953 0.70118 0.18100
C 	C 	0.27471 0.52953 0.72529 -0.21900
H 	H 	0.26650 0.54970 0.73350 0.07700
C 	C 	0.31315 0.56047 0.68685 -0.45800
C 	C 	0.70118 0.02953 0.79882 0.18100
C 	C 	0.72529 0.02953 0.77471 -0.21900
H 	H 	0.73350 0.04970 0.76650 0.07700
C 	C 	0.68685 0.06047 0.81315 -0.45800
C 	C 	0.70118 0.52953 0.29882 0.18100
C 	C 	0.72529 0.52953 0.27471 -0.21900
H 	H 	0.73350 0.54970 0.26650 0.07700
C 	C 	0.68685 0.56047 0.31315 -0.45800
C 	C 	0.29882 0.97047 0.79882 0.18200
C 	C 	0.27471 0.97047 0.77471 -0.21900
H 	H 	0.26650 0.95030 0.76650 0.07700
C 	C 	0.31315 0.93953 0.81315 -0.45800
C 	C 	0.97047 0.79882 0.29882 0.18200
C 	C 	0.97047 0.77471 0.27471 -0.21900
H 	H 	0.95030 0.76650 0.26650 0.07700
C 	C 	0.93953 0.81315 0.31315 -0.45800
C 	C 	0.47047 0.79882 0.79882 0.18100
C 	C 	0.47047 0.77471 0.77471 -0.21900
H 	H 	0.45030 0.76650 0.76650 0.07700
C 	C 	0.43953 0.81315 0.81315 -0.45800
C 	C 	0.02953 0.79882 0.70118 0.18100
C 	C 	0.02953 0.77471 0.72529 -0.21900
H 	H 	0.04970 0.76650 0.73350 0.07700
C 	C 	0.06047 0.81315 0.68685 -0.45800
C 	C 	0.52953 0.79882 0.20118 0.18100
C 	C 	0.52953 0.77471 0.22529 -0.21900
H 	H 	0.54970 0.76650 0.23350 0.07700
C 	C 	0.56047 0.81315 0.18685 -0.45800
C 	C 	0.52953 0.20118 0.79882 0.18100
C 	C 	0.52953 0.22529 0.77471 -0.21900
H 	H 	0.54970 0.23350 0.76650 0.07700
C 	C 	0.56047 0.18685 0.81315 -0.45800
C 	C 	0.97047 0.20118 0.70118 0.18200
C 	C 	0.97047 0.22529 0.72529 -0.21900
H 	H 	0.95030 0.23350 0.73350 0.07700
C 	C 	0.93953 0.18685 0.68685 -0.45800
C 	C 	0.79882 0.70118 0.02953 0.18100
C 	C 	0.77471 0.72529 0.02953 -0.21900
H 	H 	0.76650 0.73350 0.04970 0.07700
C 	C 	0.81315 0.68685 0.06047 -0.45800
C 	C 	0.79882 0.20118 0.52953 0.18100
C 	C 	0.77471 0.22529 0.52953 -0.21900
H 	H 	0.76650 0.23350 0.54970 0.07700
C 	C 	0.81315 0.18685 0.56047 -0.45800
C 	C 	0.79882 0.29882 0.97047 0.18200
C 	C 	0.77471 0.27471 0.97047 -0.21900
H 	H 	0.76650 0.26650 0.95030 0.07700
C 	C 	0.81315 0.31315 0.93953 -0.45800
C 	C 	0.79882 0.79882 0.47047 0.18100
C 	C 	0.77471 0.77471 0.47047 -0.21900
H 	H 	0.76650 0.76650 0.45030 0.07700
C 	C 	0.81315 0.81315 0.43953 -0.45800
C 	C 	0.20118 0.70118 0.97047 0.18200
C 	C 	0.22529 0.72529 0.97047 -0.21900
H 	H 	0.23350 0.73350 0.95030 0.07700
C 	C 	0.18685 0.68685 0.93953 -0.45800
C 	C 	0.20118 0.79882 0.52953 0.18100
C 	C 	0.22529 0.77471 0.52953 -0.21900
H 	H 	0.23350 0.76650 0.54970 0.07700
C 	C 	0.18685 0.81315 0.56047 -0.45800
