data_crystal

_cell_length_a 15.91310
_cell_length_b 13.53960
_cell_length_c 6.64750
_cell_angle_alpha 90.00000
_cell_angle_beta  97.66200
_cell_angle_gamma 90.00000

_symmetry_space_group_name_	'P 1'
_symmetry_space_group_name_H-M	'P 1'

loop_
_symmetry_equiv_pos_as_xyz
  x,y,z

loop_
_atom_site_label
_atom_site_type_symbol
_atom_site_fract_x
_atom_site_fract_y
_atom_site_fract_z
_atom_site_charge
Eu	Eu	0.25087 0.06030 0.46874 1.65800
C 	C 	0.35820 0.88680 0.52000 0.34500
C 	C 	0.41340 0.79620 0.55510 -0.14500
C 	C 	0.37670 0.70280 0.55200 0.09500
H 	H 	0.31790 0.69860 0.52500 0.01000
C 	C 	0.50490 0.62650 0.62000 0.11900
H 	H 	0.53640 0.56880 0.64310 0.01300
C 	C 	0.54820 0.71570 0.62350 -0.20500
C 	C 	0.50100 0.80270 0.59240 0.11500
H 	H 	0.52780 0.86380 0.59680 0.00400
C 	C 	0.64380 0.71710 0.66050 0.48700
C 	C 	0.10090 0.04960 0.17000 0.34200
C 	C 	0.02140 0.04760 0.01220 -0.21100
H 	H 	0.98160 0.09620 0.05040 0.08900
H 	H 	0.03710 0.06740 0.88210 0.08200
N 	N 	0.42040 0.61890 0.58530 -0.15000
O 	O 	0.38910 0.96990 0.56170 -0.39600
O 	O 	0.28170 0.87580 0.44810 -0.40400
O 	O 	0.68070 0.63730 0.71140 -0.47600
O 	O 	0.67980 0.79640 0.63250 -0.50400
O 	O 	0.11280 0.98800 0.30950 -0.43000
O 	O 	0.15160 0.11840 0.15650 -0.43400
Eu	Eu	0.74913 0.56030 0.03126 1.65900
C 	C 	0.64180 0.38680 0.98000 0.34600
C 	C 	0.58660 0.29620 0.94490 -0.14600
C 	C 	0.62330 0.20280 0.94800 0.09500
H 	H 	0.68210 0.19860 0.97500 0.01000
C 	C 	0.49510 0.12650 0.88000 0.12000
H 	H 	0.46360 0.06880 0.85690 0.01200
C 	C 	0.45180 0.21570 0.87650 -0.20600
C 	C 	0.49900 0.30270 0.90760 0.11500
H 	H 	0.47220 0.36380 0.90320 0.00400
C 	C 	0.35620 0.21710 0.83950 0.48700
C 	C 	0.89910 0.54960 0.33000 0.34900
C 	C 	0.97860 0.54760 0.48780 -0.21500
H 	H 	0.01840 0.59620 0.44960 0.08900
H 	H 	0.96290 0.56740 0.61790 0.08700
N 	N 	0.57960 0.11890 0.91470 -0.14900
O 	O 	0.61090 0.46990 0.93830 -0.39700
O 	O 	0.71830 0.37580 0.05190 -0.40700
O 	O 	0.31930 0.13730 0.78860 -0.47700
O 	O 	0.32020 0.29640 0.86750 -0.50500
O 	O 	0.88720 0.48800 0.19050 -0.43700
O 	O 	0.84840 0.61840 0.34350 -0.43700
Eu	Eu	0.74913 0.93970 0.53126 1.65700
C 	C 	0.64180 0.11320 0.48000 0.34400
C 	C 	0.58660 0.20380 0.44490 -0.14500
C 	C 	0.62330 0.29720 0.44800 0.09500
H 	H 	0.68210 0.30140 0.47500 0.01000
C 	C 	0.49510 0.37350 0.38000 0.11900
H 	H 	0.46360 0.43120 0.35690 0.01300
C 	C 	0.45180 0.28430 0.37650 -0.20500
C 	C 	0.49900 0.19730 0.40760 0.11500
H 	H 	0.47220 0.13620 0.40320 0.00400
C 	C 	0.35620 0.28290 0.33950 0.48700
C 	C 	0.89910 0.95040 0.83000 0.34200
C 	C 	0.97860 0.95240 0.98780 -0.21100
H 	H 	0.01840 0.90380 0.94960 0.08900
H 	H 	0.96290 0.93260 0.11790 0.08200
N 	N 	0.57960 0.38110 0.41470 -0.15000
O 	O 	0.61090 0.03010 0.43830 -0.39600
O 	O 	0.71830 0.12420 0.55190 -0.40400
O 	O 	0.31930 0.36270 0.28860 -0.47600
O 	O 	0.32020 0.20360 0.36750 -0.50400
O 	O 	0.88720 0.01200 0.69050 -0.43000
O 	O 	0.84840 0.88160 0.84350 -0.43400
Eu	Eu	0.25087 0.43970 0.96874 1.65900
C 	C 	0.35820 0.61320 0.02000 0.34600
C 	C 	0.41340 0.70380 0.05510 -0.14600
C 	C 	0.37670 0.79720 0.05200 0.09500
H 	H 	0.31790 0.80140 0.02500 0.01000
C 	C 	0.50490 0.87350 0.12000 0.12000
H 	H 	0.53640 0.93120 0.14310 0.01200
C 	C 	0.54820 0.78430 0.12350 -0.20600
C 	C 	0.50100 0.69730 0.09240 0.11500
H 	H 	0.52780 0.63620 0.09680 0.00400
C 	C 	0.64380 0.78290 0.16050 0.48700
C 	C 	0.10090 0.45040 0.67000 0.34900
C 	C 	0.02140 0.45240 0.51220 -0.21500
H 	H 	0.98160 0.40380 0.55040 0.08900
H 	H 	0.03710 0.43260 0.38210 0.08700
N 	N 	0.42040 0.88110 0.08530 -0.14900
O 	O 	0.38910 0.53010 0.06170 -0.39700
O 	O 	0.28170 0.62420 0.94810 -0.40700
O 	O 	0.68070 0.86270 0.21140 -0.47700
O 	O 	0.67980 0.70360 0.13250 -0.50500
O 	O 	0.11280 0.51200 0.80950 -0.43700
O 	O 	0.15160 0.38160 0.65650 -0.43700
