data_crystal

_cell_length_a 15.93000
_cell_length_b 13.58800
_cell_length_c 6.66300
_cell_angle_alpha 90.00000
_cell_angle_beta  97.39200
_cell_angle_gamma 90.00000

_symmetry_space_group_name_	'P 1'
_symmetry_space_group_name_H-M	'P 1'

loop_
_symmetry_equiv_pos_as_xyz
  x,y,z

loop_
_atom_site_label
_atom_site_type_symbol
_atom_site_fract_x
_atom_site_fract_y
_atom_site_fract_z
_atom_site_charge
Pr	Pr	0.74945 0.94004 0.02861 2.01400
C 	C 	0.64330 0.78390 0.65750 0.49600
C 	C 	0.54850 0.78340 0.62300 -0.21200
C 	C 	0.50560 0.87380 0.62110 0.11800
H 	H 	0.53700 0.93120 0.64530 0.01100
C 	C 	0.37680 0.79750 0.55520 0.09100
H 	H 	0.31810 0.80220 0.53090 0.00700
C 	C 	0.41360 0.70420 0.55780 -0.13900
C 	C 	0.50070 0.69720 0.59300 0.11800
H 	H 	0.52710 0.63610 0.59680 0.00100
C 	C 	0.35770 0.61440 0.52180 0.32800
C 	C 	0.89930 0.95240 0.32900 0.30700
C 	C 	0.98130 0.95390 0.48900 -0.20300
H 	H 	0.96650 0.93250 0.61880 0.07800
H 	H 	0.02190 0.90730 0.44760 0.08500
N 	N 	0.42160 0.88050 0.58600 -0.15000
O 	O 	0.68060 0.86200 0.70990 -0.53900
O 	O 	0.67960 0.70440 0.63330 -0.55900
O 	O 	0.28130 0.62450 0.45050 -0.45500
O 	O 	0.38980 0.53090 0.56300 -0.43600
O 	O 	0.88860 0.01330 0.18500 -0.46700
O 	O 	0.84900 0.88300 0.33940 -0.48900
Pr	Pr	0.25055 0.44004 0.47139 2.01800
C 	C 	0.35670 0.28390 0.84250 0.49500
C 	C 	0.45150 0.28340 0.87700 -0.21400
C 	C 	0.49440 0.37380 0.87890 0.11800
H 	H 	0.46300 0.43120 0.85470 0.01000
C 	C 	0.62320 0.29750 0.94480 0.09000
H 	H 	0.68190 0.30220 0.96910 0.00700
C 	C 	0.58640 0.20420 0.94220 -0.13800
C 	C 	0.49930 0.19720 0.90700 0.11700
H 	H 	0.47290 0.13610 0.90320 -0.00100
C 	C 	0.64230 0.11440 0.97820 0.32300
C 	C 	0.10070 0.45240 0.17100 0.31800
C 	C 	0.01870 0.45390 0.01100 -0.18900
H 	H 	0.03350 0.43250 0.88120 0.07200
H 	H 	0.97810 0.40730 0.05240 0.07600
N 	N 	0.57840 0.38050 0.91400 -0.15100
O 	O 	0.31940 0.36200 0.79010 -0.54200
O 	O 	0.32040 0.20440 0.86670 -0.56200
O 	O 	0.71870 0.12450 0.04950 -0.44900
O 	O 	0.61020 0.03090 0.93700 -0.43600
O 	O 	0.11140 0.51330 0.31500 -0.47800
O 	O 	0.15100 0.38300 0.16060 -0.48800
Pr	Pr	0.25055 0.05996 0.97139 2.01300
C 	C 	0.35670 0.21610 0.34250 0.49500
C 	C 	0.45150 0.21660 0.37700 -0.21200
C 	C 	0.49440 0.12620 0.37890 0.11800
H 	H 	0.46300 0.06880 0.35470 0.01100
C 	C 	0.62320 0.20250 0.44480 0.09100
H 	H 	0.68190 0.19780 0.46910 0.00700
C 	C 	0.58640 0.29580 0.44220 -0.13900
C 	C 	0.49930 0.30280 0.40700 0.11800
H 	H 	0.47290 0.36390 0.40320 0.00100
C 	C 	0.64230 0.38560 0.47820 0.32800
C 	C 	0.10070 0.04760 0.67100 0.30700
C 	C 	0.01870 0.04610 0.51100 -0.20300
H 	H 	0.03350 0.06750 0.38120 0.07800
H 	H 	0.97810 0.09270 0.55240 0.08500
N 	N 	0.57840 0.11950 0.41400 -0.15000
O 	O 	0.31940 0.13800 0.29010 -0.53900
O 	O 	0.32040 0.29560 0.36670 -0.55900
O 	O 	0.71870 0.37550 0.54950 -0.45500
O 	O 	0.61020 0.46910 0.43700 -0.43600
O 	O 	0.11140 0.98670 0.81500 -0.46700
O 	O 	0.15100 0.11700 0.66060 -0.48900
Pr	Pr	0.74945 0.55996 0.52861 2.01800
C 	C 	0.64330 0.71610 0.15750 0.49500
C 	C 	0.54850 0.71660 0.12300 -0.21400
C 	C 	0.50560 0.62620 0.12110 0.11800
H 	H 	0.53700 0.56880 0.14530 0.01000
C 	C 	0.37680 0.70250 0.05520 0.09000
H 	H 	0.31810 0.69780 0.03090 0.00700
C 	C 	0.41360 0.79580 0.05780 -0.13800
C 	C 	0.50070 0.80280 0.09300 0.11700
H 	H 	0.52710 0.86390 0.09680 -0.00100
C 	C 	0.35770 0.88560 0.02180 0.32300
C 	C 	0.89930 0.54760 0.82900 0.31800
C 	C 	0.98130 0.54610 0.98900 -0.18900
H 	H 	0.96650 0.56750 0.11880 0.07200
H 	H 	0.02190 0.59270 0.94760 0.07600
N 	N 	0.42160 0.61950 0.08600 -0.15100
O 	O 	0.68060 0.63800 0.20990 -0.54200
O 	O 	0.67960 0.79560 0.13330 -0.56200
O 	O 	0.28130 0.87550 0.95050 -0.44900
O 	O 	0.38980 0.96910 0.06300 -0.43600
O 	O 	0.88860 0.48670 0.68500 -0.47800
O 	O 	0.84900 0.61700 0.83940 -0.48800
