data_crystal

_cell_length_a 26.66900
_cell_length_b 26.66900
_cell_length_c 26.66900
_cell_angle_alpha 90.00000
_cell_angle_beta  90.00000
_cell_angle_gamma 90.00000

_symmetry_space_group_name_	'P 1'
_symmetry_space_group_name_H-M	'P 1'

loop_
_symmetry_equiv_pos_as_xyz
  x,y,z

loop_
_atom_site_label
_atom_site_type_symbol
_atom_site_fract_x
_atom_site_fract_y
_atom_site_fract_z
_atom_site_charge
O 	O 	0.18260 0.25730 0.05330 -0.46800
O 	O 	0.18260 0.75730 0.55330 -0.44700
O 	O 	0.68260 0.25730 0.55330 -0.44600
O 	O 	0.68260 0.75730 0.05330 -0.45900
O 	O 	0.81740 0.74270 0.05330 -0.45200
O 	O 	0.81740 0.24270 0.55330 -0.43900
O 	O 	0.31740 0.74270 0.55330 -0.44100
O 	O 	0.31740 0.24270 0.05330 -0.46200
O 	O 	0.81740 0.25730 0.94670 -0.40200
O 	O 	0.81740 0.75730 0.44670 -0.43600
O 	O 	0.31740 0.25730 0.44670 -0.44600
O 	O 	0.31740 0.75730 0.94670 -0.40500
O 	O 	0.18260 0.74270 0.94670 -0.40900
O 	O 	0.18260 0.24270 0.44670 -0.45000
O 	O 	0.68260 0.74270 0.44670 -0.44100
O 	O 	0.68260 0.24270 0.94670 -0.40700
O 	O 	0.05330 0.18260 0.25730 -0.46800
O 	O 	0.05330 0.68260 0.75730 -0.45900
O 	O 	0.55330 0.18260 0.75730 -0.44700
O 	O 	0.55330 0.68260 0.25730 -0.44600
O 	O 	0.05330 0.81740 0.74270 -0.45200
O 	O 	0.05330 0.31740 0.24270 -0.46200
O 	O 	0.55330 0.81740 0.24270 -0.43900
O 	O 	0.55330 0.31740 0.74270 -0.44100
O 	O 	0.94670 0.81740 0.25730 -0.40200
O 	O 	0.94670 0.31740 0.75730 -0.40500
O 	O 	0.44670 0.81740 0.75730 -0.43600
O 	O 	0.44670 0.31740 0.25730 -0.44600
O 	O 	0.94670 0.18260 0.74270 -0.40900
O 	O 	0.94670 0.68260 0.24270 -0.40700
O 	O 	0.44670 0.18260 0.24270 -0.45000
O 	O 	0.44670 0.68260 0.74270 -0.44100
O 	O 	0.25730 0.05330 0.18260 -0.46800
O 	O 	0.25730 0.55330 0.68260 -0.44600
O 	O 	0.75730 0.05330 0.68260 -0.45900
O 	O 	0.75730 0.55330 0.18260 -0.44700
O 	O 	0.74270 0.05330 0.81740 -0.45300
O 	O 	0.74270 0.55330 0.31740 -0.44200
O 	O 	0.24270 0.05330 0.31740 -0.46300
O 	O 	0.24270 0.55330 0.81740 -0.44000
O 	O 	0.25730 0.94670 0.81740 -0.40300
O 	O 	0.25730 0.44670 0.31740 -0.44700
O 	O 	0.75730 0.94670 0.31740 -0.40600
O 	O 	0.75730 0.44670 0.81740 -0.43700
O 	O 	0.74270 0.94670 0.18260 -0.41000
O 	O 	0.74270 0.44670 0.68260 -0.44200
O 	O 	0.24270 0.94670 0.68260 -0.40800
O 	O 	0.24270 0.44670 0.18260 -0.45100
O 	O 	0.25730 0.18260 0.94670 -0.41500
O 	O 	0.25730 0.68260 0.44670 -0.44700
O 	O 	0.75730 0.18260 0.44670 -0.44800
O 	O 	0.75730 0.68260 0.94670 -0.40600
O 	O 	0.74270 0.81740 0.94670 -0.39900
O 	O 	0.74270 0.31740 0.44670 -0.44200
O 	O 	0.24270 0.81740 0.44670 -0.44000
O 	O 	0.24270 0.31740 0.94670 -0.40900
O 	O 	0.25730 0.81740 0.05330 -0.45800
O 	O 	0.25730 0.31740 0.55330 -0.44700
O 	O 	0.75730 0.81740 0.55330 -0.43700
O 	O 	0.75730 0.31740 0.05330 -0.46100
O 	O 	0.74270 0.18260 0.05330 -0.46400
O 	O 	0.74270 0.68260 0.55330 -0.44200
O 	O 	0.24270 0.18260 0.55330 -0.45100
O 	O 	0.24270 0.68260 0.05330 -0.46300
O 	O 	0.18260 0.05330 0.74270 -0.46400
O 	O 	0.18260 0.55330 0.24270 -0.45100
O 	O 	0.68260 0.05330 0.24270 -0.46300
O 	O 	0.68260 0.55330 0.74270 -0.44200
O 	O 	0.81740 0.05330 0.25730 -0.45800
O 	O 	0.81740 0.55330 0.75730 -0.43700
O 	O 	0.31740 0.05330 0.75730 -0.46100
O 	O 	0.31740 0.55330 0.25730 -0.44700
O 	O 	0.81740 0.94670 0.74270 -0.39900
O 	O 	0.81740 0.44670 0.24270 -0.44000
O 	O 	0.31740 0.94670 0.24270 -0.40900
O 	O 	0.31740 0.44670 0.74270 -0.44200
O 	O 	0.18260 0.94670 0.25730 -0.41500
O 	O 	0.18260 0.44670 0.75730 -0.44800
O 	O 	0.68260 0.94670 0.75730 -0.40600
O 	O 	0.68260 0.44670 0.25730 -0.44700
O 	O 	0.05330 0.25730 0.81740 -0.45800
O 	O 	0.05330 0.75730 0.31740 -0.46100
O 	O 	0.55330 0.25730 0.31740 -0.44700
O 	O 	0.55330 0.75730 0.81740 -0.43700
O 	O 	0.05330 0.74270 0.18260 -0.46400
O 	O 	0.05330 0.24270 0.68260 -0.46300
O 	O 	0.55330 0.74270 0.68260 -0.44200
O 	O 	0.55330 0.24270 0.18260 -0.45100
O 	O 	0.94670 0.25730 0.18260 -0.41500
O 	O 	0.94670 0.75730 0.68260 -0.40600
O 	O 	0.44670 0.25730 0.68260 -0.44700
O 	O 	0.44670 0.75730 0.18260 -0.44800
O 	O 	0.94670 0.74270 0.81740 -0.39900
O 	O 	0.94670 0.24270 0.31740 -0.40900
O 	O 	0.44670 0.74270 0.31740 -0.44200
O 	O 	0.44670 0.24270 0.81740 -0.44000
O 	O 	0.81740 0.74270 0.94670 -0.39900
O 	O 	0.81740 0.24270 0.44670 -0.44000
O 	O 	0.31740 0.74270 0.44670 -0.44200
O 	O 	0.31740 0.24270 0.94670 -0.40900
O 	O 	0.18260 0.25730 0.94670 -0.41500
O 	O 	0.18260 0.75730 0.44670 -0.44800
O 	O 	0.68260 0.25730 0.44670 -0.44700
O 	O 	0.68260 0.75730 0.94670 -0.40600
O 	O 	0.18260 0.74270 0.05330 -0.46400
O 	O 	0.18260 0.24270 0.55330 -0.45100
O 	O 	0.68260 0.74270 0.55330 -0.44200
O 	O 	0.68260 0.24270 0.05330 -0.46300
O 	O 	0.81740 0.25730 0.05330 -0.45800
O 	O 	0.81740 0.75730 0.55330 -0.43700
O 	O 	0.31740 0.25730 0.55330 -0.44700
O 	O 	0.31740 0.75730 0.05330 -0.46100
O 	O 	0.94670 0.81740 0.74270 -0.39900
O 	O 	0.94670 0.31740 0.24270 -0.40900
O 	O 	0.44670 0.81740 0.24270 -0.44000
O 	O 	0.44670 0.31740 0.74270 -0.44200
O 	O 	0.94670 0.18260 0.25730 -0.41500
O 	O 	0.94670 0.68260 0.75730 -0.40600
O 	O 	0.44670 0.18260 0.75730 -0.44800
O 	O 	0.44670 0.68260 0.25730 -0.44700
O 	O 	0.05330 0.18260 0.74270 -0.46400
O 	O 	0.05330 0.68260 0.24270 -0.46300
O 	O 	0.55330 0.18260 0.24270 -0.45100
O 	O 	0.55330 0.68260 0.74270 -0.44200
O 	O 	0.05330 0.81740 0.25730 -0.45800
O 	O 	0.05330 0.31740 0.75730 -0.46100
O 	O 	0.55330 0.81740 0.75730 -0.43700
O 	O 	0.55330 0.31740 0.25730 -0.44700
O 	O 	0.74270 0.94670 0.81740 -0.39900
O 	O 	0.74270 0.44670 0.31740 -0.44200
O 	O 	0.24270 0.94670 0.31740 -0.40900
O 	O 	0.24270 0.44670 0.81740 -0.44000
O 	O 	0.25730 0.94670 0.18260 -0.41500
O 	O 	0.25730 0.44670 0.68260 -0.44700
O 	O 	0.75730 0.94670 0.68260 -0.40600
O 	O 	0.75730 0.44670 0.18260 -0.44800
O 	O 	0.74270 0.05330 0.18260 -0.46400
O 	O 	0.74270 0.55330 0.68260 -0.44200
O 	O 	0.24270 0.05330 0.68260 -0.46300
O 	O 	0.24270 0.55330 0.18260 -0.45100
O 	O 	0.25730 0.05330 0.81740 -0.45800
O 	O 	0.25730 0.55330 0.31740 -0.44700
O 	O 	0.75730 0.05330 0.31740 -0.46100
O 	O 	0.75730 0.55330 0.81740 -0.43700
O 	O 	0.74270 0.81740 0.05330 -0.45300
O 	O 	0.74270 0.31740 0.55330 -0.44200
O 	O 	0.24270 0.81740 0.55330 -0.44000
O 	O 	0.24270 0.31740 0.05330 -0.46300
O 	O 	0.25730 0.18260 0.05330 -0.46900
O 	O 	0.25730 0.68260 0.55330 -0.44700
O 	O 	0.75730 0.18260 0.55330 -0.44800
O 	O 	0.75730 0.68260 0.05330 -0.46000
O 	O 	0.74270 0.18260 0.94670 -0.41000
O 	O 	0.74270 0.68260 0.44670 -0.44200
O 	O 	0.24270 0.18260 0.44670 -0.45100
O 	O 	0.24270 0.68260 0.94670 -0.40800
O 	O 	0.25730 0.81740 0.94670 -0.40300
O 	O 	0.25730 0.31740 0.44670 -0.44700
O 	O 	0.75730 0.81740 0.44670 -0.43700
O 	O 	0.75730 0.31740 0.94670 -0.40600
O 	O 	0.81740 0.94670 0.25730 -0.40300
O 	O 	0.81740 0.44670 0.75730 -0.43700
O 	O 	0.31740 0.94670 0.75730 -0.40600
O 	O 	0.31740 0.44670 0.25730 -0.44700
O 	O 	0.18260 0.94670 0.74270 -0.41000
O 	O 	0.18260 0.44670 0.24270 -0.45100
O 	O 	0.68260 0.94670 0.24270 -0.40800
O 	O 	0.68260 0.44670 0.74270 -0.44200
O 	O 	0.18260 0.05330 0.25730 -0.46900
O 	O 	0.18260 0.55330 0.75730 -0.44800
O 	O 	0.68260 0.05330 0.75730 -0.46000
O 	O 	0.68260 0.55330 0.25730 -0.44700
O 	O 	0.81740 0.05330 0.74270 -0.45300
O 	O 	0.81740 0.55330 0.24270 -0.44000
O 	O 	0.31740 0.05330 0.24270 -0.46300
O 	O 	0.31740 0.55330 0.74270 -0.44200
O 	O 	0.94670 0.74270 0.18260 -0.41000
O 	O 	0.94670 0.24270 0.68260 -0.40800
O 	O 	0.44670 0.74270 0.68260 -0.44200
O 	O 	0.44670 0.24270 0.18260 -0.45100
O 	O 	0.94670 0.25730 0.81740 -0.40300
O 	O 	0.94670 0.75730 0.31740 -0.40600
O 	O 	0.44670 0.25730 0.31740 -0.44700
O 	O 	0.44670 0.75730 0.81740 -0.43700
O 	O 	0.05330 0.74270 0.81740 -0.45300
O 	O 	0.05330 0.24270 0.31740 -0.46300
O 	O 	0.55330 0.74270 0.31740 -0.44200
O 	O 	0.55330 0.24270 0.81740 -0.44000
O 	O 	0.05330 0.25730 0.18260 -0.46900
O 	O 	0.05330 0.75730 0.68260 -0.46000
O 	O 	0.55330 0.25730 0.68260 -0.44700
O 	O 	0.55330 0.75730 0.18260 -0.44800
C 	C 	0.20000 0.30000 0.06950 0.36900
C 	C 	0.17900 0.32100 0.11380 -0.18300
C 	C 	0.20000 0.80000 0.56950 0.37000
C 	C 	0.17900 0.82100 0.61380 -0.16600
C 	C 	0.80000 0.70000 0.06950 0.36700
C 	C 	0.82100 0.67900 0.11380 -0.16800
C 	C 	0.80000 0.20000 0.56950 0.37000
C 	C 	0.82100 0.17900 0.61380 -0.16600
C 	C 	0.30000 0.20000 0.06950 0.36900
C 	C 	0.32100 0.17900 0.11380 -0.18300
C 	C 	0.80000 0.30000 0.93050 0.36700
C 	C 	0.82100 0.32100 0.88620 -0.14900
C 	C 	0.80000 0.80000 0.43050 0.37000
C 	C 	0.82100 0.82100 0.38620 -0.15500
C 	C 	0.30000 0.30000 0.43050 0.37300
C 	C 	0.32100 0.32100 0.38620 -0.17200
C 	C 	0.20000 0.70000 0.93050 0.36600
C 	C 	0.17900 0.67900 0.88620 -0.15900
C 	C 	0.20000 0.20000 0.43050 0.37100
C 	C 	0.17900 0.17900 0.38620 -0.18000
C 	C 	0.06950 0.20000 0.30000 0.36900
C 	C 	0.11380 0.17900 0.32100 -0.18300
C 	C 	0.56950 0.20000 0.80000 0.37000
C 	C 	0.61380 0.17900 0.82100 -0.16600
C 	C 	0.06950 0.80000 0.70000 0.36700
C 	C 	0.11380 0.82100 0.67900 -0.16800
C 	C 	0.06950 0.30000 0.20000 0.36900
C 	C 	0.11380 0.32100 0.17900 -0.18300
C 	C 	0.56950 0.80000 0.20000 0.37000
C 	C 	0.61380 0.82100 0.17900 -0.16600
C 	C 	0.93050 0.80000 0.30000 0.36700
C 	C 	0.88620 0.82100 0.32100 -0.14900
C 	C 	0.43050 0.80000 0.80000 0.37000
C 	C 	0.38620 0.82100 0.82100 -0.15500
C 	C 	0.43050 0.30000 0.30000 0.37300
C 	C 	0.38620 0.32100 0.32100 -0.17200
C 	C 	0.93050 0.20000 0.70000 0.36600
C 	C 	0.88620 0.17900 0.67900 -0.15900
C 	C 	0.43050 0.20000 0.20000 0.37100
C 	C 	0.38620 0.17900 0.17900 -0.18000
C 	C 	0.30000 0.06950 0.20000 0.36900
C 	C 	0.32100 0.11380 0.17900 -0.18300
C 	C 	0.30000 0.56950 0.70000 0.37100
C 	C 	0.32100 0.61380 0.67900 -0.16800
C 	C 	0.70000 0.06950 0.80000 0.36700
C 	C 	0.67900 0.11380 0.82100 -0.16800
C 	C 	0.70000 0.56950 0.30000 0.37100
C 	C 	0.67900 0.61380 0.32100 -0.16800
C 	C 	0.20000 0.06950 0.30000 0.36900
C 	C 	0.17900 0.11380 0.32100 -0.18300
C 	C 	0.30000 0.93050 0.80000 0.36700
C 	C 	0.32100 0.88620 0.82100 -0.14900
C 	C 	0.30000 0.43050 0.30000 0.37300
C 	C 	0.32100 0.38620 0.32100 -0.17200
C 	C 	0.70000 0.93050 0.20000 0.36600
C 	C 	0.67900 0.88620 0.17900 -0.15900
C 	C 	0.70000 0.43050 0.70000 0.37000
C 	C 	0.67900 0.38620 0.67900 -0.16600
C 	C 	0.20000 0.43050 0.20000 0.37100
C 	C 	0.17900 0.38620 0.17900 -0.18000
C 	C 	0.30000 0.20000 0.93050 0.36700
C 	C 	0.32100 0.17900 0.88620 -0.16100
C 	C 	0.30000 0.70000 0.43050 0.37100
C 	C 	0.32100 0.67900 0.38620 -0.16900
C 	C 	0.70000 0.80000 0.93050 0.36500
C 	C 	0.67900 0.82100 0.88620 -0.14600
C 	C 	0.70000 0.30000 0.43050 0.37100
C 	C 	0.67900 0.32100 0.38620 -0.16900
C 	C 	0.20000 0.30000 0.93050 0.36700
C 	C 	0.17900 0.32100 0.88620 -0.16100
C 	C 	0.30000 0.80000 0.06950 0.36800
C 	C 	0.32100 0.82100 0.11380 -0.17100
C 	C 	0.30000 0.30000 0.56950 0.37200
C 	C 	0.32100 0.32100 0.61380 -0.17100
C 	C 	0.70000 0.20000 0.06950 0.36700
C 	C 	0.67900 0.17900 0.11380 -0.18000
C 	C 	0.70000 0.70000 0.56950 0.36900
C 	C 	0.67900 0.67900 0.61380 -0.16500
C 	C 	0.20000 0.20000 0.56950 0.37100
C 	C 	0.17900 0.17900 0.61380 -0.17800
C 	C 	0.20000 0.06950 0.70000 0.36700
C 	C 	0.17900 0.11380 0.67900 -0.18000
C 	C 	0.20000 0.56950 0.20000 0.37100
C 	C 	0.17900 0.61380 0.17900 -0.17800
C 	C 	0.80000 0.06950 0.30000 0.36800
C 	C 	0.82100 0.11380 0.32100 -0.17100
C 	C 	0.80000 0.56950 0.80000 0.36900
C 	C 	0.82100 0.61380 0.82100 -0.15300
C 	C 	0.30000 0.56950 0.30000 0.37200
C 	C 	0.32100 0.61380 0.32100 -0.17100
C 	C 	0.80000 0.93050 0.70000 0.36500
C 	C 	0.82100 0.88620 0.67900 -0.14600
C 	C 	0.80000 0.43050 0.20000 0.37100
C 	C 	0.82100 0.38620 0.17900 -0.16700
C 	C 	0.30000 0.93050 0.20000 0.36700
C 	C 	0.32100 0.88620 0.17900 -0.16100
C 	C 	0.20000 0.93050 0.30000 0.36700
C 	C 	0.17900 0.88620 0.32100 -0.16100
C 	C 	0.20000 0.43050 0.80000 0.37100
C 	C 	0.17900 0.38620 0.82100 -0.16700
C 	C 	0.06950 0.30000 0.80000 0.36800
C 	C 	0.11380 0.32100 0.82100 -0.17100
C 	C 	0.56950 0.30000 0.30000 0.37200
C 	C 	0.61380 0.32100 0.32100 -0.17100
C 	C 	0.06950 0.70000 0.20000 0.36700
C 	C 	0.11380 0.67900 0.17900 -0.18000
C 	C 	0.56950 0.70000 0.70000 0.36900
C 	C 	0.61380 0.67900 0.67900 -0.16500
C 	C 	0.56950 0.20000 0.20000 0.37100
C 	C 	0.61380 0.17900 0.17900 -0.17800
C 	C 	0.93050 0.30000 0.20000 0.36700
C 	C 	0.88620 0.32100 0.17900 -0.16100
C 	C 	0.43050 0.30000 0.70000 0.37100
C 	C 	0.38620 0.32100 0.67900 -0.16900
C 	C 	0.93050 0.70000 0.80000 0.36500
C 	C 	0.88620 0.67900 0.82100 -0.14600
C 	C 	0.93050 0.20000 0.30000 0.36700
C 	C 	0.88620 0.17900 0.32100 -0.16100
C 	C 	0.43050 0.70000 0.30000 0.37100
C 	C 	0.38620 0.67900 0.32100 -0.16900
C 	C 	0.80000 0.70000 0.93050 0.36500
C 	C 	0.82100 0.67900 0.88620 -0.14600
C 	C 	0.80000 0.20000 0.43050 0.37100
C 	C 	0.82100 0.17900 0.38620 -0.16700
C 	C 	0.20000 0.80000 0.43050 0.37100
C 	C 	0.17900 0.82100 0.38620 -0.16700
C 	C 	0.20000 0.70000 0.06950 0.36700
C 	C 	0.17900 0.67900 0.11380 -0.18000
C 	C 	0.80000 0.30000 0.06950 0.36800
C 	C 	0.82100 0.32100 0.11380 -0.17100
C 	C 	0.80000 0.80000 0.56950 0.36900
C 	C 	0.82100 0.82100 0.61380 -0.15300
C 	C 	0.93050 0.80000 0.70000 0.36500
C 	C 	0.88620 0.82100 0.67900 -0.14600
C 	C 	0.43050 0.80000 0.20000 0.37100
C 	C 	0.38620 0.82100 0.17900 -0.16700
C 	C 	0.43050 0.20000 0.80000 0.37100
C 	C 	0.38620 0.17900 0.82100 -0.16700
C 	C 	0.06950 0.20000 0.70000 0.36700
C 	C 	0.11380 0.17900 0.67900 -0.18000
C 	C 	0.06950 0.80000 0.30000 0.36800
C 	C 	0.11380 0.82100 0.32100 -0.17100
C 	C 	0.56950 0.80000 0.80000 0.36900
C 	C 	0.61380 0.82100 0.82100 -0.15300
C 	C 	0.70000 0.93050 0.80000 0.36500
C 	C 	0.67900 0.88620 0.82100 -0.14600
C 	C 	0.70000 0.43050 0.30000 0.37100
C 	C 	0.67900 0.38620 0.32100 -0.16900
C 	C 	0.30000 0.43050 0.70000 0.37100
C 	C 	0.32100 0.38620 0.67900 -0.16900
C 	C 	0.70000 0.06950 0.20000 0.36700
C 	C 	0.67900 0.11380 0.17900 -0.18000
C 	C 	0.70000 0.56950 0.70000 0.36900
C 	C 	0.67900 0.61380 0.67900 -0.16500
C 	C 	0.30000 0.06950 0.80000 0.36800
C 	C 	0.32100 0.11380 0.82100 -0.17100
C 	C 	0.70000 0.80000 0.06950 0.36700
C 	C 	0.67900 0.82100 0.11380 -0.16800
C 	C 	0.70000 0.30000 0.56950 0.37100
C 	C 	0.67900 0.32100 0.61380 -0.16800
C 	C 	0.30000 0.70000 0.56950 0.37100
C 	C 	0.32100 0.67900 0.61380 -0.16800
C 	C 	0.70000 0.20000 0.93050 0.36600
C 	C 	0.67900 0.17900 0.88620 -0.15900
C 	C 	0.70000 0.70000 0.43050 0.37000
C 	C 	0.67900 0.67900 0.38620 -0.16600
C 	C 	0.30000 0.80000 0.93050 0.36700
C 	C 	0.32100 0.82100 0.88620 -0.14900
C 	C 	0.80000 0.93050 0.30000 0.36700
C 	C 	0.82100 0.88620 0.32100 -0.14900
C 	C 	0.80000 0.43050 0.80000 0.37000
C 	C 	0.82100 0.38620 0.82100 -0.15500
C 	C 	0.20000 0.93050 0.70000 0.36600
C 	C 	0.17900 0.88620 0.67900 -0.15900
C 	C 	0.20000 0.56950 0.80000 0.37000
C 	C 	0.17900 0.61380 0.82100 -0.16600
C 	C 	0.80000 0.06950 0.70000 0.36700
C 	C 	0.82100 0.11380 0.67900 -0.16800
C 	C 	0.80000 0.56950 0.20000 0.37000
C 	C 	0.82100 0.61380 0.17900 -0.16600
C 	C 	0.93050 0.70000 0.20000 0.36600
C 	C 	0.88620 0.67900 0.17900 -0.15900
C 	C 	0.43050 0.70000 0.70000 0.37000
C 	C 	0.38620 0.67900 0.67900 -0.16600
C 	C 	0.93050 0.30000 0.80000 0.36700
C 	C 	0.88620 0.32100 0.82100 -0.14900
C 	C 	0.06950 0.70000 0.80000 0.36700
C 	C 	0.11380 0.67900 0.82100 -0.16800
C 	C 	0.56950 0.70000 0.30000 0.37100
C 	C 	0.61380 0.67900 0.32100 -0.16800
C 	C 	0.56950 0.30000 0.70000 0.37100
C 	C 	0.61380 0.32100 0.67900 -0.16800
Fe	Fe	0.21063 0.21063 -0.00000 1.09400
Fe	Fe	0.21063 0.71063 0.50000 1.13700
Fe	Fe	0.71063 0.21063 0.50000 1.13700
Fe	Fe	0.71063 0.71063 -0.00000 1.09900
Fe	Fe	0.78937 0.78937 -0.00000 1.10600
Fe	Fe	0.78937 0.28937 0.50000 1.14300
Fe	Fe	0.28937 0.78937 0.50000 1.14300
Fe	Fe	0.28937 0.28937 -0.00000 1.09900
Fe	Fe	0.78937 0.21063 -0.00000 1.10000
Fe	Fe	0.78937 0.71063 0.50000 1.14400
Fe	Fe	0.28937 0.21063 0.50000 1.13700
Fe	Fe	0.28937 0.71063 -0.00000 1.09900
Fe	Fe	0.21063 0.78937 -0.00000 1.10000
Fe	Fe	0.21063 0.28937 0.50000 1.13700
Fe	Fe	0.71063 0.78937 0.50000 1.14400
Fe	Fe	0.71063 0.28937 -0.00000 1.09900
Fe	Fe	0.00000 0.21063 0.21063 1.09400
Fe	Fe	0.00000 0.71063 0.71063 1.09900
Fe	Fe	0.50000 0.21063 0.71063 1.13700
Fe	Fe	0.50000 0.71063 0.21063 1.13700
Fe	Fe	0.00000 0.78937 0.78937 1.10600
Fe	Fe	0.00000 0.28937 0.28937 1.09900
Fe	Fe	0.50000 0.78937 0.28937 1.14300
Fe	Fe	0.50000 0.28937 0.78937 1.14300
Fe	Fe	0.00000 0.78937 0.21063 1.10000
Fe	Fe	0.00000 0.28937 0.71063 1.09900
Fe	Fe	0.50000 0.78937 0.71063 1.14400
Fe	Fe	0.50000 0.28937 0.21063 1.13700
Fe	Fe	0.00000 0.21063 0.78937 1.10000
Fe	Fe	0.00000 0.71063 0.28937 1.09900
Fe	Fe	0.50000 0.21063 0.28937 1.13700
Fe	Fe	0.50000 0.71063 0.78937 1.14400
Fe	Fe	0.21063 0.00000 0.21063 1.09400
Fe	Fe	0.21063 0.50000 0.71063 1.13700
Fe	Fe	0.71063 0.00000 0.71063 1.09900
Fe	Fe	0.71063 0.50000 0.21063 1.13700
Fe	Fe	0.78937 0.00000 0.78937 1.10600
Fe	Fe	0.78937 0.50000 0.28937 1.14300
Fe	Fe	0.28937 0.00000 0.28937 1.09900
Fe	Fe	0.28937 0.50000 0.78937 1.14300
Fe	Fe	0.21063 0.00000 0.78937 1.10000
Fe	Fe	0.21063 0.50000 0.28937 1.13700
Fe	Fe	0.71063 0.00000 0.28937 1.09900
Fe	Fe	0.71063 0.50000 0.78937 1.14400
Fe	Fe	0.78937 0.00000 0.21063 1.10000
Fe	Fe	0.78937 0.50000 0.71063 1.14400
Fe	Fe	0.28937 0.00000 0.71063 1.09900
Fe	Fe	0.28937 0.50000 0.21063 1.13700
C 	C 	0.19750 0.36580 0.13420 0.10500
H 	H 	0.22300 0.38250 0.11750 0.00500
C 	C 	0.69750 0.36580 0.63420 0.10000
H 	H 	0.72300 0.38250 0.61750 0.01700
C 	C 	0.80250 0.63420 0.13420 0.09900
H 	H 	0.77700 0.61750 0.11750 0.01000
C 	C 	0.30250 0.63420 0.63420 0.10100
H 	H 	0.27700 0.61750 0.61750 0.01300
C 	C 	0.30250 0.13420 0.13420 0.10600
H 	H 	0.27700 0.11750 0.11750 -0.00300
C 	C 	0.80250 0.36580 0.86580 0.09400
H 	H 	0.77700 0.38250 0.88250 0.02700
C 	C 	0.30250 0.36580 0.36580 0.10400
H 	H 	0.27700 0.38250 0.38250 0.01200
C 	C 	0.19750 0.63420 0.86580 0.09700
H 	H 	0.22300 0.61750 0.88250 0.02300
C 	C 	0.19750 0.13420 0.36580 0.10500
H 	H 	0.22300 0.11750 0.38250 0.00500
C 	C 	0.69750 0.63420 0.36580 0.10000
H 	H 	0.72300 0.61750 0.38250 0.01700
C 	C 	0.13420 0.19750 0.36580 0.10500
H 	H 	0.11750 0.22300 0.38250 0.00500
C 	C 	0.13420 0.69750 0.86580 0.09700
H 	H 	0.11750 0.72300 0.88250 0.01900
C 	C 	0.13420 0.80250 0.63420 0.09900
H 	H 	0.11750 0.77700 0.61750 0.01000
C 	C 	0.13420 0.30250 0.13420 0.10600
H 	H 	0.11750 0.27700 0.11750 -0.00300
C 	C 	0.86580 0.80250 0.36580 0.09400
H 	H 	0.88250 0.77700 0.38250 0.02700
C 	C 	0.86580 0.30250 0.86580 0.09300
H 	H 	0.88250 0.27700 0.88250 0.03300
C 	C 	0.36580 0.30250 0.36580 0.10400
H 	H 	0.38250 0.27700 0.38250 0.01200
C 	C 	0.86580 0.19750 0.63420 0.09700
H 	H 	0.88250 0.22300 0.61750 0.02300
C 	C 	0.86580 0.69750 0.13420 0.09700
H 	H 	0.88250 0.72300 0.11750 0.01900
C 	C 	0.36580 0.19750 0.13420 0.10500
H 	H 	0.38250 0.22300 0.11750 0.00500
C 	C 	0.36580 0.13420 0.19750 0.10500
H 	H 	0.38250 0.11750 0.22300 0.00500
C 	C 	0.36580 0.63420 0.69750 0.10000
H 	H 	0.38250 0.61750 0.72300 0.01700
C 	C 	0.63420 0.13420 0.80250 0.09900
H 	H 	0.61750 0.11750 0.77700 0.01000
C 	C 	0.63420 0.63420 0.30250 0.10100
H 	H 	0.61750 0.61750 0.27700 0.01300
C 	C 	0.13420 0.13420 0.30250 0.10600
H 	H 	0.11750 0.11750 0.27700 -0.00300
C 	C 	0.36580 0.86580 0.80250 0.09400
H 	H 	0.38250 0.88250 0.77700 0.02700
C 	C 	0.36580 0.36580 0.30250 0.10400
H 	H 	0.38250 0.38250 0.27700 0.01200
C 	C 	0.63420 0.86580 0.19750 0.09700
H 	H 	0.61750 0.88250 0.22300 0.02300
C 	C 	0.63420 0.36580 0.69750 0.10000
H 	H 	0.61750 0.38250 0.72300 0.01700
C 	C 	0.13420 0.36580 0.19750 0.10500
H 	H 	0.11750 0.38250 0.22300 0.00500
C 	C 	0.36580 0.19750 0.86580 0.09800
H 	H 	0.38250 0.22300 0.88250 0.02300
C 	C 	0.36580 0.69750 0.36580 0.10200
H 	H 	0.38250 0.72300 0.38250 0.01700
C 	C 	0.63420 0.80250 0.86580 0.09300
H 	H 	0.61750 0.77700 0.88250 0.02800
C 	C 	0.63420 0.30250 0.36580 0.10200
H 	H 	0.61750 0.27700 0.38250 0.01300
C 	C 	0.13420 0.80250 0.36580 0.10100
H 	H 	0.11750 0.77700 0.38250 0.00900
C 	C 	0.36580 0.80250 0.13420 0.10100
H 	H 	0.38250 0.77700 0.11750 0.00900
C 	C 	0.36580 0.30250 0.63420 0.10200
H 	H 	0.38250 0.27700 0.61750 0.01300
C 	C 	0.63420 0.19750 0.13420 0.10300
H 	H 	0.61750 0.22300 0.11750 0.00500
C 	C 	0.63420 0.69750 0.63420 0.09800
H 	H 	0.61750 0.72300 0.61750 0.01800
C 	C 	0.13420 0.69750 0.13420 0.10400
H 	H 	0.11750 0.72300 0.11750 0.00200
C 	C 	0.19750 0.13420 0.63420 0.10300
H 	H 	0.22300 0.11750 0.61750 0.00500
C 	C 	0.69750 0.13420 0.13420 0.10400
H 	H 	0.72300 0.11750 0.11750 0.00200
C 	C 	0.80250 0.13420 0.36580 0.10100
H 	H 	0.77700 0.11750 0.38250 0.00900
C 	C 	0.30250 0.13420 0.86580 0.09900
H 	H 	0.27700 0.11750 0.88250 0.01500
C 	C 	0.80250 0.86580 0.63420 0.09300
H 	H 	0.77700 0.88250 0.61750 0.02800
C 	C 	0.80250 0.36580 0.13420 0.10100
H 	H 	0.77700 0.38250 0.11750 0.00900
C 	C 	0.30250 0.86580 0.13420 0.09900
H 	H 	0.27700 0.88250 0.11750 0.01500
C 	C 	0.19750 0.86580 0.36580 0.09800
H 	H 	0.22300 0.88250 0.38250 0.02300
C 	C 	0.69750 0.86580 0.86580 0.09000
H 	H 	0.72300 0.88250 0.88250 0.03700
C 	C 	0.69750 0.36580 0.36580 0.10200
H 	H 	0.72300 0.38250 0.38250 0.01700
C 	C 	0.13420 0.36580 0.80250 0.10100
H 	H 	0.11750 0.38250 0.77700 0.00900
C 	C 	0.13420 0.86580 0.30250 0.09900
H 	H 	0.11750 0.88250 0.27700 0.01500
C 	C 	0.13420 0.63420 0.19750 0.10300
H 	H 	0.11750 0.61750 0.22300 0.00500
C 	C 	0.13420 0.13420 0.69750 0.10400
H 	H 	0.11750 0.11750 0.72300 0.00200
C 	C 	0.86580 0.36580 0.19750 0.09800
H 	H 	0.88250 0.38250 0.22300 0.02300
C 	C 	0.86580 0.86580 0.69750 0.09000
H 	H 	0.88250 0.88250 0.72300 0.03700
C 	C 	0.36580 0.36580 0.69750 0.10200
H 	H 	0.38250 0.38250 0.72300 0.01700
C 	C 	0.86580 0.63420 0.80250 0.09300
H 	H 	0.88250 0.61750 0.77700 0.02800
C 	C 	0.86580 0.13420 0.30250 0.09900
H 	H 	0.88250 0.11750 0.27700 0.01500
C 	C 	0.36580 0.13420 0.80250 0.10100
H 	H 	0.38250 0.11750 0.77700 0.00900
C 	C 	0.80250 0.63420 0.86580 0.09300
H 	H 	0.77700 0.61750 0.88250 0.02800
C 	C 	0.30250 0.63420 0.36580 0.10200
H 	H 	0.27700 0.61750 0.38250 0.01300
C 	C 	0.19750 0.36580 0.86580 0.09800
H 	H 	0.22300 0.38250 0.88250 0.02300
C 	C 	0.19750 0.63420 0.13420 0.10300
H 	H 	0.22300 0.61750 0.11750 0.00500
C 	C 	0.69750 0.63420 0.63420 0.09800
H 	H 	0.72300 0.61750 0.61750 0.01800
C 	C 	0.30250 0.36580 0.63420 0.10200
H 	H 	0.27700 0.38250 0.61750 0.01300
C 	C 	0.86580 0.80250 0.63420 0.09300
H 	H 	0.88250 0.77700 0.61750 0.02800
C 	C 	0.86580 0.30250 0.13420 0.09900
H 	H 	0.88250 0.27700 0.11750 0.01500
C 	C 	0.86580 0.19750 0.36580 0.09800
H 	H 	0.88250 0.22300 0.38250 0.02300
C 	C 	0.86580 0.69750 0.86580 0.09000
H 	H 	0.88250 0.72300 0.88250 0.03700
C 	C 	0.13420 0.19750 0.63420 0.10300
H 	H 	0.11750 0.22300 0.61750 0.00500
C 	C 	0.13420 0.30250 0.86580 0.09900
H 	H 	0.11750 0.27700 0.88250 0.01500
C 	C 	0.63420 0.86580 0.80250 0.09300
H 	H 	0.61750 0.88250 0.77700 0.02800
C 	C 	0.63420 0.36580 0.30250 0.10200
H 	H 	0.61750 0.38250 0.27700 0.01300
C 	C 	0.36580 0.86580 0.19750 0.09800
H 	H 	0.38250 0.88250 0.22300 0.02300
C 	C 	0.63420 0.13420 0.19750 0.10300
H 	H 	0.61750 0.11750 0.22300 0.00500
C 	C 	0.63420 0.63420 0.69750 0.09800
H 	H 	0.61750 0.61750 0.72300 0.01800
C 	C 	0.36580 0.63420 0.30250 0.10200
H 	H 	0.38250 0.61750 0.27700 0.01300
C 	C 	0.63420 0.80250 0.13420 0.09900
H 	H 	0.61750 0.77700 0.11750 0.01000
C 	C 	0.63420 0.30250 0.63420 0.10100
H 	H 	0.61750 0.27700 0.61750 0.01300
C 	C 	0.36580 0.69750 0.63420 0.10000
H 	H 	0.38250 0.72300 0.61750 0.01700
C 	C 	0.63420 0.19750 0.86580 0.09700
H 	H 	0.61750 0.22300 0.88250 0.02300
C 	C 	0.63420 0.69750 0.36580 0.10000
H 	H 	0.61750 0.72300 0.38250 0.01700
C 	C 	0.36580 0.80250 0.86580 0.09400
H 	H 	0.38250 0.77700 0.88250 0.02700
C 	C 	0.80250 0.86580 0.36580 0.09400
H 	H 	0.77700 0.88250 0.38250 0.02700
C 	C 	0.30250 0.86580 0.86580 0.09300
H 	H 	0.27700 0.88250 0.88250 0.03300
C 	C 	0.19750 0.86580 0.63420 0.09700
H 	H 	0.22300 0.88250 0.61750 0.02300
C 	C 	0.69750 0.86580 0.13420 0.09700
H 	H 	0.72300 0.88250 0.11750 0.01900
C 	C 	0.69750 0.13420 0.86580 0.09700
H 	H 	0.72300 0.11750 0.88250 0.01900
C 	C 	0.80250 0.13420 0.63420 0.09900
H 	H 	0.77700 0.11750 0.61750 0.01000
C 	C 	0.86580 0.63420 0.19750 0.09700
H 	H 	0.88250 0.61750 0.22300 0.02300
C 	C 	0.86580 0.13420 0.69750 0.09700
H 	H 	0.88250 0.11750 0.72300 0.01900
C 	C 	0.86580 0.36580 0.80250 0.09400
H 	H 	0.88250 0.38250 0.77700 0.02700
C 	C 	0.86580 0.86580 0.30250 0.09300
H 	H 	0.88250 0.88250 0.27700 0.03300
C 	C 	0.13420 0.63420 0.80250 0.09900
H 	H 	0.11750 0.61750 0.77700 0.01000
C 	C 	0.13420 0.86580 0.69750 0.09700
H 	H 	0.11750 0.88250 0.72300 0.01900
