data_crystal

_cell_length_a 30.57300
_cell_length_b 30.57300
_cell_length_c 13.52100
_cell_angle_alpha 90.00000
_cell_angle_beta  90.00000
_cell_angle_gamma 120.00000

_symmetry_space_group_name_	'P 1'
_symmetry_space_group_name_H-M	'P 1'

loop_
_symmetry_equiv_pos_as_xyz
  x,y,z

loop_
_atom_site_label
_atom_site_type_symbol
_atom_site_fract_x
_atom_site_fract_y
_atom_site_fract_z
_atom_site_charge
La	La	0.60716 0.07390 0.41988 1.68400
La	La	0.52876 0.04816 0.68654 1.63300
La	La	0.58981 0.04951 0.95333 1.70300
P 	P 	0.65110 0.09907 0.69277 0.42900
O 	O 	0.62060 0.09440 0.59930 -0.46000
O 	O 	0.61263 0.08336 0.77760 -0.47100
O 	O 	0.67840 0.06990 0.68970 -0.22200
N 	N 	0.79300 0.32130 0.66800 -0.15900
N 	N 	0.85860 0.39760 0.65940 -0.17400
N 	N 	0.81810 0.39810 0.61280 -0.10800
C 	C 	0.69640 0.16530 0.70440 -0.11200
C 	C 	0.74780 0.18420 0.68550 0.05400
H 	H 	0.76020 0.16150 0.67780 0.03100
C 	C 	0.78100 0.23590 0.67790 -0.15400
H 	H 	0.81600 0.24870 0.66650 0.09300
C 	C 	0.76180 0.26810 0.68710 0.14400
C 	C 	0.71100 0.25060 0.71130 -0.15100
H 	H 	0.69890 0.27350 0.72100 0.08500
C 	C 	0.67910 0.19880 0.72040 0.05700
H 	H 	0.64480 0.18610 0.73790 0.01400
C 	C 	0.84280 0.35140 0.69020 0.10300
H 	H 	0.86320 0.34050 0.72310 0.00500
C 	C 	0.78060 0.35270 0.62030 0.10200
H 	H 	0.74780 0.34230 0.59520 0.00500
P 	P 	0.47407 0.04680 0.48163 0.42800
O 	O 	0.44989 0.02048 0.58020 -0.48100
O 	O 	0.45131 0.01098 0.39590 -0.42300
O 	O 	0.53092 0.06881 0.49550 -0.48900
N 	N 	0.42670 0.21517 0.43650 -0.15900
N 	N 	0.43430 0.29010 0.43050 -0.14800
N 	N 	0.38420 0.25480 0.41590 -0.07800
C 	C 	0.46030 0.09750 0.46720 -0.10600
C 	C 	0.49690 0.14530 0.43440 0.05700
H 	H 	0.52970 0.15120 0.41910 0.03000
C 	C 	0.48650 0.18450 0.42350 -0.15600
H 	H 	0.51170 0.21680 0.40130 0.09700
C 	C 	0.43840 0.17510 0.44590 0.14900
C 	C 	0.40180 0.12790 0.47970 -0.16100
H 	H 	0.36910 0.12210 0.49610 0.09700
C 	C 	0.41260 0.08980 0.48920 0.06200
H 	H 	0.38710 0.05760 0.51140 0.03700
C 	C 	0.45830 0.26550 0.44380 0.12200
H 	H 	0.49340 0.28100 0.45700 0.00400
C 	C 	0.38060 0.21100 0.41890 0.10900
H 	H 	0.35010 0.17990 0.41010 0.01500
P 	P 	0.48392 0.07184 0.89937 0.44300
O 	O 	0.46610 0.05625 0.79250 -0.37500
O 	O 	0.53960 0.08810 0.89990 -0.42800
O 	O 	0.45240 0.03267 0.97280 -0.41400
N 	N 	0.46760 0.25850 0.95020 -0.15800
N 	N 	0.44090 0.31140 0.94690 -0.16700
C 	C 	0.48580 0.13180 0.92600 -0.07700
C 	C 	0.53530 0.17840 0.92440 0.13700
H 	H 	0.56550 0.17700 0.91740 -0.18700
C 	C 	0.53680 0.22360 0.93310 -0.11000
H 	H 	0.56800 0.25450 0.93130 0.03200
C 	C 	0.48940 0.22280 0.94530 0.17500
C 	C 	0.44290 0.17900 0.94580 -0.14500
H 	H 	0.41180 0.17850 0.95270 0.13800
C 	C 	0.44640 0.13770 0.93590 0.11900
H 	H 	0.41490 0.10710 0.93580 -0.17500
C 	C 	0.42460 0.26070 0.93070 0.09700
H 	H 	0.39220 0.23440 0.91120 0.02700
C 	C 	0.50140 0.30360 0.97310 0.17800
H 	H 	0.53480 0.31210 0.99090 -0.06800
N 	N 	0.48600 0.33840 0.97010 -0.15500
P 	P 	0.52645 0.05426 0.18587 0.52500
O 	O 	0.54320 0.04663 0.28780 -0.46800
O 	O 	0.47887 0.00505 0.16230 -0.52500
O 	O 	0.56370 0.07590 0.11080 -0.22300
N 	N 	0.43540 0.19360 0.18240 -0.08700
N 	N 	0.38190 0.21990 0.16360 -0.06700
N 	N 	0.42840 0.25970 0.18480 -0.05900
C 	C 	0.49970 0.09990 0.19330 0.08600
C 	C 	0.44910 0.08060 0.21300 -0.42000
H 	H 	0.42850 0.04560 0.22700 0.08100
C 	C 	0.42780 0.11150 0.21270 -0.45000
H 	H 	0.39340 0.09830 0.23010 0.19800
C 	C 	0.45710 0.16130 0.18690 -0.37700
C 	C 	0.51260 0.18320 0.17540 0.18200
H 	H 	0.53500 0.21850 0.17050 0.05600
C 	C 	0.52950 0.14940 0.17230 -0.00100
H 	H 	0.56370 0.16130 0.15470 0.01100
C 	C 	0.38510 0.17740 0.16530 0.06100
H 	H 	0.35850 0.14360 0.15660 0.03300
C 	C 	0.46120 0.24080 0.19320 0.22200
O 	O 	0.65550 0.05860 0.08950 -0.12600
O 	O 	0.64940 0.02320 0.87930 -0.21800
O 	O 	0.64070 0.12740 0.25540 -0.12900
O 	O 	0.66040 0.03710 0.49080 -0.16200
O 	O 	0.62140 0.16470 0.44150 0.03600
N 	N 	0.50000 0.27410 0.95780 -0.16500
N 	N 	0.52880 0.35810 0.98330 -0.10700
C 	C 	0.47840 0.12690 0.92100 0.01700
C 	C 	0.51790 0.17320 0.92350 -0.23100
H 	H 	0.55050 0.17680 0.91800 0.23100
C 	C 	0.51490 0.21910 0.93450 -0.02900
H 	H 	0.54290 0.25240 0.93850 0.06800
C 	C 	0.46390 0.20600 0.93810 0.01800
C 	C 	0.42150 0.16210 0.93560 -0.06700
H 	H 	0.38880 0.15870 0.93750 -0.00400
C 	C 	0.43040 0.11830 0.92930 0.10300
H 	H 	0.40280 0.08470 0.93130 0.13300
C 	C 	0.46350 0.28980 0.95100 0.21300
H 	H 	0.42870 0.26870 0.93540 -0.06400
C 	C 	0.54080 0.31760 0.98120 0.09700
H 	H 	0.57320 0.32170 0.99450 0.01400
N 	N 	0.50040 0.23170 0.19650 -0.13000
N 	N 	0.47670 0.28760 0.21890 -0.06900
N 	N 	0.52760 0.31000 0.23990 -0.07400
C 	C 	0.52680 0.10540 0.18500 -0.30800
C 	C 	0.48380 0.10020 0.19800 0.13500
H 	H 	0.45600 0.06720 0.20830 0.24200
C 	C 	0.47460 0.14600 0.19900 0.13700
H 	H 	0.44230 0.13860 0.22220 0.45400
C 	C 	0.49930 0.18490 0.17700 -0.06700
C 	C 	0.56150 0.19800 0.17680 -0.23900
H 	H 	0.58900 0.23160 0.18120 0.11500
C 	C 	0.56960 0.15500 0.16980 0.13700
H 	H 	0.60200 0.15950 0.15570 0.02800
C 	C 	0.54110 0.27600 0.22590 0.07000
H 	H 	0.57420 0.28140 0.23490 0.00900
O 	O 	0.57670 0.06320 0.11510 -0.17900
O 	O 	0.65370 0.09320 0.25630 -0.16900
O 	O 	0.66980 0.03490 0.42520 -0.11500
O 	O 	0.62160 0.16110 0.39940 -0.29600
O 	O 	0.63500 0.00340 0.84470 -0.02400
O 	O 	0.65600 0.03200 0.06430 -0.10100
La	La	0.92610 0.53326 0.41988 1.68500
La	La	0.95184 0.48061 0.68654 1.63400
La	La	0.95049 0.54030 0.95333 1.70500
P 	P 	0.90093 0.55203 0.69277 0.43000
O 	O 	0.90560 0.52620 0.59930 -0.45900
O 	O 	0.91664 0.52927 0.77760 -0.47000
O 	O 	0.93010 0.60850 0.68970 -0.22100
N 	N 	0.67870 0.47170 0.66800 -0.15800
N 	N 	0.60240 0.46100 0.65940 -0.17300
N 	N 	0.60190 0.42000 0.61280 -0.10700
C 	C 	0.83470 0.53110 0.70440 -0.11100
C 	C 	0.81580 0.56360 0.68550 0.05500
H 	H 	0.83850 0.59870 0.67780 0.03200
C 	C 	0.76410 0.54510 0.67790 -0.15300
H 	H 	0.75130 0.56730 0.66650 0.09300
C 	C 	0.73190 0.49370 0.68710 0.14400
C 	C 	0.74940 0.46040 0.71130 -0.15100
H 	H 	0.72650 0.42540 0.72100 0.08500
C 	C 	0.80120 0.48030 0.72040 0.05700
H 	H 	0.81390 0.45870 0.73790 0.01400
C 	C 	0.64860 0.49140 0.69020 0.10300
H 	H 	0.65950 0.52270 0.72310 0.00500
C 	C 	0.64730 0.42790 0.62030 0.10200
H 	H 	0.65770 0.40550 0.59520 0.00500
P 	P 	0.95320 0.42727 0.48163 0.42800
O 	O 	0.97952 0.42941 0.58020 -0.48100
O 	O 	0.98902 0.44033 0.39590 -0.42300
O 	O 	0.93119 0.46211 0.49550 -0.48900
N 	N 	0.78483 0.21153 0.43650 -0.15900
N 	N 	0.70990 0.14420 0.43050 -0.14800
N 	N 	0.74520 0.12940 0.41590 -0.07800
C 	C 	0.90250 0.36280 0.46720 -0.10600
C 	C 	0.85470 0.35160 0.43440 0.05700
H 	H 	0.84880 0.37850 0.41910 0.03000
C 	C 	0.81550 0.30200 0.42350 -0.15600
H 	H 	0.78320 0.29490 0.40130 0.09700
C 	C 	0.82490 0.26330 0.44590 0.14900
C 	C 	0.87210 0.27390 0.47970 -0.16100
H 	H 	0.87790 0.24700 0.49610 0.09700
C 	C 	0.91020 0.32280 0.48920 0.06200
H 	H 	0.94240 0.32950 0.51140 0.03700
C 	C 	0.73450 0.19280 0.44380 0.12200
H 	H 	0.71900 0.21240 0.45700 0.00400
C 	C 	0.78900 0.16960 0.41890 0.10900
H 	H 	0.82010 0.17020 0.41010 0.01500
P 	P 	0.92816 0.41208 0.89937 0.44300
O 	O 	0.94375 0.40985 0.79250 -0.37500
O 	O 	0.91190 0.45150 0.89990 -0.42800
O 	O 	0.96733 0.41973 0.97280 -0.41400
N 	N 	0.74150 0.20910 0.95020 -0.15800
N 	N 	0.68860 0.12950 0.94690 -0.16700
C 	C 	0.86820 0.35400 0.92600 -0.07700
C 	C 	0.82160 0.35690 0.92440 0.13700
H 	H 	0.82300 0.38850 0.91740 -0.18700
C 	C 	0.77640 0.31320 0.93310 -0.11000
H 	H 	0.74550 0.31350 0.93130 0.03200
C 	C 	0.77720 0.26660 0.94530 0.17400
C 	C 	0.82100 0.26390 0.94580 -0.14500
H 	H 	0.82150 0.23330 0.95270 0.13800
C 	C 	0.86230 0.30870 0.93590 0.11900
H 	H 	0.89290 0.30780 0.93580 -0.17500
C 	C 	0.73930 0.16390 0.93070 0.09800
H 	H 	0.76560 0.15780 0.91120 0.02700
C 	C 	0.69640 0.19780 0.97310 0.17900
H 	H 	0.68790 0.22270 0.99090 -0.06800
N 	N 	0.66160 0.14760 0.97010 -0.15500
P 	P 	0.94574 0.47219 0.18587 0.52500
O 	O 	0.95337 0.49657 0.28780 -0.46800
O 	O 	0.99495 0.47382 0.16230 -0.52500
O 	O 	0.92410 0.48780 0.11080 -0.22300
N 	N 	0.80640 0.24180 0.18240 -0.08700
N 	N 	0.78010 0.16200 0.16360 -0.06700
N 	N 	0.74030 0.16870 0.18480 -0.05900
C 	C 	0.90010 0.39980 0.19330 0.08600
C 	C 	0.91940 0.36850 0.21300 -0.41900
H 	H 	0.95440 0.38290 0.22700 0.08100
C 	C 	0.88850 0.31630 0.21270 -0.44900
H 	H 	0.90170 0.29510 0.23010 0.19800
C 	C 	0.83870 0.29580 0.18690 -0.37500
C 	C 	0.81680 0.32940 0.17540 0.18100
H 	H 	0.78150 0.31650 0.17050 0.05600
C 	C 	0.85060 0.38010 0.17230 -0.00100
H 	H 	0.83870 0.40240 0.15470 0.01100
C 	C 	0.82260 0.20770 0.16530 0.06200
H 	H 	0.85640 0.21490 0.15660 0.03300
C 	C 	0.75920 0.22040 0.19320 0.22200
O 	O 	0.94140 0.59690 0.08950 -0.12600
O 	O 	0.97680 0.62620 0.87930 -0.21700
O 	O 	0.87260 0.51330 0.25540 -0.12900
O 	O 	0.96290 0.62330 0.49080 -0.16200
O 	O 	0.83530 0.45670 0.44150 0.03600
N 	N 	0.72590 0.22590 0.95780 -0.16500
N 	N 	0.64190 0.17070 0.98330 -0.10700
C 	C 	0.87310 0.35150 0.92100 0.01700
C 	C 	0.82680 0.34470 0.92350 -0.23000
H 	H 	0.82320 0.37370 0.91800 0.23100
C 	C 	0.78090 0.29580 0.93450 -0.02900
H 	H 	0.74760 0.29050 0.93850 0.06800
C 	C 	0.79400 0.25790 0.93810 0.01800
C 	C 	0.83790 0.25940 0.93560 -0.06700
H 	H 	0.84130 0.23010 0.93750 -0.00400
C 	C 	0.88170 0.31210 0.92930 0.10300
H 	H 	0.91530 0.31810 0.93130 0.13300
C 	C 	0.71020 0.17370 0.95100 0.21300
H 	H 	0.73130 0.16000 0.93540 -0.06400
C 	C 	0.68240 0.22320 0.98120 0.09700
H 	H 	0.67830 0.25150 0.99450 0.01400
N 	N 	0.76830 0.26870 0.19650 -0.13000
N 	N 	0.71240 0.18910 0.21890 -0.06900
N 	N 	0.69000 0.21760 0.23990 -0.07400
C 	C 	0.89460 0.42140 0.18500 -0.30800
C 	C 	0.89980 0.38360 0.19800 0.13500
H 	H 	0.93280 0.38880 0.20830 0.24100
C 	C 	0.85400 0.32860 0.19900 0.13600
H 	H 	0.86140 0.30370 0.22220 0.45300
C 	C 	0.81510 0.31440 0.17700 -0.06700
C 	C 	0.80200 0.36350 0.17680 -0.23900
H 	H 	0.76840 0.35740 0.18120 0.11500
C 	C 	0.84500 0.41460 0.16980 0.13700
H 	H 	0.84050 0.44250 0.15570 0.02800
C 	C 	0.72400 0.26510 0.22590 0.07000
H 	H 	0.71860 0.29280 0.23490 0.00900
O 	O 	0.93680 0.51350 0.11510 -0.17900
O 	O 	0.90680 0.56050 0.25630 -0.17000
O 	O 	0.96510 0.63490 0.42520 -0.11500
O 	O 	0.83890 0.46050 0.39940 -0.29600
O 	O 	0.99660 0.63160 0.84470 -0.02400
O 	O 	0.96800 0.62400 0.06430 -0.10200
La	La	0.46674 0.39284 0.41988 1.68500
La	La	0.51939 0.47124 0.68654 1.63500
La	La	0.45971 0.41019 0.95333 1.70600
P 	P 	0.44797 0.34890 0.69277 0.43000
O 	O 	0.47380 0.37940 0.59930 -0.45900
O 	O 	0.47073 0.38737 0.77760 -0.47000
O 	O 	0.39150 0.32160 0.68970 -0.22100
N 	N 	0.52830 0.20700 0.66800 -0.15800
N 	N 	0.53900 0.14140 0.65940 -0.17300
N 	N 	0.58000 0.18190 0.61280 -0.10700
C 	C 	0.46890 0.30360 0.70440 -0.11100
C 	C 	0.43640 0.25220 0.68550 0.05500
H 	H 	0.40130 0.23980 0.67780 0.03200
C 	C 	0.45490 0.21900 0.67790 -0.15300
H 	H 	0.43270 0.18400 0.66650 0.09300
C 	C 	0.50630 0.23820 0.68710 0.14400
C 	C 	0.53960 0.28900 0.71130 -0.15100
H 	H 	0.57460 0.30110 0.72100 0.08500
C 	C 	0.51970 0.32090 0.72040 0.05700
H 	H 	0.54130 0.35520 0.73790 0.01400
C 	C 	0.50860 0.15720 0.69020 0.10300
H 	H 	0.47730 0.13680 0.72310 0.00500
C 	C 	0.57210 0.21940 0.62030 0.10200
H 	H 	0.59450 0.25220 0.59520 0.00500
P 	P 	0.57273 0.52593 0.48163 0.42800
O 	O 	0.57059 0.55011 0.58020 -0.48100
O 	O 	0.55967 0.54869 0.39590 -0.42300
O 	O 	0.53789 0.46908 0.49550 -0.48900
N 	N 	0.78847 0.57330 0.43650 -0.15900
N 	N 	0.85580 0.56570 0.43050 -0.14800
N 	N 	0.87060 0.61580 0.41590 -0.07800
C 	C 	0.63720 0.53970 0.46720 -0.10600
C 	C 	0.64840 0.50310 0.43440 0.05700
H 	H 	0.62150 0.47030 0.41910 0.03000
C 	C 	0.69800 0.51350 0.42350 -0.15600
H 	H 	0.70510 0.48830 0.40130 0.09700
C 	C 	0.73670 0.56160 0.44590 0.14900
C 	C 	0.72610 0.59820 0.47970 -0.16100
H 	H 	0.75300 0.63090 0.49610 0.09700
C 	C 	0.67720 0.58740 0.48920 0.06200
H 	H 	0.67050 0.61290 0.51140 0.03700
C 	C 	0.80720 0.54170 0.44380 0.12200
H 	H 	0.78760 0.50660 0.45700 0.00400
C 	C 	0.83040 0.61940 0.41890 0.10900
H 	H 	0.82980 0.64990 0.41010 0.01500
P 	P 	0.58792 0.51608 0.89937 0.44300
O 	O 	0.59015 0.53390 0.79250 -0.37500
O 	O 	0.54850 0.46040 0.89990 -0.42800
O 	O 	0.58027 0.54760 0.97280 -0.41300
N 	N 	0.79090 0.53240 0.95020 -0.15800
N 	N 	0.87050 0.55910 0.94690 -0.16700
C 	C 	0.64600 0.51420 0.92600 -0.07700
C 	C 	0.64310 0.46470 0.92440 0.13700
H 	H 	0.61150 0.43450 0.91740 -0.18700
C 	C 	0.68680 0.46320 0.93310 -0.11000
H 	H 	0.68650 0.43200 0.93130 0.03200
C 	C 	0.73340 0.51060 0.94530 0.17500
C 	C 	0.73610 0.55710 0.94580 -0.14500
H 	H 	0.76670 0.58820 0.95270 0.13800
C 	C 	0.69130 0.55360 0.93590 0.12000
H 	H 	0.69220 0.58510 0.93580 -0.17500
C 	C 	0.83610 0.57540 0.93070 0.09700
H 	H 	0.84220 0.60780 0.91120 0.02700
C 	C 	0.80220 0.49860 0.97310 0.17900
H 	H 	0.77730 0.46520 0.99090 -0.06800
N 	N 	0.85240 0.51400 0.97010 -0.15500
P 	P 	0.52781 0.47355 0.18587 0.52500
O 	O 	0.50343 0.45680 0.28780 -0.46800
O 	O 	0.52618 0.52113 0.16230 -0.52600
O 	O 	0.51220 0.43630 0.11080 -0.22300
N 	N 	0.75820 0.56460 0.18240 -0.08600
N 	N 	0.83800 0.61810 0.16360 -0.06700
N 	N 	0.83130 0.57160 0.18480 -0.05900
C 	C 	0.60020 0.50030 0.19330 0.08600
C 	C 	0.63150 0.55090 0.21300 -0.42100
H 	H 	0.61710 0.57150 0.22700 0.08100
C 	C 	0.68370 0.57220 0.21270 -0.45100
H 	H 	0.70490 0.60660 0.23010 0.19900
C 	C 	0.70420 0.54290 0.18690 -0.37900
C 	C 	0.67060 0.48740 0.17540 0.18200
H 	H 	0.68350 0.46500 0.17050 0.05600
C 	C 	0.61990 0.47050 0.17230 -0.00200
H 	H 	0.59760 0.43630 0.15470 0.01100
C 	C 	0.79230 0.61490 0.16530 0.06100
H 	H 	0.78510 0.64150 0.15660 0.03300
C 	C 	0.77960 0.53880 0.19320 0.22200
O 	O 	0.40310 0.34450 0.08950 -0.12600
O 	O 	0.37380 0.35060 0.87930 -0.21700
O 	O 	0.48670 0.35930 0.25540 -0.12900
O 	O 	0.37670 0.33960 0.49080 -0.16200
O 	O 	0.54330 0.37860 0.44150 0.03600
N 	N 	0.77410 0.50000 0.95780 -0.16500
N 	N 	0.82930 0.47120 0.98330 -0.10700
C 	C 	0.64850 0.52160 0.92100 0.01700
C 	C 	0.65530 0.48210 0.92350 -0.23100
H 	H 	0.62630 0.44950 0.91800 0.23100
C 	C 	0.70420 0.48510 0.93450 -0.02900
H 	H 	0.70950 0.45710 0.93850 0.06800
C 	C 	0.74210 0.53610 0.93810 0.01800
C 	C 	0.74060 0.57850 0.93560 -0.06700
H 	H 	0.76990 0.61120 0.93750 -0.00400
C 	C 	0.68790 0.56960 0.92930 0.10300
H 	H 	0.68190 0.59720 0.93130 0.13400
C 	C 	0.82630 0.53650 0.95100 0.21300
H 	H 	0.84000 0.57130 0.93540 -0.06400
C 	C 	0.77680 0.45920 0.98120 0.09700
H 	H 	0.74850 0.42680 0.99450 0.01400
N 	N 	0.73130 0.49960 0.19650 -0.13000
N 	N 	0.81090 0.52330 0.21890 -0.06900
N 	N 	0.78240 0.47240 0.23990 -0.07400
C 	C 	0.57860 0.47320 0.18500 -0.30800
C 	C 	0.61640 0.51620 0.19800 0.13500
H 	H 	0.61120 0.54400 0.20830 0.24200
C 	C 	0.67140 0.52540 0.19900 0.13800
H 	H 	0.69630 0.55770 0.22220 0.45500
C 	C 	0.68560 0.50070 0.17700 -0.06700
C 	C 	0.63650 0.43850 0.17680 -0.23900
H 	H 	0.64260 0.41100 0.18120 0.11400
C 	C 	0.58540 0.43040 0.16980 0.13700
H 	H 	0.55750 0.39800 0.15570 0.02800
C 	C 	0.73490 0.45890 0.22590 0.07000
H 	H 	0.70720 0.42580 0.23490 0.00900
O 	O 	0.48650 0.42330 0.11510 -0.17900
O 	O 	0.43950 0.34630 0.25630 -0.17000
O 	O 	0.36510 0.33020 0.42520 -0.11500
O 	O 	0.53950 0.37840 0.39940 -0.29600
O 	O 	0.36840 0.36500 0.84470 -0.02300
O 	O 	0.37600 0.34400 0.06430 -0.10200
La	La	0.39284 0.92610 0.58012 1.68500
La	La	0.47124 0.95184 0.31346 1.63400
La	La	0.41019 0.95049 0.04667 1.70400
P 	P 	0.34890 0.90093 0.30723 0.43000
O 	O 	0.37940 0.90560 0.40070 -0.45900
O 	O 	0.38737 0.91664 0.22240 -0.47000
O 	O 	0.32160 0.93010 0.31030 -0.22100
N 	N 	0.20700 0.67870 0.33200 -0.15800
N 	N 	0.14140 0.60240 0.34060 -0.17300
N 	N 	0.18190 0.60190 0.38720 -0.10700
C 	C 	0.30360 0.83470 0.29560 -0.11100
C 	C 	0.25220 0.81580 0.31450 0.05500
H 	H 	0.23980 0.83850 0.32220 0.03200
C 	C 	0.21900 0.76410 0.32210 -0.15300
H 	H 	0.18400 0.75130 0.33350 0.09300
C 	C 	0.23820 0.73190 0.31290 0.14400
C 	C 	0.28900 0.74940 0.28870 -0.15100
H 	H 	0.30110 0.72650 0.27900 0.08500
C 	C 	0.32090 0.80120 0.27960 0.05700
H 	H 	0.35520 0.81390 0.26210 0.01400
C 	C 	0.15720 0.64860 0.30980 0.10300
H 	H 	0.13680 0.65950 0.27690 0.00500
C 	C 	0.21940 0.64730 0.37970 0.10200
H 	H 	0.25220 0.65770 0.40480 0.00500
P 	P 	0.52593 0.95320 0.51837 0.42800
O 	O 	0.55011 0.97952 0.41980 -0.48100
O 	O 	0.54869 0.98902 0.60410 -0.42300
O 	O 	0.46908 0.93119 0.50450 -0.48900
N 	N 	0.57330 0.78483 0.56350 -0.15900
N 	N 	0.56570 0.70990 0.56950 -0.14800
N 	N 	0.61580 0.74520 0.58410 -0.07800
C 	C 	0.53970 0.90250 0.53280 -0.10600
C 	C 	0.50310 0.85470 0.56560 0.05700
H 	H 	0.47030 0.84880 0.58090 0.03000
C 	C 	0.51350 0.81550 0.57650 -0.15600
H 	H 	0.48830 0.78320 0.59870 0.09700
C 	C 	0.56160 0.82490 0.55410 0.14900
C 	C 	0.59820 0.87210 0.52030 -0.16100
H 	H 	0.63090 0.87790 0.50390 0.09700
C 	C 	0.58740 0.91020 0.51080 0.06200
H 	H 	0.61290 0.94240 0.48860 0.03700
C 	C 	0.54170 0.73450 0.55620 0.12200
H 	H 	0.50660 0.71900 0.54300 0.00400
C 	C 	0.61940 0.78900 0.58110 0.10900
H 	H 	0.64990 0.82010 0.58990 0.01500
P 	P 	0.51608 0.92816 0.10063 0.44300
O 	O 	0.53390 0.94375 0.20750 -0.37500
O 	O 	0.46040 0.91190 0.10010 -0.42800
O 	O 	0.54760 0.96733 0.02720 -0.41400
N 	N 	0.53240 0.74150 0.04980 -0.15800
N 	N 	0.55910 0.68860 0.05310 -0.16700
C 	C 	0.51420 0.86820 0.07400 -0.07700
C 	C 	0.46470 0.82160 0.07560 0.13700
H 	H 	0.43450 0.82300 0.08260 -0.18700
C 	C 	0.46320 0.77640 0.06690 -0.11000
H 	H 	0.43200 0.74550 0.06870 0.03200
C 	C 	0.51060 0.77720 0.05470 0.17500
C 	C 	0.55710 0.82100 0.05420 -0.14500
H 	H 	0.58820 0.82150 0.04730 0.13800
C 	C 	0.55360 0.86230 0.06410 0.11900
H 	H 	0.58510 0.89290 0.06420 -0.17500
C 	C 	0.57540 0.73930 0.06930 0.09700
H 	H 	0.60780 0.76560 0.08880 0.02700
C 	C 	0.49860 0.69640 0.02690 0.17800
H 	H 	0.46520 0.68790 0.00910 -0.06800
N 	N 	0.51400 0.66160 0.02990 -0.15500
P 	P 	0.47355 0.94574 0.81413 0.52500
O 	O 	0.45680 0.95337 0.71220 -0.46800
O 	O 	0.52113 0.99495 0.83770 -0.52500
O 	O 	0.43630 0.92410 0.88920 -0.22300
N 	N 	0.56460 0.80640 0.81760 -0.08700
N 	N 	0.61810 0.78010 0.83640 -0.06700
N 	N 	0.57160 0.74030 0.81520 -0.05900
C 	C 	0.50030 0.90010 0.80670 0.08600
C 	C 	0.55090 0.91940 0.78700 -0.42000
H 	H 	0.57150 0.95440 0.77300 0.08100
C 	C 	0.57220 0.88850 0.78730 -0.45000
H 	H 	0.60660 0.90170 0.76990 0.19800
C 	C 	0.54290 0.83870 0.81310 -0.37700
C 	C 	0.48740 0.81680 0.82460 0.18200
H 	H 	0.46500 0.78150 0.82950 0.05600
C 	C 	0.47050 0.85060 0.82770 -0.00100
H 	H 	0.43630 0.83870 0.84530 0.01100
C 	C 	0.61490 0.82260 0.83470 0.06100
H 	H 	0.64150 0.85640 0.84340 0.03300
C 	C 	0.53880 0.75920 0.80680 0.22200
O 	O 	0.34450 0.94140 0.91050 -0.12600
O 	O 	0.35060 0.97680 0.12070 -0.21800
O 	O 	0.35930 0.87260 0.74460 -0.12900
O 	O 	0.33960 0.96290 0.50920 -0.16200
O 	O 	0.37860 0.83530 0.55850 0.03600
N 	N 	0.50000 0.72590 0.04220 -0.16500
N 	N 	0.47120 0.64190 0.01670 -0.10700
C 	C 	0.52160 0.87310 0.07900 0.01700
C 	C 	0.48210 0.82680 0.07650 -0.23100
H 	H 	0.44950 0.82320 0.08200 0.23100
C 	C 	0.48510 0.78090 0.06550 -0.02900
H 	H 	0.45710 0.74760 0.06150 0.06800
C 	C 	0.53610 0.79400 0.06190 0.01800
C 	C 	0.57850 0.83790 0.06440 -0.06700
H 	H 	0.61120 0.84130 0.06250 -0.00400
C 	C 	0.56960 0.88170 0.07070 0.10300
H 	H 	0.59720 0.91530 0.06870 0.13300
C 	C 	0.53650 0.71020 0.04900 0.21300
H 	H 	0.57130 0.73130 0.06460 -0.06400
C 	C 	0.45920 0.68240 0.01880 0.09700
H 	H 	0.42680 0.67830 0.00550 0.01400
N 	N 	0.49960 0.76830 0.80350 -0.13000
N 	N 	0.52330 0.71240 0.78110 -0.06900
N 	N 	0.47240 0.69000 0.76010 -0.07400
C 	C 	0.47320 0.89460 0.81500 -0.30800
C 	C 	0.51620 0.89980 0.80200 0.13500
H 	H 	0.54400 0.93280 0.79170 0.24200
C 	C 	0.52540 0.85400 0.80100 0.13700
H 	H 	0.55770 0.86140 0.77780 0.45400
C 	C 	0.50070 0.81510 0.82300 -0.06700
C 	C 	0.43850 0.80200 0.82320 -0.23900
H 	H 	0.41100 0.76840 0.81880 0.11500
C 	C 	0.43040 0.84500 0.83020 0.13700
H 	H 	0.39800 0.84050 0.84430 0.02800
C 	C 	0.45890 0.72400 0.77410 0.07000
H 	H 	0.42580 0.71860 0.76510 0.00900
O 	O 	0.42330 0.93680 0.88490 -0.17900
O 	O 	0.34630 0.90680 0.74370 -0.16900
O 	O 	0.33020 0.96510 0.57480 -0.11500
O 	O 	0.37840 0.83890 0.60060 -0.29600
O 	O 	0.36500 0.99660 0.15530 -0.02400
O 	O 	0.34400 0.96800 0.93570 -0.10100
La	La	0.07390 0.46674 0.58012 1.68500
La	La	0.04816 0.51940 0.31346 1.63400
La	La	0.04951 0.45970 0.04667 1.70500
P 	P 	0.09907 0.44797 0.30723 0.43000
O 	O 	0.09440 0.47380 0.40070 -0.45900
O 	O 	0.08336 0.47073 0.22240 -0.47000
O 	O 	0.06990 0.39150 0.31030 -0.22100
N 	N 	0.32130 0.52830 0.33200 -0.15800
N 	N 	0.39760 0.53900 0.34060 -0.17300
N 	N 	0.39810 0.58000 0.38720 -0.10700
C 	C 	0.16530 0.46890 0.29560 -0.11100
C 	C 	0.18420 0.43640 0.31450 0.05500
H 	H 	0.16150 0.40130 0.32220 0.03200
C 	C 	0.23590 0.45490 0.32210 -0.15300
H 	H 	0.24870 0.43270 0.33350 0.09300
C 	C 	0.26810 0.50630 0.31290 0.14400
C 	C 	0.25060 0.53960 0.28870 -0.15100
H 	H 	0.27350 0.57460 0.27900 0.08500
C 	C 	0.19880 0.51970 0.27960 0.05700
H 	H 	0.18610 0.54130 0.26210 0.01400
C 	C 	0.35140 0.50860 0.30980 0.10300
H 	H 	0.34050 0.47730 0.27690 0.00500
C 	C 	0.35270 0.57210 0.37970 0.10200
H 	H 	0.34230 0.59450 0.40480 0.00500
P 	P 	0.04680 0.57273 0.51837 0.42800
O 	O 	0.02048 0.57059 0.41980 -0.48100
O 	O 	0.01098 0.55967 0.60410 -0.42300
O 	O 	0.06881 0.53789 0.50450 -0.48900
N 	N 	0.21517 0.78847 0.56350 -0.15900
N 	N 	0.29010 0.85580 0.56950 -0.14800
N 	N 	0.25480 0.87060 0.58410 -0.07800
C 	C 	0.09750 0.63720 0.53280 -0.10600
C 	C 	0.14530 0.64840 0.56560 0.05700
H 	H 	0.15120 0.62150 0.58090 0.03000
C 	C 	0.18450 0.69800 0.57650 -0.15600
H 	H 	0.21680 0.70510 0.59870 0.09700
C 	C 	0.17510 0.73670 0.55410 0.14900
C 	C 	0.12790 0.72610 0.52030 -0.16100
H 	H 	0.12210 0.75300 0.50390 0.09700
C 	C 	0.08980 0.67720 0.51080 0.06200
H 	H 	0.05760 0.67050 0.48860 0.03700
C 	C 	0.26550 0.80720 0.55620 0.12200
H 	H 	0.28100 0.78760 0.54300 0.00400
C 	C 	0.21100 0.83040 0.58110 0.10900
H 	H 	0.17990 0.82980 0.58990 0.01500
P 	P 	0.07184 0.58792 0.10063 0.44300
O 	O 	0.05625 0.59015 0.20750 -0.37500
O 	O 	0.08810 0.54850 0.10010 -0.42800
O 	O 	0.03267 0.58027 0.02720 -0.41400
N 	N 	0.25850 0.79090 0.04980 -0.15800
N 	N 	0.31140 0.87050 0.05310 -0.16700
C 	C 	0.13180 0.64600 0.07400 -0.07700
C 	C 	0.17840 0.64310 0.07560 0.13700
H 	H 	0.17700 0.61150 0.08260 -0.18700
C 	C 	0.22360 0.68680 0.06690 -0.11000
H 	H 	0.25450 0.68650 0.06870 0.03200
C 	C 	0.22280 0.73340 0.05470 0.17400
C 	C 	0.17900 0.73610 0.05420 -0.14500
H 	H 	0.17850 0.76670 0.04730 0.13800
C 	C 	0.13770 0.69130 0.06410 0.11900
H 	H 	0.10710 0.69220 0.06420 -0.17500
C 	C 	0.26070 0.83610 0.06930 0.09800
H 	H 	0.23440 0.84220 0.08880 0.02700
C 	C 	0.30360 0.80220 0.02690 0.17900
H 	H 	0.31210 0.77730 0.00910 -0.06800
N 	N 	0.33840 0.85240 0.02990 -0.15500
P 	P 	0.05426 0.52781 0.81413 0.52500
O 	O 	0.04663 0.50343 0.71220 -0.46800
O 	O 	0.00505 0.52618 0.83770 -0.52500
O 	O 	0.07590 0.51220 0.88920 -0.22300
N 	N 	0.19360 0.75820 0.81760 -0.08700
N 	N 	0.21990 0.83800 0.83640 -0.06700
N 	N 	0.25970 0.83130 0.81520 -0.05900
C 	C 	0.09990 0.60020 0.80670 0.08600
C 	C 	0.08060 0.63150 0.78700 -0.41900
H 	H 	0.04560 0.61710 0.77300 0.08100
C 	C 	0.11150 0.68370 0.78730 -0.44900
H 	H 	0.09830 0.70490 0.76990 0.19800
C 	C 	0.16130 0.70420 0.81310 -0.37500
C 	C 	0.18320 0.67060 0.82460 0.18100
H 	H 	0.21850 0.68350 0.82950 0.05600
C 	C 	0.14940 0.61990 0.82770 -0.00100
H 	H 	0.16130 0.59760 0.84530 0.01100
C 	C 	0.17740 0.79230 0.83470 0.06200
H 	H 	0.14360 0.78510 0.84340 0.03300
C 	C 	0.24080 0.77960 0.80680 0.22200
O 	O 	0.05860 0.40310 0.91050 -0.12600
O 	O 	0.02320 0.37380 0.12070 -0.21700
O 	O 	0.12740 0.48670 0.74460 -0.12900
O 	O 	0.03710 0.37670 0.50920 -0.16200
O 	O 	0.16470 0.54330 0.55850 0.03600
N 	N 	0.27410 0.77410 0.04220 -0.16500
N 	N 	0.35810 0.82930 0.01670 -0.10700
C 	C 	0.12690 0.64850 0.07900 0.01700
C 	C 	0.17320 0.65530 0.07650 -0.23000
H 	H 	0.17680 0.62630 0.08200 0.23100
C 	C 	0.21910 0.70420 0.06550 -0.02900
H 	H 	0.25240 0.70950 0.06150 0.06800
C 	C 	0.20600 0.74210 0.06190 0.01800
C 	C 	0.16210 0.74060 0.06440 -0.06700
H 	H 	0.15870 0.76990 0.06250 -0.00400
C 	C 	0.11830 0.68790 0.07070 0.10300
H 	H 	0.08470 0.68190 0.06870 0.13300
C 	C 	0.28980 0.82630 0.04900 0.21300
H 	H 	0.26870 0.84000 0.06460 -0.06400
C 	C 	0.31760 0.77680 0.01880 0.09700
H 	H 	0.32170 0.74850 0.00550 0.01400
N 	N 	0.23170 0.73130 0.80350 -0.13000
N 	N 	0.28760 0.81090 0.78110 -0.06900
N 	N 	0.31000 0.78240 0.76010 -0.07400
C 	C 	0.10540 0.57860 0.81500 -0.30800
C 	C 	0.10020 0.61640 0.80200 0.13500
H 	H 	0.06720 0.61120 0.79170 0.24100
C 	C 	0.14600 0.67140 0.80100 0.13600
H 	H 	0.13860 0.69630 0.77780 0.45300
C 	C 	0.18490 0.68560 0.82300 -0.06700
C 	C 	0.19800 0.63650 0.82320 -0.23900
H 	H 	0.23160 0.64260 0.81880 0.11500
C 	C 	0.15500 0.58540 0.83020 0.13700
H 	H 	0.15950 0.55750 0.84430 0.02800
C 	C 	0.27600 0.73490 0.77410 0.07000
H 	H 	0.28140 0.70720 0.76510 0.00900
O 	O 	0.06320 0.48650 0.88490 -0.17900
O 	O 	0.09320 0.43950 0.74370 -0.17000
O 	O 	0.03490 0.36510 0.57480 -0.11500
O 	O 	0.16110 0.53950 0.60060 -0.29600
O 	O 	0.00340 0.36840 0.15530 -0.02400
O 	O 	0.03200 0.37600 0.93570 -0.10200
La	La	0.53326 0.60716 0.58012 1.68500
La	La	0.48061 0.52876 0.31346 1.63500
La	La	0.54030 0.58981 0.04667 1.70600
P 	P 	0.55203 0.65110 0.30723 0.43000
O 	O 	0.52620 0.62060 0.40070 -0.45900
O 	O 	0.52927 0.61263 0.22240 -0.47000
O 	O 	0.60850 0.67840 0.31030 -0.22100
N 	N 	0.47170 0.79300 0.33200 -0.15800
N 	N 	0.46100 0.85860 0.34060 -0.17300
N 	N 	0.42000 0.81810 0.38720 -0.10700
C 	C 	0.53110 0.69640 0.29560 -0.11100
C 	C 	0.56360 0.74780 0.31450 0.05500
H 	H 	0.59870 0.76020 0.32220 0.03200
C 	C 	0.54510 0.78100 0.32210 -0.15300
H 	H 	0.56730 0.81600 0.33350 0.09300
C 	C 	0.49370 0.76180 0.31290 0.14400
C 	C 	0.46040 0.71100 0.28870 -0.15100
H 	H 	0.42540 0.69890 0.27900 0.08500
C 	C 	0.48030 0.67910 0.27960 0.05700
H 	H 	0.45870 0.64480 0.26210 0.01400
C 	C 	0.49140 0.84280 0.30980 0.10300
H 	H 	0.52270 0.86320 0.27690 0.00500
C 	C 	0.42790 0.78060 0.37970 0.10200
H 	H 	0.40550 0.74780 0.40480 0.00500
P 	P 	0.42727 0.47407 0.51837 0.42800
O 	O 	0.42941 0.44989 0.41980 -0.48100
O 	O 	0.44033 0.45131 0.60410 -0.42300
O 	O 	0.46211 0.53092 0.50450 -0.48900
N 	N 	0.21153 0.42670 0.56350 -0.15900
N 	N 	0.14420 0.43430 0.56950 -0.14800
N 	N 	0.12940 0.38420 0.58410 -0.07800
C 	C 	0.36280 0.46030 0.53280 -0.10600
C 	C 	0.35160 0.49690 0.56560 0.05700
H 	H 	0.37850 0.52970 0.58090 0.03000
C 	C 	0.30200 0.48650 0.57650 -0.15600
H 	H 	0.29490 0.51170 0.59870 0.09700
C 	C 	0.26330 0.43840 0.55410 0.14900
C 	C 	0.27390 0.40180 0.52030 -0.16100
H 	H 	0.24700 0.36910 0.50390 0.09700
C 	C 	0.32280 0.41260 0.51080 0.06200
H 	H 	0.32950 0.38710 0.48860 0.03700
C 	C 	0.19280 0.45830 0.55620 0.12200
H 	H 	0.21240 0.49340 0.54300 0.00400
C 	C 	0.16960 0.38060 0.58110 0.10900
H 	H 	0.17020 0.35010 0.58990 0.01500
P 	P 	0.41208 0.48392 0.10063 0.44300
O 	O 	0.40985 0.46610 0.20750 -0.37500
O 	O 	0.45150 0.53960 0.10010 -0.42800
O 	O 	0.41973 0.45240 0.02720 -0.41300
N 	N 	0.20910 0.46760 0.04980 -0.15800
N 	N 	0.12950 0.44090 0.05310 -0.16700
C 	C 	0.35400 0.48580 0.07400 -0.07700
C 	C 	0.35690 0.53530 0.07560 0.13700
H 	H 	0.38850 0.56550 0.08260 -0.18700
C 	C 	0.31320 0.53680 0.06690 -0.11000
H 	H 	0.31350 0.56800 0.06870 0.03200
C 	C 	0.26660 0.48940 0.05470 0.17500
C 	C 	0.26390 0.44290 0.05420 -0.14500
H 	H 	0.23330 0.41180 0.04730 0.13800
C 	C 	0.30870 0.44640 0.06410 0.12000
H 	H 	0.30780 0.41490 0.06420 -0.17500
C 	C 	0.16390 0.42460 0.06930 0.09700
H 	H 	0.15780 0.39220 0.08880 0.02700
C 	C 	0.19780 0.50140 0.02690 0.17900
H 	H 	0.22270 0.53480 0.00910 -0.06800
N 	N 	0.14760 0.48600 0.02990 -0.15500
P 	P 	0.47219 0.52645 0.81413 0.52500
O 	O 	0.49657 0.54320 0.71220 -0.46800
O 	O 	0.47382 0.47887 0.83770 -0.52600
O 	O 	0.48780 0.56370 0.88920 -0.22300
N 	N 	0.24180 0.43540 0.81760 -0.08600
N 	N 	0.16200 0.38190 0.83640 -0.06700
N 	N 	0.16870 0.42840 0.81520 -0.05900
C 	C 	0.39980 0.49970 0.80670 0.08600
C 	C 	0.36850 0.44910 0.78700 -0.42100
H 	H 	0.38290 0.42850 0.77300 0.08100
C 	C 	0.31630 0.42780 0.78730 -0.45100
H 	H 	0.29510 0.39340 0.76990 0.19900
C 	C 	0.29580 0.45710 0.81310 -0.37900
C 	C 	0.32940 0.51260 0.82460 0.18200
H 	H 	0.31650 0.53500 0.82950 0.05600
C 	C 	0.38010 0.52950 0.82770 -0.00200
H 	H 	0.40240 0.56370 0.84530 0.01100
C 	C 	0.20770 0.38510 0.83470 0.06100
H 	H 	0.21490 0.35850 0.84340 0.03300
C 	C 	0.22040 0.46120 0.80680 0.22200
O 	O 	0.59690 0.65550 0.91050 -0.12600
O 	O 	0.62620 0.64940 0.12070 -0.21700
O 	O 	0.51330 0.64070 0.74460 -0.12900
O 	O 	0.62330 0.66040 0.50920 -0.16200
O 	O 	0.45670 0.62140 0.55850 0.03600
N 	N 	0.22590 0.50000 0.04220 -0.16500
N 	N 	0.17070 0.52880 0.01670 -0.10700
C 	C 	0.35150 0.47840 0.07900 0.01700
C 	C 	0.34470 0.51790 0.07650 -0.23100
H 	H 	0.37370 0.55050 0.08200 0.23100
C 	C 	0.29580 0.51490 0.06550 -0.02900
H 	H 	0.29050 0.54290 0.06150 0.06800
C 	C 	0.25790 0.46390 0.06190 0.01800
C 	C 	0.25940 0.42150 0.06440 -0.06700
H 	H 	0.23010 0.38880 0.06250 -0.00400
C 	C 	0.31210 0.43040 0.07070 0.10300
H 	H 	0.31810 0.40280 0.06870 0.13400
C 	C 	0.17370 0.46350 0.04900 0.21300
H 	H 	0.16000 0.42870 0.06460 -0.06400
C 	C 	0.22320 0.54080 0.01880 0.09700
H 	H 	0.25150 0.57320 0.00550 0.01400
N 	N 	0.26870 0.50040 0.80350 -0.13000
N 	N 	0.18910 0.47670 0.78110 -0.06900
N 	N 	0.21760 0.52760 0.76010 -0.07400
C 	C 	0.42140 0.52680 0.81500 -0.30800
C 	C 	0.38360 0.48380 0.80200 0.13500
H 	H 	0.38880 0.45600 0.79170 0.24200
C 	C 	0.32860 0.47460 0.80100 0.13800
H 	H 	0.30370 0.44230 0.77780 0.45500
C 	C 	0.31440 0.49930 0.82300 -0.06700
C 	C 	0.36350 0.56150 0.82320 -0.23900
H 	H 	0.35740 0.58900 0.81880 0.11400
C 	C 	0.41460 0.56960 0.83020 0.13700
H 	H 	0.44250 0.60200 0.84430 0.02800
C 	C 	0.26510 0.54110 0.77410 0.07000
H 	H 	0.29280 0.57420 0.76510 0.00900
O 	O 	0.51350 0.57670 0.88490 -0.17900
O 	O 	0.56050 0.65370 0.74370 -0.17000
O 	O 	0.63490 0.66980 0.57480 -0.11500
O 	O 	0.46050 0.62160 0.60060 -0.29600
O 	O 	0.63160 0.63500 0.15530 -0.02300
O 	O 	0.62400 0.65600 0.93570 -0.10200
