data_crystal

_cell_length_a 13.90100
_cell_length_b 12.71300
_cell_length_c 7.07000
_cell_angle_alpha 90.00000
_cell_angle_beta  91.13900
_cell_angle_gamma 90.00000

_symmetry_space_group_name_	'P 1'
_symmetry_space_group_name_H-M	'P 1'

loop_
_symmetry_equiv_pos_as_xyz
  x,y,z

loop_
_atom_site_label
_atom_site_type_symbol
_atom_site_fract_x
_atom_site_fract_y
_atom_site_fract_z
_atom_site_charge
C 	C 	0.80490 0.96520 0.42950 0.04900
H 	H 	0.81420 0.98020 0.29670 -0.00300
H 	H 	0.77480 0.02640 0.48510 -0.06500
C 	C 	0.73650 0.87250 0.44480 0.07200
C 	C 	0.94820 0.85350 0.46530 0.15600
H 	H 	0.94630 0.84690 0.32860 -0.03700
H 	H 	0.91530 0.79320 0.51770 0.00100
C 	C 	0.70940 0.83780 0.61530 -0.13000
H 	H 	0.73160 0.87100 0.72500 0.09700
C 	C 	0.69610 0.82750 0.29120 -0.15600
H 	H 	0.70820 0.85430 0.17160 0.04400
C 	C 	0.63550 0.74000 0.31030 0.08500
H 	H 	0.61430 0.70550 0.20110 -0.05200
C 	C 	0.64610 0.74920 0.62630 0.07000
H 	H 	0.63160 0.72220 0.74470 0.02000
N 	N 	0.89780 0.95010 0.51960 -0.26000
H 	H 	0.88600 0.94300 0.64510 0.11400
N 	N 	0.60740 0.70430 0.47350 -0.24800
O 	O 	0.97870 0.07980 0.20150 -0.51300
C 	C 	0.30490 0.46520 0.42950 -0.13700
H 	H 	0.31420 0.48020 0.29670 0.00900
H 	H 	0.27480 0.52640 0.48510 0.03700
C 	C 	0.23650 0.37250 0.44480 0.12000
C 	C 	0.44820 0.35350 0.46530 -0.06800
H 	H 	0.44630 0.34690 0.32860 -0.02700
H 	H 	0.41530 0.29320 0.51770 0.03100
C 	C 	0.20940 0.33780 0.61530 -0.18700
H 	H 	0.23160 0.37100 0.72500 0.08700
C 	C 	0.19610 0.32750 0.29120 -0.21600
H 	H 	0.20820 0.35430 0.17160 0.03300
C 	C 	0.13550 0.24000 0.31030 0.08300
H 	H 	0.11430 0.20550 0.20110 -0.09500
C 	C 	0.14610 0.24920 0.62630 0.06700
H 	H 	0.13160 0.22220 0.74470 -0.00700
N 	N 	0.39780 0.45010 0.51960 -0.24200
H 	H 	0.38600 0.44300 0.64510 0.05400
N 	N 	0.10740 0.20430 0.47350 -0.28300
O 	O 	0.47870 0.57980 0.20150 -0.60400
C 	C 	0.19510 0.96520 0.57050 0.02100
H 	H 	0.18580 0.98020 0.70330 0.03200
H 	H 	0.22520 0.02640 0.51490 -0.06900
C 	C 	0.26350 0.87250 0.55520 0.09000
C 	C 	0.05180 0.85350 0.53470 -0.32400
H 	H 	0.05370 0.84690 0.67140 0.06500
H 	H 	0.08470 0.79320 0.48230 0.07800
C 	C 	0.29060 0.83780 0.38470 -0.15300
H 	H 	0.26840 0.87100 0.27500 0.04100
C 	C 	0.30390 0.82750 0.70880 -0.16300
H 	H 	0.29180 0.85430 0.82840 0.10600
C 	C 	0.36450 0.74000 0.68970 0.09400
H 	H 	0.38570 0.70550 0.79890 0.00000
C 	C 	0.35390 0.74920 0.37370 0.06500
H 	H 	0.36840 0.72220 0.25530 -0.03500
N 	N 	0.10220 0.95010 0.48040 -0.21700
H 	H 	0.11400 0.94300 0.35490 0.02400
N 	N 	0.39260 0.70430 0.52650 -0.24900
O 	O 	0.02130 0.07980 0.79850 -0.60400
C 	C 	0.69510 0.46520 0.57050 -0.19000
H 	H 	0.68580 0.48020 0.70330 0.07000
H 	H 	0.72520 0.52640 0.51490 0.07000
C 	C 	0.76350 0.37250 0.55520 0.17100
C 	C 	0.55180 0.35350 0.53470 -0.12000
H 	H 	0.55370 0.34690 0.67140 0.02600
H 	H 	0.58470 0.29320 0.48230 0.04000
C 	C 	0.79060 0.33780 0.38470 -0.20100
H 	H 	0.76840 0.37100 0.27500 0.05600
C 	C 	0.80390 0.32750 0.70880 -0.21100
H 	H 	0.79180 0.35430 0.82840 0.12500
C 	C 	0.86450 0.24000 0.68970 0.13000
H 	H 	0.88570 0.20550 0.79890 0.01800
C 	C 	0.85390 0.24920 0.37370 0.10000
H 	H 	0.86840 0.22220 0.25530 -0.03100
N 	N 	0.60220 0.45010 0.48040 -0.22000
H 	H 	0.61400 0.44300 0.35490 0.02200
N 	N 	0.89260 0.20430 0.52650 -0.23200
O 	O 	0.52130 0.57980 0.79850 -0.51200
Zn	Zn	0.00000 0.08125 0.50000 1.12900
Zn	Zn	0.50000 0.58125 0.50000 1.19400
Mo	Mo	0.00000 0.00072 -0.00000 0.87800
Mo	Mo	0.50000 0.50072 -0.00000 0.98700
