data_crystal

_cell_length_a 13.97100
_cell_length_b 12.84100
_cell_length_c 7.13700
_cell_angle_alpha 90.00000
_cell_angle_beta  90.74000
_cell_angle_gamma 90.00000

_symmetry_space_group_name_	'P 1'
_symmetry_space_group_name_H-M	'P 1'

loop_
_symmetry_equiv_pos_as_xyz
  x,y,z

loop_
_atom_site_label
_atom_site_type_symbol
_atom_site_fract_x
_atom_site_fract_y
_atom_site_fract_z
_atom_site_charge
C 	C 	0.13670 0.26550 0.82100 0.14200
H 	H 	0.11380 0.29740 0.71260 -0.07100
C 	C 	0.14460 0.26560 0.12700 0.06700
H 	H 	0.13320 0.29470 0.24400 -0.03000
C 	C 	0.20550 0.17260 0.11500 -0.25300
H 	H 	0.22340 0.13580 0.22170 0.08000
C 	C 	0.19570 0.18300 0.79200 -0.28600
H 	H 	0.20750 0.15750 0.67250 0.09300
C 	C 	0.23510 0.14170 0.94200 0.20700
C 	C 	0.30220 0.04330 0.92600 -0.22500
H 	H 	0.27190 0.98440 0.98650 0.09100
H 	H 	0.31020 0.02610 0.79500 0.04800
C 	C 	0.45030 0.15180 0.97300 0.10900
H 	H 	0.41940 0.21030 0.03350 -0.03400
H 	H 	0.44590 0.16330 0.83880 -0.04900
N 	N 	0.10630 0.30800 0.97940 -0.27200
N 	N 	0.39890 0.06170 0.01520 -0.19200
H 	H 	0.42260 0.01680 0.09210 -0.09000
O 	O 	0.01720 0.43040 0.29920 -0.63300
C 	C 	0.63670 0.76550 0.82100 0.15100
H 	H 	0.61380 0.79740 0.71260 -0.03800
C 	C 	0.64460 0.76560 0.12700 0.08000
H 	H 	0.63320 0.79470 0.24400 -0.01300
C 	C 	0.70550 0.67260 0.11500 -0.22800
H 	H 	0.72340 0.63580 0.22170 0.09300
C 	C 	0.69570 0.68300 0.79200 -0.25900
H 	H 	0.70750 0.65750 0.67250 0.10500
C 	C 	0.73510 0.64170 0.94200 0.19800
C 	C 	0.80220 0.54330 0.92600 -0.15600
H 	H 	0.77190 0.48440 0.98650 0.06600
H 	H 	0.81020 0.52610 0.79500 0.04800
C 	C 	0.95030 0.65180 0.97300 0.43200
H 	H 	0.91940 0.71030 0.03350 -0.09600
H 	H 	0.94590 0.66330 0.83880 -0.10100
N 	N 	0.60630 0.80800 0.97940 -0.24900
N 	N 	0.89890 0.56170 0.01520 -0.25100
H 	H 	0.92260 0.51680 0.09210 -0.00900
O 	O 	0.51720 0.93040 0.29920 -0.55500
C 	C 	0.86330 0.26550 0.17900 0.13500
H 	H 	0.88620 0.29740 0.28740 -0.00700
C 	C 	0.85540 0.26560 0.87300 0.12200
H 	H 	0.86680 0.29470 0.75600 -0.01200
C 	C 	0.79450 0.17260 0.88500 -0.18200
H 	H 	0.77660 0.13580 0.77830 0.08300
C 	C 	0.80430 0.18300 0.20800 -0.24100
H 	H 	0.79250 0.15750 0.32750 0.10000
C 	C 	0.76490 0.14170 0.05800 0.16200
C 	C 	0.69780 0.04330 0.07400 -0.26300
H 	H 	0.72810 0.98440 0.01350 0.10300
H 	H 	0.68980 0.02610 0.20500 0.06800
C 	C 	0.54970 0.15180 0.02700 -0.30300
H 	H 	0.58060 0.21030 0.96650 0.11900
H 	H 	0.55410 0.16330 0.16120 0.06500
N 	N 	0.89370 0.30800 0.02060 -0.25000
N 	N 	0.60110 0.06170 0.98480 -0.08900
H 	H 	0.57740 0.01680 0.90790 -0.10600
O 	O 	0.98280 0.43040 0.70080 -0.44400
C 	C 	0.36330 0.76550 0.17900 0.11900
H 	H 	0.38620 0.79740 0.28740 -0.03600
C 	C 	0.35540 0.76560 0.87300 0.10900
H 	H 	0.36680 0.79470 0.75600 -0.02600
C 	C 	0.29450 0.67260 0.88500 -0.18100
H 	H 	0.27660 0.63580 0.77830 0.07100
C 	C 	0.30430 0.68300 0.20800 -0.24300
H 	H 	0.29250 0.65750 0.32750 0.08600
C 	C 	0.26490 0.64170 0.05800 0.14100
C 	C 	0.19780 0.54330 0.07400 -0.24700
H 	H 	0.22810 0.48440 0.01350 0.07500
H 	H 	0.18980 0.52610 0.20500 0.05900
C 	C 	0.04970 0.65180 0.02700 -0.62700
H 	H 	0.08060 0.71030 0.96650 0.19000
H 	H 	0.05410 0.66330 0.16120 0.12700
N 	N 	0.39370 0.80800 0.02060 -0.28000
N 	N 	0.10110 0.56170 0.98480 -0.03600
H 	H 	0.07740 0.51680 0.90790 -0.14800
O 	O 	0.48280 0.93040 0.70080 -0.54400
Mo	Mo	0.00000 0.50868 0.50000 0.99800
Mo	Mo	0.50000 0.00868 0.50000 1.05600
Zn	Zn	-0.00000 0.42832 -0.00000 1.15400
Zn	Zn	0.50000 0.92832 -0.00000 1.20300
