data_crystal

_cell_length_a 34.34600
_cell_length_b 15.11400
_cell_length_c 32.55020
_cell_angle_alpha 90.00000
_cell_angle_beta  103.41500
_cell_angle_gamma 90.00000

_symmetry_space_group_name_	'P 1'
_symmetry_space_group_name_H-M	'P 1'

loop_
_symmetry_equiv_pos_as_xyz
  x,y,z

loop_
_atom_site_label
_atom_site_type_symbol
_atom_site_fract_x
_atom_site_fract_y
_atom_site_fract_z
_atom_site_charge
C 	C 	0.53120 0.54680 0.54700 0.06600
H 	H 	0.51070 0.53840 0.56190 -0.00700
C 	C 	0.52780 0.61620 0.51910 -0.11700
H 	H 	0.50520 0.65410 0.51430 0.07100
C 	C 	0.55790 0.63020 0.49800 0.04700
C 	C 	0.58940 0.57040 0.50390 -0.11400
H 	H 	0.60990 0.57690 0.48890 0.07500
C 	C 	0.59040 0.50140 0.53190 0.06100
H 	H 	0.61180 0.46020 0.53570 -0.01600
C 	C 	0.55590 0.70810 0.46940 0.08600
C 	C 	0.52350 0.83230 0.44270 0.08000
C 	C 	0.57540 0.78110 0.41800 0.10100
C 	C 	0.66730 0.79560 0.37440 0.08600
H 	H 	0.69510 0.78290 0.38320 -0.03300
C 	C 	0.64290 0.77700 0.40130 -0.12700
H 	H 	0.65390 0.75200 0.42820 0.08100
C 	C 	0.60240 0.79450 0.38930 0.06300
C 	C 	0.58700 0.83080 0.34900 -0.12100
H 	H 	0.55940 0.84500 0.33960 0.07200
C 	C 	0.61380 0.84500 0.32360 0.07000
H 	H 	0.60340 0.86580 0.29570 -0.07100
C 	C 	0.45070 0.01760 0.41190 0.07600
H 	H 	0.44370 0.05900 0.38950 -0.03200
C 	C 	0.48230 0.96210 0.41240 -0.14000
H 	H 	0.49760 0.96800 0.39180 0.07400
C 	C 	0.49160 0.89820 0.44270 0.05300
C 	C 	0.47110 0.89940 0.47430 -0.12200
H 	H 	0.47800 0.85910 0.49730 0.07700
C 	C 	0.44040 0.95900 0.47270 0.07000
H 	H 	0.42650 0.95920 0.49480 -0.00800
C 	C 	0.33560 0.94410 0.38940 0.06900
H 	H 	0.35450 0.91200 0.41000 -0.00900
C 	C 	0.30640 0.89750 0.36220 -0.13300
H 	H 	0.30540 0.83480 0.36400 0.10300
C 	C 	0.27830 0.94270 0.33230 0.07700
C 	C 	0.28180 0.03410 0.33050 -0.15400
H 	H 	0.26360 0.06750 0.30990 0.11900
C 	C 	0.31220 0.07540 0.35930 0.08700
H 	H 	0.31410 0.13800 0.35820 -0.03500
C 	C 	0.24540 0.89470 0.30310 0.10400
C 	C 	0.21000 0.77120 0.28280 0.11400
C 	C 	0.19210 0.89830 0.24710 0.09700
C 	C 	0.14530 0.07700 0.17120 0.06600
H 	H 	0.15030 0.13710 0.16560 0.01200
C 	C 	0.17150 0.03410 0.20370 -0.12800
H 	H 	0.19390 0.06470 0.22010 0.11100
C 	C 	0.16500 0.94810 0.21220 0.05800
C 	C 	0.13300 0.90610 0.18710 -0.13400
H 	H 	0.12830 0.84530 0.19140 0.08500
C 	C 	0.10770 0.95260 0.15530 0.07600
H 	H 	0.08530 0.92270 0.13840 -0.01100
C 	C 	0.17420 0.53860 0.26070 0.09400
H 	H 	0.15640 0.50730 0.23880 -0.06500
C 	C 	0.17750 0.62860 0.25620 -0.14600
H 	H 	0.16170 0.65860 0.23240 0.08500
C 	C 	0.20420 0.67370 0.28700 0.09000
C 	C 	0.22550 0.62580 0.32050 -0.15600
H 	H 	0.24430 0.65440 0.34250 0.09500
C 	C 	0.21960 0.53670 0.32220 0.11100
H 	H 	0.23470 0.50460 0.34560 -0.05500
N 	N 	0.65300 0.83140 0.33580 -0.31500
N 	N 	0.56229 0.49040 0.55409 -0.26700
N 	N 	0.42972 0.01660 0.44090 -0.28200
N 	N 	0.58204 0.71400 0.44474 -0.13700
N 	N 	0.52723 0.76660 0.47120 -0.14900
N 	N 	0.54561 0.84100 0.41410 -0.13800
N 	N 	0.33910 0.03210 0.38860 -0.28800
N 	N 	0.22245 0.94320 0.27151 -0.13300
N 	N 	0.24058 0.80920 0.30995 -0.12100
N 	N 	0.18432 0.81250 0.25132 -0.13500
N 	N 	0.19400 0.49350 0.29300 -0.32200
N 	N 	0.11310 0.03690 0.14740 -0.27600
Zn	Zn	0.69042 0.85601 0.29590 0.81800
I 	I 	0.65240 0.80487 0.22347 -1.59800
I 	I 	0.75902 0.79230 0.32775 0.91100
Zn	Zn	0.56820 0.40030 0.60180 0.56000
I 	I 	0.60473 0.26460 0.58410 -0.08200
I 	I 	0.50434 0.39430 0.62818 -0.27000
Zn	Zn	0.38031 0.09641 0.43487 1.15700
I 	I 	0.39277 0.24610 0.40590 -0.17500
I 	I 	0.35830 0.08260 0.50380 -0.16500
Zn	Zn	0.67300 0.85600 0.28040 0.83900
I 	I 	0.62600 0.82940 0.20838 1.09200
I 	I 	0.73899 0.77240 0.30250 -1.36500
Zn	Zn	0.57510 0.39190 0.60220 0.56900
I 	I 	0.60450 0.26140 0.57142 -0.28600
I 	I 	0.51204 0.37530 0.62980 -0.07300
I 	I 	0.39740 0.23530 0.39870 -0.19900
I 	I 	0.35510 0.06830 0.50150 -0.17900
C 	C 	0.03120 0.04680 0.54700 0.06500
H 	H 	0.01070 0.03840 0.56190 -0.00800
C 	C 	0.02780 0.11620 0.51910 -0.11800
H 	H 	0.00520 0.15410 0.51430 0.07000
C 	C 	0.05790 0.13020 0.49800 0.04600
C 	C 	0.08940 0.07040 0.50390 -0.11500
H 	H 	0.10990 0.07690 0.48890 0.07400
C 	C 	0.09040 0.00140 0.53190 0.06000
H 	H 	0.11180 0.96020 0.53570 -0.01700
C 	C 	0.05590 0.20810 0.46940 0.08500
C 	C 	0.02350 0.33230 0.44270 0.07900
C 	C 	0.07540 0.28110 0.41800 0.10000
C 	C 	0.16730 0.29560 0.37440 0.08500
H 	H 	0.19510 0.28290 0.38320 -0.03400
C 	C 	0.14290 0.27700 0.40130 -0.12800
H 	H 	0.15390 0.25200 0.42820 0.08000
C 	C 	0.10240 0.29450 0.38930 0.06200
C 	C 	0.08700 0.33080 0.34900 -0.12200
H 	H 	0.05940 0.34500 0.33960 0.07100
C 	C 	0.11380 0.34500 0.32360 0.06900
H 	H 	0.10340 0.36580 0.29570 -0.07100
C 	C 	0.95070 0.51760 0.41190 0.07600
H 	H 	0.94370 0.55900 0.38950 -0.03200
C 	C 	0.98230 0.46210 0.41240 -0.14000
H 	H 	0.99760 0.46800 0.39180 0.07400
C 	C 	0.99160 0.39820 0.44270 0.05300
C 	C 	0.97110 0.39940 0.47430 -0.12200
H 	H 	0.97800 0.35910 0.49730 0.07700
C 	C 	0.94040 0.45900 0.47270 0.07000
H 	H 	0.92650 0.45920 0.49480 -0.00800
C 	C 	0.83560 0.44410 0.38940 0.06900
H 	H 	0.85450 0.41200 0.41000 -0.00900
C 	C 	0.80640 0.39750 0.36220 -0.13300
H 	H 	0.80540 0.33480 0.36400 0.10300
C 	C 	0.77830 0.44270 0.33230 0.07700
C 	C 	0.78180 0.53410 0.33050 -0.15400
H 	H 	0.76360 0.56750 0.30990 0.11900
C 	C 	0.81220 0.57540 0.35930 0.08700
H 	H 	0.81410 0.63800 0.35820 -0.03500
C 	C 	0.74540 0.39470 0.30310 0.10400
C 	C 	0.71000 0.27120 0.28280 0.11400
C 	C 	0.69210 0.39830 0.24710 0.09700
C 	C 	0.64530 0.57700 0.17120 0.06600
H 	H 	0.65030 0.63710 0.16560 0.01200
C 	C 	0.67150 0.53410 0.20370 -0.12800
H 	H 	0.69390 0.56470 0.22010 0.11200
C 	C 	0.66500 0.44810 0.21220 0.05800
C 	C 	0.63300 0.40610 0.18710 -0.13400
H 	H 	0.62830 0.34530 0.19140 0.08500
C 	C 	0.60770 0.45260 0.15530 0.07600
H 	H 	0.58530 0.42270 0.13840 -0.01100
C 	C 	0.67420 0.03860 0.26070 0.09400
H 	H 	0.65640 0.00730 0.23880 -0.06500
C 	C 	0.67750 0.12860 0.25620 -0.14600
H 	H 	0.66170 0.15860 0.23240 0.08500
C 	C 	0.70420 0.17370 0.28700 0.09000
C 	C 	0.72550 0.12580 0.32050 -0.15600
H 	H 	0.74430 0.15440 0.34250 0.09500
C 	C 	0.71960 0.03670 0.32220 0.11100
H 	H 	0.73470 0.00460 0.34560 -0.05500
N 	N 	0.15300 0.33140 0.33580 -0.31500
N 	N 	0.06229 0.99040 0.55409 -0.26700
N 	N 	0.92972 0.51660 0.44090 -0.28200
N 	N 	0.08204 0.21400 0.44474 -0.13700
N 	N 	0.02723 0.26660 0.47120 -0.14900
N 	N 	0.04561 0.34100 0.41410 -0.13800
N 	N 	0.83910 0.53210 0.38860 -0.28800
N 	N 	0.72245 0.44320 0.27151 -0.13300
N 	N 	0.74058 0.30920 0.30995 -0.12100
N 	N 	0.68432 0.31250 0.25132 -0.13500
N 	N 	0.69400 0.99350 0.29300 -0.32200
N 	N 	0.61310 0.53690 0.14740 -0.27600
Zn	Zn	0.19042 0.35601 0.29590 0.81800
I 	I 	0.15240 0.30487 0.22347 -1.59800
I 	I 	0.25902 0.29230 0.32775 0.91100
Zn	Zn	0.06820 0.90030 0.60180 0.56000
I 	I 	0.10473 0.76460 0.58410 -0.08200
I 	I 	0.00434 0.89430 0.62818 -0.27000
Zn	Zn	0.88031 0.59641 0.43487 1.15700
I 	I 	0.89277 0.74610 0.40590 -0.17500
I 	I 	0.85830 0.58260 0.50380 -0.16500
Zn	Zn	0.17300 0.35600 0.28040 0.83900
I 	I 	0.12600 0.32940 0.20838 1.09200
I 	I 	0.23899 0.27240 0.30250 -1.36600
Zn	Zn	0.07510 0.89190 0.60220 0.56900
I 	I 	0.10450 0.76140 0.57142 -0.28600
I 	I 	0.01204 0.87530 0.62980 -0.07400
I 	I 	0.89740 0.73530 0.39870 -0.19900
I 	I 	0.85510 0.56830 0.50150 -0.17900
C 	C 	0.53120 0.45320 0.04700 0.06500
H 	H 	0.51070 0.46160 0.06190 -0.00800
C 	C 	0.52780 0.38380 0.01910 -0.11800
H 	H 	0.50520 0.34590 0.01430 0.07000
C 	C 	0.55790 0.36980 0.99800 0.04600
C 	C 	0.58940 0.42960 0.00390 -0.11600
H 	H 	0.60990 0.42310 0.98890 0.07400
C 	C 	0.59040 0.49860 0.03190 0.06000
H 	H 	0.61180 0.53980 0.03570 -0.01700
C 	C 	0.55590 0.29190 0.96940 0.08500
C 	C 	0.52350 0.16770 0.94270 0.07900
C 	C 	0.57540 0.21890 0.91800 0.10000
C 	C 	0.66730 0.20440 0.87440 0.08500
H 	H 	0.69510 0.21710 0.88320 -0.03400
C 	C 	0.64290 0.22300 0.90130 -0.12800
H 	H 	0.65390 0.24800 0.92820 0.08000
C 	C 	0.60240 0.20550 0.88930 0.06200
C 	C 	0.58700 0.16920 0.84900 -0.12200
H 	H 	0.55940 0.15500 0.83960 0.07100
C 	C 	0.61380 0.15500 0.82360 0.06900
H 	H 	0.60340 0.13420 0.79570 -0.07100
C 	C 	0.45070 0.98240 0.91190 0.07600
H 	H 	0.44370 0.94100 0.88950 -0.03200
C 	C 	0.48230 0.03790 0.91240 -0.14000
H 	H 	0.49760 0.03200 0.89180 0.07400
C 	C 	0.49160 0.10180 0.94270 0.05300
C 	C 	0.47110 0.10060 0.97430 -0.12200
H 	H 	0.47800 0.14090 0.99730 0.07700
C 	C 	0.44040 0.04100 0.97270 0.07000
H 	H 	0.42650 0.04080 0.99480 -0.00800
C 	C 	0.33560 0.05590 0.88940 0.06900
H 	H 	0.35450 0.08800 0.91000 -0.00900
C 	C 	0.30640 0.10250 0.86220 -0.13300
H 	H 	0.30540 0.16520 0.86400 0.10300
C 	C 	0.27830 0.05730 0.83230 0.07700
C 	C 	0.28180 0.96590 0.83050 -0.15400
H 	H 	0.26360 0.93250 0.80990 0.11900
C 	C 	0.31220 0.92460 0.85930 0.08700
H 	H 	0.31410 0.86200 0.85820 -0.03500
C 	C 	0.24540 0.10530 0.80310 0.10400
C 	C 	0.21000 0.22880 0.78280 0.11400
C 	C 	0.19210 0.10170 0.74710 0.09700
C 	C 	0.14530 0.92300 0.67120 0.06600
H 	H 	0.15030 0.86290 0.66560 0.01200
C 	C 	0.17150 0.96590 0.70370 -0.12800
H 	H 	0.19390 0.93530 0.72010 0.11100
C 	C 	0.16500 0.05190 0.71220 0.05800
C 	C 	0.13300 0.09390 0.68710 -0.13400
H 	H 	0.12830 0.15470 0.69140 0.08500
C 	C 	0.10770 0.04740 0.65530 0.07600
H 	H 	0.08530 0.07730 0.63840 -0.01100
C 	C 	0.17420 0.46140 0.76070 0.09400
H 	H 	0.15640 0.49270 0.73880 -0.06500
C 	C 	0.17750 0.37140 0.75620 -0.14600
H 	H 	0.16170 0.34140 0.73240 0.08500
C 	C 	0.20420 0.32630 0.78700 0.09000
C 	C 	0.22550 0.37420 0.82050 -0.15600
H 	H 	0.24430 0.34560 0.84250 0.09500
C 	C 	0.21960 0.46330 0.82220 0.11100
H 	H 	0.23470 0.49540 0.84560 -0.05500
N 	N 	0.65300 0.16860 0.83580 -0.31500
N 	N 	0.56229 0.50960 0.05409 -0.26700
N 	N 	0.42972 0.98340 0.94090 -0.28200
N 	N 	0.58204 0.28600 0.94474 -0.13700
N 	N 	0.52723 0.23340 0.97120 -0.14900
N 	N 	0.54561 0.15900 0.91410 -0.13800
N 	N 	0.33910 0.96790 0.88860 -0.28800
N 	N 	0.22245 0.05680 0.77151 -0.13300
N 	N 	0.24058 0.19080 0.80995 -0.12100
N 	N 	0.18432 0.18750 0.75132 -0.13500
N 	N 	0.19400 0.50650 0.79300 -0.32200
N 	N 	0.11310 0.96310 0.64740 -0.27600
Zn	Zn	0.69042 0.14399 0.79590 0.81800
I 	I 	0.65240 0.19513 0.72347 -1.59800
I 	I 	0.75902 0.20770 0.82775 0.91100
Zn	Zn	0.56820 0.59970 0.10180 0.56000
I 	I 	0.60473 0.73540 0.08410 -0.08200
I 	I 	0.50434 0.60570 0.12818 -0.27000
Zn	Zn	0.38031 0.90359 0.93487 1.15700
I 	I 	0.39277 0.75390 0.90590 -0.17500
I 	I 	0.35830 0.91740 0.00380 -0.16500
Zn	Zn	0.67300 0.14400 0.78040 0.83900
I 	I 	0.62600 0.17060 0.70838 1.09200
I 	I 	0.73899 0.22760 0.80250 -1.36600
Zn	Zn	0.57510 0.60810 0.10220 0.56900
I 	I 	0.60450 0.73860 0.07142 -0.28600
I 	I 	0.51204 0.62470 0.12980 -0.07300
I 	I 	0.39740 0.76470 0.89870 -0.19900
I 	I 	0.35510 0.93170 0.00150 -0.18000
C 	C 	0.03120 0.95320 0.04700 0.06500
H 	H 	0.01070 0.96160 0.06190 -0.00800
C 	C 	0.02780 0.88380 0.01910 -0.11800
H 	H 	0.00520 0.84590 0.01430 0.06900
C 	C 	0.05790 0.86980 0.99800 0.04600
C 	C 	0.08940 0.92960 0.00390 -0.11500
H 	H 	0.10990 0.92310 0.98890 0.07400
C 	C 	0.09040 0.99860 0.03190 0.06000
H 	H 	0.11180 0.03980 0.03570 -0.01700
C 	C 	0.05590 0.79190 0.96940 0.08500
C 	C 	0.02350 0.66770 0.94270 0.07900
C 	C 	0.07540 0.71890 0.91800 0.10000
C 	C 	0.16730 0.70440 0.87440 0.08500
H 	H 	0.19510 0.71710 0.88320 -0.03400
C 	C 	0.14290 0.72300 0.90130 -0.12800
H 	H 	0.15390 0.74800 0.92820 0.08000
C 	C 	0.10240 0.70550 0.88930 0.06200
C 	C 	0.08700 0.66920 0.84900 -0.12200
H 	H 	0.05940 0.65500 0.83960 0.07100
C 	C 	0.11380 0.65500 0.82360 0.06900
H 	H 	0.10340 0.63420 0.79570 -0.07100
C 	C 	0.95070 0.48240 0.91190 0.07600
H 	H 	0.94370 0.44100 0.88950 -0.03200
C 	C 	0.98230 0.53790 0.91240 -0.14000
H 	H 	0.99760 0.53200 0.89180 0.07400
C 	C 	0.99160 0.60180 0.94270 0.05300
C 	C 	0.97110 0.60060 0.97430 -0.12200
H 	H 	0.97800 0.64090 0.99730 0.07700
C 	C 	0.94040 0.54100 0.97270 0.07000
H 	H 	0.92650 0.54080 0.99480 -0.00800
C 	C 	0.83560 0.55590 0.88940 0.06900
H 	H 	0.85450 0.58800 0.91000 -0.00900
C 	C 	0.80640 0.60250 0.86220 -0.13300
H 	H 	0.80540 0.66520 0.86400 0.10300
C 	C 	0.77830 0.55730 0.83230 0.07700
C 	C 	0.78180 0.46590 0.83050 -0.15400
H 	H 	0.76360 0.43250 0.80990 0.11900
C 	C 	0.81220 0.42460 0.85930 0.08700
H 	H 	0.81410 0.36200 0.85820 -0.03500
C 	C 	0.74540 0.60530 0.80310 0.10400
C 	C 	0.71000 0.72880 0.78280 0.11400
C 	C 	0.69210 0.60170 0.74710 0.09700
C 	C 	0.64530 0.42300 0.67120 0.06600
H 	H 	0.65030 0.36290 0.66560 0.01200
C 	C 	0.67150 0.46590 0.70370 -0.12800
H 	H 	0.69390 0.43530 0.72010 0.11200
C 	C 	0.66500 0.55190 0.71220 0.05800
C 	C 	0.63300 0.59390 0.68710 -0.13400
H 	H 	0.62830 0.65470 0.69140 0.08500
C 	C 	0.60770 0.54740 0.65530 0.07600
H 	H 	0.58530 0.57730 0.63840 -0.01100
C 	C 	0.67420 0.96140 0.76070 0.09400
H 	H 	0.65640 0.99270 0.73880 -0.06500
C 	C 	0.67750 0.87140 0.75620 -0.14600
H 	H 	0.66170 0.84140 0.73240 0.08500
C 	C 	0.70420 0.82630 0.78700 0.09000
C 	C 	0.72550 0.87420 0.82050 -0.15600
H 	H 	0.74430 0.84560 0.84250 0.09500
C 	C 	0.71960 0.96330 0.82220 0.11100
H 	H 	0.73470 0.99540 0.84560 -0.05500
N 	N 	0.15300 0.66860 0.83580 -0.31500
N 	N 	0.06229 0.00960 0.05409 -0.26700
N 	N 	0.92972 0.48340 0.94090 -0.28200
N 	N 	0.08204 0.78600 0.94474 -0.13700
N 	N 	0.02723 0.73340 0.97120 -0.14900
N 	N 	0.04561 0.65900 0.91410 -0.13800
N 	N 	0.83910 0.46790 0.88860 -0.28800
N 	N 	0.72245 0.55680 0.77151 -0.13300
N 	N 	0.74058 0.69080 0.80995 -0.12100
N 	N 	0.68432 0.68750 0.75132 -0.13500
N 	N 	0.69400 0.00650 0.79300 -0.32200
N 	N 	0.61310 0.46310 0.64740 -0.27600
Zn	Zn	0.19042 0.64399 0.79590 0.81800
I 	I 	0.15240 0.69513 0.72347 -1.59800
I 	I 	0.25902 0.70770 0.82775 0.91100
Zn	Zn	0.06820 0.09970 0.10180 0.56000
I 	I 	0.10473 0.23540 0.08410 -0.08200
I 	I 	0.00434 0.10570 0.12818 -0.27000
Zn	Zn	0.88031 0.40359 0.93487 1.15700
I 	I 	0.89277 0.25390 0.90590 -0.17500
I 	I 	0.85830 0.41740 0.00380 -0.16500
Zn	Zn	0.17300 0.64400 0.78040 0.83900
I 	I 	0.12600 0.67060 0.70838 1.09200
I 	I 	0.23899 0.72760 0.80250 -1.36600
Zn	Zn	0.07510 0.10810 0.10220 0.56900
I 	I 	0.10450 0.23860 0.07142 -0.28600
I 	I 	0.01204 0.12470 0.12980 -0.07400
I 	I 	0.89740 0.26470 0.89870 -0.19900
I 	I 	0.85510 0.43170 0.00150 -0.17900
C 	C 	0.46880 0.54680 0.95300 0.06500
H 	H 	0.48930 0.53840 0.93810 -0.00800
C 	C 	0.47220 0.61620 0.98090 -0.11800
H 	H 	0.49480 0.65410 0.98570 0.07000
C 	C 	0.44210 0.63020 0.00200 0.04600
C 	C 	0.41060 0.57040 0.99610 -0.11600
H 	H 	0.39010 0.57690 0.01110 0.07400
C 	C 	0.40960 0.50140 0.96810 0.06000
H 	H 	0.38820 0.46020 0.96430 -0.01700
C 	C 	0.44410 0.70810 0.03060 0.08500
C 	C 	0.47650 0.83230 0.05730 0.07900
C 	C 	0.42460 0.78110 0.08200 0.10000
C 	C 	0.33270 0.79560 0.12560 0.08500
H 	H 	0.30490 0.78290 0.11680 -0.03400
C 	C 	0.35710 0.77700 0.09870 -0.12800
H 	H 	0.34610 0.75200 0.07180 0.08000
C 	C 	0.39760 0.79450 0.11070 0.06200
C 	C 	0.41300 0.83080 0.15100 -0.12200
H 	H 	0.44060 0.84500 0.16040 0.07100
C 	C 	0.38620 0.84500 0.17640 0.06900
H 	H 	0.39660 0.86580 0.20430 -0.07100
C 	C 	0.54930 0.01760 0.08810 0.07600
H 	H 	0.55630 0.05900 0.11050 -0.03200
C 	C 	0.51770 0.96210 0.08760 -0.14000
H 	H 	0.50240 0.96800 0.10820 0.07400
C 	C 	0.50840 0.89820 0.05730 0.05300
C 	C 	0.52890 0.89940 0.02570 -0.12200
H 	H 	0.52200 0.85910 0.00270 0.07700
C 	C 	0.55960 0.95900 0.02730 0.07000
H 	H 	0.57350 0.95920 0.00520 -0.00800
C 	C 	0.66440 0.94410 0.11060 0.06900
H 	H 	0.64550 0.91200 0.09000 -0.00900
C 	C 	0.69360 0.89750 0.13780 -0.13300
H 	H 	0.69460 0.83480 0.13600 0.10300
C 	C 	0.72170 0.94270 0.16770 0.07700
C 	C 	0.71820 0.03410 0.16950 -0.15400
H 	H 	0.73640 0.06750 0.19010 0.11900
C 	C 	0.68780 0.07540 0.14070 0.08700
H 	H 	0.68590 0.13800 0.14180 -0.03500
C 	C 	0.75460 0.89470 0.19690 0.10400
C 	C 	0.79000 0.77120 0.21720 0.11400
C 	C 	0.80790 0.89830 0.25290 0.09700
C 	C 	0.85470 0.07700 0.32880 0.06600
H 	H 	0.84970 0.13710 0.33440 0.01200
C 	C 	0.82850 0.03410 0.29630 -0.12800
H 	H 	0.80610 0.06470 0.27990 0.11100
C 	C 	0.83500 0.94810 0.28780 0.05800
C 	C 	0.86700 0.90610 0.31290 -0.13400
H 	H 	0.87170 0.84530 0.30860 0.08500
C 	C 	0.89230 0.95260 0.34470 0.07600
H 	H 	0.91470 0.92270 0.36160 -0.01100
C 	C 	0.82580 0.53860 0.23930 0.09400
H 	H 	0.84360 0.50730 0.26120 -0.06500
C 	C 	0.82250 0.62860 0.24380 -0.14600
H 	H 	0.83830 0.65860 0.26760 0.08500
C 	C 	0.79580 0.67370 0.21300 0.09000
C 	C 	0.77450 0.62580 0.17950 -0.15600
H 	H 	0.75570 0.65440 0.15750 0.09500
C 	C 	0.78040 0.53670 0.17780 0.11100
H 	H 	0.76530 0.50460 0.15440 -0.05500
N 	N 	0.34700 0.83140 0.16420 -0.31500
N 	N 	0.43771 0.49040 0.94591 -0.26700
N 	N 	0.57028 0.01660 0.05910 -0.28200
N 	N 	0.41796 0.71400 0.05526 -0.13700
N 	N 	0.47277 0.76660 0.02880 -0.14900
N 	N 	0.45439 0.84100 0.08590 -0.13800
N 	N 	0.66090 0.03210 0.11140 -0.28800
N 	N 	0.77755 0.94320 0.22849 -0.13300
N 	N 	0.75942 0.80920 0.19005 -0.12100
N 	N 	0.81568 0.81250 0.24868 -0.13500
N 	N 	0.80600 0.49350 0.20700 -0.32200
N 	N 	0.88690 0.03690 0.35260 -0.27600
Zn	Zn	0.30958 0.85601 0.20410 0.81800
I 	I 	0.34760 0.80487 0.27653 -1.59800
I 	I 	0.24098 0.79230 0.17225 0.91100
Zn	Zn	0.43180 0.40030 0.89820 0.56000
I 	I 	0.39527 0.26460 0.91590 -0.08200
I 	I 	0.49566 0.39430 0.87182 -0.27000
Zn	Zn	0.61969 0.09641 0.06513 1.15700
I 	I 	0.60723 0.24610 0.09410 -0.17500
I 	I 	0.64170 0.08260 0.99620 -0.16500
Zn	Zn	0.32700 0.85600 0.21960 0.83900
I 	I 	0.37400 0.82940 0.29162 1.09200
I 	I 	0.26101 0.77240 0.19750 -1.36600
Zn	Zn	0.42490 0.39190 0.89780 0.56900
I 	I 	0.39550 0.26140 0.92858 -0.28600
I 	I 	0.48796 0.37530 0.87020 -0.07300
I 	I 	0.60260 0.23530 0.10130 -0.19900
I 	I 	0.64490 0.06830 0.99850 -0.18000
C 	C 	0.96880 0.04680 0.95300 0.06500
H 	H 	0.98930 0.03840 0.93810 -0.00800
C 	C 	0.97220 0.11620 0.98090 -0.11800
H 	H 	0.99480 0.15410 0.98570 0.06900
C 	C 	0.94210 0.13020 0.00200 0.04600
C 	C 	0.91060 0.07040 0.99610 -0.11500
H 	H 	0.89010 0.07690 0.01110 0.07400
C 	C 	0.90960 0.00140 0.96810 0.06000
H 	H 	0.88820 0.96020 0.96430 -0.01700
C 	C 	0.94410 0.20810 0.03060 0.08500
C 	C 	0.97650 0.33230 0.05730 0.07900
C 	C 	0.92460 0.28110 0.08200 0.10000
C 	C 	0.83270 0.29560 0.12560 0.08500
H 	H 	0.80490 0.28290 0.11680 -0.03400
C 	C 	0.85710 0.27700 0.09870 -0.12800
H 	H 	0.84610 0.25200 0.07180 0.08000
C 	C 	0.89760 0.29450 0.11070 0.06200
C 	C 	0.91300 0.33080 0.15100 -0.12200
H 	H 	0.94060 0.34500 0.16040 0.07100
C 	C 	0.88620 0.34500 0.17640 0.06900
H 	H 	0.89660 0.36580 0.20430 -0.07100
C 	C 	0.04930 0.51760 0.08810 0.07600
H 	H 	0.05630 0.55900 0.11050 -0.03200
C 	C 	0.01770 0.46210 0.08760 -0.14000
H 	H 	0.00240 0.46800 0.10820 0.07400
C 	C 	0.00840 0.39820 0.05730 0.05300
C 	C 	0.02890 0.39940 0.02570 -0.12200
H 	H 	0.02200 0.35910 0.00270 0.07700
C 	C 	0.05960 0.45900 0.02730 0.07000
H 	H 	0.07350 0.45920 0.00520 -0.00800
C 	C 	0.16440 0.44410 0.11060 0.06900
H 	H 	0.14550 0.41200 0.09000 -0.00900
C 	C 	0.19360 0.39750 0.13780 -0.13300
H 	H 	0.19460 0.33480 0.13600 0.10300
C 	C 	0.22170 0.44270 0.16770 0.07700
C 	C 	0.21820 0.53410 0.16950 -0.15400
H 	H 	0.23640 0.56750 0.19010 0.11900
C 	C 	0.18780 0.57540 0.14070 0.08700
H 	H 	0.18590 0.63800 0.14180 -0.03500
C 	C 	0.25460 0.39470 0.19690 0.10400
C 	C 	0.29000 0.27120 0.21720 0.11400
C 	C 	0.30790 0.39830 0.25290 0.09700
C 	C 	0.35470 0.57700 0.32880 0.06600
H 	H 	0.34970 0.63710 0.33440 0.01200
C 	C 	0.32850 0.53410 0.29630 -0.12800
H 	H 	0.30610 0.56470 0.27990 0.11200
C 	C 	0.33500 0.44810 0.28780 0.05800
C 	C 	0.36700 0.40610 0.31290 -0.13400
H 	H 	0.37170 0.34530 0.30860 0.08500
C 	C 	0.39230 0.45260 0.34470 0.07600
H 	H 	0.41470 0.42270 0.36160 -0.01100
C 	C 	0.32580 0.03860 0.23930 0.09400
H 	H 	0.34360 0.00730 0.26120 -0.06500
C 	C 	0.32250 0.12860 0.24380 -0.14600
H 	H 	0.33830 0.15860 0.26760 0.08500
C 	C 	0.29580 0.17370 0.21300 0.09000
C 	C 	0.27450 0.12580 0.17950 -0.15600
H 	H 	0.25570 0.15440 0.15750 0.09500
C 	C 	0.28040 0.03670 0.17780 0.11100
H 	H 	0.26530 0.00460 0.15440 -0.05500
N 	N 	0.84700 0.33140 0.16420 -0.31500
N 	N 	0.93771 0.99040 0.94591 -0.26700
N 	N 	0.07028 0.51660 0.05910 -0.28200
N 	N 	0.91796 0.21400 0.05526 -0.13700
N 	N 	0.97277 0.26660 0.02880 -0.14900
N 	N 	0.95439 0.34100 0.08590 -0.13800
N 	N 	0.16090 0.53210 0.11140 -0.28800
N 	N 	0.27755 0.44320 0.22849 -0.13300
N 	N 	0.25942 0.30920 0.19005 -0.12100
N 	N 	0.31568 0.31250 0.24868 -0.13500
N 	N 	0.30600 0.99350 0.20700 -0.32200
N 	N 	0.38690 0.53690 0.35260 -0.27600
Zn	Zn	0.80958 0.35601 0.20410 0.81800
I 	I 	0.84760 0.30487 0.27653 -1.59800
I 	I 	0.74098 0.29230 0.17225 0.91100
Zn	Zn	0.93180 0.90030 0.89820 0.56000
I 	I 	0.89527 0.76460 0.91590 -0.08200
I 	I 	0.99566 0.89430 0.87182 -0.27000
Zn	Zn	0.11969 0.59641 0.06513 1.15700
I 	I 	0.10723 0.74610 0.09410 -0.17500
I 	I 	0.14170 0.58260 0.99620 -0.16500
Zn	Zn	0.82700 0.35600 0.21960 0.83900
I 	I 	0.87400 0.32940 0.29162 1.09200
I 	I 	0.76101 0.27240 0.19750 -1.36600
Zn	Zn	0.92490 0.89190 0.89780 0.56900
I 	I 	0.89550 0.76140 0.92858 -0.28600
I 	I 	0.98796 0.87530 0.87020 -0.07400
I 	I 	0.10260 0.73530 0.10130 -0.19900
I 	I 	0.14490 0.56830 0.99850 -0.17900
C 	C 	0.46880 0.45320 0.45300 0.06500
H 	H 	0.48930 0.46160 0.43810 -0.00800
C 	C 	0.47220 0.38380 0.48090 -0.11800
H 	H 	0.49480 0.34590 0.48570 0.07000
C 	C 	0.44210 0.36980 0.50200 0.04600
C 	C 	0.41060 0.42960 0.49610 -0.11500
H 	H 	0.39010 0.42310 0.51110 0.07400
C 	C 	0.40960 0.49860 0.46810 0.06000
H 	H 	0.38820 0.53980 0.46430 -0.01700
C 	C 	0.44410 0.29190 0.53060 0.08500
C 	C 	0.47650 0.16770 0.55730 0.07900
C 	C 	0.42460 0.21890 0.58200 0.10000
C 	C 	0.33270 0.20440 0.62560 0.08500
H 	H 	0.30490 0.21710 0.61680 -0.03400
C 	C 	0.35710 0.22300 0.59870 -0.12800
H 	H 	0.34610 0.24800 0.57180 0.08000
C 	C 	0.39760 0.20550 0.61070 0.06200
C 	C 	0.41300 0.16920 0.65100 -0.12200
H 	H 	0.44060 0.15500 0.66040 0.07100
C 	C 	0.38620 0.15500 0.67640 0.06900
H 	H 	0.39660 0.13420 0.70430 -0.07100
C 	C 	0.54930 0.98240 0.58810 0.07600
H 	H 	0.55630 0.94100 0.61050 -0.03200
C 	C 	0.51770 0.03790 0.58760 -0.14000
H 	H 	0.50240 0.03200 0.60820 0.07400
C 	C 	0.50840 0.10180 0.55730 0.05300
C 	C 	0.52890 0.10060 0.52570 -0.12200
H 	H 	0.52200 0.14090 0.50270 0.07700
C 	C 	0.55960 0.04100 0.52730 0.07000
H 	H 	0.57350 0.04080 0.50520 -0.00800
C 	C 	0.66440 0.05590 0.61060 0.06900
H 	H 	0.64550 0.08800 0.59000 -0.00900
C 	C 	0.69360 0.10250 0.63780 -0.13300
H 	H 	0.69460 0.16520 0.63600 0.10300
C 	C 	0.72170 0.05730 0.66770 0.07700
C 	C 	0.71820 0.96590 0.66950 -0.15400
H 	H 	0.73640 0.93250 0.69010 0.11900
C 	C 	0.68780 0.92460 0.64070 0.08700
H 	H 	0.68590 0.86200 0.64180 -0.03500
C 	C 	0.75460 0.10530 0.69690 0.10400
C 	C 	0.79000 0.22880 0.71720 0.11400
C 	C 	0.80790 0.10170 0.75290 0.09700
C 	C 	0.85470 0.92300 0.82880 0.06600
H 	H 	0.84970 0.86290 0.83440 0.01200
C 	C 	0.82850 0.96590 0.79630 -0.12800
H 	H 	0.80610 0.93530 0.77990 0.11100
C 	C 	0.83500 0.05190 0.78780 0.05800
C 	C 	0.86700 0.09390 0.81290 -0.13400
H 	H 	0.87170 0.15470 0.80860 0.08500
C 	C 	0.89230 0.04740 0.84470 0.07600
H 	H 	0.91470 0.07730 0.86160 -0.01100
C 	C 	0.82580 0.46140 0.73930 0.09400
H 	H 	0.84360 0.49270 0.76120 -0.06500
C 	C 	0.82250 0.37140 0.74380 -0.14600
H 	H 	0.83830 0.34140 0.76760 0.08500
C 	C 	0.79580 0.32630 0.71300 0.09000
C 	C 	0.77450 0.37420 0.67950 -0.15600
H 	H 	0.75570 0.34560 0.65750 0.09500
C 	C 	0.78040 0.46330 0.67780 0.11100
H 	H 	0.76530 0.49540 0.65440 -0.05500
N 	N 	0.34700 0.16860 0.66420 -0.31500
N 	N 	0.43771 0.50960 0.44591 -0.26700
N 	N 	0.57028 0.98340 0.55910 -0.28200
N 	N 	0.41796 0.28600 0.55526 -0.13700
N 	N 	0.47277 0.23340 0.52880 -0.14900
N 	N 	0.45439 0.15900 0.58590 -0.13800
N 	N 	0.66090 0.96790 0.61140 -0.28800
N 	N 	0.77755 0.05680 0.72849 -0.13300
N 	N 	0.75942 0.19080 0.69005 -0.12100
N 	N 	0.81568 0.18750 0.74868 -0.13500
N 	N 	0.80600 0.50650 0.70700 -0.32200
N 	N 	0.88690 0.96310 0.85260 -0.27600
Zn	Zn	0.30958 0.14399 0.70410 0.81800
I 	I 	0.34760 0.19513 0.77653 -1.59800
I 	I 	0.24098 0.20770 0.67225 0.91100
Zn	Zn	0.43180 0.59970 0.39820 0.56000
I 	I 	0.39527 0.73540 0.41590 -0.08200
I 	I 	0.49566 0.60570 0.37182 -0.27000
Zn	Zn	0.61969 0.90359 0.56513 1.15700
I 	I 	0.60723 0.75390 0.59410 -0.17500
I 	I 	0.64170 0.91740 0.49620 -0.16500
Zn	Zn	0.32700 0.14400 0.71960 0.83900
I 	I 	0.37400 0.17060 0.79162 1.09200
I 	I 	0.26101 0.22760 0.69750 -1.36500
Zn	Zn	0.42490 0.60810 0.39780 0.56900
I 	I 	0.39550 0.73860 0.42858 -0.28600
I 	I 	0.48796 0.62470 0.37020 -0.07300
I 	I 	0.60260 0.76470 0.60130 -0.19900
I 	I 	0.64490 0.93170 0.49850 -0.17900
C 	C 	0.96880 0.95320 0.45300 0.06500
H 	H 	0.98930 0.96160 0.43810 -0.00800
C 	C 	0.97220 0.88380 0.48090 -0.11800
H 	H 	0.99480 0.84590 0.48570 0.07000
C 	C 	0.94210 0.86980 0.50200 0.04600
C 	C 	0.91060 0.92960 0.49610 -0.11500
H 	H 	0.89010 0.92310 0.51110 0.07400
C 	C 	0.90960 0.99860 0.46810 0.06000
H 	H 	0.88820 0.03980 0.46430 -0.01700
C 	C 	0.94410 0.79190 0.53060 0.08500
C 	C 	0.97650 0.66770 0.55730 0.07900
C 	C 	0.92460 0.71890 0.58200 0.10000
C 	C 	0.83270 0.70440 0.62560 0.08500
H 	H 	0.80490 0.71710 0.61680 -0.03400
C 	C 	0.85710 0.72300 0.59870 -0.12800
H 	H 	0.84610 0.74800 0.57180 0.08000
C 	C 	0.89760 0.70550 0.61070 0.06200
C 	C 	0.91300 0.66920 0.65100 -0.12200
H 	H 	0.94060 0.65500 0.66040 0.07100
C 	C 	0.88620 0.65500 0.67640 0.06900
H 	H 	0.89660 0.63420 0.70430 -0.07100
C 	C 	0.04930 0.48240 0.58810 0.07600
H 	H 	0.05630 0.44100 0.61050 -0.03200
C 	C 	0.01770 0.53790 0.58760 -0.14000
H 	H 	0.00240 0.53200 0.60820 0.07400
C 	C 	0.00840 0.60180 0.55730 0.05300
C 	C 	0.02890 0.60060 0.52570 -0.12200
H 	H 	0.02200 0.64090 0.50270 0.07700
C 	C 	0.05960 0.54100 0.52730 0.07000
H 	H 	0.07350 0.54080 0.50520 -0.00800
C 	C 	0.16440 0.55590 0.61060 0.06900
H 	H 	0.14550 0.58800 0.59000 -0.00900
C 	C 	0.19360 0.60250 0.63780 -0.13300
H 	H 	0.19460 0.66520 0.63600 0.10300
C 	C 	0.22170 0.55730 0.66770 0.07700
C 	C 	0.21820 0.46590 0.66950 -0.15400
H 	H 	0.23640 0.43250 0.69010 0.11900
C 	C 	0.18780 0.42460 0.64070 0.08700
H 	H 	0.18590 0.36200 0.64180 -0.03500
C 	C 	0.25460 0.60530 0.69690 0.10400
C 	C 	0.29000 0.72880 0.71720 0.11400
C 	C 	0.30790 0.60170 0.75290 0.09700
C 	C 	0.35470 0.42300 0.82880 0.06600
H 	H 	0.34970 0.36290 0.83440 0.01200
C 	C 	0.32850 0.46590 0.79630 -0.12800
H 	H 	0.30610 0.43530 0.77990 0.11200
C 	C 	0.33500 0.55190 0.78780 0.05800
C 	C 	0.36700 0.59390 0.81290 -0.13400
H 	H 	0.37170 0.65470 0.80860 0.08500
C 	C 	0.39230 0.54740 0.84470 0.07600
H 	H 	0.41470 0.57730 0.86160 -0.01100
C 	C 	0.32580 0.96140 0.73930 0.09400
H 	H 	0.34360 0.99270 0.76120 -0.06500
C 	C 	0.32250 0.87140 0.74380 -0.14600
H 	H 	0.33830 0.84140 0.76760 0.08500
C 	C 	0.29580 0.82630 0.71300 0.09000
C 	C 	0.27450 0.87420 0.67950 -0.15600
H 	H 	0.25570 0.84560 0.65750 0.09500
C 	C 	0.28040 0.96330 0.67780 0.11100
H 	H 	0.26530 0.99540 0.65440 -0.05500
N 	N 	0.84700 0.66860 0.66420 -0.31500
N 	N 	0.93771 0.00960 0.44591 -0.26700
N 	N 	0.07028 0.48340 0.55910 -0.28200
N 	N 	0.91796 0.78600 0.55526 -0.13700
N 	N 	0.97277 0.73340 0.52880 -0.14900
N 	N 	0.95439 0.65900 0.58590 -0.13800
N 	N 	0.16090 0.46790 0.61140 -0.28800
N 	N 	0.27755 0.55680 0.72849 -0.13300
N 	N 	0.25942 0.69080 0.69005 -0.12100
N 	N 	0.31568 0.68750 0.74868 -0.13500
N 	N 	0.30600 0.00650 0.70700 -0.32200
N 	N 	0.38690 0.46310 0.85260 -0.27600
Zn	Zn	0.80958 0.64399 0.70410 0.81800
I 	I 	0.84760 0.69513 0.77653 -1.59800
I 	I 	0.74098 0.70770 0.67225 0.91100
Zn	Zn	0.93180 0.09970 0.39820 0.56000
I 	I 	0.89527 0.23540 0.41590 -0.08200
I 	I 	0.99566 0.10570 0.37182 -0.27000
Zn	Zn	0.11969 0.40359 0.56513 1.15700
I 	I 	0.10723 0.25390 0.59410 -0.17500
I 	I 	0.14170 0.41740 0.49620 -0.16500
Zn	Zn	0.82700 0.64400 0.71960 0.83900
I 	I 	0.87400 0.67060 0.79162 1.09200
I 	I 	0.76101 0.72760 0.69750 -1.36600
Zn	Zn	0.92490 0.10810 0.39780 0.56900
I 	I 	0.89550 0.23860 0.42858 -0.28600
I 	I 	0.98796 0.12470 0.37020 -0.07400
I 	I 	0.10260 0.26470 0.60130 -0.19900
I 	I 	0.14490 0.43170 0.49850 -0.17900
