data_crystal

_cell_length_a 34.93600
_cell_length_b 14.97850
_cell_length_c 30.82500
_cell_angle_alpha 90.00000
_cell_angle_beta  102.85700
_cell_angle_gamma 90.00000

_symmetry_space_group_name_	'P 1'
_symmetry_space_group_name_H-M	'P 1'

loop_
_symmetry_equiv_pos_as_xyz
  x,y,z

loop_
_atom_site_label
_atom_site_type_symbol
_atom_site_fract_x
_atom_site_fract_y
_atom_site_fract_z
_atom_site_charge
C 	C 	0.35290 0.41500 0.83180 0.06300
H 	H 	0.34690 0.35590 0.83920 -0.02300
C 	C 	0.32680 0.45960 0.79840 -0.12200
H 	H 	0.30320 0.43150 0.78330 0.06900
C 	C 	0.33560 0.54570 0.78720 0.05700
C 	C 	0.37040 0.58320 0.81040 -0.12000
H 	H 	0.37740 0.64230 0.80410 0.09200
C 	C 	0.39490 0.53340 0.84280 0.08300
H 	H 	0.41920 0.55870 0.85770 -0.01200
C 	C 	0.30940 0.59690 0.75150 0.10000
C 	C 	0.25620 0.60450 0.69630 0.08600
C 	C 	0.29280 0.72710 0.71650 0.09700
C 	C 	0.17030 0.55280 0.60270 0.08200
H 	H 	0.15430 0.58210 0.57780 0.00100
C 	C 	0.19880 0.60080 0.62950 -0.12400
H 	H 	0.20250 0.66200 0.62350 0.09200
C 	C 	0.22280 0.55920 0.66620 0.04200
C 	C 	0.21510 0.46990 0.67360 -0.12000
H 	H 	0.23010 0.43870 0.69850 0.08100
C 	C 	0.18460 0.42740 0.64360 0.06900
H 	H 	0.17920 0.36660 0.64870 -0.00600
C 	C 	0.33480 0.95580 0.74160 0.06200
H 	H 	0.35610 0.98250 0.76210 -0.02000
C 	C 	0.33060 0.86360 0.74230 -0.12100
H 	H 	0.34910 0.82800 0.76220 0.08300
C 	C 	0.29900 0.82470 0.71360 0.05700
C 	C 	0.27290 0.87950 0.68480 -0.13000
H 	H 	0.25090 0.85550 0.66430 0.08100
C 	C 	0.28010 0.97090 0.68710 0.08000
H 	H 	0.26190 0.00870 0.66810 -0.01800
C 	C 	0.34510 0.22010 0.63790 0.07500
H 	H 	0.32050 0.24980 0.63300 -0.02000
C 	C 	0.36990 0.23780 0.60980 -0.11800
H 	H 	0.36290 0.28090 0.58670 0.08400
C 	C 	0.40520 0.19200 0.61540 0.07000
C 	C 	0.41460 0.13330 0.65110 -0.12600
H 	H 	0.43890 0.10200 0.65680 0.08700
C 	C 	0.38920 0.12130 0.67720 0.08300
H 	H 	0.39610 0.08050 0.70130 -0.02500
C 	C 	0.43190 0.20660 0.58450 0.10300
C 	C 	0.45050 0.28670 0.53100 0.08300
C 	C 	0.48160 0.15840 0.55530 0.08400
C 	C 	0.55370 0.97170 0.58700 0.05500
H 	H 	0.56010 0.92700 0.60940 -0.01100
C 	C 	0.52380 0.03090 0.58880 -0.11000
H 	H 	0.51100 0.02960 0.61290 0.07800
C 	C 	0.51290 0.09300 0.55420 0.04100
C 	C 	0.53210 0.09110 0.51970 -0.12200
H 	H 	0.52450 0.13060 0.49520 0.07600
C 	C 	0.56230 0.03120 0.52100 0.07500
H 	H 	0.57520 0.03010 0.49690 -0.00400
C 	C 	0.41430 0.49950 0.47340 0.04800
H 	H 	0.39350 0.54070 0.47260 -0.01900
C 	C 	0.41740 0.42630 0.50090 -0.10800
H 	H 	0.39870 0.41720 0.51860 0.07900
C 	C 	0.44720 0.36710 0.50270 0.04700
C 	C 	0.47470 0.38300 0.47710 -0.12400
H 	H 	0.49620 0.34380 0.47820 0.06800
C 	C 	0.46970 0.45660 0.45020 0.07900
H 	H 	0.48840 0.46740 0.43260 -0.00500
N 	N 	0.38600 0.45220 0.85390 -0.29900
N 	N 	0.27830 0.55550 0.72760 -0.14700
N 	N 	0.26120 0.69080 0.68880 -0.14200
N 	N 	0.31870 0.68300 0.74690 -0.13300
N 	N 	0.16330 0.46760 0.60890 -0.27400
N 	N 	0.31040 0.00840 0.71360 -0.29200
N 	N 	0.35450 0.16300 0.67150 -0.29900
N 	N 	0.45960 0.14460 0.58520 -0.13600
N 	N 	0.42570 0.27810 0.55830 -0.13400
N 	N 	0.47800 0.22710 0.52730 -0.15500
N 	N 	0.57390 0.97520 0.55450 -0.27000
N 	N 	0.44010 0.51420 0.44740 -0.29200
Zn	Zn	0.31520 0.14670 0.71270 0.63700
I 	I 	0.24911 0.22030 0.68216 -0.47200
I 	I 	0.35704 0.18710 0.78856 0.07000
Zn	Zn	0.62460 0.89940 0.55930 0.57000
I 	I 	0.61381 0.75222 0.59602 -0.04900
I 	I 	0.64923 0.91950 0.48833 -0.34400
Zn	Zn	0.42905 0.61541 0.39990 0.65100
I 	I 	0.39564 0.73902 0.43378 0.16100
I 	I 	0.48766 0.63123 0.36464 -0.65900
Zn	Zn	0.32670 0.14320 0.72230 0.64200
I 	I 	0.26206 0.22870 0.69690 0.08400
I 	I 	0.37262 0.17020 0.79693 -0.49300
Zn	Zn	0.62150 0.88980 0.56590 0.57700
I 	I 	0.60310 0.75060 0.60330 -0.29600
I 	I 	0.64870 0.89060 0.49720 0.00500
Zn	Zn	0.41750 0.62030 0.40590 0.66200
I 	I 	0.37820 0.73260 0.43810 -0.56700
I 	I 	0.47380 0.65580 0.36950 0.28200
C 	C 	0.85290 0.91500 0.83180 0.06400
H 	H 	0.84690 0.85590 0.83920 -0.02200
C 	C 	0.82680 0.95960 0.79840 -0.12100
H 	H 	0.80320 0.93150 0.78330 0.07100
C 	C 	0.83560 0.04570 0.78720 0.05800
C 	C 	0.87040 0.08320 0.81040 -0.11900
H 	H 	0.87740 0.14230 0.80410 0.09300
C 	C 	0.89490 0.03340 0.84280 0.08400
H 	H 	0.91920 0.05870 0.85770 -0.01100
C 	C 	0.80940 0.09690 0.75150 0.10100
C 	C 	0.75620 0.10450 0.69630 0.08700
C 	C 	0.79280 0.22710 0.71650 0.09800
C 	C 	0.67030 0.05280 0.60270 0.08300
H 	H 	0.65430 0.08210 0.57780 0.00200
C 	C 	0.69880 0.10080 0.62950 -0.12300
H 	H 	0.70250 0.16200 0.62350 0.09300
C 	C 	0.72280 0.05920 0.66620 0.04300
C 	C 	0.71510 0.96990 0.67360 -0.12000
H 	H 	0.73010 0.93870 0.69850 0.08200
C 	C 	0.68460 0.92740 0.64360 0.07000
H 	H 	0.67920 0.86660 0.64870 -0.00500
C 	C 	0.83480 0.45580 0.74160 0.06300
H 	H 	0.85610 0.48250 0.76210 -0.01900
C 	C 	0.83060 0.36360 0.74230 -0.12000
H 	H 	0.84910 0.32800 0.76220 0.08400
C 	C 	0.79900 0.32470 0.71360 0.05800
C 	C 	0.77290 0.37950 0.68480 -0.12900
H 	H 	0.75090 0.35550 0.66430 0.08200
C 	C 	0.78010 0.47090 0.68710 0.08100
H 	H 	0.76190 0.50870 0.66810 -0.01800
C 	C 	0.84510 0.72010 0.63790 0.07600
H 	H 	0.82050 0.74980 0.63300 -0.01900
C 	C 	0.86990 0.73780 0.60980 -0.11800
H 	H 	0.86290 0.78090 0.58670 0.08400
C 	C 	0.90520 0.69200 0.61540 0.07000
C 	C 	0.91460 0.63330 0.65110 -0.12600
H 	H 	0.93890 0.60200 0.65680 0.08700
C 	C 	0.88920 0.62130 0.67720 0.08300
H 	H 	0.89610 0.58050 0.70130 -0.02500
C 	C 	0.93190 0.70660 0.58450 0.10300
C 	C 	0.95050 0.78670 0.53100 0.08300
C 	C 	0.98160 0.65840 0.55530 0.08400
C 	C 	0.05370 0.47170 0.58700 0.05500
H 	H 	0.06010 0.42700 0.60940 -0.01100
C 	C 	0.02380 0.53090 0.58880 -0.11000
H 	H 	0.01100 0.52960 0.61290 0.07800
C 	C 	0.01290 0.59300 0.55420 0.04100
C 	C 	0.03210 0.59110 0.51970 -0.12200
H 	H 	0.02450 0.63060 0.49520 0.07600
C 	C 	0.06230 0.53120 0.52100 0.07500
H 	H 	0.07520 0.53010 0.49690 -0.00400
C 	C 	0.91430 0.99950 0.47340 0.04800
H 	H 	0.89350 0.04070 0.47260 -0.01900
C 	C 	0.91740 0.92630 0.50090 -0.10800
H 	H 	0.89870 0.91720 0.51860 0.07900
C 	C 	0.94720 0.86710 0.50270 0.04700
C 	C 	0.97470 0.88300 0.47710 -0.12400
H 	H 	0.99620 0.84380 0.47820 0.06800
C 	C 	0.96970 0.95660 0.45020 0.07900
H 	H 	0.98840 0.96740 0.43260 -0.00500
N 	N 	0.88600 0.95220 0.85390 -0.29900
N 	N 	0.77830 0.05550 0.72760 -0.14700
N 	N 	0.76120 0.19080 0.68880 -0.14200
N 	N 	0.81870 0.18300 0.74690 -0.13300
N 	N 	0.66330 0.96760 0.60890 -0.27400
N 	N 	0.81040 0.50840 0.71360 -0.29200
N 	N 	0.85450 0.66300 0.67150 -0.29900
N 	N 	0.95960 0.64460 0.58520 -0.13600
N 	N 	0.92570 0.77810 0.55830 -0.13400
N 	N 	0.97800 0.72710 0.52730 -0.15500
N 	N 	0.07390 0.47520 0.55450 -0.27000
N 	N 	0.94010 0.01420 0.44740 -0.29200
Zn	Zn	0.81520 0.64670 0.71270 0.63700
I 	I 	0.74911 0.72030 0.68216 -0.47200
I 	I 	0.85704 0.68710 0.78856 0.07000
Zn	Zn	0.12460 0.39940 0.55930 0.57000
I 	I 	0.11381 0.25222 0.59602 -0.04900
I 	I 	0.14923 0.41950 0.48833 -0.34400
Zn	Zn	0.92905 0.11541 0.39990 0.65100
I 	I 	0.89564 0.23902 0.43378 0.16100
I 	I 	0.98766 0.13123 0.36464 -0.65800
Zn	Zn	0.82670 0.64320 0.72230 0.64200
I 	I 	0.76206 0.72870 0.69690 0.08400
I 	I 	0.87262 0.67020 0.79693 -0.49300
Zn	Zn	0.12150 0.38980 0.56590 0.57700
I 	I 	0.10310 0.25060 0.60330 -0.29600
I 	I 	0.14870 0.39060 0.49720 0.00500
Zn	Zn	0.91750 0.12030 0.40590 0.66200
I 	I 	0.87820 0.23260 0.43810 -0.56700
I 	I 	0.97380 0.15580 0.36950 0.28200
C 	C 	0.35290 0.58500 0.33180 0.06400
H 	H 	0.34690 0.64410 0.33920 -0.02200
C 	C 	0.32680 0.54040 0.29840 -0.12100
H 	H 	0.30320 0.56850 0.28330 0.07000
C 	C 	0.33560 0.45430 0.28720 0.05800
C 	C 	0.37040 0.41680 0.31040 -0.11900
H 	H 	0.37740 0.35770 0.30410 0.09300
C 	C 	0.39490 0.46660 0.34280 0.08400
H 	H 	0.41920 0.44130 0.35770 -0.01100
C 	C 	0.30940 0.40310 0.25150 0.10100
C 	C 	0.25620 0.39550 0.19630 0.08700
C 	C 	0.29280 0.27290 0.21650 0.09800
C 	C 	0.17030 0.44720 0.10270 0.08300
H 	H 	0.15430 0.41790 0.07780 0.00200
C 	C 	0.19880 0.39920 0.12950 -0.12300
H 	H 	0.20250 0.33800 0.12350 0.09300
C 	C 	0.22280 0.44080 0.16620 0.04300
C 	C 	0.21510 0.53010 0.17360 -0.11900
H 	H 	0.23010 0.56130 0.19850 0.08200
C 	C 	0.18460 0.57260 0.14360 0.07000
H 	H 	0.17920 0.63340 0.14870 -0.00500
C 	C 	0.33480 0.04420 0.24160 0.06300
H 	H 	0.35610 0.01750 0.26210 -0.01900
C 	C 	0.33060 0.13640 0.24230 -0.11900
H 	H 	0.34910 0.17200 0.26220 0.08400
C 	C 	0.29900 0.17530 0.21360 0.05800
C 	C 	0.27290 0.12050 0.18480 -0.12900
H 	H 	0.25090 0.14450 0.16430 0.08200
C 	C 	0.28010 0.02910 0.18710 0.08100
H 	H 	0.26190 0.99130 0.16810 -0.01700
C 	C 	0.34510 0.77990 0.13790 0.07600
H 	H 	0.32050 0.75020 0.13300 -0.01900
C 	C 	0.36990 0.76220 0.10980 -0.11800
H 	H 	0.36290 0.71910 0.08670 0.08400
C 	C 	0.40520 0.80800 0.11540 0.07000
C 	C 	0.41460 0.86670 0.15110 -0.12600
H 	H 	0.43890 0.89800 0.15680 0.08700
C 	C 	0.38920 0.87870 0.17720 0.08300
H 	H 	0.39610 0.91950 0.20130 -0.02500
C 	C 	0.43190 0.79340 0.08450 0.10300
C 	C 	0.45050 0.71330 0.03100 0.08300
C 	C 	0.48160 0.84160 0.05530 0.08400
C 	C 	0.55370 0.02830 0.08700 0.05500
H 	H 	0.56010 0.07300 0.10940 -0.01100
C 	C 	0.52380 0.96910 0.08880 -0.11000
H 	H 	0.51100 0.97040 0.11290 0.07800
C 	C 	0.51290 0.90700 0.05420 0.04000
C 	C 	0.53210 0.90890 0.01970 -0.12200
H 	H 	0.52450 0.86940 0.99520 0.07600
C 	C 	0.56230 0.96880 0.02100 0.07600
H 	H 	0.57520 0.96990 0.99690 -0.00500
C 	C 	0.41430 0.50050 0.97340 0.04800
H 	H 	0.39350 0.45930 0.97260 -0.01900
C 	C 	0.41740 0.57370 0.00090 -0.10800
H 	H 	0.39870 0.58280 0.01860 0.07900
C 	C 	0.44720 0.63290 0.00270 0.04700
C 	C 	0.47470 0.61700 0.97710 -0.12400
H 	H 	0.49620 0.65620 0.97820 0.06800
C 	C 	0.46970 0.54340 0.95020 0.07900
H 	H 	0.48840 0.53260 0.93260 -0.00500
N 	N 	0.38600 0.54780 0.35390 -0.29900
N 	N 	0.27830 0.44450 0.22760 -0.14700
N 	N 	0.26120 0.30920 0.18880 -0.14200
N 	N 	0.31870 0.31700 0.24690 -0.13300
N 	N 	0.16330 0.53240 0.10890 -0.27400
N 	N 	0.31040 0.99160 0.21360 -0.29200
N 	N 	0.35450 0.83700 0.17150 -0.29900
N 	N 	0.45960 0.85540 0.08520 -0.13600
N 	N 	0.42570 0.72190 0.05830 -0.13400
N 	N 	0.47800 0.77290 0.02730 -0.15500
N 	N 	0.57390 0.02480 0.05450 -0.27000
N 	N 	0.44010 0.48580 0.94740 -0.29200
Zn	Zn	0.31520 0.85330 0.21270 0.63700
I 	I 	0.24911 0.77970 0.18216 -0.47200
I 	I 	0.35704 0.81290 0.28856 0.07000
Zn	Zn	0.62460 0.10060 0.05930 0.57000
I 	I 	0.61381 0.24778 0.09602 -0.04900
I 	I 	0.64923 0.08050 0.98833 -0.34400
Zn	Zn	0.42905 0.38459 0.89990 0.65100
I 	I 	0.39564 0.26098 0.93378 0.16100
I 	I 	0.48766 0.36877 0.86464 -0.65900
Zn	Zn	0.32670 0.85680 0.22230 0.64200
I 	I 	0.26206 0.77130 0.19690 0.08400
I 	I 	0.37262 0.82980 0.29693 -0.49300
Zn	Zn	0.62150 0.11020 0.06590 0.57700
I 	I 	0.60310 0.24940 0.10330 -0.29600
I 	I 	0.64870 0.10940 0.99720 0.00500
Zn	Zn	0.41750 0.37970 0.90590 0.66200
I 	I 	0.37820 0.26740 0.93810 -0.56700
I 	I 	0.47380 0.34420 0.86950 0.28200
C 	C 	0.85290 0.08500 0.33180 0.06400
H 	H 	0.84690 0.14410 0.33920 -0.02200
C 	C 	0.82680 0.04040 0.29840 -0.12100
H 	H 	0.80320 0.06850 0.28330 0.07100
C 	C 	0.83560 0.95430 0.28720 0.05800
C 	C 	0.87040 0.91680 0.31040 -0.11900
H 	H 	0.87740 0.85770 0.30410 0.09300
C 	C 	0.89490 0.96660 0.34280 0.08400
H 	H 	0.91920 0.94130 0.35770 -0.01100
C 	C 	0.80940 0.90310 0.25150 0.10100
C 	C 	0.75620 0.89550 0.19630 0.08700
C 	C 	0.79280 0.77290 0.21650 0.09800
C 	C 	0.67030 0.94720 0.10270 0.08400
H 	H 	0.65430 0.91790 0.07780 0.00200
C 	C 	0.69880 0.89920 0.12950 -0.12300
H 	H 	0.70250 0.83800 0.12350 0.09300
C 	C 	0.72280 0.94080 0.16620 0.04300
C 	C 	0.71510 0.03010 0.17360 -0.12000
H 	H 	0.73010 0.06130 0.19850 0.08300
C 	C 	0.68460 0.07260 0.14360 0.07000
H 	H 	0.67920 0.13340 0.14870 -0.00500
C 	C 	0.83480 0.54420 0.24160 0.06300
H 	H 	0.85610 0.51750 0.26210 -0.01900
C 	C 	0.83060 0.63640 0.24230 -0.12000
H 	H 	0.84910 0.67200 0.26220 0.08400
C 	C 	0.79900 0.67530 0.21360 0.05800
C 	C 	0.77290 0.62050 0.18480 -0.12900
H 	H 	0.75090 0.64450 0.16430 0.08200
C 	C 	0.78010 0.52910 0.18710 0.08100
H 	H 	0.76190 0.49130 0.16810 -0.01800
C 	C 	0.84510 0.27990 0.13790 0.07600
H 	H 	0.82050 0.25020 0.13300 -0.01900
C 	C 	0.86990 0.26220 0.10980 -0.11800
H 	H 	0.86290 0.21910 0.08670 0.08400
C 	C 	0.90520 0.30800 0.11540 0.07000
C 	C 	0.91460 0.36670 0.15110 -0.12600
H 	H 	0.93890 0.39800 0.15680 0.08700
C 	C 	0.88920 0.37870 0.17720 0.08300
H 	H 	0.89610 0.41950 0.20130 -0.02500
C 	C 	0.93190 0.29340 0.08450 0.10300
C 	C 	0.95050 0.21330 0.03100 0.08300
C 	C 	0.98160 0.34160 0.05530 0.08400
C 	C 	0.05370 0.52830 0.08700 0.05500
H 	H 	0.06010 0.57300 0.10940 -0.01100
C 	C 	0.02380 0.46910 0.08880 -0.11000
H 	H 	0.01100 0.47040 0.11290 0.07800
C 	C 	0.01290 0.40700 0.05420 0.04100
C 	C 	0.03210 0.40890 0.01970 -0.12200
H 	H 	0.02450 0.36940 0.99520 0.07600
C 	C 	0.06230 0.46880 0.02100 0.07500
H 	H 	0.07520 0.46990 0.99690 -0.00400
C 	C 	0.91430 0.00050 0.97340 0.04900
H 	H 	0.89350 0.95930 0.97260 -0.02000
C 	C 	0.91740 0.07370 0.00090 -0.10900
H 	H 	0.89870 0.08280 0.01860 0.07900
C 	C 	0.94720 0.13290 0.00270 0.04700
C 	C 	0.97470 0.11700 0.97710 -0.12400
H 	H 	0.99620 0.15620 0.97820 0.06800
C 	C 	0.96970 0.04340 0.95020 0.07900
H 	H 	0.98840 0.03260 0.93260 -0.00500
N 	N 	0.88600 0.04780 0.35390 -0.29900
N 	N 	0.77830 0.94450 0.22760 -0.14700
N 	N 	0.76120 0.80920 0.18880 -0.14200
N 	N 	0.81870 0.81700 0.24690 -0.13300
N 	N 	0.66330 0.03240 0.10890 -0.27400
N 	N 	0.81040 0.49160 0.21360 -0.29200
N 	N 	0.85450 0.33700 0.17150 -0.29900
N 	N 	0.95960 0.35540 0.08520 -0.13600
N 	N 	0.92570 0.22190 0.05830 -0.13400
N 	N 	0.97800 0.27290 0.02730 -0.15500
N 	N 	0.07390 0.52480 0.05450 -0.27000
N 	N 	0.94010 0.98580 0.94740 -0.29300
Zn	Zn	0.81520 0.35330 0.21270 0.63700
I 	I 	0.74911 0.27970 0.18216 -0.47200
I 	I 	0.85704 0.31290 0.28856 0.07000
Zn	Zn	0.12460 0.60060 0.05930 0.57000
I 	I 	0.11381 0.74778 0.09602 -0.04900
I 	I 	0.14923 0.58050 0.98833 -0.34400
Zn	Zn	0.92905 0.88459 0.89990 0.65100
I 	I 	0.89564 0.76098 0.93378 0.16100
I 	I 	0.98766 0.86877 0.86464 -0.65800
Zn	Zn	0.82670 0.35680 0.22230 0.64200
I 	I 	0.76206 0.27130 0.19690 0.08400
I 	I 	0.87262 0.32980 0.29693 -0.49300
Zn	Zn	0.12150 0.61020 0.06590 0.57700
I 	I 	0.10310 0.74940 0.10330 -0.29600
I 	I 	0.14870 0.60940 0.99720 0.00500
Zn	Zn	0.91750 0.87970 0.90590 0.66200
I 	I 	0.87820 0.76740 0.93810 -0.56700
I 	I 	0.97380 0.84420 0.86950 0.28200
C 	C 	0.64710 0.41500 0.66820 0.06400
H 	H 	0.65310 0.35590 0.66080 -0.02200
C 	C 	0.67320 0.45960 0.70160 -0.12100
H 	H 	0.69680 0.43150 0.71670 0.07000
C 	C 	0.66440 0.54570 0.71280 0.05800
C 	C 	0.62960 0.58320 0.68960 -0.11900
H 	H 	0.62260 0.64230 0.69590 0.09300
C 	C 	0.60510 0.53340 0.65720 0.08400
H 	H 	0.58080 0.55870 0.64230 -0.01100
C 	C 	0.69060 0.59690 0.74850 0.10100
C 	C 	0.74380 0.60450 0.80370 0.08700
C 	C 	0.70720 0.72710 0.78350 0.09800
C 	C 	0.82970 0.55280 0.89730 0.08300
H 	H 	0.84570 0.58210 0.92220 0.00200
C 	C 	0.80120 0.60080 0.87050 -0.12300
H 	H 	0.79750 0.66200 0.87650 0.09300
C 	C 	0.77720 0.55920 0.83380 0.04300
C 	C 	0.78490 0.46990 0.82640 -0.11900
H 	H 	0.76990 0.43870 0.80150 0.08200
C 	C 	0.81540 0.42740 0.85640 0.07000
H 	H 	0.82080 0.36660 0.85130 -0.00500
C 	C 	0.66520 0.95580 0.75840 0.06300
H 	H 	0.64390 0.98250 0.73790 -0.01900
C 	C 	0.66940 0.86360 0.75770 -0.11900
H 	H 	0.65090 0.82800 0.73780 0.08400
C 	C 	0.70100 0.82470 0.78640 0.05800
C 	C 	0.72710 0.87950 0.81520 -0.12900
H 	H 	0.74910 0.85550 0.83570 0.08200
C 	C 	0.71990 0.97090 0.81290 0.08100
H 	H 	0.73810 0.00870 0.83190 -0.01700
C 	C 	0.65490 0.22010 0.86210 0.07600
H 	H 	0.67950 0.24980 0.86700 -0.01900
C 	C 	0.63010 0.23780 0.89020 -0.11800
H 	H 	0.63710 0.28090 0.91330 0.08400
C 	C 	0.59480 0.19200 0.88460 0.07000
C 	C 	0.58540 0.13330 0.84890 -0.12600
H 	H 	0.56110 0.10200 0.84320 0.08700
C 	C 	0.61080 0.12130 0.82280 0.08300
H 	H 	0.60390 0.08050 0.79870 -0.02500
C 	C 	0.56810 0.20660 0.91550 0.10300
C 	C 	0.54950 0.28670 0.96900 0.08300
C 	C 	0.51840 0.15840 0.94470 0.08400
C 	C 	0.44630 0.97170 0.91300 0.05500
H 	H 	0.43990 0.92700 0.89060 -0.01100
C 	C 	0.47620 0.03090 0.91120 -0.11000
H 	H 	0.48900 0.02960 0.88710 0.07800
C 	C 	0.48710 0.09300 0.94580 0.04000
C 	C 	0.46790 0.09110 0.98030 -0.12200
H 	H 	0.47550 0.13060 0.00480 0.07600
C 	C 	0.43770 0.03120 0.97900 0.07600
H 	H 	0.42480 0.03010 0.00310 -0.00500
C 	C 	0.58570 0.49950 0.02660 0.04800
H 	H 	0.60650 0.54070 0.02740 -0.01900
C 	C 	0.58260 0.42630 0.99910 -0.10800
H 	H 	0.60130 0.41720 0.98140 0.07900
C 	C 	0.55280 0.36710 0.99730 0.04700
C 	C 	0.52530 0.38300 0.02290 -0.12400
H 	H 	0.50380 0.34380 0.02180 0.06800
C 	C 	0.53030 0.45660 0.04980 0.07900
H 	H 	0.51160 0.46740 0.06740 -0.00500
N 	N 	0.61400 0.45220 0.64610 -0.29900
N 	N 	0.72170 0.55550 0.77240 -0.14700
N 	N 	0.73880 0.69080 0.81120 -0.14200
N 	N 	0.68130 0.68300 0.75310 -0.13300
N 	N 	0.83670 0.46760 0.89110 -0.27400
N 	N 	0.68960 0.00840 0.78640 -0.29200
N 	N 	0.64550 0.16300 0.82850 -0.29900
N 	N 	0.54040 0.14460 0.91480 -0.13600
N 	N 	0.57430 0.27810 0.94170 -0.13400
N 	N 	0.52200 0.22710 0.97270 -0.15500
N 	N 	0.42610 0.97520 0.94550 -0.27000
N 	N 	0.55990 0.51420 0.05260 -0.29200
Zn	Zn	0.68480 0.14670 0.78730 0.63700
I 	I 	0.75089 0.22030 0.81784 -0.47200
I 	I 	0.64296 0.18710 0.71144 0.07000
Zn	Zn	0.37540 0.89940 0.94070 0.57000
I 	I 	0.38619 0.75222 0.90398 -0.04900
I 	I 	0.35077 0.91950 0.01167 -0.34400
Zn	Zn	0.57095 0.61541 0.10010 0.65100
I 	I 	0.60436 0.73902 0.06622 0.16100
I 	I 	0.51234 0.63123 0.13536 -0.65900
Zn	Zn	0.67330 0.14320 0.77770 0.64200
I 	I 	0.73794 0.22870 0.80310 0.08400
I 	I 	0.62738 0.17020 0.70307 -0.49300
Zn	Zn	0.37850 0.88980 0.93410 0.57700
I 	I 	0.39690 0.75060 0.89670 -0.29600
I 	I 	0.35130 0.89060 0.00280 0.00500
Zn	Zn	0.58250 0.62030 0.09410 0.66200
I 	I 	0.62180 0.73260 0.06190 -0.56700
I 	I 	0.52620 0.65580 0.13050 0.28200
C 	C 	0.14710 0.91500 0.66820 0.06400
H 	H 	0.15310 0.85590 0.66080 -0.02200
C 	C 	0.17320 0.95960 0.70160 -0.12100
H 	H 	0.19680 0.93150 0.71670 0.07100
C 	C 	0.16440 0.04570 0.71280 0.05800
C 	C 	0.12960 0.08320 0.68960 -0.11900
H 	H 	0.12260 0.14230 0.69590 0.09300
C 	C 	0.10510 0.03340 0.65720 0.08400
H 	H 	0.08080 0.05870 0.64230 -0.01100
C 	C 	0.19060 0.09690 0.74850 0.10100
C 	C 	0.24380 0.10450 0.80370 0.08700
C 	C 	0.20720 0.22710 0.78350 0.09800
C 	C 	0.32970 0.05280 0.89730 0.08400
H 	H 	0.34570 0.08210 0.92220 0.00200
C 	C 	0.30120 0.10080 0.87050 -0.12300
H 	H 	0.29750 0.16200 0.87650 0.09300
C 	C 	0.27720 0.05920 0.83380 0.04300
C 	C 	0.28490 0.96990 0.82640 -0.12000
H 	H 	0.26990 0.93870 0.80150 0.08300
C 	C 	0.31540 0.92740 0.85640 0.07000
H 	H 	0.32080 0.86660 0.85130 -0.00500
C 	C 	0.16520 0.45580 0.75840 0.06300
H 	H 	0.14390 0.48250 0.73790 -0.01900
C 	C 	0.16940 0.36360 0.75770 -0.12000
H 	H 	0.15090 0.32800 0.73780 0.08400
C 	C 	0.20100 0.32470 0.78640 0.05800
C 	C 	0.22710 0.37950 0.81520 -0.12900
H 	H 	0.24910 0.35550 0.83570 0.08200
C 	C 	0.21990 0.47090 0.81290 0.08100
H 	H 	0.23810 0.50870 0.83190 -0.01800
C 	C 	0.15490 0.72010 0.86210 0.07600
H 	H 	0.17950 0.74980 0.86700 -0.01900
C 	C 	0.13010 0.73780 0.89020 -0.11800
H 	H 	0.13710 0.78090 0.91330 0.08400
C 	C 	0.09480 0.69200 0.88460 0.07000
C 	C 	0.08540 0.63330 0.84890 -0.12600
H 	H 	0.06110 0.60200 0.84320 0.08700
C 	C 	0.11080 0.62130 0.82280 0.08300
H 	H 	0.10390 0.58050 0.79870 -0.02500
C 	C 	0.06810 0.70660 0.91550 0.10300
C 	C 	0.04950 0.78670 0.96900 0.08300
C 	C 	0.01840 0.65840 0.94470 0.08400
C 	C 	0.94630 0.47170 0.91300 0.05500
H 	H 	0.93990 0.42700 0.89060 -0.01100
C 	C 	0.97620 0.53090 0.91120 -0.11000
H 	H 	0.98900 0.52960 0.88710 0.07800
C 	C 	0.98710 0.59300 0.94580 0.04100
C 	C 	0.96790 0.59110 0.98030 -0.12200
H 	H 	0.97550 0.63060 0.00480 0.07600
C 	C 	0.93770 0.53120 0.97900 0.07500
H 	H 	0.92480 0.53010 0.00310 -0.00400
C 	C 	0.08570 0.99950 0.02660 0.04900
H 	H 	0.10650 0.04070 0.02740 -0.02000
C 	C 	0.08260 0.92630 0.99910 -0.10900
H 	H 	0.10130 0.91720 0.98140 0.07900
C 	C 	0.05280 0.86710 0.99730 0.04700
C 	C 	0.02530 0.88300 0.02290 -0.12400
H 	H 	0.00380 0.84380 0.02180 0.06800
C 	C 	0.03030 0.95660 0.04980 0.07900
H 	H 	0.01160 0.96740 0.06740 -0.00500
N 	N 	0.11400 0.95220 0.64610 -0.29900
N 	N 	0.22170 0.05550 0.77240 -0.14700
N 	N 	0.23880 0.19080 0.81120 -0.14200
N 	N 	0.18130 0.18300 0.75310 -0.13300
N 	N 	0.33670 0.96760 0.89110 -0.27400
N 	N 	0.18960 0.50840 0.78640 -0.29200
N 	N 	0.14550 0.66300 0.82850 -0.29900
N 	N 	0.04040 0.64460 0.91480 -0.13600
N 	N 	0.07430 0.77810 0.94170 -0.13400
N 	N 	0.02200 0.72710 0.97270 -0.15500
N 	N 	0.92610 0.47520 0.94550 -0.27000
N 	N 	0.05990 0.01420 0.05260 -0.29300
Zn	Zn	0.18480 0.64670 0.78730 0.63700
I 	I 	0.25089 0.72030 0.81784 -0.47200
I 	I 	0.14296 0.68710 0.71144 0.07000
Zn	Zn	0.87540 0.39940 0.94070 0.57000
I 	I 	0.88619 0.25222 0.90398 -0.04900
I 	I 	0.85077 0.41950 0.01167 -0.34400
Zn	Zn	0.07095 0.11541 0.10010 0.65100
I 	I 	0.10436 0.23902 0.06622 0.16100
I 	I 	0.01234 0.13123 0.13536 -0.65800
Zn	Zn	0.17330 0.64320 0.77770 0.64200
I 	I 	0.23794 0.72870 0.80310 0.08400
I 	I 	0.12738 0.67020 0.70307 -0.49300
Zn	Zn	0.87850 0.38980 0.93410 0.57700
I 	I 	0.89690 0.25060 0.89670 -0.29600
I 	I 	0.85130 0.39060 0.00280 0.00500
Zn	Zn	0.08250 0.12030 0.09410 0.66200
I 	I 	0.12180 0.23260 0.06190 -0.56700
I 	I 	0.02620 0.15580 0.13050 0.28200
C 	C 	0.64710 0.58500 0.16820 0.06400
H 	H 	0.65310 0.64410 0.16080 -0.02200
C 	C 	0.67320 0.54040 0.20160 -0.12100
H 	H 	0.69680 0.56850 0.21670 0.07000
C 	C 	0.66440 0.45430 0.21280 0.05800
C 	C 	0.62960 0.41680 0.18960 -0.11900
H 	H 	0.62260 0.35770 0.19590 0.09300
C 	C 	0.60510 0.46660 0.15720 0.08400
H 	H 	0.58080 0.44130 0.14230 -0.01100
C 	C 	0.69060 0.40310 0.24850 0.10100
C 	C 	0.74380 0.39550 0.30370 0.08700
C 	C 	0.70720 0.27290 0.28350 0.09800
C 	C 	0.82970 0.44720 0.39730 0.08300
H 	H 	0.84570 0.41790 0.42220 0.00200
C 	C 	0.80120 0.39920 0.37050 -0.12300
H 	H 	0.79750 0.33800 0.37650 0.09300
C 	C 	0.77720 0.44080 0.33380 0.04300
C 	C 	0.78490 0.53010 0.32640 -0.11900
H 	H 	0.76990 0.56130 0.30150 0.08200
C 	C 	0.81540 0.57260 0.35640 0.07000
H 	H 	0.82080 0.63340 0.35130 -0.00500
C 	C 	0.66520 0.04420 0.25840 0.06300
H 	H 	0.64390 0.01750 0.23790 -0.01900
C 	C 	0.66940 0.13640 0.25770 -0.12000
H 	H 	0.65090 0.17200 0.23780 0.08400
C 	C 	0.70100 0.17530 0.28640 0.05800
C 	C 	0.72710 0.12050 0.31520 -0.12900
H 	H 	0.74910 0.14450 0.33570 0.08200
C 	C 	0.71990 0.02910 0.31290 0.08100
H 	H 	0.73810 0.99130 0.33190 -0.01700
C 	C 	0.65490 0.77990 0.36210 0.07600
H 	H 	0.67950 0.75020 0.36700 -0.01900
C 	C 	0.63010 0.76220 0.39020 -0.11800
H 	H 	0.63710 0.71910 0.41330 0.08400
C 	C 	0.59480 0.80800 0.38460 0.07000
C 	C 	0.58540 0.86670 0.34890 -0.12600
H 	H 	0.56110 0.89800 0.34320 0.08700
C 	C 	0.61080 0.87870 0.32280 0.08300
H 	H 	0.60390 0.91950 0.29870 -0.02500
C 	C 	0.56810 0.79340 0.41550 0.10300
C 	C 	0.54950 0.71330 0.46900 0.08300
C 	C 	0.51840 0.84160 0.44470 0.08400
C 	C 	0.44630 0.02830 0.41300 0.05500
H 	H 	0.43990 0.07300 0.39060 -0.01100
C 	C 	0.47620 0.96910 0.41120 -0.11000
H 	H 	0.48900 0.97040 0.38710 0.07800
C 	C 	0.48710 0.90700 0.44580 0.04100
C 	C 	0.46790 0.90890 0.48030 -0.12200
H 	H 	0.47550 0.86940 0.50480 0.07600
C 	C 	0.43770 0.96880 0.47900 0.07500
H 	H 	0.42480 0.96990 0.50310 -0.00400
C 	C 	0.58570 0.50050 0.52660 0.04800
H 	H 	0.60650 0.45930 0.52740 -0.01900
C 	C 	0.58260 0.57370 0.49910 -0.10800
H 	H 	0.60130 0.58280 0.48140 0.07900
C 	C 	0.55280 0.63290 0.49730 0.04700
C 	C 	0.52530 0.61700 0.52290 -0.12400
H 	H 	0.50380 0.65620 0.52180 0.06800
C 	C 	0.53030 0.54340 0.54980 0.07900
H 	H 	0.51160 0.53260 0.56740 -0.00500
N 	N 	0.61400 0.54780 0.14610 -0.29900
N 	N 	0.72170 0.44450 0.27240 -0.14700
N 	N 	0.73880 0.30920 0.31120 -0.14200
N 	N 	0.68130 0.31700 0.25310 -0.13300
N 	N 	0.83670 0.53240 0.39110 -0.27400
N 	N 	0.68960 0.99160 0.28640 -0.29200
N 	N 	0.64550 0.83700 0.32850 -0.29900
N 	N 	0.54040 0.85540 0.41480 -0.13600
N 	N 	0.57430 0.72190 0.44170 -0.13400
N 	N 	0.52200 0.77290 0.47270 -0.15500
N 	N 	0.42610 0.02480 0.44550 -0.27000
N 	N 	0.55990 0.48580 0.55260 -0.29200
Zn	Zn	0.68480 0.85330 0.28730 0.63700
I 	I 	0.75089 0.77970 0.31784 -0.47200
I 	I 	0.64296 0.81290 0.21144 0.07000
Zn	Zn	0.37540 0.10060 0.44070 0.57000
I 	I 	0.38619 0.24778 0.40398 -0.04900
I 	I 	0.35077 0.08050 0.51167 -0.34400
Zn	Zn	0.57095 0.38459 0.60010 0.65100
I 	I 	0.60436 0.26098 0.56622 0.16100
I 	I 	0.51234 0.36877 0.63536 -0.65900
Zn	Zn	0.67330 0.85680 0.27770 0.64200
I 	I 	0.73794 0.77130 0.30310 0.08400
I 	I 	0.62738 0.82980 0.20307 -0.49300
Zn	Zn	0.37850 0.11020 0.43410 0.57700
I 	I 	0.39690 0.24940 0.39670 -0.29600
I 	I 	0.35130 0.10940 0.50280 0.00500
Zn	Zn	0.58250 0.37970 0.59410 0.66200
I 	I 	0.62180 0.26740 0.56190 -0.56700
I 	I 	0.52620 0.34420 0.63050 0.28200
C 	C 	0.14710 0.08500 0.16820 0.06400
H 	H 	0.15310 0.14410 0.16080 -0.02200
C 	C 	0.17320 0.04040 0.20160 -0.12100
H 	H 	0.19680 0.06850 0.21670 0.07100
C 	C 	0.16440 0.95430 0.21280 0.05800
C 	C 	0.12960 0.91680 0.18960 -0.11900
H 	H 	0.12260 0.85770 0.19590 0.09300
C 	C 	0.10510 0.96660 0.15720 0.08400
H 	H 	0.08080 0.94130 0.14230 -0.01100
C 	C 	0.19060 0.90310 0.24850 0.10100
C 	C 	0.24380 0.89550 0.30370 0.08700
C 	C 	0.20720 0.77290 0.28350 0.09800
C 	C 	0.32970 0.94720 0.39730 0.08300
H 	H 	0.34570 0.91790 0.42220 0.00200
C 	C 	0.30120 0.89920 0.37050 -0.12300
H 	H 	0.29750 0.83800 0.37650 0.09300
C 	C 	0.27720 0.94080 0.33380 0.04300
C 	C 	0.28490 0.03010 0.32640 -0.12000
H 	H 	0.26990 0.06130 0.30150 0.08200
C 	C 	0.31540 0.07260 0.35640 0.07000
H 	H 	0.32080 0.13340 0.35130 -0.00500
C 	C 	0.16520 0.54420 0.25840 0.06300
H 	H 	0.14390 0.51750 0.23790 -0.01900
C 	C 	0.16940 0.63640 0.25770 -0.12000
H 	H 	0.15090 0.67200 0.23780 0.08400
C 	C 	0.20100 0.67530 0.28640 0.05800
C 	C 	0.22710 0.62050 0.31520 -0.12900
H 	H 	0.24910 0.64450 0.33570 0.08200
C 	C 	0.21990 0.52910 0.31290 0.08100
H 	H 	0.23810 0.49130 0.33190 -0.01800
C 	C 	0.15490 0.27990 0.36210 0.07600
H 	H 	0.17950 0.25020 0.36700 -0.01900
C 	C 	0.13010 0.26220 0.39020 -0.11800
H 	H 	0.13710 0.21910 0.41330 0.08400
C 	C 	0.09480 0.30800 0.38460 0.07000
C 	C 	0.08540 0.36670 0.34890 -0.12600
H 	H 	0.06110 0.39800 0.34320 0.08700
C 	C 	0.11080 0.37870 0.32280 0.08300
H 	H 	0.10390 0.41950 0.29870 -0.02500
C 	C 	0.06810 0.29340 0.41550 0.10300
C 	C 	0.04950 0.21330 0.46900 0.08300
C 	C 	0.01840 0.34160 0.44470 0.08400
C 	C 	0.94630 0.52830 0.41300 0.05500
H 	H 	0.93990 0.57300 0.39060 -0.01100
C 	C 	0.97620 0.46910 0.41120 -0.11000
H 	H 	0.98900 0.47040 0.38710 0.07800
C 	C 	0.98710 0.40700 0.44580 0.04100
C 	C 	0.96790 0.40890 0.48030 -0.12200
H 	H 	0.97550 0.36940 0.50480 0.07600
C 	C 	0.93770 0.46880 0.47900 0.07500
H 	H 	0.92480 0.46990 0.50310 -0.00400
C 	C 	0.08570 0.00050 0.52660 0.04800
H 	H 	0.10650 0.95930 0.52740 -0.01900
C 	C 	0.08260 0.07370 0.49910 -0.10800
H 	H 	0.10130 0.08280 0.48140 0.07900
C 	C 	0.05280 0.13290 0.49730 0.04700
C 	C 	0.02530 0.11700 0.52290 -0.12400
H 	H 	0.00380 0.15620 0.52180 0.06800
C 	C 	0.03030 0.04340 0.54980 0.07900
H 	H 	0.01160 0.03260 0.56740 -0.00500
N 	N 	0.11400 0.04780 0.14610 -0.29900
N 	N 	0.22170 0.94450 0.27240 -0.14700
N 	N 	0.23880 0.80920 0.31120 -0.14200
N 	N 	0.18130 0.81700 0.25310 -0.13300
N 	N 	0.33670 0.03240 0.39110 -0.27400
N 	N 	0.18960 0.49160 0.28640 -0.29200
N 	N 	0.14550 0.33700 0.32850 -0.29900
N 	N 	0.04040 0.35540 0.41480 -0.13600
N 	N 	0.07430 0.22190 0.44170 -0.13400
N 	N 	0.02200 0.27290 0.47270 -0.15500
N 	N 	0.92610 0.52480 0.44550 -0.27000
N 	N 	0.05990 0.98580 0.55260 -0.29200
Zn	Zn	0.18480 0.35330 0.28730 0.63700
I 	I 	0.25089 0.27970 0.31784 -0.47200
I 	I 	0.14296 0.31290 0.21144 0.07000
Zn	Zn	0.87540 0.60060 0.44070 0.57000
I 	I 	0.88619 0.74778 0.40398 -0.04900
I 	I 	0.85077 0.58050 0.51167 -0.34400
Zn	Zn	0.07095 0.88459 0.60010 0.65100
I 	I 	0.10436 0.76098 0.56622 0.16100
I 	I 	0.01234 0.86877 0.63536 -0.65800
Zn	Zn	0.17330 0.35680 0.27770 0.64200
I 	I 	0.23794 0.27130 0.30310 0.08400
I 	I 	0.12738 0.32980 0.20307 -0.49300
Zn	Zn	0.87850 0.61020 0.43410 0.57700
I 	I 	0.89690 0.74940 0.39670 -0.29600
I 	I 	0.85130 0.60940 0.50280 0.00500
Zn	Zn	0.08250 0.87970 0.59410 0.66200
I 	I 	0.12180 0.76740 0.56190 -0.56700
I 	I 	0.02620 0.84420 0.63050 0.28200
