data_crystal

_cell_length_a 34.65500
_cell_length_b 14.73070
_cell_length_c 31.08100
_cell_angle_alpha 90.00000
_cell_angle_beta  101.03100
_cell_angle_gamma 90.00000

_symmetry_space_group_name_	'P 1'
_symmetry_space_group_name_H-M	'P 1'

loop_
_symmetry_equiv_pos_as_xyz
  x,y,z

loop_
_atom_site_label
_atom_site_type_symbol
_atom_site_fract_x
_atom_site_fract_y
_atom_site_fract_z
_atom_site_charge
C 	C 	0.88880 0.02520 0.84600 0.06800
H 	H 	0.91270 0.05000 0.86170 -0.05100
C 	C 	0.86540 0.07760 0.81330 -0.09900
H 	H 	0.87130 0.13970 0.80960 0.02800
C 	C 	0.83350 0.03710 0.78650 0.04600
C 	C 	0.82400 0.94810 0.79540 -0.11100
H 	H 	0.80230 0.91810 0.77770 0.06400
C 	C 	0.84680 0.90460 0.83050 0.06200
H 	H 	0.83980 0.84470 0.83720 -0.01400
C 	C 	0.81030 0.08970 0.75030 0.10400
C 	C 	0.76040 0.10010 0.69250 0.08800
C 	C 	0.79680 0.22160 0.71430 0.10800
C 	C 	0.78420 0.47410 0.69410 0.06700
H 	H 	0.76530 0.51470 0.67840 -0.00300
C 	C 	0.77770 0.38110 0.68930 -0.09700
H 	H 	0.75520 0.35880 0.66980 0.08400
C 	C 	0.80440 0.32170 0.71320 0.05500
C 	C 	0.83850 0.35590 0.73970 -0.09500
H 	H 	0.85790 0.31630 0.75530 0.05700
C 	C 	0.84310 0.45000 0.74250 0.06100
H 	H 	0.86600 0.47410 0.76080 -0.01700
C 	C 	0.68560 0.92660 0.64380 0.09600
H 	H 	0.67720 0.86840 0.65150 -0.01700
C 	C 	0.71480 0.96930 0.67120 -0.13600
H 	H 	0.72680 0.94020 0.69770 0.08700
C 	C 	0.72760 0.05420 0.66170 0.05700
C 	C 	0.70890 0.09420 0.62370 -0.11500
H 	H 	0.71610 0.15360 0.61640 0.10100
C 	C 	0.68020 0.04940 0.59660 0.06500
H 	H 	0.66800 0.07800 0.57000 0.00500
C 	C 	0.56380 0.03380 0.51970 0.05400
H 	H 	0.57490 0.02560 0.49430 0.01400
C 	C 	0.53280 0.09330 0.51830 -0.10900
H 	H 	0.52340 0.12750 0.49250 0.08100
C 	C 	0.51560 0.10270 0.55510 0.04700
C 	C 	0.53250 0.05520 0.59390 -0.13400
H 	H 	0.52300 0.06350 0.62040 0.09500
C 	C 	0.56290 0.99690 0.59190 0.09600
H 	H 	0.57310 0.96170 0.61710 -0.07600
C 	C 	0.48250 0.16540 0.55590 0.09400
C 	C 	0.44800 0.29040 0.53170 0.11600
C 	C 	0.43270 0.20880 0.58760 0.10600
C 	C 	0.40380 0.49970 0.47280 0.06100
H 	H 	0.38060 0.53500 0.47100 0.00500
C 	C 	0.40980 0.42570 0.50110 -0.07600
H 	H 	0.39150 0.41290 0.51950 0.10800
C 	C 	0.44230 0.37100 0.50260 0.07500
C 	C 	0.46880 0.39590 0.47730 -0.13200
H 	H 	0.49180 0.36040 0.47830 0.06700
C 	C 	0.46310 0.46980 0.45090 0.06100
H 	H 	0.48230 0.48540 0.43410 -0.01200
C 	C 	0.39650 0.12760 0.68660 0.08800
H 	H 	0.40500 0.08960 0.71130 -0.01000
C 	C 	0.42070 0.14010 0.65690 -0.11100
H 	H 	0.44570 0.11140 0.66090 0.09800
C 	C 	0.40760 0.19630 0.62040 0.08100
C 	C 	0.37180 0.23740 0.61670 -0.12600
H 	H 	0.36240 0.27630 0.59260 0.10700
C 	C 	0.34970 0.22230 0.64810 0.09500
H 	H 	0.32520 0.25260 0.64530 -0.01700
N 	N 	0.87860 0.94250 0.85580 -0.28100
N 	N 	0.82070 0.17590 0.74610 -0.13900
N 	N 	0.76680 0.18690 0.68570 -0.13900
N 	N 	0.77940 0.04870 0.72480 -0.14500
N 	N 	0.81630 0.50820 0.72010 -0.28800
N 	N 	0.66790 0.96500 0.60560 -0.28600
N 	N 	0.57880 0.98680 0.55690 -0.30200
N 	N 	0.47710 0.23260 0.52620 -0.15000
N 	N 	0.42540 0.28280 0.56060 -0.12200
N 	N 	0.46120 0.14860 0.58670 -0.12300
N 	N 	0.43010 0.52250 0.44780 -0.29100
N 	N 	0.36060 0.16820 0.68170 -0.29600
Zn	Zn	0.91792 0.87200 0.90263 0.61400
Zn	Zn	0.62530 0.89722 0.56223 0.76000
Zn	Zn	0.32837 0.14613 0.73023 0.65000
I 	I 	0.88062 0.75614 0.93859 0.11800
I 	I 	0.97679 0.84585 0.86676 -0.39600
I 	I 	0.60666 0.75694 0.60005 2.55200
I 	I 	0.64787 0.89708 0.48967 0.21600
I 	I 	0.37241 0.15958 0.80549 -0.49800
I 	I 	0.26512 0.23637 0.70730 0.16700
Zn	Zn	0.90930 0.87700 0.90970 0.63600
Zn	Zn	0.63070 0.91480 0.54980 0.69400
Zn	Zn	0.31770 0.14490 0.71810 0.66000
I 	I 	0.86430 0.77280 0.94200 -0.44200
I 	I 	0.96930 0.83130 0.87700 0.04600
I 	I 	0.62040 0.75790 0.57680 -3.00600
I 	I 	0.65450 0.92920 0.47770 -0.48100
I 	I 	0.35950 0.17010 0.79440 0.06900
I 	I 	0.25340 0.22360 0.68930 -0.54400
C 	C 	0.62160 0.06800 0.42360 0.35600
H 	H 	0.62790 0.00960 0.44000 0.03400
Cl	Cl	0.63700 0.16000 0.45870 -0.28800
Cl	Cl	0.64440 0.06930 0.37820 -0.30300
Cl	Cl	0.57070 0.07700 0.40560 -0.33800
C 	C 	0.38880 0.52520 0.84600 0.06700
H 	H 	0.41270 0.55000 0.86170 -0.05200
C 	C 	0.36540 0.57760 0.81330 -0.10000
H 	H 	0.37130 0.63970 0.80960 0.02700
C 	C 	0.33350 0.53710 0.78650 0.04400
C 	C 	0.32400 0.44810 0.79540 -0.11200
H 	H 	0.30230 0.41810 0.77770 0.06300
C 	C 	0.34680 0.40460 0.83050 0.06100
H 	H 	0.33980 0.34470 0.83720 -0.01400
C 	C 	0.31030 0.58970 0.75030 0.10400
C 	C 	0.26040 0.60010 0.69250 0.08800
C 	C 	0.29680 0.72160 0.71430 0.10800
C 	C 	0.28420 0.97410 0.69410 0.06700
H 	H 	0.26530 0.01470 0.67840 -0.00300
C 	C 	0.27770 0.88110 0.68930 -0.09700
H 	H 	0.25520 0.85880 0.66980 0.08400
C 	C 	0.30440 0.82170 0.71320 0.05500
C 	C 	0.33850 0.85590 0.73970 -0.09500
H 	H 	0.35790 0.81630 0.75530 0.05700
C 	C 	0.34310 0.95000 0.74250 0.06100
H 	H 	0.36600 0.97410 0.76080 -0.01700
C 	C 	0.18560 0.42660 0.64380 0.09600
H 	H 	0.17720 0.36840 0.65150 -0.01700
C 	C 	0.21480 0.46930 0.67120 -0.13600
H 	H 	0.22680 0.44020 0.69770 0.08700
C 	C 	0.22760 0.55420 0.66170 0.05700
C 	C 	0.20890 0.59420 0.62370 -0.11400
H 	H 	0.21610 0.65360 0.61640 0.10100
C 	C 	0.18020 0.54940 0.59660 0.06500
H 	H 	0.16800 0.57800 0.57000 0.00500
C 	C 	0.06380 0.53380 0.51970 0.05400
H 	H 	0.07490 0.52560 0.49430 0.01400
C 	C 	0.03280 0.59330 0.51830 -0.10900
H 	H 	0.02340 0.62750 0.49250 0.08100
C 	C 	0.01560 0.60270 0.55510 0.04700
C 	C 	0.03250 0.55520 0.59390 -0.13400
H 	H 	0.02300 0.56350 0.62040 0.09500
C 	C 	0.06290 0.49690 0.59190 0.09600
H 	H 	0.07310 0.46170 0.61710 -0.07600
C 	C 	0.98250 0.66540 0.55590 0.09400
C 	C 	0.94800 0.79040 0.53170 0.11600
C 	C 	0.93270 0.70880 0.58760 0.10600
C 	C 	0.90380 0.99970 0.47280 0.06100
H 	H 	0.88060 0.03500 0.47100 0.00500
C 	C 	0.90980 0.92570 0.50110 -0.07600
H 	H 	0.89150 0.91290 0.51950 0.10800
C 	C 	0.94230 0.87100 0.50260 0.07500
C 	C 	0.96880 0.89590 0.47730 -0.13200
H 	H 	0.99180 0.86040 0.47830 0.06700
C 	C 	0.96310 0.96980 0.45090 0.06100
H 	H 	0.98230 0.98540 0.43410 -0.01200
C 	C 	0.89650 0.62760 0.68660 0.08800
H 	H 	0.90500 0.58960 0.71130 -0.01000
C 	C 	0.92070 0.64010 0.65690 -0.11100
H 	H 	0.94570 0.61140 0.66090 0.09800
C 	C 	0.90760 0.69630 0.62040 0.08100
C 	C 	0.87180 0.73740 0.61670 -0.12600
H 	H 	0.86240 0.77630 0.59260 0.10700
C 	C 	0.84970 0.72230 0.64810 0.09500
H 	H 	0.82520 0.75260 0.64530 -0.01700
N 	N 	0.37860 0.44250 0.85580 -0.28100
N 	N 	0.32070 0.67590 0.74610 -0.13900
N 	N 	0.26680 0.68690 0.68570 -0.13900
N 	N 	0.27940 0.54870 0.72480 -0.14500
N 	N 	0.31630 0.00820 0.72010 -0.28800
N 	N 	0.16790 0.46500 0.60560 -0.28600
N 	N 	0.07880 0.48680 0.55690 -0.30200
N 	N 	0.97710 0.73260 0.52620 -0.15000
N 	N 	0.92540 0.78280 0.56060 -0.12200
N 	N 	0.96120 0.64860 0.58670 -0.12300
N 	N 	0.93010 0.02250 0.44780 -0.29200
N 	N 	0.86060 0.66820 0.68170 -0.29600
Zn	Zn	0.41792 0.37200 0.90263 0.61400
Zn	Zn	0.12530 0.39722 0.56223 0.76000
Zn	Zn	0.82837 0.64613 0.73023 0.65000
I 	I 	0.38062 0.25614 0.93859 0.11800
I 	I 	0.47679 0.34585 0.86676 -0.39600
I 	I 	0.10666 0.25694 0.60005 2.55200
I 	I 	0.14787 0.39708 0.48967 0.21600
I 	I 	0.87241 0.65958 0.80549 -0.49800
I 	I 	0.76512 0.73637 0.70730 0.16700
Zn	Zn	0.40930 0.37700 0.90970 0.63600
Zn	Zn	0.13070 0.41480 0.54980 0.69400
Zn	Zn	0.81770 0.64490 0.71810 0.66000
I 	I 	0.36430 0.27280 0.94200 -0.44200
I 	I 	0.46930 0.33130 0.87700 0.04600
I 	I 	0.12040 0.25790 0.57680 -3.00700
I 	I 	0.15450 0.42920 0.47770 -0.48100
I 	I 	0.85950 0.67010 0.79440 0.06900
I 	I 	0.75340 0.72360 0.68930 -0.54400
C 	C 	0.12160 0.56800 0.42360 0.35600
H 	H 	0.12790 0.50960 0.44000 0.03400
Cl	Cl	0.13700 0.66000 0.45870 -0.28800
Cl	Cl	0.14440 0.56930 0.37820 -0.30300
Cl	Cl	0.07070 0.57700 0.40560 -0.33800
C 	C 	0.88880 0.97480 0.34600 0.06700
H 	H 	0.91270 0.95000 0.36170 -0.05200
C 	C 	0.86540 0.92240 0.31330 -0.10000
H 	H 	0.87130 0.86030 0.30960 0.02700
C 	C 	0.83350 0.96290 0.28650 0.04500
C 	C 	0.82400 0.05190 0.29540 -0.11200
H 	H 	0.80230 0.08190 0.27770 0.06300
C 	C 	0.84680 0.09540 0.33050 0.06100
H 	H 	0.83980 0.15530 0.33720 -0.01400
C 	C 	0.81030 0.91030 0.25030 0.10400
C 	C 	0.76040 0.89990 0.19250 0.08800
C 	C 	0.79680 0.77840 0.21430 0.10800
C 	C 	0.78420 0.52590 0.19410 0.06700
H 	H 	0.76530 0.48530 0.17840 -0.00300
C 	C 	0.77770 0.61890 0.18930 -0.09700
H 	H 	0.75520 0.64120 0.16980 0.08400
C 	C 	0.80440 0.67830 0.21320 0.05500
C 	C 	0.83850 0.64410 0.23970 -0.09500
H 	H 	0.85790 0.68370 0.25530 0.05700
C 	C 	0.84310 0.55000 0.24250 0.06100
H 	H 	0.86600 0.52590 0.26080 -0.01700
C 	C 	0.68560 0.07340 0.14380 0.09600
H 	H 	0.67720 0.13160 0.15150 -0.01700
C 	C 	0.71480 0.03070 0.17120 -0.13700
H 	H 	0.72680 0.05980 0.19770 0.08700
C 	C 	0.72760 0.94580 0.16170 0.05700
C 	C 	0.70890 0.90580 0.12370 -0.11500
H 	H 	0.71610 0.84640 0.11640 0.10100
C 	C 	0.68020 0.95060 0.09660 0.06500
H 	H 	0.66800 0.92200 0.07000 0.00500
C 	C 	0.56380 0.96620 0.01970 0.05400
H 	H 	0.57490 0.97440 0.99430 0.01400
C 	C 	0.53280 0.90670 0.01830 -0.10900
H 	H 	0.52340 0.87250 0.99250 0.08100
C 	C 	0.51560 0.89730 0.05510 0.04700
C 	C 	0.53250 0.94480 0.09390 -0.13400
H 	H 	0.52300 0.93650 0.12040 0.09400
C 	C 	0.56290 0.00310 0.09190 0.09500
H 	H 	0.57310 0.03830 0.11710 -0.07600
C 	C 	0.48250 0.83460 0.05590 0.09400
C 	C 	0.44800 0.70960 0.03170 0.11600
C 	C 	0.43270 0.79120 0.08760 0.10600
C 	C 	0.40380 0.50030 0.97280 0.06100
H 	H 	0.38060 0.46500 0.97100 0.00500
C 	C 	0.40980 0.57430 0.00110 -0.07600
H 	H 	0.39150 0.58710 0.01950 0.10800
C 	C 	0.44230 0.62900 0.00260 0.07500
C 	C 	0.46880 0.60410 0.97730 -0.13200
H 	H 	0.49180 0.63960 0.97830 0.06700
C 	C 	0.46310 0.53020 0.95090 0.06100
H 	H 	0.48230 0.51460 0.93410 -0.01200
C 	C 	0.39650 0.87240 0.18660 0.08800
H 	H 	0.40500 0.91040 0.21130 -0.01000
C 	C 	0.42070 0.85990 0.15690 -0.11100
H 	H 	0.44570 0.88860 0.16090 0.09800
C 	C 	0.40760 0.80370 0.12040 0.08100
C 	C 	0.37180 0.76260 0.11670 -0.12600
H 	H 	0.36240 0.72370 0.09260 0.10700
C 	C 	0.34970 0.77770 0.14810 0.09500
H 	H 	0.32520 0.74740 0.14530 -0.01700
N 	N 	0.87860 0.05750 0.35580 -0.28100
N 	N 	0.82070 0.82410 0.24610 -0.13900
N 	N 	0.76680 0.81310 0.18570 -0.13900
N 	N 	0.77940 0.95130 0.22480 -0.14500
N 	N 	0.81630 0.49180 0.22010 -0.28800
N 	N 	0.66790 0.03500 0.10560 -0.28600
N 	N 	0.57880 0.01320 0.05690 -0.30200
N 	N 	0.47710 0.76740 0.02620 -0.15000
N 	N 	0.42540 0.71720 0.06060 -0.12200
N 	N 	0.46120 0.85140 0.08670 -0.12300
N 	N 	0.43010 0.47750 0.94780 -0.29200
N 	N 	0.36060 0.83180 0.18170 -0.29600
Zn	Zn	0.91792 0.12800 0.40263 0.61400
Zn	Zn	0.62530 0.10278 0.06223 0.76000
Zn	Zn	0.32837 0.85387 0.23023 0.65000
I 	I 	0.88062 0.24386 0.43859 0.11800
I 	I 	0.97679 0.15415 0.36676 -0.39600
I 	I 	0.60666 0.24306 0.10005 2.55300
I 	I 	0.64787 0.10292 0.98967 0.21700
I 	I 	0.37241 0.84042 0.30549 -0.49800
I 	I 	0.26512 0.76363 0.20730 0.16700
Zn	Zn	0.90930 0.12300 0.40970 0.63600
Zn	Zn	0.63070 0.08520 0.04980 0.69400
Zn	Zn	0.31770 0.85510 0.21810 0.66000
I 	I 	0.86430 0.22720 0.44200 -0.44200
I 	I 	0.96930 0.16870 0.37700 0.04600
I 	I 	0.62040 0.24210 0.07680 -3.00800
I 	I 	0.65450 0.07080 0.97770 -0.48100
I 	I 	0.35950 0.82990 0.29440 0.06900
I 	I 	0.25340 0.77640 0.18930 -0.54400
C 	C 	0.62160 0.93200 0.92360 0.35600
H 	H 	0.62790 0.99040 0.94000 0.03400
Cl	Cl	0.63700 0.84000 0.95870 -0.28800
Cl	Cl	0.64440 0.93070 0.87820 -0.30300
Cl	Cl	0.57070 0.92300 0.90560 -0.33800
C 	C 	0.38880 0.47480 0.34600 0.06700
H 	H 	0.41270 0.45000 0.36170 -0.05200
C 	C 	0.36540 0.42240 0.31330 -0.10000
H 	H 	0.37130 0.36030 0.30960 0.02700
C 	C 	0.33350 0.46290 0.28650 0.04400
C 	C 	0.32400 0.55190 0.29540 -0.11200
H 	H 	0.30230 0.58190 0.27770 0.06300
C 	C 	0.34680 0.59540 0.33050 0.06100
H 	H 	0.33980 0.65530 0.33720 -0.01400
C 	C 	0.31030 0.41030 0.25030 0.10400
C 	C 	0.26040 0.39990 0.19250 0.08800
C 	C 	0.29680 0.27840 0.21430 0.10800
C 	C 	0.28420 0.02590 0.19410 0.06700
H 	H 	0.26530 0.98530 0.17840 -0.00300
C 	C 	0.27770 0.11890 0.18930 -0.09700
H 	H 	0.25520 0.14120 0.16980 0.08400
C 	C 	0.30440 0.17830 0.21320 0.05500
C 	C 	0.33850 0.14410 0.23970 -0.09500
H 	H 	0.35790 0.18370 0.25530 0.05700
C 	C 	0.34310 0.05000 0.24250 0.06100
H 	H 	0.36600 0.02590 0.26080 -0.01700
C 	C 	0.18560 0.57340 0.14380 0.09600
H 	H 	0.17720 0.63160 0.15150 -0.01700
C 	C 	0.21480 0.53070 0.17120 -0.13600
H 	H 	0.22680 0.55980 0.19770 0.08700
C 	C 	0.22760 0.44580 0.16170 0.05700
C 	C 	0.20890 0.40580 0.12370 -0.11400
H 	H 	0.21610 0.34640 0.11640 0.10100
C 	C 	0.18020 0.45060 0.09660 0.06500
H 	H 	0.16800 0.42200 0.07000 0.00500
C 	C 	0.06380 0.46620 0.01970 0.05400
H 	H 	0.07490 0.47440 0.99430 0.01400
C 	C 	0.03280 0.40670 0.01830 -0.10900
H 	H 	0.02340 0.37250 0.99250 0.08100
C 	C 	0.01560 0.39730 0.05510 0.04700
C 	C 	0.03250 0.44480 0.09390 -0.13400
H 	H 	0.02300 0.43650 0.12040 0.09500
C 	C 	0.06290 0.50310 0.09190 0.09600
H 	H 	0.07310 0.53830 0.11710 -0.07600
C 	C 	0.98250 0.33460 0.05590 0.09400
C 	C 	0.94800 0.20960 0.03170 0.11600
C 	C 	0.93270 0.29120 0.08760 0.10600
C 	C 	0.90380 0.00030 0.97280 0.06200
H 	H 	0.88060 0.96500 0.97100 0.00500
C 	C 	0.90980 0.07430 0.00110 -0.07600
H 	H 	0.89150 0.08710 0.01950 0.10900
C 	C 	0.94230 0.12900 0.00260 0.07500
C 	C 	0.96880 0.10410 0.97730 -0.13200
H 	H 	0.99180 0.13960 0.97830 0.06700
C 	C 	0.96310 0.03020 0.95090 0.06100
H 	H 	0.98230 0.01460 0.93410 -0.01200
C 	C 	0.89650 0.37240 0.18660 0.08800
H 	H 	0.90500 0.41040 0.21130 -0.01000
C 	C 	0.92070 0.35990 0.15690 -0.11100
H 	H 	0.94570 0.38860 0.16090 0.09800
C 	C 	0.90760 0.30370 0.12040 0.08100
C 	C 	0.87180 0.26260 0.11670 -0.12600
H 	H 	0.86240 0.22370 0.09260 0.10700
C 	C 	0.84970 0.27770 0.14810 0.09500
H 	H 	0.82520 0.24740 0.14530 -0.01700
N 	N 	0.37860 0.55750 0.35580 -0.28100
N 	N 	0.32070 0.32410 0.24610 -0.13900
N 	N 	0.26680 0.31310 0.18570 -0.13900
N 	N 	0.27940 0.45130 0.22480 -0.14500
N 	N 	0.31630 0.99180 0.22010 -0.28700
N 	N 	0.16790 0.53500 0.10560 -0.28600
N 	N 	0.07880 0.51320 0.05690 -0.30200
N 	N 	0.97710 0.26740 0.02620 -0.15000
N 	N 	0.92540 0.21720 0.06060 -0.12200
N 	N 	0.96120 0.35140 0.08670 -0.12300
N 	N 	0.93010 0.97750 0.94780 -0.29200
N 	N 	0.86060 0.33180 0.18170 -0.29600
Zn	Zn	0.41792 0.62800 0.40263 0.61400
Zn	Zn	0.12530 0.60278 0.06223 0.76000
Zn	Zn	0.82837 0.35387 0.23023 0.65000
I 	I 	0.38062 0.74386 0.43859 0.11800
I 	I 	0.47679 0.65415 0.36676 -0.39600
I 	I 	0.10666 0.74306 0.10005 2.55200
I 	I 	0.14787 0.60292 0.98967 0.21700
I 	I 	0.87241 0.34042 0.30549 -0.49800
I 	I 	0.76512 0.26363 0.20730 0.16700
Zn	Zn	0.40930 0.62300 0.40970 0.63600
Zn	Zn	0.13070 0.58520 0.04980 0.69400
Zn	Zn	0.81770 0.35510 0.21810 0.66000
I 	I 	0.36430 0.72720 0.44200 -0.44200
I 	I 	0.46930 0.66870 0.37700 0.04600
I 	I 	0.12040 0.74210 0.07680 -3.00700
I 	I 	0.15450 0.57080 0.97770 -0.48100
I 	I 	0.85950 0.32990 0.29440 0.06900
I 	I 	0.75340 0.27640 0.18930 -0.54400
C 	C 	0.12160 0.43200 0.92360 0.35600
H 	H 	0.12790 0.49040 0.94000 0.03400
Cl	Cl	0.13700 0.34000 0.95870 -0.28800
Cl	Cl	0.14440 0.43070 0.87820 -0.30300
Cl	Cl	0.07070 0.42300 0.90560 -0.33800
C 	C 	0.11120 0.02520 0.65400 0.06700
H 	H 	0.08730 0.05000 0.63830 -0.05200
C 	C 	0.13460 0.07760 0.68670 -0.10000
H 	H 	0.12870 0.13970 0.69040 0.02700
C 	C 	0.16650 0.03710 0.71350 0.04500
C 	C 	0.17600 0.94810 0.70460 -0.11200
H 	H 	0.19770 0.91810 0.72230 0.06300
C 	C 	0.15320 0.90460 0.66950 0.06100
H 	H 	0.16020 0.84470 0.66280 -0.01400
C 	C 	0.18970 0.08970 0.74970 0.10400
C 	C 	0.23960 0.10010 0.80750 0.08800
C 	C 	0.20320 0.22160 0.78570 0.10800
C 	C 	0.21580 0.47410 0.80590 0.06700
H 	H 	0.23470 0.51470 0.82160 -0.00300
C 	C 	0.22230 0.38110 0.81070 -0.09700
H 	H 	0.24480 0.35880 0.83020 0.08400
C 	C 	0.19560 0.32170 0.78680 0.05500
C 	C 	0.16150 0.35590 0.76030 -0.09500
H 	H 	0.14210 0.31630 0.74470 0.05700
C 	C 	0.15690 0.45000 0.75750 0.06100
H 	H 	0.13400 0.47410 0.73920 -0.01700
C 	C 	0.31440 0.92660 0.85620 0.09600
H 	H 	0.32280 0.86840 0.84850 -0.01700
C 	C 	0.28520 0.96930 0.82880 -0.13700
H 	H 	0.27320 0.94020 0.80230 0.08700
C 	C 	0.27240 0.05420 0.83830 0.05700
C 	C 	0.29110 0.09420 0.87630 -0.11500
H 	H 	0.28390 0.15360 0.88360 0.10100
C 	C 	0.31980 0.04940 0.90340 0.06500
H 	H 	0.33200 0.07800 0.93000 0.00500
C 	C 	0.43620 0.03380 0.98030 0.05400
H 	H 	0.42510 0.02560 0.00570 0.01400
C 	C 	0.46720 0.09330 0.98170 -0.10900
H 	H 	0.47660 0.12750 0.00750 0.08100
C 	C 	0.48440 0.10270 0.94490 0.04700
C 	C 	0.46750 0.05520 0.90610 -0.13400
H 	H 	0.47700 0.06350 0.87960 0.09400
C 	C 	0.43710 0.99690 0.90810 0.09500
H 	H 	0.42690 0.96170 0.88290 -0.07600
C 	C 	0.51750 0.16540 0.94410 0.09400
C 	C 	0.55200 0.29040 0.96830 0.11600
C 	C 	0.56730 0.20880 0.91240 0.10600
C 	C 	0.59620 0.49970 0.02720 0.06100
H 	H 	0.61940 0.53500 0.02900 0.00500
C 	C 	0.59020 0.42570 0.99890 -0.07600
H 	H 	0.60850 0.41290 0.98050 0.10800
C 	C 	0.55770 0.37100 0.99740 0.07500
C 	C 	0.53120 0.39590 0.02270 -0.13200
H 	H 	0.50820 0.36040 0.02170 0.06700
C 	C 	0.53690 0.46980 0.04910 0.06100
H 	H 	0.51770 0.48540 0.06590 -0.01200
C 	C 	0.60350 0.12760 0.81340 0.08800
H 	H 	0.59500 0.08960 0.78870 -0.01000
C 	C 	0.57930 0.14010 0.84310 -0.11100
H 	H 	0.55430 0.11140 0.83910 0.09800
C 	C 	0.59240 0.19630 0.87960 0.08100
C 	C 	0.62820 0.23740 0.88330 -0.12600
H 	H 	0.63760 0.27630 0.90740 0.10700
C 	C 	0.65030 0.22230 0.85190 0.09500
H 	H 	0.67480 0.25260 0.85470 -0.01700
N 	N 	0.12140 0.94250 0.64420 -0.28100
N 	N 	0.17930 0.17590 0.75390 -0.13900
N 	N 	0.23320 0.18690 0.81430 -0.13900
N 	N 	0.22060 0.04870 0.77520 -0.14500
N 	N 	0.18370 0.50820 0.77990 -0.28800
N 	N 	0.33210 0.96500 0.89440 -0.28600
N 	N 	0.42120 0.98680 0.94310 -0.30200
N 	N 	0.52290 0.23260 0.97380 -0.15000
N 	N 	0.57460 0.28280 0.93940 -0.12200
N 	N 	0.53880 0.14860 0.91330 -0.12300
N 	N 	0.56990 0.52250 0.05220 -0.29200
N 	N 	0.63940 0.16820 0.81830 -0.29600
Zn	Zn	0.08208 0.87200 0.59737 0.61400
Zn	Zn	0.37470 0.89722 0.93777 0.76000
Zn	Zn	0.67163 0.14613 0.76977 0.65000
I 	I 	0.11938 0.75614 0.56141 0.11800
I 	I 	0.02321 0.84585 0.63324 -0.39600
I 	I 	0.39334 0.75694 0.89995 2.55300
I 	I 	0.35213 0.89708 0.01033 0.21700
I 	I 	0.62759 0.15958 0.69451 -0.49800
I 	I 	0.73488 0.23637 0.79270 0.16700
Zn	Zn	0.09070 0.87700 0.59030 0.63600
Zn	Zn	0.36930 0.91480 0.95020 0.69400
Zn	Zn	0.68230 0.14490 0.78190 0.66000
I 	I 	0.13570 0.77280 0.55800 -0.44200
I 	I 	0.03070 0.83130 0.62300 0.04600
I 	I 	0.37960 0.75790 0.92320 -3.00800
I 	I 	0.34550 0.92920 0.02230 -0.48100
I 	I 	0.64050 0.17010 0.70560 0.06900
I 	I 	0.74660 0.22360 0.81070 -0.54400
C 	C 	0.37840 0.06800 0.07640 0.35600
H 	H 	0.37210 0.00960 0.06000 0.03400
Cl	Cl	0.36300 0.16000 0.04130 -0.28800
Cl	Cl	0.35560 0.06930 0.12180 -0.30300
Cl	Cl	0.42930 0.07700 0.09440 -0.33800
C 	C 	0.61120 0.52520 0.65400 0.06700
H 	H 	0.58730 0.55000 0.63830 -0.05200
C 	C 	0.63460 0.57760 0.68670 -0.10000
H 	H 	0.62870 0.63970 0.69040 0.02700
C 	C 	0.66650 0.53710 0.71350 0.04400
C 	C 	0.67600 0.44810 0.70460 -0.11200
H 	H 	0.69770 0.41810 0.72230 0.06300
C 	C 	0.65320 0.40460 0.66950 0.06100
H 	H 	0.66020 0.34470 0.66280 -0.01400
C 	C 	0.68970 0.58970 0.74970 0.10400
C 	C 	0.73960 0.60010 0.80750 0.08800
C 	C 	0.70320 0.72160 0.78570 0.10800
C 	C 	0.71580 0.97410 0.80590 0.06700
H 	H 	0.73470 0.01470 0.82160 -0.00300
C 	C 	0.72230 0.88110 0.81070 -0.09700
H 	H 	0.74480 0.85880 0.83020 0.08400
C 	C 	0.69560 0.82170 0.78680 0.05500
C 	C 	0.66150 0.85590 0.76030 -0.09500
H 	H 	0.64210 0.81630 0.74470 0.05700
C 	C 	0.65690 0.95000 0.75750 0.06100
H 	H 	0.63400 0.97410 0.73920 -0.01700
C 	C 	0.81440 0.42660 0.85620 0.09600
H 	H 	0.82280 0.36840 0.84850 -0.01700
C 	C 	0.78520 0.46930 0.82880 -0.13600
H 	H 	0.77320 0.44020 0.80230 0.08700
C 	C 	0.77240 0.55420 0.83830 0.05700
C 	C 	0.79110 0.59420 0.87630 -0.11400
H 	H 	0.78390 0.65360 0.88360 0.10100
C 	C 	0.81980 0.54940 0.90340 0.06500
H 	H 	0.83200 0.57800 0.93000 0.00500
C 	C 	0.93620 0.53380 0.98030 0.05400
H 	H 	0.92510 0.52560 0.00570 0.01400
C 	C 	0.96720 0.59330 0.98170 -0.10900
H 	H 	0.97660 0.62750 0.00750 0.08100
C 	C 	0.98440 0.60270 0.94490 0.04700
C 	C 	0.96750 0.55520 0.90610 -0.13400
H 	H 	0.97700 0.56350 0.87960 0.09500
C 	C 	0.93710 0.49690 0.90810 0.09600
H 	H 	0.92690 0.46170 0.88290 -0.07600
C 	C 	0.01750 0.66540 0.94410 0.09400
C 	C 	0.05200 0.79040 0.96830 0.11600
C 	C 	0.06730 0.70880 0.91240 0.10600
C 	C 	0.09620 0.99970 0.02720 0.06200
H 	H 	0.11940 0.03500 0.02900 0.00500
C 	C 	0.09020 0.92570 0.99890 -0.07600
H 	H 	0.10850 0.91290 0.98050 0.10900
C 	C 	0.05770 0.87100 0.99740 0.07500
C 	C 	0.03120 0.89590 0.02270 -0.13200
H 	H 	0.00820 0.86040 0.02170 0.06700
C 	C 	0.03690 0.96980 0.04910 0.06100
H 	H 	0.01770 0.98540 0.06590 -0.01200
C 	C 	0.10350 0.62760 0.81340 0.08800
H 	H 	0.09500 0.58960 0.78870 -0.01000
C 	C 	0.07930 0.64010 0.84310 -0.11100
H 	H 	0.05430 0.61140 0.83910 0.09800
C 	C 	0.09240 0.69630 0.87960 0.08100
C 	C 	0.12820 0.73740 0.88330 -0.12600
H 	H 	0.13760 0.77630 0.90740 0.10700
C 	C 	0.15030 0.72230 0.85190 0.09500
H 	H 	0.17480 0.75260 0.85470 -0.01700
N 	N 	0.62140 0.44250 0.64420 -0.28100
N 	N 	0.67930 0.67590 0.75390 -0.13900
N 	N 	0.73320 0.68690 0.81430 -0.13900
N 	N 	0.72060 0.54870 0.77520 -0.14500
N 	N 	0.68370 0.00820 0.77990 -0.28700
N 	N 	0.83210 0.46500 0.89440 -0.28600
N 	N 	0.92120 0.48680 0.94310 -0.30200
N 	N 	0.02290 0.73260 0.97380 -0.15000
N 	N 	0.07460 0.78280 0.93940 -0.12200
N 	N 	0.03880 0.64860 0.91330 -0.12300
N 	N 	0.06990 0.02250 0.05220 -0.29200
N 	N 	0.13940 0.66820 0.81830 -0.29600
Zn	Zn	0.58208 0.37200 0.59737 0.61400
Zn	Zn	0.87470 0.39722 0.93777 0.76000
Zn	Zn	0.17163 0.64613 0.76977 0.65000
I 	I 	0.61938 0.25614 0.56141 0.11800
I 	I 	0.52321 0.34585 0.63324 -0.39600
I 	I 	0.89334 0.25694 0.89995 2.55200
I 	I 	0.85213 0.39708 0.01033 0.21700
I 	I 	0.12759 0.65958 0.69451 -0.49800
I 	I 	0.23488 0.73637 0.79270 0.16700
Zn	Zn	0.59070 0.37700 0.59030 0.63600
Zn	Zn	0.86930 0.41480 0.95020 0.69400
Zn	Zn	0.18230 0.64490 0.78190 0.66000
I 	I 	0.63570 0.27280 0.55800 -0.44200
I 	I 	0.53070 0.33130 0.62300 0.04600
I 	I 	0.87960 0.25790 0.92320 -3.00700
I 	I 	0.84550 0.42920 0.02230 -0.48100
I 	I 	0.14050 0.67010 0.70560 0.06900
I 	I 	0.24660 0.72360 0.81070 -0.54400
C 	C 	0.87840 0.56800 0.07640 0.35600
H 	H 	0.87210 0.50960 0.06000 0.03400
Cl	Cl	0.86300 0.66000 0.04130 -0.28800
Cl	Cl	0.85560 0.56930 0.12180 -0.30300
Cl	Cl	0.92930 0.57700 0.09440 -0.33800
C 	C 	0.11120 0.97480 0.15400 0.06700
H 	H 	0.08730 0.95000 0.13830 -0.05200
C 	C 	0.13460 0.92240 0.18670 -0.10000
H 	H 	0.12870 0.86030 0.19040 0.02700
C 	C 	0.16650 0.96290 0.21350 0.04500
C 	C 	0.17600 0.05190 0.20460 -0.11200
H 	H 	0.19770 0.08190 0.22230 0.06300
C 	C 	0.15320 0.09540 0.16950 0.06100
H 	H 	0.16020 0.15530 0.16280 -0.01400
C 	C 	0.18970 0.91030 0.24970 0.10400
C 	C 	0.23960 0.89990 0.30750 0.08800
C 	C 	0.20320 0.77840 0.28570 0.10800
C 	C 	0.21580 0.52590 0.30590 0.06700
H 	H 	0.23470 0.48530 0.32160 -0.00300
C 	C 	0.22230 0.61890 0.31070 -0.09700
H 	H 	0.24480 0.64120 0.33020 0.08400
C 	C 	0.19560 0.67830 0.28680 0.05500
C 	C 	0.16150 0.64410 0.26030 -0.09500
H 	H 	0.14210 0.68370 0.24470 0.05700
C 	C 	0.15690 0.55000 0.25750 0.06100
H 	H 	0.13400 0.52590 0.23920 -0.01700
C 	C 	0.31440 0.07340 0.35620 0.09600
H 	H 	0.32280 0.13160 0.34850 -0.01700
C 	C 	0.28520 0.03070 0.32880 -0.13600
H 	H 	0.27320 0.05980 0.30230 0.08700
C 	C 	0.27240 0.94580 0.33830 0.05700
C 	C 	0.29110 0.90580 0.37630 -0.11500
H 	H 	0.28390 0.84640 0.38360 0.10100
C 	C 	0.31980 0.95060 0.40340 0.06500
H 	H 	0.33200 0.92200 0.43000 0.00500
C 	C 	0.43620 0.96620 0.48030 0.05400
H 	H 	0.42510 0.97440 0.50570 0.01400
C 	C 	0.46720 0.90670 0.48170 -0.10900
H 	H 	0.47660 0.87250 0.50750 0.08100
C 	C 	0.48440 0.89730 0.44490 0.04700
C 	C 	0.46750 0.94480 0.40610 -0.13400
H 	H 	0.47700 0.93650 0.37960 0.09500
C 	C 	0.43710 0.00310 0.40810 0.09600
H 	H 	0.42690 0.03830 0.38290 -0.07600
C 	C 	0.51750 0.83460 0.44410 0.09400
C 	C 	0.55200 0.70960 0.46830 0.11600
C 	C 	0.56730 0.79120 0.41240 0.10600
C 	C 	0.59620 0.50030 0.52720 0.06100
H 	H 	0.61940 0.46500 0.52900 0.00500
C 	C 	0.59020 0.57430 0.49890 -0.07600
H 	H 	0.60850 0.58710 0.48050 0.10800
C 	C 	0.55770 0.62900 0.49740 0.07500
C 	C 	0.53120 0.60410 0.52270 -0.13200
H 	H 	0.50820 0.63960 0.52170 0.06700
C 	C 	0.53690 0.53020 0.54910 0.06100
H 	H 	0.51770 0.51460 0.56590 -0.01200
C 	C 	0.60350 0.87240 0.31340 0.08800
H 	H 	0.59500 0.91040 0.28870 -0.01000
C 	C 	0.57930 0.85990 0.34310 -0.11100
H 	H 	0.55430 0.88860 0.33910 0.09800
C 	C 	0.59240 0.80370 0.37960 0.08100
C 	C 	0.62820 0.76260 0.38330 -0.12600
H 	H 	0.63760 0.72370 0.40740 0.10700
C 	C 	0.65030 0.77770 0.35190 0.09500
H 	H 	0.67480 0.74740 0.35470 -0.01700
N 	N 	0.12140 0.05750 0.14420 -0.28100
N 	N 	0.17930 0.82410 0.25390 -0.13900
N 	N 	0.23320 0.81310 0.31430 -0.13900
N 	N 	0.22060 0.95130 0.27520 -0.14500
N 	N 	0.18370 0.49180 0.27990 -0.28800
N 	N 	0.33210 0.03500 0.39440 -0.28600
N 	N 	0.42120 0.01320 0.44310 -0.30200
N 	N 	0.52290 0.76740 0.47380 -0.15000
N 	N 	0.57460 0.71720 0.43940 -0.12200
N 	N 	0.53880 0.85140 0.41330 -0.12300
N 	N 	0.56990 0.47750 0.55220 -0.29100
N 	N 	0.63940 0.83180 0.31830 -0.29600
Zn	Zn	0.08208 0.12800 0.09737 0.61400
Zn	Zn	0.37470 0.10278 0.43777 0.76000
Zn	Zn	0.67163 0.85387 0.26977 0.65000
I 	I 	0.11938 0.24386 0.06141 0.11800
I 	I 	0.02321 0.15415 0.13324 -0.39600
I 	I 	0.39334 0.24306 0.39995 2.55200
I 	I 	0.35213 0.10292 0.51033 0.21600
I 	I 	0.62759 0.84042 0.19451 -0.49800
I 	I 	0.73488 0.76363 0.29270 0.16700
Zn	Zn	0.09070 0.12300 0.09030 0.63600
Zn	Zn	0.36930 0.08520 0.45020 0.69400
Zn	Zn	0.68230 0.85510 0.28190 0.66000
I 	I 	0.13570 0.22720 0.05800 -0.44200
I 	I 	0.03070 0.16870 0.12300 0.04600
I 	I 	0.37960 0.24210 0.42320 -3.00600
I 	I 	0.34550 0.07080 0.52230 -0.48100
I 	I 	0.64050 0.82990 0.20560 0.06900
I 	I 	0.74660 0.77640 0.31070 -0.54400
C 	C 	0.37840 0.93200 0.57640 0.35600
H 	H 	0.37210 0.99040 0.56000 0.03400
Cl	Cl	0.36300 0.84000 0.54130 -0.28800
Cl	Cl	0.35560 0.93070 0.62180 -0.30300
Cl	Cl	0.42930 0.92300 0.59440 -0.33800
C 	C 	0.61120 0.47480 0.15400 0.06700
H 	H 	0.58730 0.45000 0.13830 -0.05200
C 	C 	0.63460 0.42240 0.18670 -0.10000
H 	H 	0.62870 0.36030 0.19040 0.02700
C 	C 	0.66650 0.46290 0.21350 0.04400
C 	C 	0.67600 0.55190 0.20460 -0.11200
H 	H 	0.69770 0.58190 0.22230 0.06300
C 	C 	0.65320 0.59540 0.16950 0.06100
H 	H 	0.66020 0.65530 0.16280 -0.01400
C 	C 	0.68970 0.41030 0.24970 0.10400
C 	C 	0.73960 0.39990 0.30750 0.08800
C 	C 	0.70320 0.27840 0.28570 0.10800
C 	C 	0.71580 0.02590 0.30590 0.06700
H 	H 	0.73470 0.98530 0.32160 -0.00300
C 	C 	0.72230 0.11890 0.31070 -0.09700
H 	H 	0.74480 0.14120 0.33020 0.08400
C 	C 	0.69560 0.17830 0.28680 0.05500
C 	C 	0.66150 0.14410 0.26030 -0.09500
H 	H 	0.64210 0.18370 0.24470 0.05700
C 	C 	0.65690 0.05000 0.25750 0.06100
H 	H 	0.63400 0.02590 0.23920 -0.01700
C 	C 	0.81440 0.57340 0.35620 0.09600
H 	H 	0.82280 0.63160 0.34850 -0.01700
C 	C 	0.78520 0.53070 0.32880 -0.13600
H 	H 	0.77320 0.55980 0.30230 0.08700
C 	C 	0.77240 0.44580 0.33830 0.05700
C 	C 	0.79110 0.40580 0.37630 -0.11400
H 	H 	0.78390 0.34640 0.38360 0.10100
C 	C 	0.81980 0.45060 0.40340 0.06500
H 	H 	0.83200 0.42200 0.43000 0.00500
C 	C 	0.93620 0.46620 0.48030 0.05400
H 	H 	0.92510 0.47440 0.50570 0.01400
C 	C 	0.96720 0.40670 0.48170 -0.10900
H 	H 	0.97660 0.37250 0.50750 0.08100
C 	C 	0.98440 0.39730 0.44490 0.04700
C 	C 	0.96750 0.44480 0.40610 -0.13400
H 	H 	0.97700 0.43650 0.37960 0.09500
C 	C 	0.93710 0.50310 0.40810 0.09600
H 	H 	0.92690 0.53830 0.38290 -0.07600
C 	C 	0.01750 0.33460 0.44410 0.09400
C 	C 	0.05200 0.20960 0.46830 0.11600
C 	C 	0.06730 0.29120 0.41240 0.10600
C 	C 	0.09620 0.00030 0.52720 0.06100
H 	H 	0.11940 0.96500 0.52900 0.00500
C 	C 	0.09020 0.07430 0.49890 -0.07600
H 	H 	0.10850 0.08710 0.48050 0.10800
C 	C 	0.05770 0.12900 0.49740 0.07500
C 	C 	0.03120 0.10410 0.52270 -0.13200
H 	H 	0.00820 0.13960 0.52170 0.06700
C 	C 	0.03690 0.03020 0.54910 0.06100
H 	H 	0.01770 0.01460 0.56590 -0.01200
C 	C 	0.10350 0.37240 0.31340 0.08800
H 	H 	0.09500 0.41040 0.28870 -0.01000
C 	C 	0.07930 0.35990 0.34310 -0.11100
H 	H 	0.05430 0.38860 0.33910 0.09800
C 	C 	0.09240 0.30370 0.37960 0.08100
C 	C 	0.12820 0.26260 0.38330 -0.12600
H 	H 	0.13760 0.22370 0.40740 0.10700
C 	C 	0.15030 0.27770 0.35190 0.09500
H 	H 	0.17480 0.24740 0.35470 -0.01700
N 	N 	0.62140 0.55750 0.14420 -0.28100
N 	N 	0.67930 0.32410 0.25390 -0.13900
N 	N 	0.73320 0.31310 0.31430 -0.13900
N 	N 	0.72060 0.45130 0.27520 -0.14500
N 	N 	0.68370 0.99180 0.27990 -0.28800
N 	N 	0.83210 0.53500 0.39440 -0.28600
N 	N 	0.92120 0.51320 0.44310 -0.30200
N 	N 	0.02290 0.26740 0.47380 -0.15000
N 	N 	0.07460 0.21720 0.43940 -0.12200
N 	N 	0.03880 0.35140 0.41330 -0.12300
N 	N 	0.06990 0.97750 0.55220 -0.29200
N 	N 	0.13940 0.33180 0.31830 -0.29600
Zn	Zn	0.58208 0.62800 0.09737 0.61400
Zn	Zn	0.87470 0.60278 0.43777 0.76000
Zn	Zn	0.17163 0.35387 0.26977 0.65000
I 	I 	0.61938 0.74386 0.06141 0.11800
I 	I 	0.52321 0.65415 0.13324 -0.39600
I 	I 	0.89334 0.74306 0.39995 2.55200
I 	I 	0.85213 0.60292 0.51033 0.21600
I 	I 	0.12759 0.34042 0.19451 -0.49800
I 	I 	0.23488 0.26363 0.29270 0.16700
Zn	Zn	0.59070 0.62300 0.09030 0.63600
Zn	Zn	0.86930 0.58520 0.45020 0.69400
Zn	Zn	0.18230 0.35510 0.28190 0.66000
I 	I 	0.63570 0.72720 0.05800 -0.44200
I 	I 	0.53070 0.66870 0.12300 0.04600
I 	I 	0.87960 0.74210 0.42320 -3.00700
I 	I 	0.84550 0.57080 0.52230 -0.48100
I 	I 	0.14050 0.32990 0.20560 0.06900
I 	I 	0.24660 0.27640 0.31070 -0.54400
C 	C 	0.87840 0.43200 0.57640 0.35600
H 	H 	0.87210 0.49040 0.56000 0.03400
Cl	Cl	0.86300 0.34000 0.54130 -0.28800
Cl	Cl	0.85560 0.43070 0.62180 -0.30300
Cl	Cl	0.92930 0.42300 0.59440 -0.33800
