data_crystal

_cell_length_a 10.01300
_cell_length_b 13.13800
_cell_length_c 33.94700
_cell_angle_alpha 90.00000
_cell_angle_beta  90.00000
_cell_angle_gamma 90.00000

_symmetry_space_group_name_	'P 1'
_symmetry_space_group_name_H-M	'P 1'

loop_
_symmetry_equiv_pos_as_xyz
  x,y,z

loop_
_atom_site_label
_atom_site_type_symbol
_atom_site_fract_x
_atom_site_fract_y
_atom_site_fract_z
_atom_site_charge
Er	Er	0.46809 0.75000 0.75000 1.78400
Er	Er	0.53191 0.25000 0.25000 1.78400
Er	Er	0.03191 0.25000 0.25000 1.76200
Er	Er	0.96809 0.75000 0.75000 1.76200
H 	H 	0.48960 0.64970 0.58040 0.12100
H 	H 	0.94720 0.58660 0.42270 0.04400
H 	H 	0.76010 0.61170 0.64930 0.00700
H 	H 	0.97860 0.60660 0.49000 0.03900
H 	H 	0.63890 0.71900 0.10830 0.09700
H 	H 	0.17810 0.94720 0.58950 0.09700
H 	H 	0.00710 0.10330 0.59210 0.12500
H 	H 	0.52140 0.10660 0.51000 0.04000
H 	H 	0.47860 0.60660 0.01000 0.04000
H 	H 	0.55280 0.08660 0.57730 0.04200
H 	H 	0.94720 0.91340 0.07730 0.04400
H 	H 	0.54860 0.82830 0.62500 -0.01100
H 	H 	0.04860 0.82830 0.87500 -0.00700
H 	H 	0.55420 0.84320 0.33270 0.02100
H 	H 	0.49290 0.60330 0.40790 0.12200
H 	H 	0.02140 0.10660 0.99000 0.03800
H 	H 	0.73150 0.91590 0.10370 0.06900
H 	H 	0.54860 0.67170 0.87500 -0.01100
H 	H 	0.55360 0.33480 0.35220 -0.02100
H 	H 	0.25560 0.37150 0.00570 0.13100
H 	H 	0.32190 0.05280 0.08950 0.09500
H 	H 	0.94640 0.66520 0.85220 -0.02400
H 	H 	0.40710 0.15520 0.44170 0.11100
H 	H 	0.48960 0.85030 0.91960 0.12100
H 	H 	0.20240 0.13120 0.03180 0.06100
H 	H 	0.70240 0.36880 0.03180 0.06100
H 	H 	0.05420 0.84320 0.16730 0.02100
H 	H 	0.55420 0.65680 0.16730 0.02000
H 	H 	0.55360 0.16520 0.14780 -0.02100
H 	H 	0.05420 0.65680 0.33270 0.01900
H 	H 	0.90710 0.15520 0.05830 0.11300
H 	H 	0.23990 0.11170 0.14930 0.01000
H 	H 	0.76010 0.88830 0.85070 0.01000
H 	H 	0.26850 0.41590 0.60370 0.06900
H 	H 	0.26010 0.61170 0.85070 0.00700
H 	H 	0.13890 0.78100 0.10830 0.09400
H 	H 	0.59290 0.65520 0.94170 0.11200
H 	H 	0.09290 0.65520 0.55830 0.11200
H 	H 	0.97860 0.89340 0.01000 0.03800
H 	H 	0.09290 0.84480 0.94170 0.11300
H 	H 	0.51040 0.35030 0.41960 0.12100
H 	H 	0.90710 0.34480 0.44170 0.11200
H 	H 	0.51040 0.14970 0.08040 0.12100
H 	H 	0.75560 0.37150 0.49430 0.13100
H 	H 	0.36110 0.28100 0.89170 0.09700
H 	H 	0.24440 0.87150 0.99430 0.13100
H 	H 	0.44720 0.91340 0.42270 0.04200
H 	H 	0.17810 0.55280 0.91050 0.09800
H 	H 	0.29760 0.63120 0.96820 0.06100
H 	H 	0.49290 0.89670 0.09210 0.12200
H 	H 	0.47860 0.89340 0.49000 0.04000
H 	H 	0.52140 0.39340 0.99000 0.04000
H 	H 	0.00710 0.39670 0.90790 0.12700
H 	H 	0.24440 0.62850 0.50570 0.13100
H 	H 	0.04860 0.67170 0.62500 -0.00700
H 	H 	0.95140 0.17170 0.12500 -0.00700
H 	H 	0.01040 0.35030 0.08040 0.11900
H 	H 	0.74440 0.87150 0.50570 0.13100
H 	H 	0.44720 0.58660 0.07730 0.04200
H 	H 	0.95140 0.32830 0.37500 -0.00700
H 	H 	0.76850 0.41590 0.89630 0.06800
H 	H 	0.94580 0.15680 0.83270 0.02100
H 	H 	0.50710 0.10330 0.90790 0.12200
H 	H 	0.94640 0.83480 0.64780 -0.02400
H 	H 	0.26010 0.88830 0.64930 0.00800
H 	H 	0.59290 0.84480 0.55830 0.11100
H 	H 	0.02140 0.39340 0.51000 0.03900
H 	H 	0.32190 0.44720 0.41050 0.09600
H 	H 	0.98960 0.85030 0.58040 0.11800
H 	H 	0.86110 0.21900 0.89170 0.09400
H 	H 	0.50710 0.39670 0.59210 0.12200
H 	H 	0.13890 0.71900 0.39170 0.09600
H 	H 	0.79760 0.86880 0.96820 0.06100
H 	H 	0.26850 0.08410 0.89630 0.06900
H 	H 	0.29760 0.86880 0.53180 0.06100
H 	H 	0.25560 0.12850 0.49430 0.13100
H 	H 	0.23990 0.38830 0.35070 0.00700
H 	H 	0.79760 0.63120 0.53180 0.06100
H 	H 	0.99290 0.60330 0.09210 0.12700
H 	H 	0.82190 0.05280 0.41050 0.09700
H 	H 	0.73990 0.38830 0.14930 0.00700
H 	H 	0.86110 0.28100 0.60830 0.09600
H 	H 	0.44640 0.83480 0.85220 -0.02100
H 	H 	0.75560 0.12850 0.00570 0.13100
H 	H 	0.74440 0.62850 0.99430 0.13100
H 	H 	0.45140 0.32830 0.12500 -0.01100
H 	H 	0.44640 0.66520 0.64780 -0.02100
H 	H 	0.20240 0.36880 0.46820 0.06100
H 	H 	0.23150 0.91590 0.39630 0.06900
H 	H 	0.05360 0.33480 0.14780 -0.02400
H 	H 	0.23150 0.58410 0.10370 0.06800
H 	H 	0.98960 0.64970 0.91960 0.11900
H 	H 	0.44580 0.34320 0.83270 0.02000
H 	H 	0.05280 0.41340 0.57730 0.04400
H 	H 	0.40710 0.34480 0.05830 0.11200
H 	H 	0.67810 0.94720 0.91050 0.09500
H 	H 	0.45140 0.17170 0.37500 -0.01100
H 	H 	0.63890 0.78100 0.39170 0.09600
H 	H 	0.67810 0.55280 0.58950 0.09600
H 	H 	0.05360 0.16520 0.35220 -0.02400
H 	H 	0.82190 0.44720 0.08950 0.09800
H 	H 	0.99290 0.89670 0.40790 0.12500
H 	H 	0.76850 0.08410 0.60370 0.06900
H 	H 	0.73150 0.58410 0.39630 0.06900
H 	H 	0.36110 0.21900 0.60830 0.09600
H 	H 	0.01040 0.14970 0.41960 0.11800
H 	H 	0.55280 0.41340 0.92270 0.04200
H 	H 	0.94580 0.34320 0.66730 0.01900
H 	H 	0.73990 0.11170 0.35070 0.00800
H 	H 	0.44580 0.15680 0.66730 0.02100
H 	H 	0.70240 0.13120 0.46820 0.06100
H 	H 	0.05280 0.08660 0.92270 0.04400
C 	C 	0.36170 0.16740 0.38392 0.15100
C 	C 	0.12580 0.33620 0.12960 0.15800
C 	C 	0.66480 0.65750 0.92346 -0.23600
C 	C 	0.65810 0.65120 0.11623 -0.18000
C 	C 	0.39970 0.88010 0.04264 0.09000
C 	C 	0.13560 0.60810 0.05144 0.07300
C 	C 	0.71860 0.45530 0.14082 0.09200
C 	C 	0.36170 0.33260 0.11608 0.15100
C 	C 	0.60030 0.38010 0.54264 0.09000
C 	C 	0.15250 0.87880 0.48896 0.04900
C 	C 	0.62580 0.33620 0.37040 0.15800
C 	C 	0.91890 0.97790 0.79779 0.34800
C 	C 	0.25580 0.32870 0.14331 -0.24200
C 	C 	0.89970 0.61990 0.04264 0.09400
C 	C 	0.36440 0.10810 0.94856 0.07200
C 	C 	0.86050 0.01670 0.83563 -0.13300
C 	C 	0.28340 0.62150 0.99560 -0.06900
C 	C 	0.89060 0.38560 0.65148 0.08400
C 	C 	0.58110 0.02210 0.29779 0.36700
C 	C 	0.86170 0.33260 0.38392 0.15000
C 	C 	0.36440 0.39190 0.55144 0.07200
C 	C 	0.24420 0.82870 0.85669 -0.23900
C 	C 	0.10930 0.39250 0.52050 -0.03000
C 	C 	0.73290 0.99010 0.89480 -0.18000
C 	C 	0.76390 0.41190 0.59217 0.16000
C 	C 	0.78140 0.95530 0.85918 0.07700
C 	C 	0.79590 0.84930 0.56282 0.21400
C 	C 	0.87210 0.90520 0.06050 -0.01700
C 	C 	0.28140 0.54470 0.85918 0.09200
C 	C 	0.42750 0.86850 0.00006 0.10900
C 	C 	0.71860 0.04470 0.35918 0.08800
C 	C 	0.13950 0.98330 0.16437 -0.13300
C 	C 	0.07250 0.36850 0.99994 0.10700
C 	C 	0.39070 0.60750 0.02050 -0.03200
C 	C 	0.39070 0.89250 0.47950 -0.03100
C 	C 	0.33520 0.34250 0.07654 -0.23600
C 	C 	0.28490 0.31030 0.18595 0.52800
C 	C 	0.63950 0.51670 0.16437 -0.14900
C 	C 	0.60940 0.61440 0.15148 0.08800
C 	C 	0.16480 0.65750 0.57654 -0.23400
C 	C 	0.26710 0.49010 0.39480 -0.18100
C 	C 	0.37420 0.83620 0.87040 0.15800
C 	C 	0.84750 0.37880 0.98896 0.04800
C 	C 	0.25580 0.17130 0.35669 -0.24200
C 	C 	0.25550 0.09410 0.92370 -0.09500
C 	C 	0.63560 0.60810 0.44856 0.07200
C 	C 	0.16480 0.84250 0.92346 -0.23500
C 	C 	0.84190 0.34880 0.61623 -0.17900
C 	C 	0.71660 0.12150 0.49560 -0.07000
C 	C 	0.70410 0.15070 0.06282 0.21500
C 	C 	0.42750 0.63150 0.49994 0.10900
C 	C 	0.40010 0.84600 0.91055 -0.23900
C 	C 	0.08110 0.02210 0.20221 0.34800
C 	C 	0.23610 0.58810 0.40783 0.16000
C 	C 	0.78490 0.31030 0.31405 0.52700
C 	C 	0.09990 0.34600 0.08945 -0.24000
C 	C 	0.59990 0.34600 0.41055 -0.23900
C 	C 	0.75580 0.17130 0.14331 -0.23900
C 	C 	0.78140 0.54470 0.64082 0.08800
C 	C 	0.87420 0.66380 0.87040 0.15800
C 	C 	0.78490 0.18970 0.18595 0.52700
C 	C 	0.28490 0.18970 0.31405 0.52800
C 	C 	0.84750 0.12120 0.51104 0.04900
C 	C 	0.23290 0.50990 0.89480 -0.18300
C 	C 	0.21860 0.45530 0.35918 0.08800
C 	C 	0.65250 0.87880 0.01104 0.05000
C 	C 	0.63830 0.83260 0.61608 0.15100
C 	C 	0.76710 0.00990 0.39480 -0.18000
C 	C 	0.40010 0.65400 0.58945 -0.23900
C 	C 	0.23290 0.99010 0.60520 -0.18000
C 	C 	0.87420 0.83620 0.62960 0.15800
C 	C 	0.10940 0.88560 0.15148 0.07700
C 	C 	0.24420 0.67130 0.64331 -0.23900
C 	C 	0.21660 0.12150 0.00440 -0.07200
C 	C 	0.60940 0.88560 0.34852 0.08500
C 	C 	0.86440 0.39190 0.94856 0.07300
C 	C 	0.78340 0.87850 0.99560 -0.07200
C 	C 	0.26390 0.08810 0.59217 0.16000
C 	C 	0.71510 0.81030 0.68595 0.52800
C 	C 	0.41890 0.52210 0.79779 0.37100
C 	C 	0.37210 0.90520 0.43950 -0.01500
C 	C 	0.84190 0.15120 0.88377 -0.17500
C 	C 	0.62790 0.09480 0.56050 -0.01500
C 	C 	0.65810 0.84880 0.38377 -0.17800
C 	C 	0.73290 0.50990 0.60520 -0.18100
C 	C 	0.90010 0.84600 0.58945 -0.24000
C 	C 	0.74450 0.90590 0.07630 -0.09500
C 	C 	0.29590 0.65070 0.56282 0.21500
C 	C 	0.75580 0.32870 0.35669 -0.23900
C 	C 	0.71510 0.68970 0.81405 0.52800
C 	C 	0.39060 0.38560 0.84852 0.08800
C 	C 	0.63950 0.98330 0.33563 -0.14500
C 	C 	0.13830 0.66740 0.61608 0.15000
C 	C 	0.12790 0.09480 0.93950 -0.01700
C 	C 	0.08110 0.47790 0.29779 0.35800
C 	C 	0.26710 0.00990 0.10520 -0.18000
C 	C 	0.23610 0.91190 0.09217 0.16000
C 	C 	0.58110 0.47790 0.20221 0.37100
C 	C 	0.28140 0.95530 0.64082 0.08800
C 	C 	0.78340 0.62150 0.50440 -0.07100
C 	C 	0.34190 0.34880 0.88377 -0.18000
C 	C 	0.62580 0.16380 0.12960 0.15800
C 	C 	0.83520 0.34250 0.42346 -0.23400
C 	C 	0.86170 0.16740 0.11608 0.15000
C 	C 	0.21660 0.37850 0.49560 -0.07100
C 	C 	0.10030 0.11990 0.54264 0.09200
C 	C 	0.92750 0.63150 0.00006 0.10700
C 	C 	0.60930 0.39250 0.97950 -0.03200
C 	C 	0.21510 0.68970 0.68595 0.52700
C 	C 	0.15810 0.84880 0.11623 -0.17500
C 	C 	0.28340 0.87850 0.50440 -0.07000
C 	C 	0.59990 0.15400 0.08945 -0.23900
C 	C 	0.36050 0.01670 0.66437 -0.14500
C 	C 	0.63830 0.66740 0.88392 0.15100
C 	C 	0.20410 0.15070 0.43718 0.21400
C 	C 	0.39970 0.61990 0.45736 0.09000
C 	C 	0.10930 0.10750 0.97950 -0.02900
C 	C 	0.76390 0.08810 0.90783 0.16000
C 	C 	0.34190 0.15120 0.61623 -0.17800
C 	C 	0.34750 0.37880 0.51104 0.04900
C 	C 	0.10030 0.38010 0.95736 0.09400
C 	C 	0.57250 0.13150 0.99994 0.10900
C 	C 	0.70410 0.34930 0.43718 0.21500
C 	C 	0.24450 0.90590 0.42370 -0.09600
C 	C 	0.71660 0.37850 0.00440 -0.06900
C 	C 	0.41890 0.97790 0.70221 0.36700
C 	C 	0.39060 0.11440 0.65148 0.08500
C 	C 	0.89070 0.89250 0.02050 -0.02900
C 	C 	0.21860 0.04470 0.14082 0.07700
C 	C 	0.91890 0.52210 0.70221 0.35800
C 	C 	0.13950 0.51670 0.33563 -0.14600
C 	C 	0.10940 0.61440 0.34852 0.08400
C 	C 	0.26390 0.41190 0.90783 0.16200
C 	C 	0.65250 0.62120 0.48896 0.04900
C 	C 	0.15810 0.65120 0.38377 -0.17900
C 	C 	0.83520 0.15750 0.07654 -0.23500
C 	C 	0.86440 0.10810 0.55144 0.07300
C 	C 	0.15250 0.62120 0.01104 0.04800
C 	C 	0.60030 0.11990 0.95736 0.09000
C 	C 	0.13560 0.89190 0.44856 0.07300
C 	C 	0.36050 0.48330 0.83563 -0.14900
C 	C 	0.75550 0.09410 0.57630 -0.09600
C 	C 	0.89060 0.11440 0.84852 0.07700
C 	C 	0.33520 0.15750 0.42346 -0.23600
C 	C 	0.12790 0.40520 0.56050 -0.01600
C 	C 	0.66480 0.84250 0.57654 -0.23600
C 	C 	0.20410 0.34930 0.06282 0.21500
C 	C 	0.24450 0.59410 0.07630 -0.09700
C 	C 	0.90010 0.65400 0.91055 -0.24000
C 	C 	0.92750 0.86850 0.49994 0.10600
C 	C 	0.60930 0.10750 0.52050 -0.03100
C 	C 	0.87210 0.59480 0.43950 -0.01600
C 	C 	0.62790 0.40520 0.93950 -0.01500
C 	C 	0.76710 0.49010 0.10520 -0.18300
C 	C 	0.25550 0.40590 0.57630 -0.09500
C 	C 	0.37420 0.66380 0.62960 0.15800
C 	C 	0.13830 0.83260 0.88392 0.15000
C 	C 	0.37210 0.59480 0.06050 -0.01500
C 	C 	0.63560 0.89190 0.05144 0.07200
C 	C 	0.74420 0.67130 0.85669 -0.24200
C 	C 	0.79590 0.65070 0.93718 0.21500
C 	C 	0.86050 0.48330 0.66437 -0.14600
C 	C 	0.21510 0.81030 0.81405 0.52700
C 	C 	0.12580 0.16380 0.37040 0.15800
C 	C 	0.34750 0.12120 0.98896 0.05000
C 	C 	0.73610 0.91190 0.40783 0.16000
C 	C 	0.89970 0.88010 0.45736 0.09200
C 	C 	0.75550 0.40590 0.92370 -0.09700
C 	C 	0.07250 0.13150 0.50006 0.10600
C 	C 	0.09990 0.15400 0.41055 -0.24000
C 	C 	0.29590 0.84930 0.93718 0.21500
C 	C 	0.74450 0.59410 0.42370 -0.09500
C 	C 	0.57250 0.36850 0.50006 0.10900
C 	C 	0.89070 0.60750 0.47950 -0.03000
C 	C 	0.74420 0.82870 0.64331 -0.24200
C 	C 	0.73610 0.58810 0.09217 0.16200
N 	N 	0.49450 0.10940 0.93349 -0.20400
N 	N 	0.26900 0.60410 0.44680 -0.15400
N 	N 	0.45350 0.36710 0.48493 -0.13500
N 	N 	0.50550 0.60940 0.43349 -0.20400
N 	N 	0.31420 0.63930 0.52188 -0.22400
N 	N 	0.68580 0.13930 0.02188 -0.22400
N 	N 	0.04650 0.86710 0.51507 -0.13200
N 	N 	0.26900 0.89590 0.05320 -0.15300
N 	N 	0.81420 0.63930 0.97812 -0.22400
N 	N 	0.18580 0.36070 0.02188 -0.22400
N 	N 	0.00550 0.89060 0.43349 -0.20600
N 	N 	0.23100 0.10410 0.55320 -0.15400
N 	N 	0.73100 0.39590 0.55320 -0.15400
N 	N 	0.68580 0.36070 0.47812 -0.22400
N 	N 	0.73100 0.10410 0.94680 -0.15300
N 	N 	0.99450 0.10940 0.56651 -0.20600
N 	N 	0.54650 0.86710 0.98493 -0.13500
N 	N 	0.23100 0.39590 0.94680 -0.15400
N 	N 	0.76900 0.60410 0.05320 -0.15400
N 	N 	0.31420 0.86070 0.97812 -0.22400
N 	N 	0.00550 0.60940 0.06651 -0.20900
N 	N 	0.81420 0.86070 0.52188 -0.22400
N 	N 	0.54650 0.63290 0.51507 -0.13500
N 	N 	0.95350 0.13290 0.48493 -0.13200
N 	N 	0.04650 0.63290 0.98493 -0.13300
N 	N 	0.99450 0.39060 0.93349 -0.20900
N 	N 	0.45350 0.13290 0.01507 -0.13500
N 	N 	0.18580 0.13930 0.47812 -0.22400
N 	N 	0.49450 0.39060 0.56651 -0.20400
N 	N 	0.50550 0.89060 0.06651 -0.20400
N 	N 	0.76900 0.89590 0.44680 -0.15400
N 	N 	0.95350 0.36710 0.01507 -0.13300
O 	O 	0.09890 0.79090 0.80406 -0.50700
O 	O 	0.36920 0.89650 0.71638 -0.39700
O 	O 	0.48600 0.52570 0.21693 -0.27300
O 	O 	0.90110 0.29090 0.30406 -0.50700
O 	O 	0.59890 0.70910 0.80406 -0.51500
O 	O 	0.81180 0.81590 0.70961 -0.51800
O 	O 	0.13080 0.39650 0.28362 -0.39500
O 	O 	0.51400 0.02570 0.71693 -0.27000
O 	O 	0.31180 0.68410 0.70961 -0.51700
O 	O 	0.98600 0.52570 0.28307 -0.26100
O 	O 	0.36920 0.60350 0.78362 -0.39800
O 	O 	0.13080 0.10350 0.21638 -0.39400
O 	O 	0.48600 0.97430 0.28307 -0.27000
O 	O 	0.01400 0.47430 0.71693 -0.26100
O 	O 	0.40110 0.29090 0.19594 -0.51500
O 	O 	0.86920 0.60350 0.71638 -0.39500
O 	O 	0.63080 0.39650 0.21638 -0.39800
O 	O 	0.98600 0.97430 0.21693 -0.25800
O 	O 	0.68820 0.18410 0.20961 -0.51700
O 	O 	0.09890 0.70910 0.69594 -0.50700
O 	O 	0.68820 0.31590 0.29039 -0.51700
O 	O 	0.63080 0.10350 0.28362 -0.39700
O 	O 	0.86920 0.89650 0.78362 -0.39400
O 	O 	0.18820 0.18410 0.29039 -0.51800
O 	O 	0.81180 0.68410 0.79039 -0.51700
O 	O 	0.40110 0.20910 0.30406 -0.51500
O 	O 	0.31180 0.81590 0.79039 -0.51700
O 	O 	0.01400 0.02570 0.78307 -0.25800
O 	O 	0.51400 0.47430 0.78307 -0.27300
O 	O 	0.59890 0.79090 0.69594 -0.51500
O 	O 	0.90110 0.20910 0.19594 -0.50700
O 	O 	0.18820 0.31590 0.20961 -0.51700
