data_crystal

_cell_length_a 13.75700
_cell_length_b 20.75300
_cell_length_c 7.86000
_cell_angle_alpha 90.00000
_cell_angle_beta  91.66000
_cell_angle_gamma 90.00000

_symmetry_space_group_name_	'P 1'
_symmetry_space_group_name_H-M	'P 1'

loop_
_symmetry_equiv_pos_as_xyz
  x,y,z

loop_
_atom_site_label
_atom_site_type_symbol
_atom_site_fract_x
_atom_site_fract_y
_atom_site_fract_z
_atom_site_charge
Cu	Cu	0.08405 0.51081 0.07707 0.90400
Cu	Cu	0.50302 0.66455 0.53406 0.85900
O 	O 	0.36576 0.66004 0.50560 -0.43500
O 	O 	0.32234 0.75572 0.39440 -0.29200
O 	O 	0.64339 0.82701 0.07630 -0.41400
O 	O 	0.60760 0.72383 0.03100 -0.33100
O 	O 	0.86247 0.56571 0.03340 -0.40700
O 	O 	0.12031 0.55995 0.87540 -0.39900
O 	O 	0.00871 0.58525 0.15240 -0.42100
O 	O 	0.97360 0.54508 0.75180 -0.41200
C 	C 	0.30370 0.70234 0.45510 0.33900
C 	C 	0.19940 0.68166 0.47700 -0.08000
C 	C 	0.12520 0.70645 0.37110 -0.00200
H 	H 	0.14500 0.74000 0.28500 0.04900
C 	C 	0.01170 0.63523 0.50320 -0.02100
H 	H 	0.95500 0.61810 0.50700 0.06400
C 	C 	0.03040 0.68220 0.38340 -0.02400
C 	C 	0.94560 0.70602 0.27770 0.13400
C 	C 	0.91750 0.76974 0.28980 -0.22100
H 	H 	0.95000 0.79740 0.34800 0.13400
C 	C 	0.82910 0.79150 0.21930 0.11500
H 	H 	0.81200 0.83160 0.23000 0.00600
C 	C 	0.76570 0.74836 0.14080 -0.14400
C 	C 	0.79550 0.68540 0.12020 0.08400
H 	H 	0.75400 0.65650 0.06430 0.02700
C 	C 	0.88610 0.66386 0.18080 -0.15900
C 	C 	0.92140 0.59941 0.12150 0.38000
C 	C 	0.05780 0.56863 0.75770 0.35200
C 	C 	0.08390 0.61347 0.61710 -0.07800
C 	C 	0.17850 0.63583 0.59920 0.00800
H 	H 	0.22700 0.62470 0.66200 0.05500
C 	C 	0.66620 0.76720 0.07560 0.33400
Cu	Cu	0.91595 0.01081 0.42293 0.90300
Cu	Cu	0.49698 0.16455 0.96594 0.85900
O 	O 	0.63424 0.16004 0.99440 -0.43500
O 	O 	0.67766 0.25572 0.10560 -0.29200
O 	O 	0.35661 0.32701 0.42370 -0.41400
O 	O 	0.39240 0.22383 0.46900 -0.33100
O 	O 	0.13753 0.06571 0.46660 -0.40600
O 	O 	0.87969 0.05995 0.62460 -0.39800
O 	O 	0.99129 0.08525 0.34760 -0.42000
O 	O 	0.02640 0.04508 0.74820 -0.40700
C 	C 	0.69630 0.20234 0.04490 0.33600
C 	C 	0.80060 0.18166 0.02300 -0.07400
C 	C 	0.87480 0.20645 0.12890 -0.00800
H 	H 	0.85500 0.24000 0.21500 0.05200
C 	C 	0.98830 0.13523 0.99680 -0.04000
H 	H 	0.04500 0.11810 0.99300 0.07400
C 	C 	0.96960 0.18220 0.11660 -0.01200
C 	C 	0.05440 0.20602 0.22230 0.12600
C 	C 	0.08250 0.26974 0.21020 -0.21500
H 	H 	0.05000 0.29740 0.15200 0.13100
C 	C 	0.17090 0.29150 0.28070 0.10900
H 	H 	0.18800 0.33160 0.27000 0.00700
C 	C 	0.23430 0.24836 0.35920 -0.14200
C 	C 	0.20450 0.18540 0.37980 0.08100
H 	H 	0.24600 0.15650 0.43570 0.02800
C 	C 	0.11390 0.16386 0.31920 -0.15600
C 	C 	0.07860 0.09941 0.37850 0.37800
C 	C 	0.94220 0.06863 0.74230 0.34300
C 	C 	0.91610 0.11347 0.88290 -0.06700
C 	C 	0.82150 0.13583 0.90080 -0.00200
H 	H 	0.77300 0.12470 0.83800 0.05800
C 	C 	0.33380 0.26720 0.42440 0.33200
Cu	Cu	0.91595 0.48919 0.92293 0.90300
Cu	Cu	0.49698 0.33545 0.46594 0.85800
O 	O 	0.63424 0.33996 0.49440 -0.43600
O 	O 	0.67766 0.24428 0.60560 -0.29300
O 	O 	0.35661 0.17299 0.92370 -0.41400
O 	O 	0.39240 0.27617 0.96900 -0.33100
O 	O 	0.13753 0.43429 0.96660 -0.40700
O 	O 	0.87969 0.44005 0.12460 -0.39900
O 	O 	0.99129 0.41475 0.84760 -0.42100
O 	O 	0.02640 0.45492 0.24820 -0.41200
C 	C 	0.69630 0.29766 0.54490 0.33900
C 	C 	0.80060 0.31834 0.52300 -0.08000
C 	C 	0.87480 0.29355 0.62890 -0.00200
H 	H 	0.85500 0.26000 0.71500 0.04900
C 	C 	0.98830 0.36477 0.49680 -0.02100
H 	H 	0.04500 0.38190 0.49300 0.06400
C 	C 	0.96960 0.31780 0.61660 -0.02400
C 	C 	0.05440 0.29398 0.72230 0.13400
C 	C 	0.08250 0.23026 0.71020 -0.22100
H 	H 	0.05000 0.20260 0.65200 0.13400
C 	C 	0.17090 0.20850 0.78070 0.11500
H 	H 	0.18800 0.16840 0.77000 0.00600
C 	C 	0.23430 0.25164 0.85920 -0.14400
C 	C 	0.20450 0.31460 0.87980 0.08400
H 	H 	0.24600 0.34350 0.93570 0.02700
C 	C 	0.11390 0.33614 0.81920 -0.15900
C 	C 	0.07860 0.40059 0.87850 0.38000
C 	C 	0.94220 0.43137 0.24230 0.35200
C 	C 	0.91610 0.38653 0.38290 -0.07800
C 	C 	0.82150 0.36417 0.40080 0.00800
H 	H 	0.77300 0.37530 0.33800 0.05500
C 	C 	0.33380 0.23280 0.92440 0.33400
Cu	Cu	0.08405 0.98919 0.57707 0.90300
Cu	Cu	0.50302 0.83545 0.03406 0.85900
O 	O 	0.36576 0.83996 0.00560 -0.43500
O 	O 	0.32234 0.74428 0.89440 -0.29200
O 	O 	0.64339 0.67299 0.57630 -0.41400
O 	O 	0.60760 0.77617 0.53100 -0.33100
O 	O 	0.86247 0.93429 0.53340 -0.40600
O 	O 	0.12031 0.94005 0.37540 -0.39800
O 	O 	0.00871 0.91475 0.65240 -0.42000
O 	O 	0.97360 0.95492 0.25180 -0.40700
C 	C 	0.30370 0.79766 0.95510 0.33600
C 	C 	0.19940 0.81834 0.97700 -0.07400
C 	C 	0.12520 0.79355 0.87110 -0.00800
H 	H 	0.14500 0.76000 0.78500 0.05200
C 	C 	0.01170 0.86477 0.00320 -0.04000
H 	H 	0.95500 0.88190 0.00700 0.07400
C 	C 	0.03040 0.81780 0.88340 -0.01200
C 	C 	0.94560 0.79398 0.77770 0.12600
C 	C 	0.91750 0.73026 0.78980 -0.21500
H 	H 	0.95000 0.70260 0.84800 0.13100
C 	C 	0.82910 0.70850 0.71930 0.10900
H 	H 	0.81200 0.66840 0.73000 0.00700
C 	C 	0.76570 0.75164 0.64080 -0.14200
C 	C 	0.79550 0.81460 0.62020 0.08100
H 	H 	0.75400 0.84350 0.56430 0.02800
C 	C 	0.88610 0.83614 0.68080 -0.15600
C 	C 	0.92140 0.90059 0.62150 0.37800
C 	C 	0.05780 0.93137 0.25770 0.34300
C 	C 	0.08390 0.88653 0.11710 -0.06700
C 	C 	0.17850 0.86417 0.09920 -0.00200
H 	H 	0.22700 0.87530 0.16200 0.05800
C 	C 	0.66620 0.73280 0.57560 0.33200
