data_crystal

_cell_length_a 6.94370
_cell_length_b 13.32260
_cell_length_c 16.38480
_cell_angle_alpha 90.00000
_cell_angle_beta  90.00000
_cell_angle_gamma 90.00000

_symmetry_space_group_name_	'P 1'
_symmetry_space_group_name_H-M	'P 1'

loop_
_symmetry_equiv_pos_as_xyz
  x,y,z

loop_
_atom_site_label
_atom_site_type_symbol
_atom_site_fract_x
_atom_site_fract_y
_atom_site_fract_z
_atom_site_charge
Cd	Cd	0.50000 0.22364 0.34059 1.20400
Cd	Cd	0.00000 0.27636 0.84059 1.17800
Cd	Cd	-0.00000 0.72364 0.15941 1.17800
Cd	Cd	0.50000 0.77636 0.65941 1.20400
H 	H 	-0.00000 0.01520 0.33840 0.06600
H 	H 	0.00000 0.98480 0.66160 0.06600
H 	H 	-0.00000 0.74840 0.45230 0.04400
H 	H 	0.50000 0.75160 0.95230 0.05100
H 	H 	0.50000 0.51520 0.16160 0.08700
H 	H 	0.50000 0.48480 0.83840 0.08700
H 	H 	0.50000 0.24840 0.04770 0.05100
H 	H 	0.00000 0.25160 0.54770 0.04400
C 	C 	0.50000 0.31810 0.04450 -0.00000
C 	C 	0.00000 0.12340 0.61720 -0.07000
C 	C 	0.00000 0.87660 0.38280 -0.07000
C 	C 	-0.00000 0.81810 0.45550 -0.00800
C 	C 	0.50000 0.47820 0.11350 -0.07900
C 	C 	0.50000 0.67710 0.80140 0.29700
C 	C 	0.50000 0.36400 0.97000 -0.14100
C 	C 	0.50000 0.32290 0.19860 0.29700
C 	C 	-0.00000 0.86400 0.53000 -0.13300
C 	C 	0.50000 0.37660 0.11720 -0.05400
C 	C 	0.00000 0.02180 0.61350 -0.07600
C 	C 	-0.00000 0.18190 0.54450 -0.00800
C 	C 	-0.00000 0.82290 0.30140 0.30100
C 	C 	0.50000 0.63600 0.03000 -0.14100
C 	C 	-0.00000 0.13600 0.47000 -0.13300
C 	C 	0.00000 0.97820 0.38650 -0.07600
C 	C 	0.50000 0.52960 0.03660 0.03100
C 	C 	0.50000 0.47040 0.96340 0.03100
C 	C 	-0.00000 0.17710 0.69860 0.30100
C 	C 	0.50000 0.68190 0.95550 -0.00000
C 	C 	0.00000 0.97040 0.53660 0.01600
C 	C 	0.50000 0.52180 0.88650 -0.07900
C 	C 	-0.00000 0.02960 0.46340 0.01600
C 	C 	0.50000 0.62340 0.88280 -0.05400
S 	S 	0.50000 0.71573 0.11820 0.52900
S 	S 	0.50000 0.28427 0.88180 0.52900
S 	S 	0.00000 0.21573 0.38180 0.41700
S 	S 	0.00000 0.78427 0.61820 0.41700
O 	O 	0.32870 0.69050 0.16550 -0.42300
O 	O 	0.32870 0.30950 0.83450 -0.42300
O 	O 	0.00000 0.87290 0.23670 -0.40100
O 	O 	0.00000 0.68330 0.58730 -0.31100
O 	O 	0.00000 0.31670 0.41270 -0.31100
O 	O 	0.82870 0.80950 0.66550 -0.32000
O 	O 	0.82870 0.19050 0.33450 -0.32000
O 	O 	0.50000 0.37290 0.26330 -0.36500
O 	O 	0.17130 0.80950 0.66550 -0.40300
O 	O 	0.50000 0.81670 0.08730 -0.30000
O 	O 	-0.00000 0.27100 0.69870 -0.39300
O 	O 	0.50000 0.18330 0.91270 -0.30000
O 	O 	-0.00000 0.72900 0.30130 -0.39300
O 	O 	0.50000 0.62710 0.73670 -0.36500
O 	O 	0.50000 0.22900 0.19870 -0.36500
O 	O 	0.00000 0.12710 0.76330 -0.40100
O 	O 	0.17130 0.19050 0.33450 -0.40300
O 	O 	0.67130 0.30950 0.83450 -0.37900
O 	O 	0.67130 0.69050 0.16550 -0.37900
O 	O 	0.50000 0.77100 0.80130 -0.36500
