data_crystal

_cell_length_a 9.14430
_cell_length_b 13.00000
_cell_length_c 18.40860
_cell_angle_alpha 72.43510
_cell_angle_beta  75.61900
_cell_angle_gamma 69.40850

_symmetry_space_group_name_	'P 1'
_symmetry_space_group_name_H-M	'P 1'

loop_
_symmetry_equiv_pos_as_xyz
  x,y,z

loop_
_atom_site_label
_atom_site_type_symbol
_atom_site_fract_x
_atom_site_fract_y
_atom_site_fract_z
_atom_site_charge
Tb	Tb	0.15282 0.09047 0.99423 1.71100
Tb	Tb	0.76248 0.59047 0.49423 1.73500
Tb	Tb	0.84718 0.90953 0.00577 1.71100
Tb	Tb	0.23752 0.40953 0.50577 1.73500
Co	Co	0.22352 0.41399 0.16317 1.15400
Co	Co	0.19932 0.91399 0.66317 1.15400
Co	Co	0.77648 0.58601 0.83683 1.15300
Co	Co	0.80068 0.08601 0.33683 1.15300
H 	H 	0.72320 0.19650 0.53990 0.14500
H 	H 	0.13100 0.70660 0.62220 0.26100
H 	H 	0.86900 0.29340 0.37780 0.26100
H 	H 	0.24540 0.04490 0.34850 0.29000
H 	H 	0.63820 0.40110 0.08610 0.28900
H 	H 	0.71850 0.99730 0.56670 0.30500
H 	H 	0.36120 0.54490 0.84850 0.28900
H 	H 	0.45960 0.30350 0.96010 0.14400
H 	H 	0.87460 0.90110 0.58610 0.28900
H 	H 	0.43960 0.90970 0.81710 0.25300
H 	H 	0.71750 0.49730 0.06670 0.30400
H 	H 	0.99810 0.35650 0.34550 0.25100
H 	H 	0.16640 0.59030 0.68290 0.24800
H 	H 	0.27680 0.80350 0.46010 0.14500
H 	H 	0.56040 0.09030 0.18290 0.25300
H 	H 	0.28250 0.50270 0.93330 0.30400
H 	H 	0.29990 0.85650 0.84550 0.25600
H 	H 	0.63880 0.45510 0.15150 0.28900
H 	H 	0.83360 0.40970 0.31710 0.24800
H 	H 	0.70010 0.14350 0.15450 0.25600
H 	H 	0.12540 0.09890 0.41390 0.28900
H 	H 	0.45980 0.79340 0.87780 0.26500
H 	H 	0.54040 0.69650 0.03990 0.14400
H 	H 	0.54020 0.20660 0.12220 0.26500
H 	H 	0.36180 0.59890 0.91390 0.28900
H 	H 	0.75460 0.95510 0.65150 0.29000
H 	H 	0.28150 0.00270 0.43330 0.30500
H 	H 	0.00190 0.64350 0.65450 0.25100
C 	C 	0.19950 0.03040 0.40200 -0.91400
C 	C 	0.88320 0.05540 0.58180 0.35100
C 	C 	0.80050 0.96960 0.59800 -0.91400
C 	C 	0.11680 0.94460 0.41820 0.35100
C 	C 	0.49500 0.73300 0.66420 -0.07200
C 	C 	0.61900 0.65780 0.70300 -0.07400
C 	C 	0.08620 0.65970 0.66690 -0.82600
C 	C 	0.97980 0.84220 0.79700 -0.05700
C 	C 	0.00200 0.93890 0.81210 0.31100
C 	C 	0.25290 0.84600 0.02040 0.34000
C 	C 	0.11930 0.65400 0.47960 0.34200
C 	C 	0.38100 0.34220 0.29700 -0.07400
C 	C 	0.02020 0.15780 0.20300 -0.05700
C 	C 	0.41280 0.84030 0.83310 -0.83800
C 	C 	0.10780 0.23300 0.16420 -0.07500
C 	C 	0.76750 0.35990 0.92910 -0.09400
C 	C 	0.94350 0.85990 0.42910 -0.09200
C 	C 	0.50500 0.26700 0.33580 -0.07200
C 	C 	0.21470 0.13910 0.57770 0.39700
C 	C 	0.36810 0.53040 0.90200 -0.91900
C 	C 	0.74710 0.15400 0.97960 0.34000
C 	C 	0.52040 0.44460 0.91820 0.35500
C 	C 	0.47340 0.78040 0.76940 0.30600
C 	C 	0.55860 0.25990 0.40710 0.36400
C 	C 	0.91380 0.34030 0.33310 -0.82600
C 	C 	0.92670 0.22200 0.54300 -0.02300
C 	C 	0.52660 0.21960 0.23060 0.30600
C 	C 	0.93150 0.36090 0.92230 0.40400
C 	C 	0.24700 0.43890 0.31210 0.33300
C 	C 	0.07330 0.77800 0.45700 -0.02300
C 	C 	0.30830 0.72200 0.04300 -0.02100
C 	C 	0.97680 0.28040 0.26940 0.29800
C 	C 	0.78530 0.86090 0.42230 0.39700
C 	C 	0.75300 0.56110 0.68790 0.33300
C 	C 	0.63190 0.46960 0.09800 -0.91900
C 	C 	0.77440 0.75990 0.90710 0.36500
C 	C 	0.05650 0.14010 0.57090 -0.09200
C 	C 	0.99800 0.06110 0.18790 0.31100
C 	C 	0.06850 0.63910 0.07770 0.40400
C 	C 	0.89220 0.76700 0.83580 -0.07500
C 	C 	0.44140 0.74010 0.59290 0.36400
C 	C 	0.47960 0.55540 0.08180 0.35500
C 	C 	0.22560 0.24010 0.09290 0.36500
C 	C 	0.02320 0.71960 0.73060 0.29800
C 	C 	0.69170 0.27800 0.95700 -0.02100
C 	C 	0.88070 0.34600 0.52040 0.34200
C 	C 	0.23250 0.64010 0.07090 -0.09400
C 	C 	0.58720 0.15970 0.16690 -0.83800
N 	N 	0.34030 0.53660 0.09620 -0.26300
N 	N 	0.02690 0.03660 0.59620 -0.26200
N 	N 	0.60180 0.68960 0.77020 -0.27500
N 	N 	0.40500 0.80950 0.70710 -0.26600
N 	N 	0.18090 0.83470 0.44810 -0.25100
N 	N 	0.59500 0.19050 0.29290 -0.26600
N 	N 	0.81910 0.16530 0.55190 -0.25100
N 	N 	0.07840 0.30950 0.20710 -0.26200
N 	N 	0.65970 0.46340 0.90380 -0.26300
N 	N 	0.97310 0.96340 0.40380 -0.26200
N 	N 	0.53630 0.33470 0.94810 -0.25200
N 	N 	0.92160 0.69050 0.79290 -0.26200
N 	N 	0.06160 0.81040 0.72980 -0.27800
N 	N 	0.46370 0.66530 0.05190 -0.25200
N 	N 	0.93840 0.18960 0.27020 -0.27800
N 	N 	0.39820 0.31040 0.22980 -0.27500
O 	O 	0.34710 0.89980 0.01800 -0.44000
O 	O 	0.08044 0.99482 0.75870 -0.40500
O 	O 	0.26690 0.16710 0.05370 -0.47200
O 	O 	0.70230 0.95080 0.38420 -0.42800
O 	O 	0.26490 0.60020 0.48200 -0.44100
O 	O 	0.73510 0.39980 0.51800 -0.44100
O 	O 	0.16604 0.49482 0.25870 -0.40900
O 	O 	0.32150 0.82140 0.57480 -0.42800
O 	O 	0.73310 0.83290 0.94630 -0.47200
O 	O 	0.29770 0.04920 0.61580 -0.42800
O 	O 	0.96960 0.72440 0.04520 -0.51800
O 	O 	0.03730 0.54920 0.11580 -0.42700
O 	O 	0.97919 0.40012 0.50470 -0.55500
O 	O 	0.26080 0.22440 0.54520 -0.51300
O 	O 	0.73920 0.77560 0.45480 -0.51300
O 	O 	0.94480 0.96570 0.87750 -0.44200
O 	O 	0.21200 0.46570 0.37750 -0.46000
O 	O 	0.11599 0.90012 0.00470 -0.55100
O 	O 	0.02081 0.59988 0.49530 -0.55500
O 	O 	0.88401 0.09988 0.99530 -0.55100
O 	O 	0.51230 0.66710 0.55370 -0.47900
O 	O 	0.96270 0.45080 0.88420 -0.42700
O 	O 	0.78800 0.53430 0.62250 -0.46000
O 	O 	0.65290 0.10020 0.98200 -0.44000
O 	O 	0.71770 0.67860 0.92520 -0.42600
O 	O 	0.91956 0.00518 0.24130 -0.40500
O 	O 	0.05520 0.03430 0.12250 -0.44200
O 	O 	0.48770 0.33290 0.44630 -0.47900
O 	O 	0.28230 0.32140 0.07480 -0.42600
O 	O 	0.67850 0.17860 0.42520 -0.42800
O 	O 	0.03040 0.27560 0.95480 -0.51800
O 	O 	0.83396 0.50518 0.74130 -0.40900
