data_crystal

_cell_length_a 9.15230
_cell_length_b 12.99430
_cell_length_c 18.42710
_cell_angle_alpha 72.46160
_cell_angle_beta  75.62080
_cell_angle_gamma 69.38020

_symmetry_space_group_name_	'P 1'
_symmetry_space_group_name_H-M	'P 1'

loop_
_symmetry_equiv_pos_as_xyz
  x,y,z

loop_
_atom_site_label
_atom_site_type_symbol
_atom_site_fract_x
_atom_site_fract_y
_atom_site_fract_z
_atom_site_charge
Dy	Dy	0.23718 0.40968 0.50538 1.68100
Dy	Dy	0.84776 0.90968 0.00538 1.65800
Dy	Dy	0.15224 0.09032 0.99462 1.65800
Dy	Dy	0.76282 0.59032 0.49462 1.68100
Co	Co	0.77675 0.58582 0.83688 1.15300
Co	Co	0.80055 0.08582 0.33688 1.15200
Co	Co	0.22325 0.41418 0.16312 1.15200
Co	Co	0.19945 0.91418 0.66312 1.15100
H 	H 	0.45880 0.30330 0.96250 0.14600
H 	H 	0.49270 0.82410 0.86230 0.26900
H 	H 	0.36790 0.55090 0.84690 0.29200
H 	H 	0.89190 0.42090 0.31090 0.25200
H 	H 	0.35850 0.59680 0.91800 0.29200
H 	H 	0.76570 0.94910 0.65310 0.29200
H 	H 	0.71630 0.49920 0.07180 0.30800
H 	H 	0.00640 0.68260 0.63440 0.25300
H 	H 	0.12670 0.09680 0.41800 0.29200
H 	H 	0.87330 0.90320 0.58200 0.29200
H 	H 	0.72460 0.19670 0.53750 0.14700
H 	H 	0.27540 0.80330 0.46250 0.14700
H 	H 	0.64150 0.40320 0.08200 0.29200
H 	H 	0.28730 0.00080 0.42820 0.30800
H 	H 	0.37630 0.92090 0.81090 0.25700
H 	H 	0.50730 0.17590 0.13770 0.26900
H 	H 	0.28370 0.50080 0.92820 0.30800
H 	H 	0.82090 0.32410 0.36230 0.26500
H 	H 	0.10810 0.57910 0.68910 0.25200
H 	H 	0.63210 0.44910 0.15310 0.29200
H 	H 	0.99360 0.31740 0.36560 0.25300
H 	H 	0.67660 0.18260 0.13440 0.25700
H 	H 	0.23430 0.05090 0.34690 0.29200
H 	H 	0.62370 0.07910 0.18910 0.25700
H 	H 	0.71270 0.99920 0.57180 0.30800
H 	H 	0.54120 0.69670 0.03750 0.14600
H 	H 	0.32340 0.81740 0.86560 0.25700
H 	H 	0.17910 0.67590 0.63770 0.26500
C 	C 	0.38120 0.34140 0.29680 -0.06900
C 	C 	0.01940 0.15860 0.20320 -0.05200
C 	C 	0.52070 0.44480 0.91800 0.35900
C 	C 	0.47360 0.77960 0.76960 0.30800
C 	C 	0.19830 0.03090 0.40130 -0.92300
C 	C 	0.05630 0.13970 0.57110 -0.08800
C 	C 	0.52640 0.22040 0.23040 0.30800
C 	C 	0.61880 0.65860 0.70320 -0.06900
C 	C 	0.69230 0.27730 0.95650 -0.02000
C 	C 	0.06780 0.63910 0.07750 0.39900
C 	C 	0.25310 0.84780 0.02060 0.33800
C 	C 	0.99750 0.06090 0.18770 0.31500
C 	C 	0.89340 0.76690 0.83630 -0.07700
C 	C 	0.63050 0.46910 0.09870 -0.92900
C 	C 	0.08470 0.65890 0.66730 -0.83300
C 	C 	0.94370 0.86030 0.42890 -0.08800
C 	C 	0.88350 0.05520 0.58200 0.35500
C 	C 	0.02280 0.72040 0.73040 0.30000
C 	C 	0.44230 0.74100 0.59280 0.35500
C 	C 	0.91530 0.34110 0.33270 -0.83300
C 	C 	0.12150 0.65220 0.47940 0.34100
C 	C 	0.92610 0.22270 0.54350 -0.02200
C 	C 	0.78440 0.86090 0.42250 0.39300
C 	C 	0.07390 0.77730 0.45650 -0.02200
C 	C 	0.11650 0.94480 0.41800 0.35500
C 	C 	0.30770 0.72270 0.04350 -0.02000
C 	C 	0.47930 0.55520 0.08200 0.35900
C 	C 	0.36950 0.53090 0.90130 -0.92900
C 	C 	0.55770 0.25900 0.40720 0.35500
C 	C 	0.77610 0.75900 0.90720 0.35600
C 	C 	0.80170 0.96910 0.59870 -0.92300
C 	C 	0.98060 0.84140 0.79680 -0.05200
C 	C 	0.22390 0.24100 0.09280 0.35600
C 	C 	0.87850 0.34780 0.52060 0.34100
C 	C 	0.93220 0.36090 0.92250 0.39900
C 	C 	0.21560 0.13910 0.57750 0.39300
C 	C 	0.97720 0.27960 0.26960 0.30000
C 	C 	0.24610 0.43910 0.31230 0.33700
C 	C 	0.49660 0.73310 0.66370 -0.07400
C 	C 	0.50340 0.26690 0.33630 -0.07400
C 	C 	0.23290 0.63970 0.07110 -0.09000
C 	C 	0.76710 0.36030 0.92890 -0.09000
C 	C 	0.58910 0.15890 0.16730 -0.84400
C 	C 	0.41090 0.84110 0.83270 -0.84400
C 	C 	0.75390 0.56090 0.68770 0.33700
C 	C 	0.10660 0.23310 0.16370 -0.07700
C 	C 	0.00250 0.93910 0.81230 0.31500
C 	C 	0.74690 0.15220 0.97940 0.33800
N 	N 	0.02630 0.03730 0.59610 -0.26200
N 	N 	0.07810 0.30900 0.20740 -0.26200
N 	N 	0.06300 0.80940 0.73060 -0.28000
N 	N 	0.60300 0.69060 0.76940 -0.27600
N 	N 	0.18070 0.83430 0.44910 -0.24900
N 	N 	0.46410 0.66570 0.05090 -0.25000
N 	N 	0.65970 0.46270 0.90390 -0.26400
N 	N 	0.93700 0.19060 0.26940 -0.28000
N 	N 	0.92190 0.69100 0.79260 -0.26200
N 	N 	0.34030 0.53730 0.09610 -0.26400
N 	N 	0.40550 0.80900 0.70740 -0.26600
N 	N 	0.97370 0.96270 0.40390 -0.26200
N 	N 	0.81930 0.16570 0.55090 -0.24900
N 	N 	0.59450 0.19100 0.29260 -0.26600
N 	N 	0.39700 0.30940 0.23060 -0.27600
N 	N 	0.53590 0.33430 0.94910 -0.25000
O 	O 	0.83370 0.50500 0.74080 -0.40900
O 	O 	0.03100 0.27510 0.95590 -0.50700
O 	O 	0.07950 0.99500 0.75920 -0.40500
O 	O 	0.92050 0.00500 0.24080 -0.40500
O 	O 	0.97900 0.40090 0.50490 -0.54300
O 	O 	0.16630 0.49500 0.25920 -0.40900
O 	O 	0.48700 0.33330 0.44610 -0.46700
O 	O 	0.78880 0.53440 0.62240 -0.45100
O 	O 	0.73470 0.40110 0.51850 -0.43800
O 	O 	0.51300 0.66670 0.55390 -0.46700
O 	O 	0.67800 0.17870 0.42510 -0.42600
O 	O 	0.28180 0.32130 0.07490 -0.42400
O 	O 	0.21120 0.46560 0.37760 -0.45100
O 	O 	0.03670 0.55030 0.11530 -0.42800
O 	O 	0.29770 0.05030 0.61530 -0.42900
O 	O 	0.26200 0.22490 0.54410 -0.50200
O 	O 	0.71820 0.67870 0.92510 -0.42400
O 	O 	0.73360 0.83330 0.94610 -0.46000
O 	O 	0.11520 0.90090 0.00490 -0.53900
O 	O 	0.88480 0.09910 0.99510 -0.53900
O 	O 	0.02100 0.59910 0.49510 -0.54300
O 	O 	0.32200 0.82130 0.57490 -0.42600
O 	O 	0.05440 0.03440 0.12240 -0.43400
O 	O 	0.96330 0.44970 0.88470 -0.42800
O 	O 	0.96900 0.72490 0.04410 -0.50700
O 	O 	0.70230 0.94970 0.38470 -0.42900
O 	O 	0.73800 0.77510 0.45590 -0.50200
O 	O 	0.26530 0.59890 0.48150 -0.43800
O 	O 	0.34570 0.90110 0.01850 -0.43700
O 	O 	0.65430 0.09890 0.98150 -0.43700
O 	O 	0.26640 0.16670 0.05390 -0.46000
O 	O 	0.94560 0.96560 0.87760 -0.43400
