data_crystal

_cell_length_a 9.73000
_cell_length_b 11.75500
_cell_length_c 12.50900
_cell_angle_alpha 62.69800
_cell_angle_beta  71.90600
_cell_angle_gamma 75.29900

_symmetry_space_group_name_	'P 1'
_symmetry_space_group_name_H-M	'P 1'

loop_
_symmetry_equiv_pos_as_xyz
  x,y,z

loop_
_atom_site_label
_atom_site_type_symbol
_atom_site_fract_x
_atom_site_fract_y
_atom_site_fract_z
_atom_site_charge
Mn	Mn	0.91354 0.83195 0.86195 1.35000
O 	O 	0.69100 0.81100 0.89160 -0.40900
O 	O 	0.79150 0.61970 0.00270 -0.50200
O 	O 	0.14170 0.87050 0.91370 -0.50800
O 	O 	0.06210 0.68680 0.97200 -0.60700
O 	O 	0.89610 0.02520 0.74950 -0.49000
O 	O 	0.94510 0.14140 0.82970 -0.40800
O 	O 	0.99040 0.21970 0.28860 -0.37300
O 	O 	0.95440 0.43590 0.19260 -0.36300
O 	O 	0.36510 0.36880 0.27350 -0.43900
H 	H 	0.44300 0.32190 0.28120 0.23500
O 	O 	0.79010 0.59960 0.51420 -0.39100
H 	H 	0.74510 0.59610 0.58280 0.29200
C 	C 	0.68200 0.69610 0.96830 0.49500
C 	C 	0.15620 0.74960 0.96580 0.48900
C 	C 	0.91150 0.12890 0.74670 0.36500
C 	C 	0.95680 0.33020 0.28750 0.34400
C 	C 	0.53630 0.64890 0.02330 -0.26400
C 	C 	0.52180 0.52900 0.12290 -0.01500
H 	H 	0.60180 0.48000 0.15620 0.04300
C 	C 	0.38850 0.48310 0.17230 0.11900
C 	C 	0.26950 0.55460 0.11970 0.01500
H 	H 	0.18110 0.52170 0.15040 -0.01600
C 	C 	0.28360 0.67490 0.02130 -0.32500
C 	C 	0.41620 0.72390 0.97390 0.29600
H 	H 	0.42470 0.80570 0.91000 -0.02900
C 	C 	0.89340 0.24710 0.62920 0.02300
C 	C 	0.92140 0.23250 0.51970 -0.04900
H 	H 	0.94400 0.15050 0.52020 0.08900
C 	C 	0.91550 0.34160 0.40920 0.03500
C 	C 	0.87460 0.46290 0.41050 -0.17000
H 	H 	0.87300 0.53580 0.33650 0.15500
C 	C 	0.83600 0.47680 0.52050 0.30400
C 	C 	0.84940 0.36800 0.63110 -0.17500
H 	H 	0.82900 0.37690 0.70480 0.12700
Mn	Mn	0.08646 0.16805 0.13805 1.16200
O 	O 	0.30900 0.18900 0.10840 -0.45400
O 	O 	0.20850 0.38030 0.99730 -0.40200
O 	O 	0.85830 0.12950 0.08630 -0.44800
O 	O 	0.93790 0.31320 0.02800 -0.45400
O 	O 	0.10390 0.97480 0.25050 -0.44600
O 	O 	0.05490 0.85860 0.17030 -0.49000
O 	O 	0.00960 0.78030 0.71140 -0.47600
O 	O 	0.04560 0.56410 0.80740 -0.48900
O 	O 	0.63490 0.63120 0.72650 -0.47600
H 	H 	0.55700 0.67810 0.71880 0.28200
O 	O 	0.20990 0.40040 0.48580 -0.48600
H 	H 	0.25490 0.40390 0.41720 0.28200
C 	C 	0.31800 0.30390 0.03170 0.09700
C 	C 	0.84380 0.25040 0.03420 0.19700
C 	C 	0.08850 0.87110 0.25330 0.35700
C 	C 	0.04320 0.66980 0.71250 0.35000
C 	C 	0.46370 0.35110 0.97670 0.30100
C 	C 	0.47820 0.47100 0.87710 -0.39200
H 	H 	0.39820 0.52000 0.84380 0.17900
C 	C 	0.61150 0.51690 0.82770 0.41700
C 	C 	0.73050 0.44540 0.88030 -0.36400
H 	H 	0.81890 0.47830 0.84960 0.21200
C 	C 	0.71640 0.32510 0.97870 0.25400
C 	C 	0.58380 0.27610 0.02610 -0.41500
H 	H 	0.57530 0.19430 0.09000 0.15800
C 	C 	0.10660 0.75290 0.37080 -0.01900
C 	C 	0.07860 0.76750 0.48030 -0.04600
H 	H 	0.05600 0.84950 0.47980 0.06800
C 	C 	0.08450 0.65840 0.59080 -0.03100
C 	C 	0.12540 0.53710 0.58950 -0.18000
H 	H 	0.12700 0.46420 0.66350 0.08700
C 	C 	0.16400 0.52320 0.47950 0.25100
C 	C 	0.15060 0.63200 0.36890 -0.19200
H 	H 	0.17100 0.62310 0.29520 0.09500
Mn	Mn	-0.00000 0.50000 -0.00000 1.20300
Mn	Mn	-0.00000 0.00000 -0.00000 1.06500
