data_crystal

_cell_length_a 25.57820
_cell_length_b 25.61080
_cell_length_c 11.59270
_cell_angle_alpha 90.00000
_cell_angle_beta  90.00000
_cell_angle_gamma 90.00000

_symmetry_space_group_name_	'P 1'
_symmetry_space_group_name_H-M	'P 1'

loop_
_symmetry_equiv_pos_as_xyz
  x,y,z

loop_
_atom_site_label
_atom_site_type_symbol
_atom_site_fract_x
_atom_site_fract_y
_atom_site_fract_z
_atom_site_charge
Ag	Ag	0.26780 0.17241 0.28060 0.43200
Ag	Ag	0.33822 0.28348 0.22372 0.43000
Ag	Ag	0.15444 0.23690 0.21459 0.43100
Ag	Ag	0.22353 0.34835 0.27064 0.42900
Ag	Ag	0.99160 0.37101 0.49451 0.51800
Ag	Ag	0.13020 0.00151 0.03035 0.51700
N 	N 	0.34459 0.18228 0.35520 -0.18700
N 	N 	0.37894 0.22075 0.31620 -0.18100
N 	N 	0.42434 0.16952 0.42820 -0.18300
N 	N 	0.28737 0.39072 0.18590 -0.18300
N 	N 	0.32541 0.35840 0.13940 -0.18300
N 	N 	0.33140 0.43572 0.05210 -0.18400
N 	N 	0.16264 0.15503 0.16440 -0.17800
N 	N 	0.19930 0.12841 0.22690 -0.17800
N 	N 	0.15654 0.07095 0.12030 -0.17700
N 	N 	0.11311 0.30751 0.26470 -0.18200
N 	N 	0.14249 0.34070 0.33450 -0.18300
N 	N 	0.05989 0.34363 0.39420 -0.18000
N 	N 	0.04365 0.99780 0.98910 -0.16600
N 	N 	0.99980 0.45620 0.53600 -0.16000
C 	C 	0.37200 0.15325 0.42280 0.00700
C 	C 	0.34710 0.10900 0.48990 0.20000
H 	H 	0.30870 0.11280 0.47500 -0.06700
C 	C 	0.36310 0.05560 0.42400 -0.52300
H 	H 	0.35030 0.05680 0.34430 0.14600
H 	H 	0.34740 0.02570 0.46380 0.15800
H 	H 	0.40120 0.05200 0.42380 0.16000
C 	C 	0.35210 0.11490 0.61400 -0.53600
H 	H 	0.34000 0.14970 0.63670 0.14600
H 	H 	0.38890 0.11070 0.63610 0.13900
H 	H 	0.33100 0.08830 0.65290 0.15000
C 	C 	0.42453 0.21131 0.36020 0.02700
C 	C 	0.47400 0.24240 0.33810 0.16900
H 	H 	0.49990 0.23200 0.39850 -0.05700
C 	C 	0.49800 0.22920 0.22170 -0.49400
H 	H 	0.53380 0.24290 0.21830 0.13900
H 	H 	0.47710 0.24510 0.16020 0.13600
H 	H 	0.49870 0.19130 0.21170 0.14400
C 	C 	0.46510 0.30150 0.35080 -0.46300
H 	H 	0.46350 0.31060 0.43280 0.12700
H 	H 	0.43210 0.31120 0.31340 0.11000
H 	H 	0.49400 0.32040 0.31430 0.13200
C 	C 	0.29270 0.43530 0.13330 0.03600
C 	C 	0.26160 0.48353 0.15930 0.12900
H 	H 	0.27170 0.51090 0.10210 -0.04600
C 	C 	0.27460 0.50460 0.28190 -0.43900
H 	H 	0.31070 0.51740 0.28340 0.12300
H 	H 	0.27060 0.47640 0.33840 0.12100
H 	H 	0.25070 0.53320 0.30110 0.12500
C 	C 	0.20160 0.47490 0.15010 -0.42800
H 	H 	0.19270 0.46440 0.07120 0.11600
H 	H 	0.18340 0.50750 0.16900 0.12000
H 	H 	0.19090 0.44750 0.20410 0.10500
C 	C 	0.34965 0.38535 0.05630 0.01300
C 	C 	0.39210 0.36689 0.97870 0.16100
H 	H 	0.42310 0.39040 0.98560 -0.04400
C 	C 	0.40790 0.31310 0.99440 -0.46800
H 	H 	0.43330 0.31100 0.05750 0.12000
H 	H 	0.42380 0.30020 0.92320 0.13400
H 	H 	0.37720 0.29190 0.01330 0.10200
C 	C 	0.36930 0.36950 0.85140 -0.43500
H 	H 	0.36100 0.40580 0.83200 0.10900
H 	H 	0.33760 0.34820 0.84650 0.12000
H 	H 	0.39540 0.35610 0.79710 0.12000
C 	C 	0.13817 0.12010 0.10070 0.00200
C 	C 	0.09720 0.13230 0.01280 0.22000
H 	H 	0.07660 0.09910 0.00910 -0.05400
C 	C 	0.05750 0.17110 0.04750 -0.55100
H 	H 	0.04280 0.16130 0.12250 0.15900
H 	H 	0.02960 0.17210 0.98970 0.16400
H 	H 	0.07390 0.20560 0.05330 0.14200
C 	C 	0.12050 0.13620 0.89180 -0.52400
H 	H 	0.09230 0.13640 0.83460 0.15000
H 	H 	0.14350 0.10620 0.87790 0.14300
H 	H 	0.14080 0.16850 0.88530 0.13900
C 	C 	0.19421 0.07740 0.19840 0.00000
C 	C 	0.22630 0.03700 0.26070 0.22600
H 	H 	0.24920 0.05560 0.31720 -0.07200
C 	C 	0.19320 0.99790 0.32740 -0.51000
H 	H 	0.17380 0.01610 0.38810 0.14500
H 	H 	0.21600 0.97150 0.36240 0.14300
H 	H 	0.16860 0.98080 0.27480 0.13500
C 	C 	0.26060 0.00930 0.17710 -0.56500
H 	H 	0.27850 0.98050 0.21630 0.16100
H 	H 	0.28650 0.03370 0.14620 0.15400
H 	H 	0.23940 0.99540 0.11390 0.16000
C 	C 	0.06422 0.31151 0.30490 0.00300
C 	C 	0.01910 0.27950 0.25060 0.23800
H 	H 	0.03280 0.26370 0.17770 -0.07800
C 	C 	0.97410 0.31440 0.21820 -0.53700
H 	H 	0.95130 0.29620 0.16340 0.15100
H 	H 	0.98760 0.34640 0.18260 0.15200
H 	H 	0.95410 0.32340 0.28760 0.13800
C 	C 	0.00530 0.23540 0.32980 -0.58800
H 	H 	0.98820 0.20750 0.28570 0.16800
H 	H 	0.98140 0.24800 0.38980 0.17100
H 	H 	0.03710 0.22170 0.36580 0.16000
C 	C 	0.10956 0.36093 0.40950 0.02800
C 	C 	0.12451 0.39661 0.50670 0.14000
H 	H 	0.09950 0.42660 0.50710 -0.03200
C 	C 	0.17990 0.41870 0.50030 -0.42900
H 	H 	0.18460 0.43710 0.42680 0.10900
H 	H 	0.20530 0.39010 0.50570 0.09600
H 	H 	0.18540 0.44320 0.56420 0.12100
C 	C 	0.11810 0.36700 0.62010 -0.44600
H 	H 	0.08590 0.34620 0.61740 0.12100
H 	H 	0.11600 0.39190 0.68410 0.12700
H 	H 	0.14810 0.34380 0.63160 0.12100
C 	C 	0.02080 0.95150 0.23640 -0.19500
H 	H 	0.02010 0.95310 0.32090 0.04900
H 	H 	0.05690 0.94670 0.21000 0.03900
H 	H 	0.99940 0.92210 0.21000 0.04600
C 	C 	0.05400 0.50070 0.28390 -0.56200
H 	H 	0.05030 0.51350 0.20460 0.15800
H 	H 	0.06840 0.46530 0.28290 0.17000
H 	H 	0.07750 0.52380 0.32690 0.16300
C 	C 	0.02676 0.99830 0.87770 -0.04100
C 	C 	0.06430 0.99240 0.77620 0.23700
H 	H 	0.09680 0.99070 0.82380 -0.05900
C 	C 	0.08920 0.01810 0.67420 -0.54600
H 	H 	0.10110 0.99130 0.61980 0.15800
H 	H 	0.11920 0.03900 0.69980 0.15000
H 	H 	0.06370 0.04090 0.63620 0.15200
C 	C 	0.06290 0.93430 0.74610 -0.52800
H 	H 	0.08620 0.92750 0.68080 0.15100
H 	H 	0.02710 0.92420 0.72550 0.15400
H 	H 	0.07440 0.91380 0.81290 0.16700
C 	C 	0.99840 0.43470 0.74790 0.33000
H 	H 	0.01030 0.40040 0.71590 -0.10900
C 	C 	0.94490 0.42660 0.79800 -0.65400
H 	H 	0.92090 0.41520 0.73710 0.19300
H 	H 	0.93230 0.45950 0.83110 0.18200
H 	H 	0.94650 0.40000 0.85850 0.18600
C 	C 	0.03870 0.45240 0.83290 -0.64700
H 	H 	0.07270 0.45490 0.79460 0.18600
H 	H 	0.04080 0.42730 0.89640 0.18100
H 	H 	0.02880 0.48670 0.86340 0.17900
C 	C 	-0.00000 0.47424 0.65040 -0.02000
C 	C 	0.01730 0.05010 0.23610 -0.15000
H 	H 	0.01680 0.04860 0.32060 0.03500
H 	H 	0.00620 0.92220 0.20960 0.07200
H 	H 	0.96200 0.99870 0.20970 0.02700
H 	H 	0.99950 0.53900 0.34270 -0.05300
H 	H 	0.05290 0.05740 0.20950 0.03400
N 	N 	0.00000 0.52576 0.65040 -0.13500
Ag	Ag	0.73220 0.82758 0.28060 0.43300
Ag	Ag	0.66178 0.71652 0.22372 0.43100
Ag	Ag	0.84556 0.76310 0.21459 0.43300
Ag	Ag	0.77647 0.65165 0.27064 0.43000
Ag	Ag	0.00840 0.62899 0.49451 0.51600
Ag	Ag	0.86980 0.99849 0.03035 0.52100
N 	N 	0.65541 0.81772 0.35520 -0.18600
N 	N 	0.62106 0.77925 0.31620 -0.18100
N 	N 	0.57566 0.83048 0.42820 -0.18400
N 	N 	0.71263 0.60928 0.18590 -0.18300
N 	N 	0.67459 0.64160 0.13940 -0.18300
N 	N 	0.66860 0.56428 0.05210 -0.18400
N 	N 	0.83736 0.84497 0.16440 -0.17700
N 	N 	0.80070 0.87159 0.22690 -0.17800
N 	N 	0.84346 0.92905 0.12030 -0.17700
N 	N 	0.88689 0.69249 0.26470 -0.18300
N 	N 	0.85751 0.65930 0.33450 -0.18300
N 	N 	0.94011 0.65637 0.39420 -0.17900
N 	N 	0.95635 0.00220 0.98910 -0.16900
N 	N 	0.00020 0.54380 0.53600 -0.14600
C 	C 	0.62800 0.84675 0.42280 0.00700
C 	C 	0.65290 0.89100 0.48990 0.20200
H 	H 	0.69130 0.88720 0.47500 -0.06700
C 	C 	0.63690 0.94440 0.42400 -0.52400
H 	H 	0.64970 0.94320 0.34430 0.14800
H 	H 	0.65260 0.97430 0.46380 0.16100
H 	H 	0.59880 0.94800 0.42380 0.16000
C 	C 	0.64790 0.88510 0.61400 -0.53800
H 	H 	0.66000 0.85030 0.63670 0.14700
H 	H 	0.61110 0.88930 0.63610 0.14000
H 	H 	0.66900 0.91170 0.65290 0.15200
C 	C 	0.57547 0.78869 0.36020 0.02700
C 	C 	0.52600 0.75760 0.33810 0.16900
H 	H 	0.50010 0.76800 0.39850 -0.05800
C 	C 	0.50200 0.77080 0.22170 -0.49400
H 	H 	0.46620 0.75710 0.21830 0.13900
H 	H 	0.52290 0.75490 0.16020 0.13600
H 	H 	0.50130 0.80870 0.21170 0.14400
C 	C 	0.53490 0.69850 0.35080 -0.46300
H 	H 	0.53650 0.68940 0.43280 0.12700
H 	H 	0.56790 0.68880 0.31340 0.11000
H 	H 	0.50600 0.67960 0.31430 0.13200
C 	C 	0.70730 0.56470 0.13330 0.03600
C 	C 	0.73840 0.51647 0.15930 0.13000
H 	H 	0.72830 0.48910 0.10210 -0.04600
C 	C 	0.72540 0.49540 0.28190 -0.43900
H 	H 	0.68930 0.48260 0.28340 0.12300
H 	H 	0.72940 0.52360 0.33840 0.12200
H 	H 	0.74930 0.46680 0.30110 0.12500
C 	C 	0.79840 0.52510 0.15010 -0.42800
H 	H 	0.80730 0.53560 0.07120 0.11600
H 	H 	0.81660 0.49250 0.16900 0.12100
H 	H 	0.80910 0.55250 0.20410 0.10500
C 	C 	0.65035 0.61465 0.05630 0.01300
C 	C 	0.60790 0.63311 0.97870 0.16100
H 	H 	0.57690 0.60960 0.98560 -0.04400
C 	C 	0.59210 0.68690 0.99440 -0.46900
H 	H 	0.56670 0.68900 0.05750 0.12000
H 	H 	0.57620 0.69980 0.92320 0.13500
H 	H 	0.62280 0.70810 0.01330 0.10200
C 	C 	0.63070 0.63050 0.85140 -0.43500
H 	H 	0.63900 0.59420 0.83200 0.10900
H 	H 	0.66240 0.65180 0.84650 0.12000
H 	H 	0.60460 0.64390 0.79710 0.12000
C 	C 	0.86183 0.87990 0.10070 0.00100
C 	C 	0.90280 0.86770 0.01280 0.22500
H 	H 	0.92340 0.90090 0.00910 -0.05400
C 	C 	0.94250 0.82890 0.04750 -0.55800
H 	H 	0.95720 0.83870 0.12250 0.16400
H 	H 	0.97040 0.82790 0.98970 0.16900
H 	H 	0.92610 0.79440 0.05330 0.14500
C 	C 	0.87950 0.86380 0.89180 -0.53000
H 	H 	0.90770 0.86360 0.83460 0.15300
H 	H 	0.85650 0.89380 0.87790 0.14600
H 	H 	0.85920 0.83150 0.88530 0.14100
C 	C 	0.80579 0.92260 0.19840 0.00200
C 	C 	0.77370 0.96300 0.26070 0.22400
H 	H 	0.75080 0.94440 0.31720 -0.07100
C 	C 	0.80680 0.00210 0.32740 -0.53000
H 	H 	0.82620 0.98390 0.38810 0.15400
H 	H 	0.78400 0.02850 0.36240 0.14800
H 	H 	0.83140 0.01920 0.27480 0.13900
C 	C 	0.73940 0.99070 0.17710 -0.53000
H 	H 	0.72150 0.01950 0.21630 0.14800
H 	H 	0.71350 0.96630 0.14620 0.14500
H 	H 	0.76060 0.00460 0.11390 0.14600
C 	C 	0.93578 0.68849 0.30490 0.01100
C 	C 	0.98090 0.72050 0.25060 0.21800
H 	H 	0.96720 0.73630 0.17770 -0.07000
C 	C 	0.02590 0.68560 0.21820 -0.52600
H 	H 	0.04870 0.70380 0.16340 0.14600
H 	H 	0.01240 0.65360 0.18260 0.14500
H 	H 	0.04590 0.67660 0.28760 0.13400
C 	C 	0.99470 0.76460 0.32980 -0.51500
H 	H 	0.01180 0.79250 0.28570 0.14100
H 	H 	0.01860 0.75200 0.38980 0.14500
H 	H 	0.96290 0.77830 0.36580 0.14200
C 	C 	0.89044 0.63907 0.40950 0.02900
C 	C 	0.87549 0.60339 0.50670 0.14000
H 	H 	0.90050 0.57340 0.50710 -0.03000
C 	C 	0.82010 0.58130 0.50030 -0.42900
H 	H 	0.81540 0.56290 0.42680 0.10900
H 	H 	0.79470 0.60990 0.50570 0.09600
H 	H 	0.81460 0.55680 0.56420 0.12100
C 	C 	0.88190 0.63300 0.62010 -0.44800
H 	H 	0.91410 0.65380 0.61740 0.12400
H 	H 	0.88400 0.60810 0.68410 0.12900
H 	H 	0.85190 0.65620 0.63160 0.12200
C 	C 	0.97920 0.04850 0.23640 -0.25700
H 	H 	0.97990 0.04690 0.32090 0.07200
H 	H 	0.94310 0.05330 0.21000 0.05800
H 	H 	0.00060 0.07790 0.21000 0.07700
C 	C 	0.94600 0.49930 0.28390 -0.55800
H 	H 	0.94970 0.48650 0.20460 0.15900
H 	H 	0.93160 0.53470 0.28290 0.17000
H 	H 	0.92250 0.47620 0.32690 0.16300
C 	C 	0.97324 0.00170 0.87770 -0.02900
C 	C 	0.93570 0.00760 0.77620 0.21600
H 	H 	0.90320 0.00930 0.82380 -0.05500
C 	C 	0.91080 0.98190 0.67420 -0.50800
H 	H 	0.89890 0.00870 0.61980 0.14400
H 	H 	0.88080 0.96100 0.69980 0.14000
H 	H 	0.93630 0.95910 0.63620 0.14400
C 	C 	0.93710 0.06570 0.74610 -0.51400
H 	H 	0.91380 0.07250 0.68080 0.14700
H 	H 	0.97290 0.07580 0.72550 0.15100
H 	H 	0.92560 0.08620 0.81290 0.16300
C 	C 	0.00160 0.56530 0.74790 0.37400
H 	H 	0.98970 0.59960 0.71590 -0.11200
C 	C 	0.05510 0.57340 0.79800 -0.69100
H 	H 	0.07910 0.58480 0.73710 0.20500
H 	H 	0.06770 0.54050 0.83110 0.19400
H 	H 	0.05350 0.60000 0.85850 0.19500
C 	C 	0.96130 0.54760 0.83290 -0.67700
H 	H 	0.92730 0.54510 0.79460 0.19800
H 	H 	0.95920 0.57270 0.89640 0.19200
H 	H 	0.97120 0.51330 0.86340 0.19200
C 	C 	0.98270 0.94990 0.23610 -0.20900
H 	H 	0.98320 0.95140 0.32060 0.06000
H 	H 	0.99380 0.07780 0.20960 0.04200
H 	H 	0.03800 0.00130 0.20970 0.01200
H 	H 	0.00050 0.46100 0.34270 -0.05800
H 	H 	0.94710 0.94260 0.20950 0.05400
Ag	Ag	0.23220 0.67241 0.71940 0.43300
Ag	Ag	0.16178 0.78348 0.77628 0.43100
Ag	Ag	0.34556 0.73690 0.78541 0.43200
Ag	Ag	0.27647 0.84835 0.72936 0.43000
Ag	Ag	0.50840 0.87101 0.50549 0.51700
Ag	Ag	0.36980 0.50151 0.96965 0.51900
N 	N 	0.15541 0.68228 0.64480 -0.18600
N 	N 	0.12106 0.72075 0.68380 -0.18100
N 	N 	0.07566 0.66952 0.57180 -0.18300
N 	N 	0.21263 0.89072 0.81410 -0.18200
N 	N 	0.17459 0.85840 0.86060 -0.18300
N 	N 	0.16860 0.93572 0.94790 -0.18300
N 	N 	0.33736 0.65503 0.83560 -0.17800
N 	N 	0.30070 0.62841 0.77310 -0.17800
N 	N 	0.34346 0.57095 0.87970 -0.17700
N 	N 	0.38689 0.80751 0.73530 -0.18300
N 	N 	0.35751 0.84070 0.66550 -0.18300
N 	N 	0.44011 0.84363 0.60580 -0.18000
N 	N 	0.45635 0.49780 0.01090 -0.16800
N 	N 	0.50020 0.95620 0.46400 -0.16500
C 	C 	0.12800 0.65325 0.57720 0.00700
C 	C 	0.15290 0.60900 0.51010 0.20200
H 	H 	0.19130 0.61280 0.52500 -0.06700
C 	C 	0.13690 0.55560 0.57600 -0.52500
H 	H 	0.14970 0.55680 0.65570 0.14700
H 	H 	0.15260 0.52570 0.53620 0.16000
H 	H 	0.09880 0.55200 0.57620 0.16100
C 	C 	0.14790 0.61490 0.38600 -0.53700
H 	H 	0.16000 0.64970 0.36330 0.14700
H 	H 	0.11110 0.61070 0.36390 0.13900
H 	H 	0.16900 0.58830 0.34710 0.15100
C 	C 	0.07547 0.71131 0.63980 0.02500
C 	C 	0.02600 0.74240 0.66190 0.17600
H 	H 	0.00010 0.73200 0.60150 -0.06100
C 	C 	0.00200 0.72920 0.77830 -0.51200
H 	H 	0.96620 0.74290 0.78170 0.14700
H 	H 	0.02290 0.74510 0.83980 0.14100
H 	H 	0.00130 0.69130 0.78830 0.14800
C 	C 	0.03490 0.80150 0.64920 -0.46800
H 	H 	0.03650 0.81060 0.56720 0.12900
H 	H 	0.06790 0.81120 0.68660 0.11100
H 	H 	0.00600 0.82040 0.68570 0.13200
C 	C 	0.20730 0.93530 0.86670 0.03400
C 	C 	0.23840 0.98353 0.84070 0.13900
H 	H 	0.22830 0.01090 0.89790 -0.05100
C 	C 	0.22540 0.00460 0.71810 -0.45700
H 	H 	0.18930 0.01740 0.71660 0.12700
H 	H 	0.22940 0.97640 0.66160 0.12800
H 	H 	0.24930 0.03320 0.69890 0.12900
C 	C 	0.29840 0.97490 0.84990 -0.42800
H 	H 	0.30730 0.96440 0.92880 0.11600
H 	H 	0.31660 0.00750 0.83100 0.11800
H 	H 	0.30910 0.94750 0.79590 0.10500
C 	C 	0.15035 0.88535 0.94370 0.01300
C 	C 	0.10790 0.86689 0.02130 0.16000
H 	H 	0.07690 0.89040 0.01440 -0.04400
C 	C 	0.09210 0.81310 0.00560 -0.46600
H 	H 	0.06670 0.81100 0.94250 0.11900
H 	H 	0.07620 0.80020 0.07680 0.13300
H 	H 	0.12280 0.79190 0.98670 0.10100
C 	C 	0.13070 0.86950 0.14860 -0.43500
H 	H 	0.13900 0.90580 0.16800 0.10900
H 	H 	0.16240 0.84820 0.15350 0.12000
H 	H 	0.10460 0.85610 0.20290 0.12000
C 	C 	0.36183 0.62010 0.89930 0.00100
C 	C 	0.40280 0.63230 0.98720 0.22300
H 	H 	0.42340 0.59910 0.99090 -0.05400
C 	C 	0.44250 0.67110 0.95250 -0.55500
H 	H 	0.45720 0.66130 0.87750 0.16200
H 	H 	0.47040 0.67210 0.01030 0.16700
H 	H 	0.42610 0.70560 0.94670 0.14400
C 	C 	0.37950 0.63620 0.10820 -0.52700
H 	H 	0.40770 0.63640 0.16540 0.15200
H 	H 	0.35650 0.60620 0.12210 0.14400
H 	H 	0.35920 0.66850 0.11470 0.14000
C 	C 	0.30579 0.57740 0.80160 0.00100
C 	C 	0.27370 0.53700 0.73930 0.22500
H 	H 	0.25080 0.55560 0.68280 -0.07100
C 	C 	0.30680 0.49790 0.67260 -0.51900
H 	H 	0.32620 0.51610 0.61190 0.14900
H 	H 	0.28400 0.47150 0.63760 0.14500
H 	H 	0.33140 0.48080 0.72520 0.13700
C 	C 	0.23940 0.50930 0.82290 -0.54700
H 	H 	0.22150 0.48050 0.78370 0.15500
H 	H 	0.21350 0.53370 0.85380 0.15000
H 	H 	0.26060 0.49540 0.88610 0.15300
C 	C 	0.43578 0.81151 0.69510 0.00700
C 	C 	0.48090 0.77950 0.74940 0.22900
H 	H 	0.46720 0.76370 0.82230 -0.07500
C 	C 	0.52590 0.81440 0.78180 -0.53200
H 	H 	0.54870 0.79620 0.83660 0.14900
H 	H 	0.51240 0.84640 0.81740 0.14900
H 	H 	0.54590 0.82340 0.71240 0.13600
C 	C 	0.49470 0.73540 0.67020 -0.55300
H 	H 	0.51180 0.70750 0.71430 0.15500
H 	H 	0.51860 0.74800 0.61020 0.15800
H 	H 	0.46290 0.72170 0.63420 0.15100
C 	C 	0.39044 0.86093 0.59050 0.02800
C 	C 	0.37549 0.89661 0.49330 0.14100
H 	H 	0.40050 0.92660 0.49290 -0.03100
C 	C 	0.32010 0.91870 0.49970 -0.43000
H 	H 	0.31540 0.93710 0.57320 0.10900
H 	H 	0.29470 0.89010 0.49430 0.09700
H 	H 	0.31460 0.94320 0.43580 0.12100
C 	C 	0.38190 0.86700 0.37990 -0.44800
H 	H 	0.41410 0.84620 0.38260 0.12200
H 	H 	0.38400 0.89190 0.31590 0.12800
H 	H 	0.35190 0.84380 0.36840 0.12200
C 	C 	0.47920 0.45150 0.76360 -0.23900
H 	H 	0.47990 0.45310 0.67910 0.06400
H 	H 	0.44310 0.44670 0.79000 0.05200
H 	H 	0.50060 0.42210 0.79000 0.06500
C 	C 	0.44600 0.00070 0.71610 -0.57800
H 	H 	0.44970 0.01350 0.79540 0.16300
H 	H 	0.43160 0.96530 0.71710 0.17700
H 	H 	0.42250 0.02380 0.67310 0.16800
C 	C 	0.47324 0.49830 0.12230 -0.03500
C 	C 	0.43570 0.49240 0.22380 0.22700
H 	H 	0.40320 0.49070 0.17620 -0.05700
C 	C 	0.41080 0.51810 0.32580 -0.52800
H 	H 	0.39890 0.49130 0.38020 0.15100
H 	H 	0.38080 0.53900 0.30020 0.14500
H 	H 	0.43630 0.54090 0.36380 0.14800
C 	C 	0.43710 0.43430 0.25390 -0.52200
H 	H 	0.41380 0.42750 0.31920 0.14900
H 	H 	0.47290 0.42420 0.27450 0.15300
H 	H 	0.42560 0.41380 0.18710 0.16600
C 	C 	0.50160 0.93470 0.25210 0.29500
H 	H 	0.48970 0.90040 0.28410 -0.09600
C 	C 	0.55510 0.92660 0.20200 -0.62500
H 	H 	0.57910 0.91520 0.26290 0.18400
H 	H 	0.56770 0.95950 0.16890 0.17400
H 	H 	0.55350 0.90000 0.14150 0.17800
C 	C 	0.46130 0.95240 0.16710 -0.61400
H 	H 	0.42730 0.95490 0.20540 0.17700
H 	H 	0.45920 0.92730 0.10360 0.17300
H 	H 	0.47120 0.98670 0.13660 0.17100
C 	C 	0.50000 0.97424 0.34960 -0.00200
C 	C 	0.48270 0.55010 0.76390 -0.18900
H 	H 	0.48320 0.54860 0.67940 0.05000
H 	H 	0.49380 0.42220 0.79040 0.06000
H 	H 	0.53800 0.49870 0.79030 0.01000
H 	H 	0.50050 0.03900 0.65730 -0.06000
H 	H 	0.44710 0.55740 0.79050 0.04700
N 	N 	0.50000 0.02576 0.34960 -0.14100
Ag	Ag	0.76780 0.32758 0.71940 0.43300
Ag	Ag	0.83822 0.21652 0.77628 0.43100
Ag	Ag	0.65444 0.26310 0.78541 0.43200
Ag	Ag	0.72353 0.15165 0.72936 0.43000
Ag	Ag	0.49160 0.12899 0.50549 0.51800
Ag	Ag	0.63020 0.49849 0.96965 0.51900
N 	N 	0.84459 0.31772 0.64480 -0.18600
N 	N 	0.87894 0.27925 0.68380 -0.18100
N 	N 	0.92434 0.33048 0.57180 -0.18400
N 	N 	0.78737 0.10928 0.81410 -0.18300
N 	N 	0.82541 0.14160 0.86060 -0.18300
N 	N 	0.83140 0.06428 0.94790 -0.18500
N 	N 	0.66264 0.34497 0.83560 -0.17800
N 	N 	0.69930 0.37159 0.77310 -0.17800
N 	N 	0.65654 0.42905 0.87970 -0.17700
N 	N 	0.61311 0.19249 0.73530 -0.18300
N 	N 	0.64249 0.15930 0.66550 -0.18300
N 	N 	0.55989 0.15637 0.60580 -0.18000
N 	N 	0.54365 0.50220 0.01090 -0.16800
N 	N 	0.49980 0.04380 0.46400 -0.14400
C 	C 	0.87200 0.34675 0.57720 0.00700
C 	C 	0.84710 0.39100 0.51010 0.20100
H 	H 	0.80870 0.38720 0.52500 -0.06700
C 	C 	0.86310 0.44440 0.57600 -0.52300
H 	H 	0.85030 0.44320 0.65570 0.14700
H 	H 	0.84740 0.47430 0.53620 0.16000
H 	H 	0.90120 0.44800 0.57620 0.16000
C 	C 	0.85210 0.38510 0.38600 -0.53700
H 	H 	0.84000 0.35030 0.36330 0.14700
H 	H 	0.88890 0.38930 0.36390 0.13900
H 	H 	0.83100 0.41170 0.34710 0.15100
C 	C 	0.92453 0.28869 0.63980 0.02900
C 	C 	0.97400 0.25760 0.66190 0.16200
H 	H 	0.99990 0.26800 0.60150 -0.05500
C 	C 	0.99800 0.27080 0.77830 -0.47600
H 	H 	0.03380 0.25710 0.78170 0.13100
H 	H 	0.97710 0.25490 0.83980 0.13200
H 	H 	0.99870 0.30870 0.78830 0.14000
C 	C 	0.96510 0.19850 0.64920 -0.45800
H 	H 	0.96350 0.18940 0.56720 0.12600
H 	H 	0.93210 0.18880 0.68660 0.10800
H 	H 	0.99400 0.17960 0.68570 0.13100
C 	C 	0.79270 0.06470 0.86670 0.03900
C 	C 	0.76160 0.01647 0.84070 0.11800
H 	H 	0.77170 0.98910 0.89790 -0.04100
C 	C 	0.77460 0.99540 0.71810 -0.42100
H 	H 	0.81070 0.98260 0.71660 0.11900
H 	H 	0.77060 0.02360 0.66160 0.11500
H 	H 	0.75070 0.96680 0.69890 0.12000
C 	C 	0.70160 0.02510 0.84990 -0.42800
H 	H 	0.69270 0.03560 0.92880 0.11500
H 	H 	0.68340 0.99250 0.83100 0.12200
H 	H 	0.69090 0.05250 0.79590 0.10400
C 	C 	0.84965 0.11465 0.94370 0.01300
C 	C 	0.89210 0.13311 0.02130 0.16000
H 	H 	0.92310 0.10960 0.01440 -0.04300
C 	C 	0.90790 0.18690 0.00560 -0.46600
H 	H 	0.93330 0.18900 0.94250 0.12000
H 	H 	0.92380 0.19980 0.07680 0.13400
H 	H 	0.87720 0.20810 0.98670 0.10100
C 	C 	0.86930 0.13050 0.14860 -0.43300
H 	H 	0.86100 0.09420 0.16800 0.10800
H 	H 	0.83760 0.15180 0.15350 0.11900
H 	H 	0.89540 0.14390 0.20290 0.12000
C 	C 	0.63817 0.37990 0.89930 0.00100
C 	C 	0.59720 0.36770 0.98720 0.22200
H 	H 	0.57660 0.40090 0.99090 -0.05400
C 	C 	0.55750 0.32890 0.95250 -0.55500
H 	H 	0.54280 0.33870 0.87750 0.16200
H 	H 	0.52960 0.32790 0.01030 0.16700
H 	H 	0.57390 0.29440 0.94670 0.14400
C 	C 	0.62050 0.36380 0.10820 -0.52700
H 	H 	0.59230 0.36360 0.16540 0.15100
H 	H 	0.64350 0.39380 0.12210 0.14400
H 	H 	0.64080 0.33150 0.11470 0.14000
C 	C 	0.69421 0.42260 0.80160 0.00100
C 	C 	0.72630 0.46300 0.73930 0.22500
H 	H 	0.74920 0.44440 0.68280 -0.07100
C 	C 	0.69320 0.50210 0.67260 -0.51900
H 	H 	0.67380 0.48390 0.61190 0.14900
H 	H 	0.71600 0.52850 0.63760 0.14500
H 	H 	0.66860 0.51920 0.72520 0.13700
C 	C 	0.76060 0.49070 0.82290 -0.54800
H 	H 	0.77850 0.51950 0.78370 0.15500
H 	H 	0.78650 0.46630 0.85380 0.15000
H 	H 	0.73940 0.50460 0.88610 0.15300
C 	C 	0.56422 0.18849 0.69510 0.00700
C 	C 	0.51910 0.22050 0.74940 0.22800
H 	H 	0.53280 0.23630 0.82230 -0.07400
C 	C 	0.47410 0.18560 0.78180 -0.53100
H 	H 	0.45130 0.20380 0.83660 0.14800
H 	H 	0.48760 0.15360 0.81740 0.14800
H 	H 	0.45410 0.17660 0.71240 0.13600
C 	C 	0.50530 0.26460 0.67020 -0.55200
H 	H 	0.48820 0.29250 0.71430 0.15400
H 	H 	0.48140 0.25200 0.61020 0.15800
H 	H 	0.53710 0.27830 0.63420 0.15100
C 	C 	0.60956 0.13907 0.59050 0.02900
C 	C 	0.62451 0.10339 0.49330 0.14000
H 	H 	0.59950 0.07340 0.49290 -0.03100
C 	C 	0.67990 0.08130 0.49970 -0.42800
H 	H 	0.68460 0.06290 0.57320 0.10800
H 	H 	0.70530 0.10990 0.49430 0.09600
H 	H 	0.68540 0.05680 0.43580 0.12000
C 	C 	0.61810 0.13300 0.37990 -0.44600
H 	H 	0.58590 0.15380 0.38260 0.12300
H 	H 	0.61600 0.10810 0.31590 0.12800
H 	H 	0.64810 0.15620 0.36840 0.12100
C 	C 	0.52080 0.54850 0.76360 -0.23900
H 	H 	0.52010 0.54690 0.67910 0.06400
H 	H 	0.55690 0.55330 0.79000 0.05200
H 	H 	0.49940 0.57790 0.79000 0.06500
C 	C 	0.55400 0.99930 0.71610 -0.56000
H 	H 	0.55030 0.98650 0.79540 0.15900
H 	H 	0.56840 0.03470 0.71710 0.16900
H 	H 	0.57750 0.97620 0.67310 0.16400
C 	C 	0.52676 0.50170 0.12230 -0.03500
C 	C 	0.56430 0.50760 0.22380 0.22700
H 	H 	0.59680 0.50930 0.17620 -0.05700
C 	C 	0.58920 0.48190 0.32580 -0.52800
H 	H 	0.60110 0.50870 0.38020 0.15100
H 	H 	0.61920 0.46100 0.30020 0.14500
H 	H 	0.56370 0.45910 0.36380 0.14800
C 	C 	0.56290 0.56570 0.25390 -0.52200
H 	H 	0.58620 0.57250 0.31920 0.14900
H 	H 	0.52710 0.57580 0.27450 0.15300
H 	H 	0.57440 0.58620 0.18710 0.16600
C 	C 	0.49840 0.06530 0.25210 0.39500
H 	H 	0.51030 0.09960 0.28410 -0.12200
C 	C 	0.44490 0.07340 0.20200 -0.70800
H 	H 	0.42090 0.08480 0.26290 0.21000
H 	H 	0.43230 0.04050 0.16890 0.19800
H 	H 	0.44650 0.10000 0.14150 0.20100
C 	C 	0.53870 0.04760 0.16710 -0.69900
H 	H 	0.57270 0.04510 0.20540 0.20300
H 	H 	0.54080 0.07270 0.10360 0.19700
H 	H 	0.52880 0.01330 0.13660 0.19700
C 	C 	0.51730 0.44990 0.76390 -0.18900
H 	H 	0.51680 0.45140 0.67940 0.05000
H 	H 	0.50620 0.57780 0.79040 0.06000
H 	H 	0.46200 0.50130 0.79030 0.01000
H 	H 	0.49950 0.96100 0.65730 -0.05800
H 	H 	0.55290 0.44260 0.79050 0.04700
C 	C 	-0.00000 0.00000 0.04910 0.05700
C 	C 	-0.00000 0.00000 0.18930 0.09000
C 	C 	0.50000 0.50000 0.95090 0.05700
C 	C 	0.50000 0.50000 0.81070 0.12100
C 	C 	0.00000 0.50000 0.47290 0.00700
C 	C 	0.00000 0.50000 0.34270 0.25600
C 	C 	0.50000 0.00000 0.52710 0.00600
C 	C 	0.50000 0.00000 0.65730 0.26700
