data_crystal

_cell_length_a 23.31600
_cell_length_b 28.01100
_cell_length_c 36.07900
_cell_angle_alpha 90.00000
_cell_angle_beta  90.00000
_cell_angle_gamma 90.00000

_symmetry_space_group_name_	'P 1'
_symmetry_space_group_name_H-M	'P 1'

loop_
_symmetry_equiv_pos_as_xyz
  x,y,z

loop_
_atom_site_label
_atom_site_type_symbol
_atom_site_fract_x
_atom_site_fract_y
_atom_site_fract_z
_atom_site_charge
O 	O 	0.80900 0.16687 0.10009 -0.37400
O 	O 	0.83164 0.18695 0.15779 -0.36400
O 	O 	0.75033 0.32028 0.29450 -0.24300
O 	O 	0.67843 0.36933 0.31201 -0.44600
O 	O 	0.83431 0.53170 0.10511 -0.33900
O 	O 	0.76570 0.57019 0.13513 -0.37500
N 	N 	0.68206 0.30733 0.12180 -0.25300
N 	N 	0.64359 0.35555 0.17735 -0.24500
N 	N 	0.67980 0.40881 0.12030 -0.25000
C 	C 	0.69934 0.28449 0.09088 0.08800
C 	C 	0.73809 0.24715 0.09209 -0.12300
C 	C 	0.75981 0.23266 0.12613 0.01900
C 	C 	0.74250 0.25633 0.15810 -0.08100
C 	C 	0.70388 0.29379 0.15503 0.05100
C 	C 	0.68400 0.32263 0.18632 0.03800
C 	C 	0.70518 0.31858 0.22204 -0.05800
C 	C 	0.68331 0.34848 0.24933 -0.02400
C 	C 	0.64074 0.38110 0.24011 -0.06800
C 	C 	0.62247 0.38429 0.20401 0.06100
C 	C 	0.80299 0.19254 0.12843 0.27700
C 	C 	0.70630 0.34531 0.28885 0.34800
C 	C 	0.73677 0.40475 0.11608 0.07100
C 	C 	0.77212 0.44451 0.11492 -0.10100
C 	C 	0.74840 0.48953 0.11923 0.02400
C 	C 	0.68970 0.49394 0.12322 -0.08600
C 	C 	0.65593 0.45297 0.12328 0.04900
C 	C 	0.78580 0.53404 0.12043 0.28500
H 	H 	0.68000 0.29680 0.07030 -0.00400
H 	H 	0.75620 0.23390 0.07320 0.10600
H 	H 	0.73590 0.29750 0.22760 0.07000
H 	H 	0.75690 0.24700 0.18170 0.07900
H 	H 	0.62490 0.40190 0.25800 0.07900
H 	H 	0.59420 0.40310 0.19410 0.00700
H 	H 	0.75150 0.37150 0.11780 0.00400
H 	H 	0.81020 0.43820 0.11570 0.08800
H 	H 	0.66920 0.52110 0.12560 0.09100
O 	O 	0.80900 0.66687 0.60009 -0.37400
O 	O 	0.83164 0.68695 0.65779 -0.36400
O 	O 	0.75033 0.82028 0.79450 -0.24300
O 	O 	0.67843 0.86933 0.81201 -0.44600
O 	O 	0.83431 0.03170 0.60511 -0.33900
O 	O 	0.76570 0.07019 0.63513 -0.37500
N 	N 	0.68206 0.80733 0.62180 -0.25300
N 	N 	0.64359 0.85555 0.67735 -0.24500
N 	N 	0.67980 0.90881 0.62030 -0.25000
C 	C 	0.69934 0.78449 0.59088 0.08900
C 	C 	0.73809 0.74715 0.59209 -0.12300
C 	C 	0.75981 0.73266 0.62613 0.01900
C 	C 	0.74250 0.75633 0.65810 -0.08100
C 	C 	0.70388 0.79379 0.65503 0.05100
C 	C 	0.68400 0.82263 0.68632 0.03800
C 	C 	0.70518 0.81858 0.72204 -0.05800
C 	C 	0.68331 0.84848 0.74933 -0.02400
C 	C 	0.64074 0.88110 0.74011 -0.06800
C 	C 	0.62247 0.88429 0.70401 0.06100
C 	C 	0.80299 0.69254 0.62843 0.27700
C 	C 	0.70630 0.84531 0.78885 0.34800
C 	C 	0.73677 0.90475 0.61608 0.07100
C 	C 	0.77212 0.94451 0.61492 -0.10100
C 	C 	0.74840 0.98953 0.61923 0.02500
C 	C 	0.68970 0.99394 0.62322 -0.08600
C 	C 	0.65593 0.95297 0.62328 0.04900
C 	C 	0.78580 0.03404 0.62043 0.28500
H 	H 	0.68000 0.79680 0.57030 -0.00400
H 	H 	0.75620 0.73390 0.57320 0.10600
H 	H 	0.73590 0.79750 0.72760 0.07000
H 	H 	0.75690 0.74700 0.68170 0.07900
H 	H 	0.62490 0.90190 0.75800 0.07900
H 	H 	0.59420 0.90310 0.69410 0.00700
H 	H 	0.75150 0.87150 0.61780 0.00400
H 	H 	0.81020 0.93820 0.61570 0.08800
H 	H 	0.66920 0.02110 0.62560 0.09100
O 	O 	0.30900 0.16687 0.60009 -0.37400
O 	O 	0.33164 0.18695 0.65779 -0.36400
O 	O 	0.25033 0.32028 0.79450 -0.24300
O 	O 	0.17843 0.36933 0.81201 -0.44600
O 	O 	0.33431 0.53170 0.60511 -0.33900
O 	O 	0.26570 0.57019 0.63513 -0.37500
N 	N 	0.18206 0.30733 0.62180 -0.25300
N 	N 	0.14359 0.35555 0.67735 -0.24500
N 	N 	0.17980 0.40881 0.62030 -0.25000
C 	C 	0.19934 0.28449 0.59088 0.08800
C 	C 	0.23809 0.24715 0.59209 -0.12300
C 	C 	0.25981 0.23266 0.62613 0.01900
C 	C 	0.24250 0.25633 0.65810 -0.08100
C 	C 	0.20388 0.29379 0.65503 0.05100
C 	C 	0.18400 0.32263 0.68632 0.03800
C 	C 	0.20518 0.31858 0.72204 -0.05800
C 	C 	0.18331 0.34848 0.74933 -0.02500
C 	C 	0.14074 0.38110 0.74011 -0.06900
C 	C 	0.12247 0.38429 0.70401 0.06000
C 	C 	0.30299 0.19254 0.62843 0.27600
C 	C 	0.20630 0.34531 0.78885 0.34700
C 	C 	0.23677 0.40475 0.61608 0.07000
C 	C 	0.27212 0.44451 0.61492 -0.10200
C 	C 	0.24840 0.48953 0.61923 0.02300
C 	C 	0.18970 0.49394 0.62322 -0.08700
C 	C 	0.15593 0.45297 0.62328 0.04800
C 	C 	0.28580 0.53404 0.62043 0.28400
H 	H 	0.18000 0.29680 0.57030 -0.00500
H 	H 	0.25620 0.23390 0.57320 0.10500
H 	H 	0.23590 0.29750 0.72760 0.06900
H 	H 	0.25690 0.24700 0.68170 0.07800
H 	H 	0.12490 0.40190 0.75800 0.07800
H 	H 	0.09420 0.40310 0.69410 0.00600
H 	H 	0.25150 0.37150 0.61780 0.00300
H 	H 	0.31020 0.43820 0.61570 0.08700
H 	H 	0.16920 0.52110 0.62560 0.09000
O 	O 	0.30900 0.66687 0.10009 -0.37500
O 	O 	0.33164 0.68695 0.15779 -0.36500
O 	O 	0.25033 0.82028 0.29450 -0.24400
O 	O 	0.17843 0.86933 0.31201 -0.44700
O 	O 	0.33431 0.03170 0.10511 -0.34000
O 	O 	0.26570 0.07019 0.13513 -0.37600
N 	N 	0.18206 0.80733 0.12180 -0.25400
N 	N 	0.14359 0.85555 0.17735 -0.24600
N 	N 	0.17980 0.90881 0.12030 -0.25100
C 	C 	0.19934 0.78449 0.09088 0.08700
C 	C 	0.23809 0.74715 0.09209 -0.12400
C 	C 	0.25981 0.73266 0.12613 0.01800
C 	C 	0.24250 0.75633 0.15810 -0.08200
C 	C 	0.20388 0.79379 0.15503 0.05000
C 	C 	0.18400 0.82263 0.18632 0.03700
C 	C 	0.20518 0.81858 0.22204 -0.05900
C 	C 	0.18331 0.84848 0.24933 -0.02500
C 	C 	0.14074 0.88110 0.24011 -0.06900
C 	C 	0.12247 0.88429 0.20401 0.06000
C 	C 	0.30299 0.69254 0.12843 0.27600
C 	C 	0.20630 0.84531 0.28885 0.34700
C 	C 	0.23677 0.90475 0.11608 0.07000
C 	C 	0.27212 0.94451 0.11492 -0.10200
C 	C 	0.24840 0.98953 0.11923 0.02300
C 	C 	0.18970 0.99394 0.12322 -0.08800
C 	C 	0.15593 0.95297 0.12328 0.04800
C 	C 	0.28580 0.03404 0.12043 0.28400
H 	H 	0.18000 0.79680 0.07030 -0.00500
H 	H 	0.25620 0.73390 0.07320 0.10500
H 	H 	0.23590 0.79750 0.22760 0.06900
H 	H 	0.25690 0.74700 0.18170 0.07800
H 	H 	0.12490 0.90190 0.25800 0.07800
H 	H 	0.09420 0.90310 0.19410 0.00600
H 	H 	0.25150 0.87150 0.11780 0.00300
H 	H 	0.31020 0.93820 0.11570 0.08700
H 	H 	0.16920 0.02110 0.12560 0.09100
O 	O 	0.94100 0.58313 0.10009 -0.37500
O 	O 	0.91836 0.56305 0.15779 -0.36500
O 	O 	0.99967 0.42972 0.29450 -0.24400
O 	O 	0.07157 0.38067 0.31201 -0.44700
O 	O 	0.91569 0.21830 0.10511 -0.34000
O 	O 	0.98430 0.17981 0.13513 -0.37600
N 	N 	0.06794 0.44267 0.12180 -0.25400
N 	N 	0.10641 0.39445 0.17735 -0.24600
N 	N 	0.07020 0.34119 0.12030 -0.25100
C 	C 	0.05066 0.46551 0.09088 0.08700
C 	C 	0.01191 0.50285 0.09209 -0.12300
C 	C 	0.99019 0.51734 0.12613 0.01700
C 	C 	0.00750 0.49367 0.15810 -0.08100
C 	C 	0.04612 0.45621 0.15503 0.05000
C 	C 	0.06600 0.42737 0.18632 0.03700
C 	C 	0.04482 0.43142 0.22204 -0.05900
C 	C 	0.06669 0.40152 0.24933 -0.02500
C 	C 	0.10926 0.36890 0.24011 -0.06900
C 	C 	0.12753 0.36571 0.20401 0.06000
C 	C 	0.94701 0.55746 0.12843 0.27600
C 	C 	0.04370 0.40469 0.28885 0.34800
C 	C 	0.01323 0.34525 0.11608 0.07100
C 	C 	0.97788 0.30549 0.11492 -0.10300
C 	C 	0.00160 0.26047 0.11923 0.02400
C 	C 	0.06030 0.25606 0.12322 -0.08800
C 	C 	0.09407 0.29703 0.12328 0.04800
C 	C 	0.96420 0.21596 0.12043 0.28400
H 	H 	0.07000 0.45320 0.07030 -0.00500
H 	H 	0.99380 0.51610 0.07320 0.10400
H 	H 	0.01410 0.45250 0.22760 0.06900
H 	H 	0.99310 0.50300 0.18170 0.07800
H 	H 	0.12510 0.34810 0.25800 0.07800
H 	H 	0.15580 0.34690 0.19410 0.00600
H 	H 	0.99850 0.37850 0.11780 0.00300
H 	H 	0.93980 0.31180 0.11570 0.08800
H 	H 	0.08080 0.22890 0.12560 0.09100
O 	O 	0.94100 0.08313 0.60009 -0.37500
O 	O 	0.91836 0.06305 0.65779 -0.36500
O 	O 	0.99967 0.92972 0.79450 -0.24300
O 	O 	0.07157 0.88067 0.81201 -0.44700
O 	O 	0.91569 0.71830 0.60511 -0.34000
O 	O 	0.98430 0.67981 0.63513 -0.37600
N 	N 	0.06794 0.94267 0.62180 -0.25400
N 	N 	0.10641 0.89445 0.67735 -0.24600
N 	N 	0.07020 0.84119 0.62030 -0.25100
C 	C 	0.05066 0.96551 0.59088 0.08600
C 	C 	0.01191 0.00285 0.59209 -0.12200
C 	C 	0.99019 0.01734 0.62613 0.01700
C 	C 	0.00750 0.99367 0.65810 -0.08100
C 	C 	0.04612 0.95621 0.65503 0.05000
C 	C 	0.06600 0.92737 0.68632 0.03700
C 	C 	0.04482 0.93142 0.72204 -0.05900
C 	C 	0.06669 0.90152 0.74933 -0.02400
C 	C 	0.10926 0.86890 0.74011 -0.06900
C 	C 	0.12753 0.86571 0.70401 0.06000
C 	C 	0.94701 0.05746 0.62843 0.27600
C 	C 	0.04370 0.90469 0.78885 0.34700
C 	C 	0.01323 0.84525 0.61608 0.06900
C 	C 	0.97788 0.80549 0.61492 -0.10100
C 	C 	0.00160 0.76047 0.61923 0.02200
C 	C 	0.06030 0.75606 0.62322 -0.08600
C 	C 	0.09407 0.79703 0.62328 0.04700
C 	C 	0.96420 0.71596 0.62043 0.28500
H 	H 	0.07000 0.95320 0.57030 -0.00400
H 	H 	0.99380 0.01610 0.57320 0.10300
H 	H 	0.01410 0.95250 0.72760 0.06900
H 	H 	0.99310 0.00300 0.68170 0.07800
H 	H 	0.12510 0.84810 0.75800 0.07800
H 	H 	0.15580 0.84690 0.69410 0.00600
H 	H 	0.99850 0.87850 0.61780 0.00400
H 	H 	0.93980 0.81180 0.61570 0.08700
H 	H 	0.08080 0.72890 0.62560 0.09000
O 	O 	0.44100 0.58313 0.60009 -0.37500
O 	O 	0.41836 0.56305 0.65779 -0.36500
O 	O 	0.49967 0.42972 0.79450 -0.24400
O 	O 	0.57157 0.38067 0.81201 -0.44700
O 	O 	0.41569 0.21830 0.60511 -0.34000
O 	O 	0.48430 0.17981 0.63513 -0.37600
N 	N 	0.56794 0.44267 0.62180 -0.25400
N 	N 	0.60641 0.39445 0.67735 -0.24600
N 	N 	0.57020 0.34119 0.62030 -0.25100
C 	C 	0.55066 0.46551 0.59088 0.08700
C 	C 	0.51191 0.50285 0.59209 -0.12400
C 	C 	0.49019 0.51734 0.62613 0.01800
C 	C 	0.50750 0.49367 0.65810 -0.08200
C 	C 	0.54612 0.45621 0.65503 0.05000
C 	C 	0.56600 0.42737 0.68632 0.03700
C 	C 	0.54482 0.43142 0.72204 -0.05900
C 	C 	0.56669 0.40152 0.74933 -0.02500
C 	C 	0.60926 0.36890 0.74011 -0.06900
C 	C 	0.62753 0.36571 0.70401 0.06000
C 	C 	0.44701 0.55746 0.62843 0.27600
C 	C 	0.54370 0.40469 0.78885 0.34700
C 	C 	0.51323 0.34525 0.61608 0.07000
C 	C 	0.47788 0.30549 0.61492 -0.10200
C 	C 	0.50160 0.26047 0.61923 0.02300
C 	C 	0.56030 0.25606 0.62322 -0.08700
C 	C 	0.59407 0.29703 0.62328 0.04800
C 	C 	0.46420 0.21596 0.62043 0.28400
H 	H 	0.57000 0.45320 0.57030 -0.00500
H 	H 	0.49380 0.51610 0.57320 0.10500
H 	H 	0.51410 0.45250 0.72760 0.06900
H 	H 	0.49310 0.50300 0.68170 0.07800
H 	H 	0.62510 0.34810 0.75800 0.07800
H 	H 	0.65580 0.34690 0.69410 0.00600
H 	H 	0.49850 0.37850 0.61780 0.00300
H 	H 	0.43980 0.31180 0.61570 0.08700
H 	H 	0.58080 0.22890 0.62560 0.09000
O 	O 	0.44100 0.08313 0.10009 -0.37500
O 	O 	0.41836 0.06305 0.15779 -0.36500
O 	O 	0.49967 0.92972 0.29450 -0.24400
O 	O 	0.57157 0.88067 0.31201 -0.44700
O 	O 	0.41569 0.71830 0.10511 -0.34000
O 	O 	0.48430 0.67981 0.13513 -0.37600
N 	N 	0.56794 0.94267 0.12180 -0.25400
N 	N 	0.60641 0.89445 0.17735 -0.24600
N 	N 	0.57020 0.84119 0.12030 -0.25100
C 	C 	0.55066 0.96551 0.09088 0.08800
C 	C 	0.51191 0.00285 0.09209 -0.12400
C 	C 	0.49019 0.01734 0.12613 0.01800
C 	C 	0.50750 0.99367 0.15810 -0.08200
C 	C 	0.54612 0.95621 0.15503 0.05000
C 	C 	0.56600 0.92737 0.18632 0.03700
C 	C 	0.54482 0.93142 0.22204 -0.05900
C 	C 	0.56669 0.90152 0.24933 -0.02500
C 	C 	0.60926 0.86890 0.24011 -0.06900
C 	C 	0.62753 0.86571 0.20401 0.06000
C 	C 	0.44701 0.05746 0.12843 0.27600
C 	C 	0.54370 0.90469 0.28885 0.34700
C 	C 	0.51323 0.84525 0.11608 0.07000
C 	C 	0.47788 0.80549 0.11492 -0.10200
C 	C 	0.50160 0.76047 0.11923 0.02300
C 	C 	0.56030 0.75606 0.12322 -0.08700
C 	C 	0.59407 0.79703 0.12328 0.04800
C 	C 	0.46420 0.71596 0.12043 0.28400
H 	H 	0.57000 0.95320 0.07030 -0.00500
H 	H 	0.49380 0.01610 0.07320 0.10500
H 	H 	0.51410 0.95250 0.22760 0.06900
H 	H 	0.49310 0.00300 0.18170 0.07800
H 	H 	0.62510 0.84810 0.25800 0.07800
H 	H 	0.65580 0.84690 0.19410 0.00600
H 	H 	0.49850 0.87850 0.11780 0.00300
H 	H 	0.43980 0.81180 0.11570 0.08700
H 	H 	0.58080 0.72890 0.12560 0.09000
O 	O 	0.94100 0.16687 0.64991 -0.37500
O 	O 	0.91836 0.18695 0.59221 -0.36500
O 	O 	0.99967 0.32028 0.45550 -0.24400
O 	O 	0.07157 0.36933 0.43799 -0.44700
O 	O 	0.91569 0.53170 0.64489 -0.34000
O 	O 	0.98430 0.57019 0.61487 -0.37600
N 	N 	0.06794 0.30733 0.62820 -0.25400
N 	N 	0.10641 0.35555 0.57265 -0.24600
N 	N 	0.07020 0.40881 0.62970 -0.25100
C 	C 	0.05066 0.28449 0.65912 0.08700
C 	C 	0.01191 0.24715 0.65791 -0.12300
C 	C 	0.99019 0.23266 0.62387 0.01700
C 	C 	0.00750 0.25633 0.59190 -0.08100
C 	C 	0.04612 0.29379 0.59497 0.05000
C 	C 	0.06600 0.32263 0.56368 0.03700
C 	C 	0.04482 0.31858 0.52796 -0.05900
C 	C 	0.06669 0.34848 0.50067 -0.02500
C 	C 	0.10926 0.38110 0.50989 -0.06900
C 	C 	0.12753 0.38429 0.54599 0.06000
C 	C 	0.94701 0.19254 0.62157 0.27600
C 	C 	0.04370 0.34531 0.46115 0.34800
C 	C 	0.01323 0.40475 0.63392 0.07000
C 	C 	0.97788 0.44451 0.63508 -0.10200
C 	C 	0.00160 0.48953 0.63077 0.02300
C 	C 	0.06030 0.49394 0.62678 -0.08700
C 	C 	0.09407 0.45297 0.62672 0.04800
C 	C 	0.96420 0.53404 0.62957 0.28400
H 	H 	0.07000 0.29680 0.67970 -0.00500
H 	H 	0.99380 0.23390 0.67680 0.10400
H 	H 	0.01410 0.29750 0.52240 0.06900
H 	H 	0.99310 0.24700 0.56830 0.07800
H 	H 	0.12510 0.40190 0.49200 0.07800
H 	H 	0.15580 0.40310 0.55590 0.00600
H 	H 	0.99850 0.37150 0.63220 0.00300
H 	H 	0.93980 0.43820 0.63430 0.08700
H 	H 	0.08080 0.52110 0.62440 0.09000
O 	O 	0.94100 0.66687 0.14991 -0.37500
O 	O 	0.91836 0.68695 0.09221 -0.36500
O 	O 	0.99967 0.82028 0.95550 -0.24300
O 	O 	0.07157 0.86933 0.93799 -0.44700
O 	O 	0.91569 0.03170 0.14489 -0.34000
O 	O 	0.98430 0.07019 0.11487 -0.37600
N 	N 	0.06794 0.80733 0.12820 -0.25400
N 	N 	0.10641 0.85555 0.07265 -0.24600
N 	N 	0.07020 0.90881 0.12970 -0.25100
C 	C 	0.05066 0.78449 0.15912 0.08800
C 	C 	0.01191 0.74715 0.15791 -0.12400
C 	C 	0.99019 0.73266 0.12387 0.01800
C 	C 	0.00750 0.75633 0.09190 -0.08200
C 	C 	0.04612 0.79379 0.09497 0.05000
C 	C 	0.06600 0.82263 0.06368 0.03700
C 	C 	0.04482 0.81858 0.02796 -0.05900
C 	C 	0.06669 0.84848 0.00067 -0.02400
C 	C 	0.10926 0.88110 0.00989 -0.06900
C 	C 	0.12753 0.88429 0.04599 0.06000
C 	C 	0.94701 0.69254 0.12157 0.27600
C 	C 	0.04370 0.84531 0.96115 0.34700
C 	C 	0.01323 0.90475 0.13392 0.07000
C 	C 	0.97788 0.94451 0.13508 -0.10100
C 	C 	0.00160 0.98953 0.13077 0.02300
C 	C 	0.06030 0.99394 0.12678 -0.08800
C 	C 	0.09407 0.95297 0.12672 0.04800
C 	C 	0.96420 0.03404 0.12957 0.28400
H 	H 	0.07000 0.79680 0.17970 -0.00500
H 	H 	0.99380 0.73390 0.17680 0.10500
H 	H 	0.01410 0.79750 0.02240 0.06900
H 	H 	0.99310 0.74700 0.06830 0.07800
H 	H 	0.12510 0.90190 0.99200 0.07800
H 	H 	0.15580 0.90310 0.05590 0.00600
H 	H 	0.99850 0.87150 0.13220 0.00400
H 	H 	0.93980 0.93820 0.13430 0.08700
H 	H 	0.08080 0.02110 0.12440 0.09100
O 	O 	0.44100 0.16687 0.14991 -0.37500
O 	O 	0.41836 0.18695 0.09221 -0.36500
O 	O 	0.49967 0.32028 0.95550 -0.24400
O 	O 	0.57157 0.36933 0.93799 -0.44700
O 	O 	0.41569 0.53170 0.14489 -0.34000
O 	O 	0.48430 0.57019 0.11487 -0.37600
N 	N 	0.56794 0.30733 0.12820 -0.25400
N 	N 	0.60641 0.35555 0.07265 -0.24600
N 	N 	0.57020 0.40881 0.12970 -0.25100
C 	C 	0.55066 0.28449 0.15912 0.08700
C 	C 	0.51191 0.24715 0.15791 -0.12400
C 	C 	0.49019 0.23266 0.12387 0.01800
C 	C 	0.50750 0.25633 0.09190 -0.08200
C 	C 	0.54612 0.29379 0.09497 0.05000
C 	C 	0.56600 0.32263 0.06368 0.03700
C 	C 	0.54482 0.31858 0.02796 -0.05900
C 	C 	0.56669 0.34848 0.00067 -0.02500
C 	C 	0.60926 0.38110 0.00989 -0.06900
C 	C 	0.62753 0.38429 0.04599 0.06000
C 	C 	0.44701 0.19254 0.12157 0.27600
C 	C 	0.54370 0.34531 0.96115 0.34700
C 	C 	0.51323 0.40475 0.13392 0.07000
C 	C 	0.47788 0.44451 0.13508 -0.10200
C 	C 	0.50160 0.48953 0.13077 0.02300
C 	C 	0.56030 0.49394 0.12678 -0.08700
C 	C 	0.59407 0.45297 0.12672 0.04800
C 	C 	0.46420 0.53404 0.12957 0.28400
H 	H 	0.57000 0.29680 0.17970 -0.00500
H 	H 	0.49380 0.23390 0.17680 0.10500
H 	H 	0.51410 0.29750 0.02240 0.06900
H 	H 	0.49310 0.24700 0.06830 0.07800
H 	H 	0.62510 0.40190 0.99200 0.07800
H 	H 	0.65580 0.40310 0.05590 0.00600
H 	H 	0.49850 0.37150 0.13220 0.00300
H 	H 	0.43980 0.43820 0.13430 0.08700
H 	H 	0.58080 0.52110 0.12440 0.09000
O 	O 	0.44100 0.66687 0.64991 -0.37500
O 	O 	0.41836 0.68695 0.59221 -0.36500
O 	O 	0.49967 0.82028 0.45550 -0.24400
O 	O 	0.57157 0.86933 0.43799 -0.44700
O 	O 	0.41569 0.03170 0.64489 -0.34000
O 	O 	0.48430 0.07019 0.61487 -0.37600
N 	N 	0.56794 0.80733 0.62820 -0.25400
N 	N 	0.60641 0.85555 0.57265 -0.24600
N 	N 	0.57020 0.90881 0.62970 -0.25100
C 	C 	0.55066 0.78449 0.65912 0.08700
C 	C 	0.51191 0.74715 0.65791 -0.12400
C 	C 	0.49019 0.73266 0.62387 0.01800
C 	C 	0.50750 0.75633 0.59190 -0.08200
C 	C 	0.54612 0.79379 0.59497 0.05000
C 	C 	0.56600 0.82263 0.56368 0.03700
C 	C 	0.54482 0.81858 0.52796 -0.05900
C 	C 	0.56669 0.84848 0.50067 -0.02500
C 	C 	0.60926 0.88110 0.50989 -0.06900
C 	C 	0.62753 0.88429 0.54599 0.06000
C 	C 	0.44701 0.69254 0.62157 0.27600
C 	C 	0.54370 0.84531 0.46115 0.34700
C 	C 	0.51323 0.90475 0.63392 0.07000
C 	C 	0.47788 0.94451 0.63508 -0.10200
C 	C 	0.50160 0.98953 0.63077 0.02300
C 	C 	0.56030 0.99394 0.62678 -0.08700
C 	C 	0.59407 0.95297 0.62672 0.04800
C 	C 	0.46420 0.03404 0.62957 0.28400
H 	H 	0.57000 0.79680 0.67970 -0.00500
H 	H 	0.49380 0.73390 0.67680 0.10500
H 	H 	0.51410 0.79750 0.52240 0.06900
H 	H 	0.49310 0.74700 0.56830 0.07800
H 	H 	0.62510 0.90190 0.49200 0.07800
H 	H 	0.65580 0.90310 0.55590 0.00600
H 	H 	0.49850 0.87150 0.63220 0.00300
H 	H 	0.43980 0.93820 0.63430 0.08700
H 	H 	0.58080 0.02110 0.62440 0.09000
O 	O 	0.80900 0.58313 0.64991 -0.37500
O 	O 	0.83164 0.56305 0.59221 -0.36500
O 	O 	0.75033 0.42972 0.45550 -0.24400
O 	O 	0.67843 0.38067 0.43799 -0.44700
O 	O 	0.83431 0.21830 0.64489 -0.34000
O 	O 	0.76570 0.17981 0.61487 -0.37600
N 	N 	0.68206 0.44267 0.62820 -0.25400
N 	N 	0.64359 0.39445 0.57265 -0.24600
N 	N 	0.67980 0.34119 0.62970 -0.25100
C 	C 	0.69934 0.46551 0.65912 0.08700
C 	C 	0.73809 0.50285 0.65791 -0.12400
C 	C 	0.75981 0.51734 0.62387 0.01800
C 	C 	0.74250 0.49367 0.59190 -0.08200
C 	C 	0.70388 0.45621 0.59497 0.05000
C 	C 	0.68400 0.42737 0.56368 0.03700
C 	C 	0.70518 0.43142 0.52796 -0.05900
C 	C 	0.68331 0.40152 0.50067 -0.02500
C 	C 	0.64074 0.36890 0.50989 -0.06900
C 	C 	0.62247 0.36571 0.54599 0.06000
C 	C 	0.80299 0.55746 0.62157 0.27600
C 	C 	0.70630 0.40469 0.46115 0.34700
C 	C 	0.73677 0.34525 0.63392 0.07000
C 	C 	0.77212 0.30549 0.63508 -0.10200
C 	C 	0.74840 0.26047 0.63077 0.02300
C 	C 	0.68970 0.25606 0.62678 -0.08700
C 	C 	0.65593 0.29703 0.62672 0.04800
C 	C 	0.78580 0.21596 0.62957 0.28400
H 	H 	0.68000 0.45320 0.67970 -0.00500
H 	H 	0.75620 0.51610 0.67680 0.10500
H 	H 	0.73590 0.45250 0.52240 0.06900
H 	H 	0.75690 0.50300 0.56830 0.07800
H 	H 	0.62490 0.34810 0.49200 0.07800
H 	H 	0.59420 0.34690 0.55590 0.00600
H 	H 	0.75150 0.37850 0.63220 0.00300
H 	H 	0.81020 0.31180 0.63430 0.08700
H 	H 	0.66920 0.22890 0.62440 0.09000
O 	O 	0.80900 0.08313 0.14991 -0.37500
O 	O 	0.83164 0.06305 0.09221 -0.36500
O 	O 	0.75033 0.92972 0.95550 -0.24400
O 	O 	0.67843 0.88067 0.93799 -0.44700
O 	O 	0.83431 0.71830 0.14489 -0.34000
O 	O 	0.76570 0.67981 0.11487 -0.37600
N 	N 	0.68206 0.94267 0.12820 -0.25400
N 	N 	0.64359 0.89445 0.07265 -0.24600
N 	N 	0.67980 0.84119 0.12970 -0.25100
C 	C 	0.69934 0.96551 0.15912 0.08800
C 	C 	0.73809 0.00285 0.15791 -0.12400
C 	C 	0.75981 0.01734 0.12387 0.01800
C 	C 	0.74250 0.99367 0.09190 -0.08100
C 	C 	0.70388 0.95621 0.09497 0.05000
C 	C 	0.68400 0.92737 0.06368 0.03700
C 	C 	0.70518 0.93142 0.02796 -0.05900
C 	C 	0.68331 0.90152 0.00067 -0.02500
C 	C 	0.64074 0.86890 0.00989 -0.06900
C 	C 	0.62247 0.86571 0.04599 0.06000
C 	C 	0.80299 0.05746 0.12157 0.27600
C 	C 	0.70630 0.90469 0.96115 0.34700
C 	C 	0.73677 0.84525 0.13392 0.07000
C 	C 	0.77212 0.80549 0.13508 -0.10200
C 	C 	0.74840 0.76047 0.13077 0.02300
C 	C 	0.68970 0.75606 0.12678 -0.08700
C 	C 	0.65593 0.79703 0.12672 0.04800
C 	C 	0.78580 0.71596 0.12957 0.28400
H 	H 	0.68000 0.95320 0.17970 -0.00500
H 	H 	0.75620 0.01610 0.17680 0.10500
H 	H 	0.73590 0.95250 0.02240 0.06900
H 	H 	0.75690 0.00300 0.06830 0.07800
H 	H 	0.62490 0.84810 0.99200 0.07800
H 	H 	0.59420 0.84690 0.05590 0.00600
H 	H 	0.75150 0.87850 0.13220 0.00300
H 	H 	0.81020 0.81180 0.13430 0.08700
H 	H 	0.66920 0.72890 0.12440 0.09000
O 	O 	0.30900 0.58313 0.14991 -0.37500
O 	O 	0.33164 0.56305 0.09221 -0.36500
O 	O 	0.25033 0.42972 0.95550 -0.24400
O 	O 	0.17843 0.38067 0.93799 -0.44700
O 	O 	0.33431 0.21830 0.14489 -0.34000
O 	O 	0.26570 0.17981 0.11487 -0.37600
N 	N 	0.18206 0.44267 0.12820 -0.25400
N 	N 	0.14359 0.39445 0.07265 -0.24600
N 	N 	0.17980 0.34119 0.12970 -0.25100
C 	C 	0.19934 0.46551 0.15912 0.08700
C 	C 	0.23809 0.50285 0.15791 -0.12400
C 	C 	0.25981 0.51734 0.12387 0.01800
C 	C 	0.24250 0.49367 0.09190 -0.08200
C 	C 	0.20388 0.45621 0.09497 0.05000
C 	C 	0.18400 0.42737 0.06368 0.03700
C 	C 	0.20518 0.43142 0.02796 -0.05900
C 	C 	0.18331 0.40152 0.00067 -0.02500
C 	C 	0.14074 0.36890 0.00989 -0.06900
C 	C 	0.12247 0.36571 0.04599 0.06000
C 	C 	0.30299 0.55746 0.12157 0.27600
C 	C 	0.20630 0.40469 0.96115 0.34700
C 	C 	0.23677 0.34525 0.13392 0.07000
C 	C 	0.27212 0.30549 0.13508 -0.10200
C 	C 	0.24840 0.26047 0.13077 0.02300
C 	C 	0.18970 0.25606 0.12678 -0.08700
C 	C 	0.15593 0.29703 0.12672 0.04800
C 	C 	0.28580 0.21596 0.12957 0.28400
H 	H 	0.18000 0.45320 0.17970 -0.00500
H 	H 	0.25620 0.51610 0.17680 0.10500
H 	H 	0.23590 0.45250 0.02240 0.06900
H 	H 	0.25690 0.50300 0.06830 0.07800
H 	H 	0.12490 0.34810 0.99200 0.07800
H 	H 	0.09420 0.34690 0.05590 0.00600
H 	H 	0.25150 0.37850 0.13220 0.00300
H 	H 	0.31020 0.31180 0.13430 0.08700
H 	H 	0.16920 0.22890 0.12440 0.09000
O 	O 	0.30900 0.08313 0.64991 -0.37500
O 	O 	0.33164 0.06305 0.59221 -0.36500
O 	O 	0.25033 0.92972 0.45550 -0.24400
O 	O 	0.17843 0.88067 0.43799 -0.44700
O 	O 	0.33431 0.71830 0.64489 -0.34000
O 	O 	0.26570 0.67981 0.61487 -0.37600
N 	N 	0.18206 0.94267 0.62820 -0.25400
N 	N 	0.14359 0.89445 0.57265 -0.24600
N 	N 	0.17980 0.84119 0.62970 -0.25100
C 	C 	0.19934 0.96551 0.65912 0.08700
C 	C 	0.23809 0.00285 0.65791 -0.12400
C 	C 	0.25981 0.01734 0.62387 0.01800
C 	C 	0.24250 0.99367 0.59190 -0.08200
C 	C 	0.20388 0.95621 0.59497 0.05000
C 	C 	0.18400 0.92737 0.56368 0.03700
C 	C 	0.20518 0.93142 0.52796 -0.05900
C 	C 	0.18331 0.90152 0.50067 -0.02500
C 	C 	0.14074 0.86890 0.50989 -0.06900
C 	C 	0.12247 0.86571 0.54599 0.06000
C 	C 	0.30299 0.05746 0.62157 0.27600
C 	C 	0.20630 0.90469 0.46115 0.34700
C 	C 	0.23677 0.84525 0.63392 0.07000
C 	C 	0.27212 0.80549 0.63508 -0.10200
C 	C 	0.24840 0.76047 0.63077 0.02400
C 	C 	0.18970 0.75606 0.62678 -0.08700
C 	C 	0.15593 0.79703 0.62672 0.04800
C 	C 	0.28580 0.71596 0.62957 0.28400
H 	H 	0.18000 0.95320 0.67970 -0.00500
H 	H 	0.25620 0.01610 0.67680 0.10500
H 	H 	0.23590 0.95250 0.52240 0.06900
H 	H 	0.25690 0.00300 0.56830 0.07900
H 	H 	0.12490 0.84810 0.49200 0.07800
H 	H 	0.09420 0.84690 0.55590 0.00600
H 	H 	0.25150 0.87850 0.63220 0.00300
H 	H 	0.31020 0.81180 0.63430 0.08700
H 	H 	0.16920 0.72890 0.62440 0.09100
O 	O 	0.19100 0.83313 0.89991 -0.37500
O 	O 	0.16836 0.81305 0.84221 -0.36500
O 	O 	0.24967 0.67972 0.70550 -0.24400
O 	O 	0.32157 0.63067 0.68799 -0.44700
O 	O 	0.16569 0.46830 0.89489 -0.34000
O 	O 	0.23430 0.42981 0.86487 -0.37600
N 	N 	0.31794 0.69267 0.87820 -0.25400
N 	N 	0.35641 0.64445 0.82265 -0.24600
N 	N 	0.32020 0.59119 0.87970 -0.25100
C 	C 	0.30066 0.71551 0.90912 0.08700
C 	C 	0.26191 0.75285 0.90791 -0.12400
C 	C 	0.24019 0.76734 0.87387 0.01800
C 	C 	0.25750 0.74367 0.84190 -0.08200
C 	C 	0.29612 0.70621 0.84497 0.05000
C 	C 	0.31600 0.67737 0.81368 0.03700
C 	C 	0.29482 0.68142 0.77796 -0.05900
C 	C 	0.31669 0.65152 0.75067 -0.02500
C 	C 	0.35926 0.61890 0.75989 -0.06900
C 	C 	0.37753 0.61571 0.79599 0.06000
C 	C 	0.19701 0.80746 0.87157 0.27600
C 	C 	0.29370 0.65469 0.71115 0.34700
C 	C 	0.26323 0.59525 0.88392 0.07000
C 	C 	0.22788 0.55549 0.88508 -0.10200
C 	C 	0.25160 0.51047 0.88077 0.02300
C 	C 	0.31030 0.50606 0.87678 -0.08700
C 	C 	0.34407 0.54703 0.87672 0.04800
C 	C 	0.21420 0.46596 0.87957 0.28400
H 	H 	0.32000 0.70320 0.92970 -0.00500
H 	H 	0.24380 0.76610 0.92680 0.10500
H 	H 	0.26410 0.70250 0.77240 0.06900
H 	H 	0.24310 0.75300 0.81830 0.07800
H 	H 	0.37510 0.59810 0.74200 0.07800
H 	H 	0.40580 0.59690 0.80590 0.00600
H 	H 	0.24850 0.62850 0.88220 0.00300
H 	H 	0.18980 0.56180 0.88430 0.08700
H 	H 	0.33080 0.47890 0.87440 0.09000
O 	O 	0.19100 0.33313 0.39991 -0.37500
O 	O 	0.16836 0.31305 0.34221 -0.36500
O 	O 	0.24967 0.17972 0.20550 -0.24400
O 	O 	0.32157 0.13067 0.18799 -0.44700
O 	O 	0.16569 0.96830 0.39489 -0.34000
O 	O 	0.23430 0.92981 0.36487 -0.37600
N 	N 	0.31794 0.19267 0.37820 -0.25400
N 	N 	0.35641 0.14445 0.32265 -0.24600
N 	N 	0.32020 0.09119 0.37970 -0.25100
C 	C 	0.30066 0.21551 0.40912 0.08800
C 	C 	0.26191 0.25285 0.40791 -0.12400
C 	C 	0.24019 0.26734 0.37387 0.01800
C 	C 	0.25750 0.24367 0.34190 -0.08200
C 	C 	0.29612 0.20621 0.34497 0.05000
C 	C 	0.31600 0.17737 0.31368 0.03700
C 	C 	0.29482 0.18142 0.27796 -0.05900
C 	C 	0.31669 0.15152 0.25067 -0.02500
C 	C 	0.35926 0.11890 0.25989 -0.06900
C 	C 	0.37753 0.11571 0.29599 0.06000
C 	C 	0.19701 0.30746 0.37157 0.27600
C 	C 	0.29370 0.15469 0.21115 0.34700
C 	C 	0.26323 0.09525 0.38392 0.07000
C 	C 	0.22788 0.05549 0.38508 -0.10200
C 	C 	0.25160 0.01047 0.38077 0.02400
C 	C 	0.31030 0.00606 0.37678 -0.08700
C 	C 	0.34407 0.04703 0.37672 0.04800
C 	C 	0.21420 0.96596 0.37957 0.28400
H 	H 	0.32000 0.20320 0.42970 -0.00500
H 	H 	0.24380 0.26610 0.42680 0.10500
H 	H 	0.26410 0.20250 0.27240 0.06900
H 	H 	0.24310 0.25300 0.31830 0.07800
H 	H 	0.37510 0.09810 0.24200 0.07800
H 	H 	0.40580 0.09690 0.30590 0.00600
H 	H 	0.24850 0.12850 0.38220 0.00300
H 	H 	0.18980 0.06180 0.38430 0.08700
H 	H 	0.33080 0.97890 0.37440 0.09000
O 	O 	0.69100 0.83313 0.39991 -0.37500
O 	O 	0.66836 0.81305 0.34221 -0.36500
O 	O 	0.74967 0.67972 0.20550 -0.24400
O 	O 	0.82157 0.63067 0.18799 -0.44700
O 	O 	0.66569 0.46830 0.39489 -0.34000
O 	O 	0.73430 0.42981 0.36487 -0.37600
N 	N 	0.81794 0.69267 0.37820 -0.25400
N 	N 	0.85641 0.64445 0.32265 -0.24600
N 	N 	0.82020 0.59119 0.37970 -0.25100
C 	C 	0.80066 0.71551 0.40912 0.08700
C 	C 	0.76191 0.75285 0.40791 -0.12400
C 	C 	0.74019 0.76734 0.37387 0.01800
C 	C 	0.75750 0.74367 0.34190 -0.08200
C 	C 	0.79612 0.70621 0.34497 0.05000
C 	C 	0.81600 0.67737 0.31368 0.03700
C 	C 	0.79482 0.68142 0.27796 -0.05900
C 	C 	0.81669 0.65152 0.25067 -0.02500
C 	C 	0.85926 0.61890 0.25989 -0.06900
C 	C 	0.87753 0.61571 0.29599 0.06000
C 	C 	0.69701 0.80746 0.37157 0.27600
C 	C 	0.79370 0.65469 0.21115 0.34700
C 	C 	0.76323 0.59525 0.38392 0.07000
C 	C 	0.72788 0.55549 0.38508 -0.10200
C 	C 	0.75160 0.51047 0.38077 0.02300
C 	C 	0.81030 0.50606 0.37678 -0.08700
C 	C 	0.84407 0.54703 0.37672 0.04800
C 	C 	0.71420 0.46596 0.37957 0.28400
H 	H 	0.82000 0.70320 0.42970 -0.00500
H 	H 	0.74380 0.76610 0.42680 0.10500
H 	H 	0.76410 0.70250 0.27240 0.06900
H 	H 	0.74310 0.75300 0.31830 0.07800
H 	H 	0.87510 0.59810 0.24200 0.07800
H 	H 	0.90580 0.59690 0.30590 0.00600
H 	H 	0.74850 0.62850 0.38220 0.00300
H 	H 	0.68980 0.56180 0.38430 0.08700
H 	H 	0.83080 0.47890 0.37440 0.09000
O 	O 	0.69100 0.33313 0.89991 -0.37500
O 	O 	0.66836 0.31305 0.84221 -0.36500
O 	O 	0.74967 0.17972 0.70550 -0.24400
O 	O 	0.82157 0.13067 0.68799 -0.44700
O 	O 	0.66569 0.96830 0.89489 -0.34000
O 	O 	0.73430 0.92981 0.86487 -0.37600
N 	N 	0.81794 0.19267 0.87820 -0.25400
N 	N 	0.85641 0.14445 0.82265 -0.24600
N 	N 	0.82020 0.09119 0.87970 -0.25100
C 	C 	0.80066 0.21551 0.90912 0.08700
C 	C 	0.76191 0.25285 0.90791 -0.12400
C 	C 	0.74019 0.26734 0.87387 0.01800
C 	C 	0.75750 0.24367 0.84190 -0.08200
C 	C 	0.79612 0.20621 0.84497 0.05000
C 	C 	0.81600 0.17737 0.81368 0.03700
C 	C 	0.79482 0.18142 0.77796 -0.05900
C 	C 	0.81669 0.15152 0.75067 -0.02500
C 	C 	0.85926 0.11890 0.75989 -0.06900
C 	C 	0.87753 0.11571 0.79599 0.06000
C 	C 	0.69701 0.30746 0.87157 0.27600
C 	C 	0.79370 0.15469 0.71115 0.34700
C 	C 	0.76323 0.09525 0.88392 0.07000
C 	C 	0.72788 0.05549 0.88508 -0.10200
C 	C 	0.75160 0.01047 0.88077 0.02300
C 	C 	0.81030 0.00606 0.87678 -0.08800
C 	C 	0.84407 0.04703 0.87672 0.04800
C 	C 	0.71420 0.96596 0.87957 0.28400
H 	H 	0.82000 0.20320 0.92970 -0.00500
H 	H 	0.74380 0.26610 0.92680 0.10500
H 	H 	0.76410 0.20250 0.77240 0.06900
H 	H 	0.74310 0.25300 0.81830 0.07800
H 	H 	0.87510 0.09810 0.74200 0.07800
H 	H 	0.90580 0.09690 0.80590 0.00600
H 	H 	0.74850 0.12850 0.88220 0.00300
H 	H 	0.68980 0.06180 0.88430 0.08700
H 	H 	0.83080 0.97890 0.87440 0.09100
O 	O 	0.05900 0.41687 0.89991 -0.37500
O 	O 	0.08164 0.43695 0.84221 -0.36500
O 	O 	0.00033 0.57028 0.70550 -0.24400
O 	O 	0.92843 0.61933 0.68799 -0.44700
O 	O 	0.08431 0.78170 0.89489 -0.34000
O 	O 	0.01570 0.82019 0.86487 -0.37600
N 	N 	0.93206 0.55733 0.87820 -0.25400
N 	N 	0.89359 0.60555 0.82265 -0.24600
N 	N 	0.92980 0.65881 0.87970 -0.25100
C 	C 	0.94934 0.53449 0.90912 0.08700
C 	C 	0.98809 0.49715 0.90791 -0.12300
C 	C 	0.00981 0.48266 0.87387 0.01700
C 	C 	0.99250 0.50633 0.84190 -0.08100
C 	C 	0.95388 0.54379 0.84497 0.05000
C 	C 	0.93400 0.57263 0.81368 0.03700
C 	C 	0.95518 0.56858 0.77796 -0.05900
C 	C 	0.93331 0.59848 0.75067 -0.02500
C 	C 	0.89074 0.63110 0.75989 -0.06900
C 	C 	0.87247 0.63429 0.79599 0.06000
C 	C 	0.05299 0.44254 0.87157 0.27600
C 	C 	0.95630 0.59531 0.71115 0.34800
C 	C 	0.98677 0.65475 0.88392 0.07100
C 	C 	0.02212 0.69451 0.88508 -0.10300
C 	C 	0.99840 0.73953 0.88077 0.02400
C 	C 	0.93970 0.74394 0.87678 -0.08800
C 	C 	0.90593 0.70297 0.87672 0.04800
C 	C 	0.03580 0.78404 0.87957 0.28400
H 	H 	0.93000 0.54680 0.92970 -0.00500
H 	H 	0.00620 0.48390 0.92680 0.10400
H 	H 	0.98590 0.54750 0.77240 0.06900
H 	H 	0.00690 0.49700 0.81830 0.07800
H 	H 	0.87490 0.65190 0.74200 0.07800
H 	H 	0.84420 0.65310 0.80590 0.00600
H 	H 	0.00150 0.62150 0.88220 0.00300
H 	H 	0.06020 0.68820 0.88430 0.08800
H 	H 	0.91920 0.77110 0.87440 0.09100
O 	O 	0.05900 0.91687 0.39991 -0.37500
O 	O 	0.08164 0.93695 0.34221 -0.36500
O 	O 	0.00033 0.07028 0.20550 -0.24300
O 	O 	0.92843 0.11933 0.18799 -0.44700
O 	O 	0.08431 0.28170 0.39489 -0.34000
O 	O 	0.01570 0.32019 0.36487 -0.37600
N 	N 	0.93206 0.05733 0.37820 -0.25400
N 	N 	0.89359 0.10555 0.32265 -0.24600
N 	N 	0.92980 0.15881 0.37970 -0.25100
C 	C 	0.94934 0.03449 0.40912 0.08600
C 	C 	0.98809 0.99715 0.40791 -0.12200
C 	C 	0.00981 0.98266 0.37387 0.01700
C 	C 	0.99250 0.00633 0.34190 -0.08100
C 	C 	0.95388 0.04379 0.34497 0.05000
C 	C 	0.93400 0.07263 0.31368 0.03700
C 	C 	0.95518 0.06858 0.27796 -0.05900
C 	C 	0.93331 0.09848 0.25067 -0.02400
C 	C 	0.89074 0.13110 0.25989 -0.06900
C 	C 	0.87247 0.13429 0.29599 0.06000
C 	C 	0.05299 0.94254 0.37157 0.27600
C 	C 	0.95630 0.09531 0.21115 0.34700
C 	C 	0.98677 0.15475 0.38392 0.06900
C 	C 	0.02212 0.19451 0.38508 -0.10100
C 	C 	0.99840 0.23953 0.38077 0.02200
C 	C 	0.93970 0.24394 0.37678 -0.08600
C 	C 	0.90593 0.20297 0.37672 0.04700
C 	C 	0.03580 0.28404 0.37957 0.28500
H 	H 	0.93000 0.04680 0.42970 -0.00400
H 	H 	0.00620 0.98390 0.42680 0.10300
H 	H 	0.98590 0.04750 0.27240 0.06900
H 	H 	0.00690 0.99700 0.31830 0.07800
H 	H 	0.87490 0.15190 0.24200 0.07800
H 	H 	0.84420 0.15310 0.30590 0.00600
H 	H 	0.00150 0.12150 0.38220 0.00400
H 	H 	0.06020 0.18820 0.38430 0.08700
H 	H 	0.91920 0.27110 0.37440 0.09000
O 	O 	0.55900 0.41687 0.39991 -0.37500
O 	O 	0.58164 0.43695 0.34221 -0.36500
O 	O 	0.50033 0.57028 0.20550 -0.24400
O 	O 	0.42843 0.61933 0.18799 -0.44700
O 	O 	0.58431 0.78170 0.39489 -0.34000
O 	O 	0.51570 0.82019 0.36487 -0.37600
N 	N 	0.43206 0.55733 0.37820 -0.25400
N 	N 	0.39359 0.60555 0.32265 -0.24600
N 	N 	0.42980 0.65881 0.37970 -0.25100
C 	C 	0.44934 0.53449 0.40912 0.08700
C 	C 	0.48809 0.49715 0.40791 -0.12400
C 	C 	0.50981 0.48266 0.37387 0.01800
C 	C 	0.49250 0.50633 0.34190 -0.08200
C 	C 	0.45388 0.54379 0.34497 0.05000
C 	C 	0.43400 0.57263 0.31368 0.03700
C 	C 	0.45518 0.56858 0.27796 -0.05900
C 	C 	0.43331 0.59848 0.25067 -0.02500
C 	C 	0.39074 0.63110 0.25989 -0.06900
C 	C 	0.37247 0.63429 0.29599 0.06000
C 	C 	0.55299 0.44254 0.37157 0.27600
C 	C 	0.45630 0.59531 0.21115 0.34700
C 	C 	0.48677 0.65475 0.38392 0.07000
C 	C 	0.52212 0.69451 0.38508 -0.10200
C 	C 	0.49840 0.73953 0.38077 0.02300
C 	C 	0.43970 0.74394 0.37678 -0.08700
C 	C 	0.40593 0.70297 0.37672 0.04800
C 	C 	0.53580 0.78404 0.37957 0.28400
H 	H 	0.43000 0.54680 0.42970 -0.00500
H 	H 	0.50620 0.48390 0.42680 0.10500
H 	H 	0.48590 0.54750 0.27240 0.06900
H 	H 	0.50690 0.49700 0.31830 0.07800
H 	H 	0.37490 0.65190 0.24200 0.07800
H 	H 	0.34420 0.65310 0.30590 0.00600
H 	H 	0.50150 0.62150 0.38220 0.00300
H 	H 	0.56020 0.68820 0.38430 0.08700
H 	H 	0.41920 0.77110 0.37440 0.09000
O 	O 	0.55900 0.91687 0.89991 -0.37500
O 	O 	0.58164 0.93695 0.84221 -0.36500
O 	O 	0.50033 0.07028 0.70550 -0.24400
O 	O 	0.42843 0.11933 0.68799 -0.44700
O 	O 	0.58431 0.28170 0.89489 -0.34000
O 	O 	0.51570 0.32019 0.86487 -0.37600
N 	N 	0.43206 0.05733 0.87820 -0.25400
N 	N 	0.39359 0.10555 0.82265 -0.24600
N 	N 	0.42980 0.15881 0.87970 -0.25100
C 	C 	0.44934 0.03449 0.90912 0.08800
C 	C 	0.48809 0.99715 0.90791 -0.12400
C 	C 	0.50981 0.98266 0.87387 0.01800
C 	C 	0.49250 0.00633 0.84190 -0.08200
C 	C 	0.45388 0.04379 0.84497 0.05000
C 	C 	0.43400 0.07263 0.81368 0.03700
C 	C 	0.45518 0.06858 0.77796 -0.05900
C 	C 	0.43331 0.09848 0.75067 -0.02500
C 	C 	0.39074 0.13110 0.75989 -0.06900
C 	C 	0.37247 0.13429 0.79599 0.06000
C 	C 	0.55299 0.94254 0.87157 0.27600
C 	C 	0.45630 0.09531 0.71115 0.34700
C 	C 	0.48677 0.15475 0.88392 0.07000
C 	C 	0.52212 0.19451 0.88508 -0.10200
C 	C 	0.49840 0.23953 0.88077 0.02300
C 	C 	0.43970 0.24394 0.87678 -0.08700
C 	C 	0.40593 0.20297 0.87672 0.04800
C 	C 	0.53580 0.28404 0.87957 0.28400
H 	H 	0.43000 0.04680 0.92970 -0.00500
H 	H 	0.50620 0.98390 0.92680 0.10500
H 	H 	0.48590 0.04750 0.77240 0.06900
H 	H 	0.50690 0.99700 0.81830 0.07800
H 	H 	0.37490 0.15190 0.74200 0.07800
H 	H 	0.34420 0.15310 0.80590 0.00600
H 	H 	0.50150 0.12150 0.88220 0.00300
H 	H 	0.56020 0.18820 0.88430 0.08700
H 	H 	0.41920 0.27110 0.87440 0.09000
O 	O 	0.05900 0.83313 0.35009 -0.37500
O 	O 	0.08164 0.81305 0.40779 -0.36500
O 	O 	0.00033 0.67972 0.54450 -0.24400
O 	O 	0.92843 0.63067 0.56201 -0.44700
O 	O 	0.08431 0.46830 0.35511 -0.34000
O 	O 	0.01570 0.42981 0.38513 -0.37600
N 	N 	0.93206 0.69267 0.37180 -0.25400
N 	N 	0.89359 0.64445 0.42735 -0.24600
N 	N 	0.92980 0.59119 0.37030 -0.25100
C 	C 	0.94934 0.71551 0.34088 0.08700
C 	C 	0.98809 0.75285 0.34209 -0.12300
C 	C 	0.00981 0.76734 0.37613 0.01700
C 	C 	0.99250 0.74367 0.40810 -0.08100
C 	C 	0.95388 0.70621 0.40503 0.05000
C 	C 	0.93400 0.67737 0.43632 0.03700
C 	C 	0.95518 0.68142 0.47204 -0.05900
C 	C 	0.93331 0.65152 0.49933 -0.02500
C 	C 	0.89074 0.61890 0.49011 -0.06900
C 	C 	0.87247 0.61571 0.45401 0.06000
C 	C 	0.05299 0.80746 0.37843 0.27600
C 	C 	0.95630 0.65469 0.53885 0.34800
C 	C 	0.98677 0.59525 0.36608 0.07000
C 	C 	0.02212 0.55549 0.36492 -0.10200
C 	C 	0.99840 0.51047 0.36923 0.02300
C 	C 	0.93970 0.50606 0.37322 -0.08700
C 	C 	0.90593 0.54703 0.37328 0.04800
C 	C 	0.03580 0.46596 0.37043 0.28400
H 	H 	0.93000 0.70320 0.32030 -0.00500
H 	H 	0.00620 0.76610 0.32320 0.10400
H 	H 	0.98590 0.70250 0.47760 0.06900
H 	H 	0.00690 0.75300 0.43170 0.07800
H 	H 	0.87490 0.59810 0.50800 0.07800
H 	H 	0.84420 0.59690 0.44410 0.00600
H 	H 	0.00150 0.62850 0.36780 0.00300
H 	H 	0.06020 0.56180 0.36570 0.08700
H 	H 	0.91920 0.47890 0.37560 0.09000
O 	O 	0.05900 0.33313 0.85009 -0.37500
O 	O 	0.08164 0.31305 0.90779 -0.36500
O 	O 	0.00033 0.17972 0.04450 -0.24300
O 	O 	0.92843 0.13067 0.06201 -0.44700
O 	O 	0.08431 0.96830 0.85511 -0.34000
O 	O 	0.01570 0.92981 0.88513 -0.37600
N 	N 	0.93206 0.19267 0.87180 -0.25400
N 	N 	0.89359 0.14445 0.92735 -0.24600
N 	N 	0.92980 0.09119 0.87030 -0.25100
C 	C 	0.94934 0.21551 0.84088 0.08800
C 	C 	0.98809 0.25285 0.84209 -0.12400
C 	C 	0.00981 0.26734 0.87613 0.01800
C 	C 	0.99250 0.24367 0.90810 -0.08200
C 	C 	0.95388 0.20621 0.90503 0.05000
C 	C 	0.93400 0.17737 0.93632 0.03700
C 	C 	0.95518 0.18142 0.97204 -0.05900
C 	C 	0.93331 0.15152 0.99933 -0.02400
C 	C 	0.89074 0.11890 0.99011 -0.06900
C 	C 	0.87247 0.11571 0.95401 0.06000
C 	C 	0.05299 0.30746 0.87843 0.27600
C 	C 	0.95630 0.15469 0.03885 0.34700
C 	C 	0.98677 0.09525 0.86608 0.07000
C 	C 	0.02212 0.05549 0.86492 -0.10100
C 	C 	0.99840 0.01047 0.86923 0.02300
C 	C 	0.93970 0.00606 0.87322 -0.08800
C 	C 	0.90593 0.04703 0.87328 0.04800
C 	C 	0.03580 0.96596 0.87043 0.28400
H 	H 	0.93000 0.20320 0.82030 -0.00500
H 	H 	0.00620 0.26610 0.82320 0.10500
H 	H 	0.98590 0.20250 0.97760 0.06900
H 	H 	0.00690 0.25300 0.93170 0.07800
H 	H 	0.87490 0.09810 0.00800 0.07800
H 	H 	0.84420 0.09690 0.94410 0.00600
H 	H 	0.00150 0.12850 0.86780 0.00400
H 	H 	0.06020 0.06180 0.86570 0.08700
H 	H 	0.91920 0.97890 0.87560 0.09100
O 	O 	0.55900 0.83313 0.85009 -0.37500
O 	O 	0.58164 0.81305 0.90779 -0.36500
O 	O 	0.50033 0.67972 0.04450 -0.24400
O 	O 	0.42843 0.63067 0.06201 -0.44700
O 	O 	0.58431 0.46830 0.85511 -0.34000
O 	O 	0.51570 0.42981 0.88513 -0.37600
N 	N 	0.43206 0.69267 0.87180 -0.25400
N 	N 	0.39359 0.64445 0.92735 -0.24600
N 	N 	0.42980 0.59119 0.87030 -0.25100
C 	C 	0.44934 0.71551 0.84088 0.08700
C 	C 	0.48809 0.75285 0.84209 -0.12400
C 	C 	0.50981 0.76734 0.87613 0.01800
C 	C 	0.49250 0.74367 0.90810 -0.08200
C 	C 	0.45388 0.70621 0.90503 0.05000
C 	C 	0.43400 0.67737 0.93632 0.03700
C 	C 	0.45518 0.68142 0.97204 -0.05900
C 	C 	0.43331 0.65152 0.99933 -0.02500
C 	C 	0.39074 0.61890 0.99011 -0.06900
C 	C 	0.37247 0.61571 0.95401 0.06000
C 	C 	0.55299 0.80746 0.87843 0.27600
C 	C 	0.45630 0.65469 0.03885 0.34700
C 	C 	0.48677 0.59525 0.86608 0.07000
C 	C 	0.52212 0.55549 0.86492 -0.10200
C 	C 	0.49840 0.51047 0.86923 0.02300
C 	C 	0.43970 0.50606 0.87322 -0.08700
C 	C 	0.40593 0.54703 0.87328 0.04800
C 	C 	0.53580 0.46596 0.87043 0.28400
H 	H 	0.43000 0.70320 0.82030 -0.00500
H 	H 	0.50620 0.76610 0.82320 0.10500
H 	H 	0.48590 0.70250 0.97760 0.06900
H 	H 	0.50690 0.75300 0.93170 0.07800
H 	H 	0.37490 0.59810 0.00800 0.07800
H 	H 	0.34420 0.59690 0.94410 0.00600
H 	H 	0.50150 0.62850 0.86780 0.00300
H 	H 	0.56020 0.56180 0.86570 0.08700
H 	H 	0.41920 0.47890 0.87560 0.09000
O 	O 	0.55900 0.33313 0.35009 -0.37500
O 	O 	0.58164 0.31305 0.40779 -0.36500
O 	O 	0.50033 0.17972 0.54450 -0.24400
O 	O 	0.42843 0.13067 0.56201 -0.44700
O 	O 	0.58431 0.96830 0.35511 -0.34000
O 	O 	0.51570 0.92981 0.38513 -0.37600
N 	N 	0.43206 0.19267 0.37180 -0.25400
N 	N 	0.39359 0.14445 0.42735 -0.24600
N 	N 	0.42980 0.09119 0.37030 -0.25100
C 	C 	0.44934 0.21551 0.34088 0.08700
C 	C 	0.48809 0.25285 0.34209 -0.12400
C 	C 	0.50981 0.26734 0.37613 0.01800
C 	C 	0.49250 0.24367 0.40810 -0.08200
C 	C 	0.45388 0.20621 0.40503 0.05000
C 	C 	0.43400 0.17737 0.43632 0.03700
C 	C 	0.45518 0.18142 0.47204 -0.05900
C 	C 	0.43331 0.15152 0.49933 -0.02500
C 	C 	0.39074 0.11890 0.49011 -0.06900
C 	C 	0.37247 0.11571 0.45401 0.06000
C 	C 	0.55299 0.30746 0.37843 0.27600
C 	C 	0.45630 0.15469 0.53885 0.34700
C 	C 	0.48677 0.09525 0.36608 0.07000
C 	C 	0.52212 0.05549 0.36492 -0.10200
C 	C 	0.49840 0.01047 0.36923 0.02300
C 	C 	0.43970 0.00606 0.37322 -0.08700
C 	C 	0.40593 0.04703 0.37328 0.04800
C 	C 	0.53580 0.96596 0.37043 0.28400
H 	H 	0.43000 0.20320 0.32030 -0.00500
H 	H 	0.50620 0.26610 0.32320 0.10500
H 	H 	0.48590 0.20250 0.47760 0.06900
H 	H 	0.50690 0.25300 0.43170 0.07800
H 	H 	0.37490 0.09810 0.50800 0.07800
H 	H 	0.34420 0.09690 0.44410 0.00600
H 	H 	0.50150 0.12850 0.36780 0.00300
H 	H 	0.56020 0.06180 0.36570 0.08700
H 	H 	0.41920 0.97890 0.37560 0.09000
O 	O 	0.19100 0.41687 0.35009 -0.37500
O 	O 	0.16836 0.43695 0.40779 -0.36500
O 	O 	0.24967 0.57028 0.54450 -0.24400
O 	O 	0.32157 0.61933 0.56201 -0.44700
O 	O 	0.16569 0.78170 0.35511 -0.34000
O 	O 	0.23430 0.82019 0.38513 -0.37600
N 	N 	0.31794 0.55733 0.37180 -0.25400
N 	N 	0.35641 0.60555 0.42735 -0.24600
N 	N 	0.32020 0.65881 0.37030 -0.25100
C 	C 	0.30066 0.53449 0.34088 0.08700
C 	C 	0.26191 0.49715 0.34209 -0.12400
C 	C 	0.24019 0.48266 0.37613 0.01800
C 	C 	0.25750 0.50633 0.40810 -0.08200
C 	C 	0.29612 0.54379 0.40503 0.05000
C 	C 	0.31600 0.57263 0.43632 0.03700
C 	C 	0.29482 0.56858 0.47204 -0.05900
C 	C 	0.31669 0.59848 0.49933 -0.02500
C 	C 	0.35926 0.63110 0.49011 -0.06900
C 	C 	0.37753 0.63429 0.45401 0.06000
C 	C 	0.19701 0.44254 0.37843 0.27600
C 	C 	0.29370 0.59531 0.53885 0.34700
C 	C 	0.26323 0.65475 0.36608 0.07000
C 	C 	0.22788 0.69451 0.36492 -0.10200
C 	C 	0.25160 0.73953 0.36923 0.02300
C 	C 	0.31030 0.74394 0.37322 -0.08700
C 	C 	0.34407 0.70297 0.37328 0.04800
C 	C 	0.21420 0.78404 0.37043 0.28400
H 	H 	0.32000 0.54680 0.32030 -0.00500
H 	H 	0.24380 0.48390 0.32320 0.10500
H 	H 	0.26410 0.54750 0.47760 0.06900
H 	H 	0.24310 0.49700 0.43170 0.07800
H 	H 	0.37510 0.65190 0.50800 0.07800
H 	H 	0.40580 0.65310 0.44410 0.00600
H 	H 	0.24850 0.62150 0.36780 0.00300
H 	H 	0.18980 0.68820 0.36570 0.08700
H 	H 	0.33080 0.77110 0.37560 0.09000
O 	O 	0.19100 0.91687 0.85009 -0.37500
O 	O 	0.16836 0.93695 0.90779 -0.36500
O 	O 	0.24967 0.07028 0.04450 -0.24400
O 	O 	0.32157 0.11933 0.06201 -0.44700
O 	O 	0.16569 0.28170 0.85511 -0.34000
O 	O 	0.23430 0.32019 0.88513 -0.37600
N 	N 	0.31794 0.05733 0.87180 -0.25400
N 	N 	0.35641 0.10555 0.92735 -0.24600
N 	N 	0.32020 0.15881 0.87030 -0.25100
C 	C 	0.30066 0.03449 0.84088 0.08800
C 	C 	0.26191 0.99715 0.84209 -0.12400
C 	C 	0.24019 0.98266 0.87613 0.01800
C 	C 	0.25750 0.00633 0.90810 -0.08100
C 	C 	0.29612 0.04379 0.90503 0.05000
C 	C 	0.31600 0.07263 0.93632 0.03700
C 	C 	0.29482 0.06858 0.97204 -0.05900
C 	C 	0.31669 0.09848 0.99933 -0.02500
C 	C 	0.35926 0.13110 0.99011 -0.06900
C 	C 	0.37753 0.13429 0.95401 0.06000
C 	C 	0.19701 0.94254 0.87843 0.27600
C 	C 	0.29370 0.09531 0.03885 0.34700
C 	C 	0.26323 0.15475 0.86608 0.07000
C 	C 	0.22788 0.19451 0.86492 -0.10200
C 	C 	0.25160 0.23953 0.86923 0.02300
C 	C 	0.31030 0.24394 0.87322 -0.08700
C 	C 	0.34407 0.20297 0.87328 0.04800
C 	C 	0.21420 0.28404 0.87043 0.28400
H 	H 	0.32000 0.04680 0.82030 -0.00500
H 	H 	0.24380 0.98390 0.82320 0.10500
H 	H 	0.26410 0.04750 0.97760 0.06900
H 	H 	0.24310 0.99700 0.93170 0.07800
H 	H 	0.37510 0.15190 0.00800 0.07800
H 	H 	0.40580 0.15310 0.94410 0.00600
H 	H 	0.24850 0.12150 0.86780 0.00300
H 	H 	0.18980 0.18820 0.86570 0.08700
H 	H 	0.33080 0.27110 0.87560 0.09000
O 	O 	0.69100 0.41687 0.85009 -0.37500
O 	O 	0.66836 0.43695 0.90779 -0.36500
O 	O 	0.74967 0.57028 0.04450 -0.24400
O 	O 	0.82157 0.61933 0.06201 -0.44700
O 	O 	0.66569 0.78170 0.85511 -0.34000
O 	O 	0.73430 0.82019 0.88513 -0.37600
N 	N 	0.81794 0.55733 0.87180 -0.25400
N 	N 	0.85641 0.60555 0.92735 -0.24600
N 	N 	0.82020 0.65881 0.87030 -0.25100
C 	C 	0.80066 0.53449 0.84088 0.08700
C 	C 	0.76191 0.49715 0.84209 -0.12400
C 	C 	0.74019 0.48266 0.87613 0.01800
C 	C 	0.75750 0.50633 0.90810 -0.08200
C 	C 	0.79612 0.54379 0.90503 0.05000
C 	C 	0.81600 0.57263 0.93632 0.03700
C 	C 	0.79482 0.56858 0.97204 -0.05900
C 	C 	0.81669 0.59848 0.99933 -0.02500
C 	C 	0.85926 0.63110 0.99011 -0.06900
C 	C 	0.87753 0.63429 0.95401 0.06000
C 	C 	0.69701 0.44254 0.87843 0.27600
C 	C 	0.79370 0.59531 0.03885 0.34700
C 	C 	0.76323 0.65475 0.86608 0.07000
C 	C 	0.72788 0.69451 0.86492 -0.10200
C 	C 	0.75160 0.73953 0.86923 0.02300
C 	C 	0.81030 0.74394 0.87322 -0.08700
C 	C 	0.84407 0.70297 0.87328 0.04800
C 	C 	0.71420 0.78404 0.87043 0.28400
H 	H 	0.82000 0.54680 0.82030 -0.00500
H 	H 	0.74380 0.48390 0.82320 0.10500
H 	H 	0.76410 0.54750 0.97760 0.06900
H 	H 	0.74310 0.49700 0.93170 0.07800
H 	H 	0.87510 0.65190 0.00800 0.07800
H 	H 	0.90580 0.65310 0.94410 0.00600
H 	H 	0.74850 0.62150 0.86780 0.00300
H 	H 	0.68980 0.68820 0.86570 0.08700
H 	H 	0.83080 0.77110 0.87560 0.09000
O 	O 	0.69100 0.91687 0.35009 -0.37500
O 	O 	0.66836 0.93695 0.40779 -0.36500
O 	O 	0.74967 0.07028 0.54450 -0.24400
O 	O 	0.82157 0.11933 0.56201 -0.44700
O 	O 	0.66569 0.28170 0.35511 -0.34000
O 	O 	0.73430 0.32019 0.38513 -0.37600
N 	N 	0.81794 0.05733 0.37180 -0.25400
N 	N 	0.85641 0.10555 0.42735 -0.24600
N 	N 	0.82020 0.15881 0.37030 -0.25100
C 	C 	0.80066 0.03449 0.34088 0.08700
C 	C 	0.76191 0.99715 0.34209 -0.12400
C 	C 	0.74019 0.98266 0.37613 0.01800
C 	C 	0.75750 0.00633 0.40810 -0.08200
C 	C 	0.79612 0.04379 0.40503 0.05000
C 	C 	0.81600 0.07263 0.43632 0.03700
C 	C 	0.79482 0.06858 0.47204 -0.05900
C 	C 	0.81669 0.09848 0.49933 -0.02500
C 	C 	0.85926 0.13110 0.49011 -0.06900
C 	C 	0.87753 0.13429 0.45401 0.06000
C 	C 	0.69701 0.94254 0.37843 0.27600
C 	C 	0.79370 0.09531 0.53885 0.34700
C 	C 	0.76323 0.15475 0.36608 0.07000
C 	C 	0.72788 0.19451 0.36492 -0.10200
C 	C 	0.75160 0.23953 0.36923 0.02400
C 	C 	0.81030 0.24394 0.37322 -0.08700
C 	C 	0.84407 0.20297 0.37328 0.04800
C 	C 	0.71420 0.28404 0.37043 0.28400
H 	H 	0.82000 0.04680 0.32030 -0.00500
H 	H 	0.74380 0.98390 0.32320 0.10500
H 	H 	0.76410 0.04750 0.47760 0.06900
H 	H 	0.74310 0.99700 0.43170 0.07900
H 	H 	0.87510 0.15190 0.50800 0.07800
H 	H 	0.90580 0.15310 0.44410 0.00600
H 	H 	0.74850 0.12150 0.36780 0.00300
H 	H 	0.68980 0.18820 0.36570 0.08700
H 	H 	0.83080 0.27110 0.37560 0.09100
Pr	Pr	0.89838 0.12500 0.12500 2.09200
Pr	Pr	0.89838 0.62500 0.62500 2.09200
Pr	Pr	0.39838 0.12500 0.62500 2.09200
Pr	Pr	0.85162 0.62500 0.12500 2.09200
Pr	Pr	0.35162 0.62500 0.62500 2.09200
Pr	Pr	0.85162 0.12500 0.62500 2.09200
Pr	Pr	0.35162 0.12500 0.12500 2.09200
Pr	Pr	0.39838 0.62500 0.12500 2.09200
Pr	Pr	0.10162 0.87500 0.87500 2.09200
Pr	Pr	0.10162 0.37500 0.37500 2.09200
Pr	Pr	0.60162 0.87500 0.37500 2.09200
Pr	Pr	0.14838 0.37500 0.87500 2.09200
Pr	Pr	0.64838 0.37500 0.37500 2.09200
Pr	Pr	0.14838 0.87500 0.37500 2.09200
Pr	Pr	0.64838 0.87500 0.87500 2.09200
Pr	Pr	0.60162 0.37500 0.87500 2.09200
Co	Co	0.62500 0.35740 0.12500 1.17000
Co	Co	0.62500 0.85740 0.62500 1.17000
Co	Co	0.12500 0.39260 0.12500 1.17000
Co	Co	0.12500 0.89260 0.62500 1.17000
Co	Co	0.62500 0.39260 0.62500 1.17000
Co	Co	0.12500 0.35740 0.62500 1.17000
Co	Co	0.12500 0.85740 0.12500 1.17000
Co	Co	0.62500 0.89260 0.12500 1.17000
Co	Co	0.37500 0.64260 0.87500 1.17000
Co	Co	0.37500 0.14260 0.37500 1.17000
Co	Co	0.87500 0.60740 0.87500 1.17000
Co	Co	0.87500 0.10740 0.37500 1.17000
Co	Co	0.87500 0.64260 0.37500 1.17000
Co	Co	0.87500 0.14260 0.87500 1.17000
Co	Co	0.37500 0.60740 0.37500 1.17000
Co	Co	0.37500 0.10740 0.87500 1.17000
