data_crystal

_cell_length_a 23.60400
_cell_length_b 41.95400
_cell_length_c 11.67500
_cell_angle_alpha 90.00000
_cell_angle_beta  116.90800
_cell_angle_gamma 90.00000

_symmetry_space_group_name_	'P 1'
_symmetry_space_group_name_H-M	'P 1'

loop_
_symmetry_equiv_pos_as_xyz
  x,y,z

loop_
_atom_site_label
_atom_site_type_symbol
_atom_site_fract_x
_atom_site_fract_y
_atom_site_fract_z
_atom_site_charge
Mn	Mn	0.82281 0.12288 0.51320 1.28900
Mn	Mn	0.91077 0.14929 0.83268 1.31800
Mn	Mn	0.82158 0.17162 0.01443 1.30000
Mn	Mn	0.73149 0.14606 0.18611 1.26600
S 	S 	0.00800 0.27882 0.37540 0.25600
S 	S 	0.07260 0.95947 0.82010 0.24500
S 	S 	0.57270 0.04146 0.71001 0.26300
S 	S 	0.45295 0.14949 0.36830 0.25100
S 	S 	0.70589 0.35254 0.12990 0.20100
O 	O 	0.88430 0.16315 0.58380 -0.52000
O 	O 	0.97280 0.16830 0.75890 -0.37900
O 	O 	0.89680 0.09082 0.61440 -0.44900
O 	O 	0.93970 0.10152 0.82460 -0.43000
O 	O 	0.80540 0.12824 0.68010 -0.53300
O 	O 	0.83195 0.13349 0.88510 -0.50400
O 	O 	0.72310 0.16946 0.90650 -0.43300
O 	O 	0.66600 0.14580 0.99230 -0.41700
O 	O 	0.81310 0.20395 0.14730 -0.47700
O 	O 	0.73610 0.19512 0.20040 -0.51900
O 	O 	0.11940 0.20990 0.99650 -0.23600
O 	O 	0.20310 0.21310 0.17470 -0.49300
H 	H 	0.21910 0.20400 0.13400 0.28000
O 	O 	0.83860 0.87286 0.84330 -0.52100
O 	O 	0.81130 0.86820 0.63820 -0.51900
O 	O 	0.70210 0.89970 0.70750 -0.46100
O 	O 	0.75430 0.91264 0.91690 -0.44400
O 	O 	0.37220 0.30364 0.29630 -0.46700
O 	O 	0.32630 0.28765 0.41170 -0.44700
O 	O 	0.47580 0.34593 0.52550 -0.44600
O 	O 	0.42110 0.33111 0.63090 -0.45300
O 	O 	0.94890 0.29129 0.27740 -0.20900
O 	O 	0.05280 0.29984 0.47530 -0.20500
O 	O 	0.12110 0.95741 0.94930 -0.16600
O 	O 	0.08860 0.95416 0.71530 -0.18900
O 	O 	0.55760 0.04800 0.81330 -0.18500
O 	O 	0.52340 0.04326 0.57880 -0.18500
O 	O 	0.40720 0.12713 0.36910 -0.18900
O 	O 	0.47710 0.14700 0.27300 -0.20200
O 	O 	0.75580 0.37083 0.11010 -0.18300
O 	O 	0.68710 0.36214 0.22560 -0.18400
C 	C 	0.93490 0.17564 0.63620 0.41000
C 	C 	0.14460 0.21500 0.10740 0.36300
C 	C 	0.93590 0.22960 0.38690 -0.11000
H 	H 	0.91050 0.23320 0.29980 0.09200
C 	C 	0.91980 0.20678 0.44960 0.07000
H 	H 	0.88260 0.19520 0.40440 0.01400
C 	C 	0.95740 0.20014 0.57970 -0.15300
C 	C 	0.01340 0.21665 0.64440 0.05400
H 	H 	0.04070 0.21170 0.72950 0.04600
C 	C 	0.02870 0.24049 0.58220 -0.09800
H 	H 	0.06560 0.25230 0.62720 0.08100
C 	C 	0.99000 0.24729 0.45330 0.02700
C 	C 	0.04670 0.23360 0.11720 0.01600
H 	H 	0.02330 0.22480 0.03610 0.02200
C 	C 	0.01730 0.24730 0.18180 -0.07700
H 	H 	0.97310 0.24780 0.14390 0.06100
C 	C 	0.05130 0.26030 0.30160 0.01200
C 	C 	0.11510 0.26010 0.36450 -0.07700
H 	H 	0.13750 0.26860 0.44660 0.07400
C 	C 	0.14570 0.24640 0.29840 0.02000
H 	H 	0.18980 0.24600 0.33750 0.05200
C 	C 	0.11200 0.23320 0.17480 -0.09200
C 	C 	0.85010 0.87815 0.75150 0.40900
C 	C 	0.93330 0.08492 0.73210 0.40200
C 	C 	0.04360 0.01612 0.89980 -0.11500
H 	H 	0.07010 0.00930 0.98290 0.11700
C 	C 	0.01200 0.04378 0.88040 0.06800
H 	H 	0.01680 0.05600 0.95070 0.05100
C 	C 	0.97150 0.05463 0.75540 -0.12600
C 	C 	0.99800 0.00779 0.67400 -0.11900
H 	H 	0.99350 0.99530 0.60440 0.08200
C 	C 	0.03670 0.99823 0.79820 0.05300
C 	C 	0.96710 0.03548 0.65640 0.06700
H 	H 	0.94130 0.04210 0.57270 0.02400
C 	C 	0.95090 0.90648 0.89090 0.06400
H 	H 	0.94600 0.90020 0.96240 0.03900
C 	C 	0.00250 0.92505 0.90580 -0.11100
H 	H 	0.03240 0.93160 0.98700 0.10600
C 	C 	0.00830 0.93351 0.79930 0.04600
C 	C 	0.96580 0.92454 0.67670 -0.12100
H 	H 	0.97130 0.93060 0.60580 0.08700
C 	C 	0.91500 0.90624 0.66340 0.07300
H 	H 	0.88570 0.89980 0.58160 0.01400
C 	C 	0.90580 0.89712 0.76640 -0.15600
C 	C 	0.47000 0.33999 0.62480 0.39800
C 	C 	0.79550 0.12293 0.77580 0.40800
C 	C 	0.71350 0.91727 0.80390 0.38500
C 	C 	0.67980 0.07518 0.84640 -0.09200
H 	H 	0.67470 0.06880 0.91750 0.08900
C 	C 	0.73240 0.09327 0.86460 0.04500
H 	H 	0.76300 0.09860 0.94680 0.04000
C 	C 	0.73850 0.10337 0.75520 -0.14600
C 	C 	0.69230 0.09539 0.63480 0.06600
H 	H 	0.69560 0.10270 0.56290 0.00500
C 	C 	0.64120 0.07677 0.61860 -0.10600
H 	H 	0.61090 0.07110 0.53660 0.08800
C 	C 	0.63520 0.06659 0.72610 0.02600
C 	C 	0.63340 0.95580 0.65260 0.02700
H 	H 	0.62780 0.94270 0.58400 0.05100
C 	C 	0.60010 0.98483 0.63070 -0.07200
H 	H 	0.57310 0.99130 0.54740 0.08700
C 	C 	0.60820 0.00393 0.73550 0.01400
C 	C 	0.64730 0.99422 0.85980 -0.06900
H 	H 	0.65190 0.00690 0.92890 0.08000
C 	C 	0.68010 0.96518 0.88150 0.02600
H 	H 	0.70530 0.95820 0.96500 0.05500
C 	C 	0.67450 0.94690 0.77740 -0.09800
C 	C 	0.67240 0.15718 0.90000 0.39000
C 	C 	0.35840 0.28297 0.35350 0.42600
C 	C 	0.44480 0.21296 0.30690 -0.10900
H 	H 	0.47560 0.20900 0.27960 0.08200
C 	C 	0.42330 0.24251 0.30590 0.05600
H 	H 	0.44040 0.25930 0.27950 0.02700
C 	C 	0.37590 0.24909 0.34300 -0.14100
C 	C 	0.35080 0.22461 0.38400 0.05800
H 	H 	0.31990 0.22860 0.41070 0.03600
C 	C 	0.37290 0.19347 0.38450 -0.10400
H 	H 	0.35540 0.17640 0.40840 0.09100
C 	C 	0.42000 0.18850 0.34980 0.03500
C 	C 	0.56280 0.14105 0.74850 0.04400
H 	H 	0.55950 0.13300 0.81950 0.05800
C 	C 	0.51020 0.13820 0.62480 -0.08100
H 	H 	0.47250 0.12870 0.61360 0.09700
C 	C 	0.51700 0.15005 0.52360 0.02200
C 	C 	0.57530 0.16440 0.54230 -0.09300
H 	H 	0.58100 0.17200 0.47340 0.06900
C 	C 	0.62200 0.16670 0.66500 0.04700
H 	H 	0.65950 0.17700 0.67910 0.03000
C 	C 	0.61700 0.15509 0.76500 -0.11100
C 	C 	0.77030 0.21253 0.17400 0.43200
C 	C 	0.58130 0.34254 0.98050 0.02500
H 	H 	0.58000 0.33970 0.05830 0.00800
C 	C 	0.52720 0.33868 0.86690 -0.01800
H 	H 	0.48930 0.33300 0.86770 0.06300
C 	C 	0.52900 0.34331 0.75030 -0.09000
C 	C 	0.58620 0.35240 0.75320 0.03100
H 	H 	0.58830 0.35640 0.67690 0.05100
C 	C 	0.63940 0.35540 0.86800 -0.07900
H 	H 	0.67790 0.36100 0.86940 0.10000
C 	C 	0.63650 0.35045 0.97890 0.03700
C 	C 	0.73000 0.31243 0.15460 0.04400
C 	C 	0.71830 0.25937 0.21780 0.06400
H 	H 	0.70100 0.24550 0.25560 0.01700
C 	C 	0.70340 0.29209 0.20760 -0.12200
H 	H 	0.67550 0.29980 0.23720 0.09000
C 	C 	0.77320 0.30122 0.11610 -0.12000
H 	H 	0.79210 0.31530 0.08220 0.08500
C 	C 	0.78870 0.26997 0.12660 0.06600
H 	H 	0.81960 0.26290 0.10390 0.01600
C 	C 	0.75820 0.24825 0.17180 -0.15600
Mn	Mn	0.32281 0.62288 0.51320 1.28800
Mn	Mn	0.41077 0.64929 0.83268 1.31800
Mn	Mn	0.32158 0.67162 0.01443 1.29900
Mn	Mn	0.23149 0.64606 0.18611 1.26500
S 	S 	0.50800 0.77882 0.37540 0.25200
S 	S 	0.57260 0.45947 0.82010 0.24500
S 	S 	0.07270 0.54146 0.71001 0.26200
S 	S 	0.95295 0.64949 0.36830 0.25000
S 	S 	0.20589 0.85254 0.12990 0.20000
O 	O 	0.38430 0.66315 0.58380 -0.52000
O 	O 	0.47280 0.66830 0.75890 -0.37800
O 	O 	0.39680 0.59082 0.61440 -0.44800
O 	O 	0.43970 0.60152 0.82460 -0.42900
O 	O 	0.30540 0.62824 0.68010 -0.53300
O 	O 	0.33195 0.63349 0.88510 -0.50400
O 	O 	0.22310 0.66946 0.90650 -0.43300
O 	O 	0.16600 0.64580 0.99230 -0.41700
O 	O 	0.31310 0.70395 0.14730 -0.47700
O 	O 	0.23610 0.69512 0.20040 -0.51900
O 	O 	0.61940 0.70990 0.99650 -0.23500
O 	O 	0.70310 0.71310 0.17470 -0.49300
H 	H 	0.71910 0.70400 0.13400 0.28000
O 	O 	0.33860 0.37286 0.84330 -0.52100
O 	O 	0.31130 0.36820 0.63820 -0.51900
O 	O 	0.20210 0.39970 0.70750 -0.46100
O 	O 	0.25430 0.41264 0.91690 -0.44400
O 	O 	0.87220 0.80364 0.29630 -0.46800
O 	O 	0.82630 0.78765 0.41170 -0.44600
O 	O 	0.97580 0.84593 0.52550 -0.44600
O 	O 	0.92110 0.83111 0.63090 -0.45300
O 	O 	0.44890 0.79129 0.27740 -0.20700
O 	O 	0.55280 0.79984 0.47530 -0.20500
O 	O 	0.62110 0.45741 0.94930 -0.16600
O 	O 	0.58860 0.45416 0.71530 -0.18900
O 	O 	0.05760 0.54800 0.81330 -0.18500
O 	O 	0.02340 0.54326 0.57880 -0.18500
O 	O 	0.90720 0.62713 0.36910 -0.18900
O 	O 	0.97710 0.64700 0.27300 -0.20200
O 	O 	0.25580 0.87083 0.11010 -0.18300
O 	O 	0.18710 0.86214 0.22560 -0.18400
C 	C 	0.43490 0.67564 0.63620 0.41000
C 	C 	0.64460 0.71500 0.10740 0.36300
C 	C 	0.43590 0.72960 0.38690 -0.11100
H 	H 	0.41050 0.73320 0.29980 0.09300
C 	C 	0.41980 0.70678 0.44960 0.07100
H 	H 	0.38260 0.69520 0.40440 0.01400
C 	C 	0.45740 0.70014 0.57970 -0.15300
C 	C 	0.51340 0.71665 0.64440 0.05400
H 	H 	0.54070 0.71170 0.72950 0.04600
C 	C 	0.52870 0.74049 0.58220 -0.10000
H 	H 	0.56560 0.75230 0.62720 0.08100
C 	C 	0.49000 0.74729 0.45330 0.03000
C 	C 	0.54670 0.73360 0.11720 0.01800
H 	H 	0.52330 0.72480 0.03610 0.02100
C 	C 	0.51730 0.74730 0.18180 -0.08100
H 	H 	0.47310 0.74780 0.14390 0.06300
C 	C 	0.55130 0.76030 0.30160 0.01400
C 	C 	0.61510 0.76010 0.36450 -0.07900
H 	H 	0.63750 0.76860 0.44660 0.07500
C 	C 	0.64570 0.74640 0.29840 0.02100
H 	H 	0.68980 0.74600 0.33750 0.05200
C 	C 	0.61200 0.73320 0.17480 -0.09300
C 	C 	0.35010 0.37815 0.75150 0.40900
C 	C 	0.43330 0.58492 0.73210 0.40100
C 	C 	0.54360 0.51612 0.89980 -0.11200
H 	H 	0.57010 0.50930 0.98290 0.11600
C 	C 	0.51200 0.54378 0.88040 0.06500
H 	H 	0.51680 0.55600 0.95070 0.05200
C 	C 	0.47150 0.55463 0.75540 -0.12400
C 	C 	0.49800 0.50779 0.67400 -0.11500
H 	H 	0.49350 0.49530 0.60440 0.08100
C 	C 	0.53670 0.49823 0.79820 0.05100
C 	C 	0.46710 0.53548 0.65640 0.06400
H 	H 	0.44130 0.54210 0.57270 0.02500
C 	C 	0.45090 0.40648 0.89090 0.06500
H 	H 	0.44600 0.40020 0.96240 0.03900
C 	C 	0.50250 0.42505 0.90580 -0.11100
H 	H 	0.53240 0.43160 0.98700 0.10700
C 	C 	0.50830 0.43351 0.79930 0.04500
C 	C 	0.46580 0.42454 0.67670 -0.11900
H 	H 	0.47130 0.43060 0.60580 0.08700
C 	C 	0.41500 0.40624 0.66340 0.07200
H 	H 	0.38570 0.39980 0.58160 0.01400
C 	C 	0.40580 0.39712 0.76640 -0.15500
C 	C 	0.97000 0.83999 0.62480 0.39700
C 	C 	0.29550 0.62293 0.77580 0.40800
C 	C 	0.21350 0.41727 0.80390 0.38500
C 	C 	0.17980 0.57518 0.84640 -0.09200
H 	H 	0.17470 0.56880 0.91750 0.08900
C 	C 	0.23240 0.59327 0.86460 0.04500
H 	H 	0.26300 0.59860 0.94680 0.04000
C 	C 	0.23850 0.60337 0.75520 -0.14600
C 	C 	0.19230 0.59539 0.63480 0.06600
H 	H 	0.19560 0.60270 0.56290 0.00500
C 	C 	0.14120 0.57677 0.61860 -0.10600
H 	H 	0.11090 0.57110 0.53660 0.08800
C 	C 	0.13520 0.56659 0.72610 0.02600
C 	C 	0.13340 0.45580 0.65260 0.02700
H 	H 	0.12780 0.44270 0.58400 0.05100
C 	C 	0.10010 0.48483 0.63070 -0.07200
H 	H 	0.07310 0.49130 0.54740 0.08700
C 	C 	0.10820 0.50393 0.73550 0.01400
C 	C 	0.14730 0.49422 0.85980 -0.06900
H 	H 	0.15190 0.50690 0.92890 0.08000
C 	C 	0.18010 0.46518 0.88150 0.02600
H 	H 	0.20530 0.45820 0.96500 0.05500
C 	C 	0.17450 0.44690 0.77740 -0.09800
C 	C 	0.17240 0.65718 0.90000 0.38900
C 	C 	0.85840 0.78297 0.35350 0.42600
C 	C 	0.94480 0.71296 0.30690 -0.10900
H 	H 	0.97560 0.70900 0.27960 0.08200
C 	C 	0.92330 0.74251 0.30590 0.05600
H 	H 	0.94040 0.75930 0.27950 0.02700
C 	C 	0.87590 0.74909 0.34300 -0.14100
C 	C 	0.85080 0.72461 0.38400 0.05800
H 	H 	0.81990 0.72860 0.41070 0.03600
C 	C 	0.87290 0.69347 0.38450 -0.10400
H 	H 	0.85540 0.67640 0.40840 0.09100
C 	C 	0.92000 0.68850 0.34980 0.03500
C 	C 	0.06280 0.64105 0.74850 0.04300
H 	H 	0.05950 0.63300 0.81950 0.05800
C 	C 	0.01020 0.63820 0.62480 -0.07900
H 	H 	0.97250 0.62870 0.61360 0.09600
C 	C 	0.01700 0.65005 0.52360 0.02200
C 	C 	0.07530 0.66440 0.54230 -0.09200
H 	H 	0.08100 0.67200 0.47340 0.06900
C 	C 	0.12200 0.66670 0.66500 0.04700
H 	H 	0.15950 0.67700 0.67910 0.03000
C 	C 	0.11700 0.65509 0.76500 -0.11100
C 	C 	0.27030 0.71253 0.17400 0.43200
C 	C 	0.08130 0.84254 0.98050 0.02300
H 	H 	0.08000 0.83970 0.05830 0.00900
C 	C 	0.02720 0.83868 0.86690 -0.01500
H 	H 	0.98930 0.83300 0.86770 0.06100
C 	C 	0.02900 0.84331 0.75030 -0.09000
C 	C 	0.08620 0.85240 0.75320 0.03100
H 	H 	0.08830 0.85640 0.67690 0.05100
C 	C 	0.13940 0.85540 0.86800 -0.08000
H 	H 	0.17790 0.86100 0.86940 0.10000
C 	C 	0.13650 0.85045 0.97890 0.03800
C 	C 	0.23000 0.81243 0.15460 0.04400
C 	C 	0.21830 0.75937 0.21780 0.06400
H 	H 	0.20100 0.74550 0.25560 0.01800
C 	C 	0.20340 0.79209 0.20760 -0.12200
H 	H 	0.17550 0.79980 0.23720 0.09000
C 	C 	0.27320 0.80122 0.11610 -0.12000
H 	H 	0.29210 0.81530 0.08220 0.08500
C 	C 	0.28870 0.76997 0.12660 0.06600
H 	H 	0.31960 0.76290 0.10390 0.01600
C 	C 	0.25820 0.74825 0.17180 -0.15600
Mn	Mn	0.82281 0.87712 0.01320 1.27200
Mn	Mn	0.91077 0.85071 0.33268 1.30900
Mn	Mn	0.82158 0.82838 0.51443 1.31900
Mn	Mn	0.73149 0.85394 0.68611 1.27800
S 	S 	0.00800 0.72118 0.87540 0.19800
S 	S 	0.07260 0.04053 0.32010 0.24400
S 	S 	0.57270 0.95854 0.21001 0.26300
S 	S 	0.45295 0.85051 0.86830 0.27800
S 	S 	0.70589 0.64746 0.62990 0.22700
O 	O 	0.88430 0.83685 0.08380 -0.55800
O 	O 	0.97280 0.83170 0.25890 -0.40400
O 	O 	0.89680 0.90918 0.11440 -0.46900
O 	O 	0.93970 0.89848 0.32460 -0.44700
O 	O 	0.80540 0.87176 0.18010 -0.54300
O 	O 	0.83195 0.86651 0.38510 -0.52800
O 	O 	0.72310 0.83054 0.40650 -0.45900
O 	O 	0.66600 0.85420 0.49230 -0.44800
O 	O 	0.81310 0.79605 0.64730 -0.46600
O 	O 	0.73610 0.80488 0.70040 -0.50000
O 	O 	0.11940 0.79010 0.49650 -0.31000
O 	O 	0.20310 0.78690 0.67470 -0.52400
H 	H 	0.21910 0.79600 0.63400 0.30600
O 	O 	0.83860 0.12714 0.34330 -0.54400
O 	O 	0.81130 0.13180 0.13820 -0.53900
O 	O 	0.70210 0.10030 0.20750 -0.48100
O 	O 	0.75430 0.08736 0.41690 -0.47300
O 	O 	0.37220 0.69636 0.79630 -0.45700
O 	O 	0.32630 0.71235 0.91170 -0.42300
O 	O 	0.47580 0.65407 0.02550 -0.47900
O 	O 	0.42110 0.66889 0.13090 -0.46900
O 	O 	0.94890 0.70871 0.77740 -0.18700
O 	O 	0.05280 0.70016 0.97530 -0.17600
O 	O 	0.12110 0.04259 0.44930 -0.18200
O 	O 	0.08860 0.04584 0.21530 -0.20700
O 	O 	0.55760 0.95200 0.31330 -0.20300
O 	O 	0.52340 0.95674 0.07880 -0.20000
O 	O 	0.40720 0.87287 0.86910 -0.17100
O 	O 	0.47710 0.85300 0.77300 -0.18800
O 	O 	0.75580 0.62917 0.61010 -0.16500
O 	O 	0.68710 0.63786 0.72560 -0.17300
C 	C 	0.93490 0.82436 0.13620 0.47500
C 	C 	0.14460 0.78500 0.60740 0.45700
C 	C 	0.93590 0.77040 0.88690 -0.28000
H 	H 	0.91050 0.76680 0.79980 0.15300
C 	C 	0.91980 0.79322 0.94960 0.28500
H 	H 	0.88260 0.80480 0.90440 -0.04800
C 	C 	0.95740 0.79986 0.07970 -0.33500
C 	C 	0.01340 0.78335 0.14440 0.22100
H 	H 	0.04070 0.78830 0.22950 -0.01600
C 	C 	0.02870 0.75951 0.08220 -0.30700
H 	H 	0.06560 0.74770 0.12720 0.13600
C 	C 	0.99000 0.75271 0.95330 0.19500
C 	C 	0.04670 0.76640 0.61720 0.05700
H 	H 	0.02330 0.77520 0.53610 0.02600
C 	C 	0.01730 0.75270 0.68180 -0.11100
H 	H 	0.97310 0.75220 0.64390 0.08200
C 	C 	0.05130 0.73970 0.80160 0.05000
C 	C 	0.11510 0.73990 0.86450 -0.11000
H 	H 	0.13750 0.73140 0.94660 0.10000
C 	C 	0.14570 0.75360 0.79840 0.05900
H 	H 	0.18980 0.75400 0.83750 0.04800
C 	C 	0.11200 0.76680 0.67480 -0.12800
C 	C 	0.85010 0.12185 0.25150 0.41800
C 	C 	0.93330 0.91508 0.23210 0.40600
C 	C 	0.04360 0.98388 0.39980 -0.12400
H 	H 	0.07010 0.99070 0.48290 0.10500
C 	C 	0.01200 0.95622 0.38040 0.07000
H 	H 	0.01680 0.94400 0.45070 0.03300
C 	C 	0.97150 0.94537 0.25540 -0.14300
C 	C 	0.99800 0.99221 0.17400 -0.12700
H 	H 	0.99350 0.00470 0.10440 0.07000
C 	C 	0.03670 0.00177 0.29820 0.04900
C 	C 	0.96710 0.96452 0.15640 0.06900
H 	H 	0.94130 0.95790 0.07270 0.00700
C 	C 	0.95090 0.09352 0.39090 0.06900
H 	H 	0.94600 0.09980 0.46240 0.02000
C 	C 	0.00250 0.07495 0.40580 -0.11900
H 	H 	0.03240 0.06840 0.48700 0.09600
C 	C 	0.00830 0.06649 0.29930 0.04500
C 	C 	0.96580 0.07546 0.17670 -0.12800
H 	H 	0.97130 0.06940 0.10580 0.07700
C 	C 	0.91500 0.09376 0.16340 0.08000
H 	H 	0.88570 0.10020 0.08160 -0.00400
C 	C 	0.90580 0.10288 0.26640 -0.17100
C 	C 	0.47000 0.66001 0.12480 0.41800
C 	C 	0.79550 0.87707 0.27580 0.41400
C 	C 	0.71350 0.08273 0.30390 0.39000
C 	C 	0.67980 0.92482 0.34640 -0.09700
H 	H 	0.67470 0.93120 0.41750 0.07900
C 	C 	0.73240 0.90673 0.36460 0.04900
H 	H 	0.76300 0.90140 0.44680 0.02200
C 	C 	0.73850 0.89663 0.25520 -0.15900
C 	C 	0.69230 0.90461 0.13480 0.07000
H 	H 	0.69560 0.89730 0.06290 -0.01000
C 	C 	0.64120 0.92323 0.11860 -0.11300
H 	H 	0.61090 0.92890 0.03660 0.07800
C 	C 	0.63520 0.93341 0.22610 0.02300
C 	C 	0.63340 0.04420 0.15260 0.02700
H 	H 	0.62780 0.05730 0.08400 0.03300
C 	C 	0.60010 0.01517 0.13070 -0.08000
H 	H 	0.57310 0.00870 0.04740 0.07600
C 	C 	0.60820 0.99607 0.23550 0.00700
C 	C 	0.64730 0.00578 0.35980 -0.07600
H 	H 	0.65190 0.99310 0.42890 0.06800
C 	C 	0.68010 0.03482 0.38150 0.02500
H 	H 	0.70530 0.04180 0.46500 0.03800
C 	C 	0.67450 0.05310 0.27740 -0.11400
C 	C 	0.67240 0.84282 0.40000 0.41600
C 	C 	0.35840 0.71703 0.85350 0.42700
C 	C 	0.44480 0.78704 0.80690 -0.10000
H 	H 	0.47560 0.79100 0.77960 0.08800
C 	C 	0.42330 0.75749 0.80590 0.06100
H 	H 	0.44040 0.74070 0.77950 0.03300
C 	C 	0.37590 0.75091 0.84300 -0.12800
C 	C 	0.35080 0.77539 0.88400 0.06100
H 	H 	0.31990 0.77140 0.91070 0.04900
C 	C 	0.37290 0.80653 0.88450 -0.09300
H 	H 	0.35540 0.82360 0.90840 0.10100
C 	C 	0.42000 0.81150 0.84980 0.04000
C 	C 	0.56280 0.85895 0.24850 0.09200
H 	H 	0.55950 0.86700 0.31950 0.03600
C 	C 	0.51020 0.86180 0.12480 -0.11800
H 	H 	0.47250 0.87130 0.11360 0.09600
C 	C 	0.51700 0.84995 0.02360 0.03600
C 	C 	0.57530 0.83560 0.04230 -0.24500
H 	H 	0.58100 0.82800 0.97340 0.16000
C 	C 	0.62200 0.83330 0.16500 0.15200
H 	H 	0.65950 0.82300 0.17910 -0.01300
C 	C 	0.61700 0.84491 0.26500 -0.17500
C 	C 	0.77030 0.78747 0.67400 0.43400
C 	C 	0.58130 0.65746 0.48050 -0.12100
H 	H 	0.58000 0.66030 0.55830 0.09300
C 	C 	0.52720 0.66132 0.36690 0.06800
H 	H 	0.48930 0.66700 0.36770 0.02500
C 	C 	0.52900 0.65669 0.25030 -0.13900
C 	C 	0.58620 0.64760 0.25320 0.07100
H 	H 	0.58830 0.64360 0.17690 0.02800
C 	C 	0.63940 0.64460 0.36800 -0.11700
H 	H 	0.67790 0.63900 0.36940 0.09800
C 	C 	0.63650 0.64955 0.47890 0.05600
C 	C 	0.73000 0.68757 0.65460 0.04700
C 	C 	0.71830 0.74063 0.71780 0.06400
H 	H 	0.70100 0.75450 0.75560 0.02900
C 	C 	0.70340 0.70791 0.70760 -0.10800
H 	H 	0.67550 0.70020 0.73720 0.09200
C 	C 	0.77320 0.69878 0.61610 -0.10800
H 	H 	0.79210 0.68470 0.58220 0.09400
C 	C 	0.78870 0.73003 0.62660 0.06600
H 	H 	0.81960 0.73710 0.60390 0.02800
C 	C 	0.75820 0.75175 0.67180 -0.14100
Mn	Mn	0.32281 0.37712 0.01320 1.27200
Mn	Mn	0.41077 0.35071 0.33268 1.30900
Mn	Mn	0.32158 0.32838 0.51443 1.31900
Mn	Mn	0.23149 0.35394 0.68611 1.27800
S 	S 	0.50800 0.22118 0.87540 0.19500
S 	S 	0.57260 0.54053 0.32010 0.24500
S 	S 	0.07270 0.45854 0.21001 0.26300
S 	S 	0.95295 0.35051 0.86830 0.27800
S 	S 	0.20589 0.14746 0.62990 0.22700
O 	O 	0.38430 0.33685 0.08380 -0.55800
O 	O 	0.47280 0.33170 0.25890 -0.40300
O 	O 	0.39680 0.40918 0.11440 -0.46800
O 	O 	0.43970 0.39848 0.32460 -0.44600
O 	O 	0.30540 0.37176 0.18010 -0.54300
O 	O 	0.33195 0.36651 0.38510 -0.52800
O 	O 	0.22310 0.33054 0.40650 -0.45800
O 	O 	0.16600 0.35420 0.49230 -0.44800
O 	O 	0.31310 0.29605 0.64730 -0.46600
O 	O 	0.23610 0.30488 0.70040 -0.50000
O 	O 	0.61940 0.29010 0.49650 -0.31000
O 	O 	0.70310 0.28690 0.67470 -0.52400
H 	H 	0.71910 0.29600 0.63400 0.30600
O 	O 	0.33860 0.62714 0.34330 -0.54400
O 	O 	0.31130 0.63180 0.13820 -0.53900
O 	O 	0.20210 0.60030 0.20750 -0.48100
O 	O 	0.25430 0.58736 0.41690 -0.47300
O 	O 	0.87220 0.19636 0.79630 -0.45700
O 	O 	0.82630 0.21235 0.91170 -0.42300
O 	O 	0.97580 0.15407 0.02550 -0.47900
O 	O 	0.92110 0.16889 0.13090 -0.46800
O 	O 	0.44890 0.20871 0.77740 -0.18600
O 	O 	0.55280 0.20016 0.97530 -0.17500
O 	O 	0.62110 0.54259 0.44930 -0.18200
O 	O 	0.58860 0.54584 0.21530 -0.20800
O 	O 	0.05760 0.45200 0.31330 -0.20300
O 	O 	0.02340 0.45674 0.07880 -0.20000
O 	O 	0.90720 0.37287 0.86910 -0.17100
O 	O 	0.97710 0.35300 0.77300 -0.18800
O 	O 	0.25580 0.12917 0.61010 -0.16500
O 	O 	0.18710 0.13786 0.72560 -0.17300
C 	C 	0.43490 0.32436 0.13620 0.47500
C 	C 	0.64460 0.28500 0.60740 0.45700
C 	C 	0.43590 0.27040 0.88690 -0.28200
H 	H 	0.41050 0.26680 0.79980 0.15400
C 	C 	0.41980 0.29322 0.94960 0.28700
H 	H 	0.38260 0.30480 0.90440 -0.04800
C 	C 	0.45740 0.29986 0.07970 -0.33600
C 	C 	0.51340 0.28335 0.14440 0.22200
H 	H 	0.54070 0.28830 0.22950 -0.01600
C 	C 	0.52870 0.25951 0.08220 -0.31000
H 	H 	0.56560 0.24770 0.12720 0.13700
C 	C 	0.49000 0.25271 0.95330 0.19900
C 	C 	0.54670 0.26640 0.61720 0.05900
H 	H 	0.52330 0.27520 0.53610 0.02500
C 	C 	0.51730 0.25270 0.68180 -0.11400
H 	H 	0.47310 0.25220 0.64390 0.08300
C 	C 	0.55130 0.23970 0.80160 0.05200
C 	C 	0.61510 0.23990 0.86450 -0.11200
H 	H 	0.63750 0.23140 0.94660 0.10000
C 	C 	0.64570 0.25360 0.79840 0.06000
H 	H 	0.68980 0.25400 0.83750 0.04800
C 	C 	0.61200 0.26680 0.67480 -0.12900
C 	C 	0.35010 0.62185 0.25150 0.41800
C 	C 	0.43330 0.41508 0.23210 0.40500
C 	C 	0.54360 0.48388 0.39980 -0.12100
H 	H 	0.57010 0.49070 0.48290 0.10400
C 	C 	0.51200 0.45622 0.38040 0.06700
H 	H 	0.51680 0.44400 0.45070 0.03400
C 	C 	0.47150 0.44537 0.25540 -0.14000
C 	C 	0.49800 0.49221 0.17400 -0.12300
H 	H 	0.49350 0.50470 0.10440 0.06900
C 	C 	0.53670 0.50177 0.29820 0.04600
C 	C 	0.46710 0.46452 0.15640 0.06600
H 	H 	0.44130 0.45790 0.07270 0.00800
C 	C 	0.45090 0.59352 0.39090 0.07000
H 	H 	0.44600 0.59980 0.46240 0.02000
C 	C 	0.50250 0.57495 0.40580 -0.12000
H 	H 	0.53240 0.56840 0.48700 0.09700
C 	C 	0.50830 0.56649 0.29930 0.04400
C 	C 	0.46580 0.57546 0.17670 -0.12700
H 	H 	0.47130 0.56940 0.10580 0.07700
C 	C 	0.41500 0.59376 0.16340 0.07900
H 	H 	0.38570 0.60020 0.08160 -0.00400
C 	C 	0.40580 0.60288 0.26640 -0.17100
C 	C 	0.97000 0.16001 0.12480 0.41800
C 	C 	0.29550 0.37707 0.27580 0.41400
C 	C 	0.21350 0.58273 0.30390 0.39000
C 	C 	0.17980 0.42482 0.34640 -0.09700
H 	H 	0.17470 0.43120 0.41750 0.07900
C 	C 	0.23240 0.40673 0.36460 0.04900
H 	H 	0.26300 0.40140 0.44680 0.02200
C 	C 	0.23850 0.39663 0.25520 -0.15900
C 	C 	0.19230 0.40461 0.13480 0.07000
H 	H 	0.19560 0.39730 0.06290 -0.01000
C 	C 	0.14120 0.42323 0.11860 -0.11300
H 	H 	0.11090 0.42890 0.03660 0.07800
C 	C 	0.13520 0.43341 0.22610 0.02300
C 	C 	0.13340 0.54420 0.15260 0.02700
H 	H 	0.12780 0.55730 0.08400 0.03300
C 	C 	0.10010 0.51517 0.13070 -0.08000
H 	H 	0.07310 0.50870 0.04740 0.07600
C 	C 	0.10820 0.49607 0.23550 0.00700
C 	C 	0.14730 0.50578 0.35980 -0.07600
H 	H 	0.15190 0.49310 0.42890 0.06800
C 	C 	0.18010 0.53482 0.38150 0.02500
H 	H 	0.20530 0.54180 0.46500 0.03800
C 	C 	0.17450 0.55310 0.27740 -0.11400
C 	C 	0.17240 0.34282 0.40000 0.41500
C 	C 	0.85840 0.21703 0.85350 0.42700
C 	C 	0.94480 0.28704 0.80690 -0.10000
H 	H 	0.97560 0.29100 0.77960 0.08800
C 	C 	0.92330 0.25749 0.80590 0.06100
H 	H 	0.94040 0.24070 0.77950 0.03300
C 	C 	0.87590 0.25091 0.84300 -0.12800
C 	C 	0.85080 0.27539 0.88400 0.06100
H 	H 	0.81990 0.27140 0.91070 0.05000
C 	C 	0.87290 0.30653 0.88450 -0.09300
H 	H 	0.85540 0.32360 0.90840 0.10100
C 	C 	0.92000 0.31150 0.84980 0.04000
C 	C 	0.06280 0.35895 0.24850 0.09000
H 	H 	0.05950 0.36700 0.31950 0.03600
C 	C 	0.01020 0.36180 0.12480 -0.11600
H 	H 	0.97250 0.37130 0.11360 0.09400
C 	C 	0.01700 0.34995 0.02360 0.03600
C 	C 	0.07530 0.33560 0.04230 -0.24300
H 	H 	0.08100 0.32800 0.97340 0.16000
C 	C 	0.12200 0.33330 0.16500 0.15000
H 	H 	0.15950 0.32300 0.17910 -0.01200
C 	C 	0.11700 0.34491 0.26500 -0.17400
C 	C 	0.27030 0.28747 0.67400 0.43400
C 	C 	0.08130 0.15746 0.48050 -0.12200
H 	H 	0.08000 0.16030 0.55830 0.09300
C 	C 	0.02720 0.16132 0.36690 0.07000
H 	H 	0.98930 0.16700 0.36770 0.02400
C 	C 	0.02900 0.15669 0.25030 -0.13800
C 	C 	0.08620 0.14760 0.25320 0.07100
H 	H 	0.08830 0.14360 0.17690 0.02900
C 	C 	0.13940 0.14460 0.36800 -0.11800
H 	H 	0.17790 0.13900 0.36940 0.09800
C 	C 	0.13650 0.14955 0.47890 0.05600
C 	C 	0.23000 0.18757 0.65460 0.04700
C 	C 	0.21830 0.24063 0.71780 0.06400
H 	H 	0.20100 0.25450 0.75560 0.02900
C 	C 	0.20340 0.20791 0.70760 -0.10800
H 	H 	0.17550 0.20020 0.73720 0.09200
C 	C 	0.27320 0.19878 0.61610 -0.10800
H 	H 	0.29210 0.18470 0.58220 0.09400
C 	C 	0.28870 0.23003 0.62660 0.06600
H 	H 	0.31960 0.23710 0.60390 0.02800
C 	C 	0.25820 0.25175 0.67180 -0.14100
