data_crystal

_cell_length_a 13.06960
_cell_length_b 13.06960
_cell_length_c 11.28670
_cell_angle_alpha 90.00000
_cell_angle_beta  90.00000
_cell_angle_gamma 90.00000

_symmetry_space_group_name_	'P 1'
_symmetry_space_group_name_H-M	'P 1'

loop_
_symmetry_equiv_pos_as_xyz
  x,y,z

loop_
_atom_site_label
_atom_site_type_symbol
_atom_site_fract_x
_atom_site_fract_y
_atom_site_fract_z
_atom_site_charge
Mn	Mn	0.74303 0.98963 0.10474 1.30600
Mn	Mn	0.74994 0.21927 0.95790 1.25000
O 	O 	0.76010 0.05650 0.91930 -0.59200
O 	O 	0.87240 0.13540 0.80730 -0.50800
O 	O 	0.08750 0.77210 0.53090 -0.54400
O 	O 	0.14030 0.90370 0.63840 -0.49200
O 	O 	0.64300 0.75920 0.12220 -0.50700
O 	O 	0.62280 0.90490 0.02560 -0.44900
O 	O 	0.32180 0.75000 0.61610 -0.48500
O 	O 	0.36760 0.90520 0.67880 -0.45500
C 	C 	0.82760 0.05520 0.83870 0.41000
C 	C 	0.07250 0.84110 0.60910 0.43200
C 	C 	0.60260 0.81340 0.04290 0.43700
C 	C 	0.36490 0.81020 0.68740 0.39600
C 	C 	0.85190 0.95460 0.78160 -0.18000
C 	C 	0.94460 0.94330 0.72080 0.11800
H 	H 	0.98900 0.99860 0.71440 -0.00100
C 	C 	0.97120 0.84920 0.66960 -0.18800
C 	C 	0.90540 0.76800 0.67960 0.09800
H 	H 	0.92260 0.70510 0.64640 0.00500
C 	C 	0.81220 0.77950 0.73980 -0.16400
H 	H 	0.76730 0.72460 0.74510 0.08900
C 	C 	0.78660 0.87220 0.79130 0.09400
H 	H 	0.72540 0.87880 0.83250 -0.00100
C 	C 	0.52520 0.76080 0.96330 -0.15200
C 	C 	0.48250 0.81110 0.86660 0.06300
H 	H 	0.49930 0.87900 0.85130 0.02300
C 	C 	0.41440 0.75900 0.79250 -0.13100
C 	C 	0.38880 0.65820 0.81840 0.02400
H 	H 	0.34280 0.62380 0.76980 0.02800
C 	C 	0.42990 0.60860 0.91390 -0.08000
H 	H 	0.41170 0.54120 0.93000 0.04500
C 	C 	0.49960 0.65960 0.98720 -0.04300
H 	H 	0.52860 0.62600 0.05160 0.07600
Mn	Mn	0.25697 0.01037 0.60474 1.30100
Mn	Mn	0.25006 0.78073 0.45790 1.26900
O 	O 	0.23990 0.94350 0.41930 -0.56500
O 	O 	0.12760 0.86460 0.30730 -0.49900
O 	O 	0.91250 0.22790 0.03090 -0.51400
O 	O 	0.85970 0.09630 0.13840 -0.48100
O 	O 	0.35700 0.24080 0.62220 -0.51200
O 	O 	0.37720 0.09510 0.52560 -0.46200
O 	O 	0.67820 0.25000 0.11610 -0.46800
O 	O 	0.63240 0.09480 0.17880 -0.44700
C 	C 	0.17240 0.94480 0.33870 0.41300
C 	C 	0.92750 0.15890 0.10910 0.43500
C 	C 	0.39740 0.18660 0.54290 0.41300
C 	C 	0.63510 0.18980 0.18740 0.40000
C 	C 	0.14810 0.04540 0.28160 -0.17300
C 	C 	0.05540 0.05670 0.22080 0.12100
H 	H 	0.01100 0.00140 0.21440 -0.00000
C 	C 	0.02880 0.15080 0.16960 -0.18100
C 	C 	0.09460 0.23200 0.17960 0.10100
H 	H 	0.07740 0.29490 0.14640 0.01200
C 	C 	0.18780 0.22050 0.23980 -0.15400
H 	H 	0.23270 0.27540 0.24510 0.09100
C 	C 	0.21340 0.12780 0.29130 0.09600
H 	H 	0.27460 0.12120 0.33250 0.00800
C 	C 	0.47480 0.23920 0.46330 -0.15600
C 	C 	0.51750 0.18890 0.36660 0.07800
H 	H 	0.50070 0.12100 0.35130 0.02600
C 	C 	0.58560 0.24100 0.29250 -0.14800
C 	C 	0.61120 0.34180 0.31840 0.06600
H 	H 	0.65720 0.37620 0.26980 0.01900
C 	C 	0.57010 0.39140 0.41390 -0.14400
H 	H 	0.58830 0.45880 0.43000 0.08200
C 	C 	0.50040 0.34040 0.48720 0.06600
H 	H 	0.47140 0.37400 0.55160 0.01000
Mn	Mn	0.01037 0.74303 0.35474 1.30100
Mn	Mn	0.78073 0.74994 0.20790 1.27100
O 	O 	0.94350 0.76010 0.16930 -0.56300
O 	O 	0.86460 0.87240 0.05730 -0.48700
O 	O 	0.22790 0.08750 0.78090 -0.54700
O 	O 	0.09630 0.14030 0.88840 -0.50100
O 	O 	0.24080 0.64300 0.37220 -0.50600
O 	O 	0.09510 0.62280 0.27560 -0.45800
O 	O 	0.25000 0.32180 0.86610 -0.48600
O 	O 	0.09480 0.36760 0.92880 -0.46000
C 	C 	0.94480 0.82760 0.08870 0.41900
C 	C 	0.15890 0.07250 0.85910 0.42500
C 	C 	0.18660 0.60260 0.29290 0.40700
C 	C 	0.18980 0.36490 0.93740 0.35200
C 	C 	0.04540 0.85190 0.03160 -0.16600
C 	C 	0.05670 0.94460 0.97080 0.08600
H 	H 	0.00140 0.98900 0.96440 0.00000
C 	C 	0.15080 0.97120 0.91960 -0.18800
C 	C 	0.23200 0.90540 0.92960 0.12100
H 	H 	0.29490 0.92260 0.89640 -0.00500
C 	C 	0.22050 0.81220 0.98980 -0.23100
H 	H 	0.27540 0.76730 0.99510 0.10600
C 	C 	0.12780 0.78660 0.04130 0.16000
H 	H 	0.12120 0.72540 0.08250 -0.00900
C 	C 	0.23920 0.52520 0.21330 -0.13200
C 	C 	0.18890 0.48250 0.11660 0.04600
H 	H 	0.12100 0.49930 0.10130 0.04400
C 	C 	0.24100 0.41440 0.04250 -0.08500
C 	C 	0.34180 0.38880 0.06840 0.03000
H 	H 	0.37620 0.34280 0.01980 0.04400
C 	C 	0.39140 0.42990 0.16390 -0.10900
H 	H 	0.45880 0.41170 0.18000 0.07300
C 	C 	0.34040 0.49960 0.23720 0.04300
H 	H 	0.37400 0.52860 0.30160 0.02000
Mn	Mn	0.98963 0.25697 0.85474 1.29300
Mn	Mn	0.21927 0.25006 0.70790 1.26700
O 	O 	0.05650 0.23990 0.66930 -0.56600
O 	O 	0.13540 0.12760 0.55730 -0.50100
O 	O 	0.77210 0.91250 0.28090 -0.54400
O 	O 	0.90370 0.85970 0.38840 -0.49100
O 	O 	0.75920 0.35700 0.87220 -0.52400
O 	O 	0.90490 0.37720 0.77560 -0.46800
O 	O 	0.75000 0.67820 0.36610 -0.48500
O 	O 	0.90520 0.63240 0.42880 -0.45600
C 	C 	0.05520 0.17240 0.58870 0.41400
C 	C 	0.84110 0.92750 0.35910 0.43000
C 	C 	0.81340 0.39740 0.79290 0.41500
C 	C 	0.81020 0.63510 0.43740 0.40500
C 	C 	0.95460 0.14810 0.53160 -0.17800
C 	C 	0.94330 0.05540 0.47080 0.11900
H 	H 	0.99860 0.01100 0.46440 -0.00200
C 	C 	0.84920 0.02880 0.41960 -0.18400
C 	C 	0.76800 0.09460 0.42960 0.09800
H 	H 	0.70510 0.07740 0.39640 0.00700
C 	C 	0.77950 0.18780 0.48980 -0.15900
H 	H 	0.72460 0.23270 0.49510 0.09100
C 	C 	0.87220 0.21340 0.54130 0.09600
H 	H 	0.87880 0.27460 0.58250 0.00600
C 	C 	0.76080 0.47480 0.71330 -0.16400
C 	C 	0.81110 0.51750 0.61660 0.08300
H 	H 	0.87900 0.50070 0.60130 0.02200
C 	C 	0.75900 0.58560 0.54250 -0.15500
C 	C 	0.65820 0.61120 0.56840 0.07200
H 	H 	0.62380 0.65720 0.51980 0.01400
C 	C 	0.60860 0.57010 0.66390 -0.15200
H 	H 	0.54120 0.58830 0.68000 0.08300
C 	C 	0.65960 0.50040 0.73720 0.07100
H 	H 	0.62600 0.47140 0.80160 0.00300
