data_crystal

_cell_length_a 14.44300
_cell_length_b 22.19870
_cell_length_c 17.76280
_cell_angle_alpha 90.00000
_cell_angle_beta  103.97500
_cell_angle_gamma 90.00000

_symmetry_space_group_name_	'P 1'
_symmetry_space_group_name_H-M	'P 1'

loop_
_symmetry_equiv_pos_as_xyz
  x,y,z

loop_
_atom_site_label
_atom_site_type_symbol
_atom_site_fract_x
_atom_site_fract_y
_atom_site_fract_z
_atom_site_charge
Co	Co	0.54385 0.05967 0.31916 1.12700
Co	Co	0.49907 0.13654 0.47250 1.16900
Co	Co	0.45128 0.10379 0.64844 1.12800
O 	O 	0.55517 0.05981 0.43399 -0.81100
O 	O 	0.43944 0.07577 0.53794 -0.78800
O 	O 	0.08010 0.30938 0.91883 -0.46700
O 	O 	0.37620 0.18351 0.61115 -0.49000
N 	N 	0.58370 0.14556 0.64390 -0.21200
N 	N 	0.72780 0.18116 0.66290 -0.15200
O 	O 	0.11590 0.35863 0.81980 -0.49600
O 	O 	0.42890 0.20934 0.50730 -0.47500
O 	O 	0.73770 0.03133 0.52610 -0.34800
O 	O 	0.62983 0.00804 0.59084 -0.45500
N 	N 	0.76880 0.35393 0.77080 -0.14700
C 	C 	0.23720 0.07100 0.64560 0.09400
H 	H 	0.21500 0.11040 0.63690 -0.01400
N 	N 	0.18190 0.02264 0.65160 -0.15700
N 	N 	0.90960 0.39496 0.80530 -0.21000
C 	C 	0.49630 0.30436 0.63710 0.21000
C 	C 	0.82360 0.20136 0.70120 0.06100
N 	N 	0.60600 0.15112 0.57420 -0.20300
C 	C 	0.40000 0.22150 0.56610 0.48900
C 	C 	0.66390 0.32535 0.64670 -0.00800
H 	H 	0.71520 0.32830 0.62380 0.03200
N 	N 	0.32830 0.99241 0.66510 -0.21400
C 	C 	0.57390 0.30990 0.60240 -0.17700
H 	H 	0.56480 0.30320 0.54950 0.09600
C 	C 	0.89260 0.01720 0.65780 0.19100
N 	N 	0.89050 0.36680 0.86880 -0.20100
C 	C 	0.71390 0.01770 0.58710 0.45600
C 	C 	0.08170 0.02210 0.65170 0.02800
N 	N 	0.32510 0.05464 0.65370 -0.23300
C 	C 	0.67610 0.33630 0.72530 0.03800
C 	C 	0.84770 0.20620 0.78020 -0.03500
H 	H 	0.80260 0.19930 0.80880 0.04100
C 	C 	0.60180 0.32980 0.76050 -0.01500
H 	H 	0.61120 0.33650 0.81350 0.03300
C 	C 	0.24200 0.97450 0.66350 0.12400
H 	H 	0.22420 0.93490 0.66960 -0.01500
C 	C 	0.00810 0.23330 0.77530 0.16500
C 	C 	0.39810 0.28730 0.58950 -0.51500
H 	H 	0.38080 0.31250 0.54360 0.18000
H 	H 	0.35120 0.29320 0.61980 0.17900
C 	C 	0.83590 0.38660 0.74690 0.09700
H 	H 	0.83040 0.40080 0.69670 -0.03100
C 	C 	0.65820 0.16440 0.69630 0.10600
H 	H 	0.66210 0.16600 0.74930 -0.03100
C 	C 	0.10940 0.25140 0.81710 -0.49100
H 	H 	0.13680 0.22150 0.85610 0.17900
H 	H 	0.14930 0.25440 0.78060 0.17400
C 	C 	0.80610 0.34270 0.84710 0.10400
H 	H 	0.77590 0.32100 0.87920 -0.00500
C 	C 	0.10260 0.31220 0.85520 0.49400
C 	C 	0.94070 0.22170 0.81710 -0.14400
H 	H 	0.95810 0.22440 0.87100 0.09600
C 	C 	0.92960 0.97440 0.61660 -0.12000
H 	H 	0.89010 0.94390 0.59110 0.08300
C 	C 	0.04640 0.06480 0.69210 -0.02900
H 	H 	0.08540 0.09550 0.71750 0.03400
C 	C 	0.51170 0.31310 0.71560 -0.18400
H 	H 	0.46160 0.30780 0.73950 0.08400
C 	C 	0.69200 0.17310 0.58620 0.11200
H 	H 	0.72370 0.18190 0.54770 -0.00500
C 	C 	0.95030 0.06170 0.69510 -0.16200
H 	H 	0.92590 0.09050 0.72310 0.08800
C 	C 	0.98110 0.22940 0.69650 -0.12300
H 	H 	0.02550 0.23710 0.66740 0.05700
C 	C 	0.78910 0.01240 0.66320 -0.52500
H 	H 	0.78080 0.97390 0.68650 0.20800
H 	H 	0.77740 0.04360 0.69800 0.18500
C 	C 	0.02380 0.97590 0.61240 -0.01200
H 	H 	0.04800 0.94700 0.58430 0.04400
C 	C 	0.88730 0.21370 0.65850 -0.05000
H 	H 	0.86900 0.21190 0.60460 0.04900
O 	O 	0.46576 0.97523 0.30569 -0.62100
H 	H 	0.38000 0.07400 0.52100 0.26500
H 	H 	0.61400 0.06200 0.45400 0.29200
H 	H 	0.42900 0.97400 0.26100 0.22400
Co	Co	0.95615 0.55967 0.18084 1.13600
Co	Co	0.00093 0.63654 0.02750 1.14800
Co	Co	0.04872 0.60379 0.85156 1.12700
O 	O 	0.94483 0.55981 0.06601 -0.79900
O 	O 	0.06056 0.57577 0.96206 -0.77600
O 	O 	0.41990 0.80938 0.58117 -0.47900
O 	O 	0.12380 0.68351 0.88885 -0.48500
N 	N 	0.91630 0.64556 0.85610 -0.20900
N 	N 	0.77220 0.68116 0.83710 -0.14700
O 	O 	0.38410 0.85863 0.68020 -0.49700
O 	O 	0.07110 0.70934 0.99270 -0.45700
O 	O 	0.76230 0.53133 0.97390 -0.32100
O 	O 	0.87017 0.50804 0.90916 -0.43000
N 	N 	0.73120 0.85393 0.72920 -0.15100
C 	C 	0.26280 0.57100 0.85440 0.10100
H 	H 	0.28500 0.61040 0.86310 -0.01200
N 	N 	0.31810 0.52264 0.84840 -0.14300
N 	N 	0.59040 0.89496 0.69470 -0.20900
C 	C 	0.00370 0.80436 0.86290 0.16000
C 	C 	0.67640 0.70136 0.79880 0.03300
N 	N 	0.89400 0.65112 0.92580 -0.19400
C 	C 	0.10000 0.72150 0.93390 0.48100
C 	C 	0.83610 0.82535 0.85330 -0.03700
H 	H 	0.78480 0.82830 0.87620 0.04700
N 	N 	0.17170 0.49241 0.83490 -0.22100
C 	C 	0.92610 0.80990 0.89760 -0.13100
H 	H 	0.93520 0.80320 0.95050 0.09100
C 	C 	0.60740 0.51720 0.84220 0.22600
N 	N 	0.60950 0.86680 0.63120 -0.20500
C 	C 	0.78610 0.51770 0.91290 0.44500
C 	C 	0.41830 0.52210 0.84830 0.04100
N 	N 	0.17490 0.55464 0.84630 -0.22400
C 	C 	0.82390 0.83630 0.77470 0.06400
C 	C 	0.65230 0.70620 0.71980 0.00000
H 	H 	0.69740 0.69930 0.69120 0.02700
C 	C 	0.89820 0.82980 0.73950 -0.05400
H 	H 	0.88880 0.83650 0.68650 0.04700
C 	C 	0.25800 0.47450 0.83650 0.10100
H 	H 	0.27580 0.43490 0.83040 -0.00800
C 	C 	0.49190 0.73330 0.72470 0.22300
C 	C 	0.10190 0.78730 0.91050 -0.48900
H 	H 	0.11920 0.81250 0.95640 0.18100
H 	H 	0.14880 0.79320 0.88020 0.17500
C 	C 	0.66410 0.88660 0.75310 0.10000
H 	H 	0.66960 0.90080 0.80330 -0.02600
C 	C 	0.84180 0.66440 0.80370 0.10500
H 	H 	0.83790 0.66600 0.75070 -0.03100
C 	C 	0.39060 0.75140 0.68290 -0.52300
H 	H 	0.36320 0.72150 0.64390 0.18400
H 	H 	0.35070 0.75440 0.71940 0.18400
C 	C 	0.69390 0.84270 0.65290 0.10500
H 	H 	0.72410 0.82100 0.62080 -0.01100
C 	C 	0.39740 0.81220 0.64480 0.50300
C 	C 	0.55930 0.72170 0.68290 -0.19400
H 	H 	0.54190 0.72440 0.62900 0.10500
C 	C 	0.57040 0.47440 0.88340 -0.17300
H 	H 	0.60990 0.44390 0.90890 0.10000
C 	C 	0.45360 0.56480 0.80790 -0.00500
H 	H 	0.41460 0.59550 0.78250 0.02800
C 	C 	0.98830 0.81310 0.78440 -0.11700
H 	H 	0.03840 0.80780 0.76050 0.05500
C 	C 	0.80800 0.67310 0.91380 0.11100
H 	H 	0.77630 0.68190 0.95230 0.00400
C 	C 	0.54970 0.56170 0.80490 -0.18900
H 	H 	0.57410 0.59050 0.77690 0.09600
C 	C 	0.51890 0.72940 0.80350 -0.19300
H 	H 	0.47450 0.73710 0.83260 0.09100
C 	C 	0.71090 0.51240 0.83680 -0.48400
H 	H 	0.71920 0.47390 0.81350 0.17800
H 	H 	0.72260 0.54360 0.80200 0.17500
C 	C 	0.47620 0.47590 0.88760 -0.00400
H 	H 	0.45200 0.44700 0.91570 0.04600
C 	C 	0.61270 0.71370 0.84150 -0.00600
H 	H 	0.63100 0.71190 0.89540 0.03700
O 	O 	0.03424 0.47523 0.19431 -0.63800
H 	H 	0.12000 0.57400 0.97900 0.27800
H 	H 	0.88600 0.56200 0.04600 0.27900
H 	H 	0.07100 0.47400 0.23900 0.22400
Co	Co	0.45615 0.94033 0.68084 1.13800
Co	Co	0.50093 0.86346 0.52750 1.16900
Co	Co	0.54872 0.89621 0.35156 1.13000
O 	O 	0.44483 0.94019 0.56601 -0.79600
O 	O 	0.56056 0.92423 0.46206 -0.78100
O 	O 	0.91990 0.69062 0.08117 -0.48900
O 	O 	0.62380 0.81649 0.38885 -0.49000
N 	N 	0.41630 0.85444 0.35610 -0.21200
N 	N 	0.27220 0.81884 0.33710 -0.14100
O 	O 	0.88410 0.64137 0.18020 -0.50400
O 	O 	0.57110 0.79066 0.49270 -0.47500
O 	O 	0.26230 0.96867 0.47390 -0.33100
O 	O 	0.37017 0.99196 0.40916 -0.42900
N 	N 	0.23120 0.64607 0.22920 -0.14700
C 	C 	0.76280 0.92900 0.35440 0.10100
H 	H 	0.78500 0.88960 0.36310 -0.01400
N 	N 	0.81810 0.97736 0.34840 -0.12900
N 	N 	0.09040 0.60504 0.19470 -0.21500
C 	C 	0.50370 0.69564 0.36290 0.21100
C 	C 	0.17640 0.79864 0.29880 -0.00700
N 	N 	0.39400 0.84888 0.42580 -0.20300
C 	C 	0.60000 0.77850 0.43390 0.49000
C 	C 	0.33610 0.67465 0.35330 -0.00600
H 	H 	0.28480 0.67170 0.37620 0.03000
N 	N 	0.67170 0.00759 0.33490 -0.23000
C 	C 	0.42610 0.69010 0.39760 -0.17900
H 	H 	0.43520 0.69680 0.45050 0.09600
C 	C 	0.10740 0.98280 0.34220 0.26300
N 	N 	0.10950 0.63320 0.13120 -0.21100
C 	C 	0.28610 0.98230 0.41290 0.44200
C 	C 	0.91830 0.97790 0.34830 0.04400
N 	N 	0.67490 0.94536 0.34630 -0.21600
C 	C 	0.32390 0.66370 0.27470 0.03500
C 	C 	0.15230 0.79380 0.21980 0.04900
H 	H 	0.19740 0.80070 0.19120 0.00600
C 	C 	0.39820 0.67020 0.23950 -0.01300
H 	H 	0.38880 0.66350 0.18650 0.02600
C 	C 	0.75800 0.02550 0.33650 0.07000
H 	H 	0.77580 0.06510 0.33040 -0.00400
C 	C 	0.99190 0.76670 0.22470 0.30000
C 	C 	0.60190 0.71270 0.41050 -0.51700
H 	H 	0.61920 0.68750 0.45640 0.18100
H 	H 	0.64880 0.70680 0.38020 0.17900
C 	C 	0.16410 0.61340 0.25310 0.09600
H 	H 	0.16960 0.59920 0.30330 -0.03300
C 	C 	0.34180 0.83560 0.30370 0.10300
H 	H 	0.33790 0.83400 0.25070 -0.03200
C 	C 	0.89060 0.74860 0.18290 -0.56700
H 	H 	0.86320 0.77850 0.14390 0.19400
H 	H 	0.85070 0.74560 0.21940 0.19400
C 	C 	0.19390 0.65730 0.15290 0.10100
H 	H 	0.22410 0.67900 0.12080 -0.01800
C 	C 	0.89740 0.68780 0.14480 0.51700
C 	C 	0.05930 0.77830 0.18290 -0.26200
H 	H 	0.04190 0.77560 0.12900 0.11800
C 	C 	0.07040 0.02560 0.38340 -0.23200
H 	H 	0.10990 0.05610 0.40890 0.10800
C 	C 	0.95360 0.93520 0.30790 0.02800
H 	H 	0.91460 0.90450 0.28250 0.01900
C 	C 	0.48830 0.68690 0.28440 -0.18700
H 	H 	0.53840 0.69220 0.26050 0.08200
C 	C 	0.30800 0.82690 0.41380 0.10800
H 	H 	0.27630 0.81810 0.45230 -0.00300
C 	C 	0.04970 0.93830 0.30490 -0.22800
H 	H 	0.07410 0.90950 0.27690 0.10700
C 	C 	0.01890 0.77060 0.30350 -0.28700
H 	H 	0.97450 0.76290 0.33260 0.12600
C 	C 	0.21090 0.98760 0.33680 -0.45400
H 	H 	0.21920 0.02610 0.31350 0.15100
H 	H 	0.22260 0.95640 0.30200 0.16700
C 	C 	0.97620 0.02410 0.38760 0.00300
H 	H 	0.95200 0.05300 0.41570 0.03400
C 	C 	0.11270 0.78630 0.34150 0.05400
H 	H 	0.13100 0.78810 0.39540 0.01000
O 	O 	0.53424 0.02477 0.69431 -0.63900
H 	H 	0.62000 0.92600 0.47900 0.27400
H 	H 	0.38600 0.93800 0.54600 0.29000
H 	H 	0.57100 0.02600 0.73900 0.22200
Co	Co	0.04385 0.44033 0.81916 1.12900
Co	Co	0.99907 0.36346 0.97250 1.18600
Co	Co	0.95128 0.39621 0.14844 1.13300
O 	O 	0.05517 0.44019 0.93399 -0.80300
O 	O 	0.93944 0.42423 0.03794 -0.78800
O 	O 	0.58010 0.19062 0.41883 -0.47900
O 	O 	0.87620 0.31649 0.11115 -0.49500
N 	N 	0.08370 0.35444 0.14390 -0.21600
N 	N 	0.22780 0.31884 0.16290 -0.14700
O 	O 	0.61590 0.14137 0.31980 -0.50200
O 	O 	0.92890 0.29066 0.00730 -0.49200
O 	O 	0.23770 0.46867 0.02610 -0.35900
O 	O 	0.12983 0.49196 0.09084 -0.45300
N 	N 	0.26880 0.14607 0.27080 -0.14200
C 	C 	0.73720 0.42900 0.14560 0.09400
H 	H 	0.71500 0.38960 0.13690 -0.01700
N 	N 	0.68190 0.47736 0.15160 -0.14400
N 	N 	0.40960 0.10504 0.30530 -0.21600
C 	C 	0.99630 0.19564 0.13710 0.27300
C 	C 	0.32360 0.29864 0.20120 0.03000
N 	N 	0.10600 0.34888 0.07420 -0.21300
C 	C 	0.90000 0.27850 0.06610 0.50000
C 	C 	0.16390 0.17465 0.14670 0.02900
H 	H 	0.21520 0.17170 0.12380 0.01200
N 	N 	0.82830 0.50759 0.16510 -0.22200
C 	C 	0.07390 0.19010 0.10240 -0.23400
H 	H 	0.06480 0.19680 0.04950 0.10400
C 	C 	0.39260 0.48280 0.15780 0.22700
N 	N 	0.39050 0.13320 0.36880 -0.20700
C 	C 	0.21390 0.48230 0.08710 0.45100
C 	C 	0.58170 0.47790 0.15170 0.03100
N 	N 	0.82510 0.44536 0.15370 -0.22400
C 	C 	0.17610 0.16370 0.22530 0.00400
C 	C 	0.34770 0.29380 0.28020 0.00200
H 	H 	0.30260 0.30070 0.30880 0.02500
C 	C 	0.10180 0.17020 0.26050 0.03400
H 	H 	0.11120 0.16350 0.31350 0.01000
C 	C 	0.74200 0.52550 0.16350 0.09400
H 	H 	0.72420 0.56510 0.16960 -0.01100
C 	C 	0.50810 0.26670 0.27530 0.22300
C 	C 	0.89810 0.21270 0.08950 -0.54900
H 	H 	0.88080 0.18750 0.04360 0.18200
H 	H 	0.85120 0.20680 0.11980 0.18500
C 	C 	0.33590 0.11340 0.24690 0.09300
H 	H 	0.33040 0.09920 0.19670 -0.03800
C 	C 	0.15820 0.33560 0.19630 0.10500
H 	H 	0.16210 0.33400 0.24930 -0.03300
C 	C 	0.60940 0.24860 0.31710 -0.52400
H 	H 	0.63680 0.27850 0.35610 0.18500
H 	H 	0.64930 0.24560 0.28060 0.18100
C 	C 	0.30610 0.15730 0.34710 0.10000
H 	H 	0.27590 0.17900 0.37920 -0.01100
C 	C 	0.60260 0.18780 0.35520 0.50400
C 	C 	0.44070 0.27830 0.31710 -0.19500
H 	H 	0.45810 0.27560 0.37100 0.10500
C 	C 	0.42960 0.52560 0.11660 -0.18000
H 	H 	0.39010 0.55610 0.09110 0.09100
C 	C 	0.54640 0.43520 0.19210 -0.00200
H 	H 	0.58540 0.40450 0.21750 0.02600
C 	C 	0.01170 0.18690 0.21560 -0.26700
H 	H 	0.96160 0.19220 0.23950 0.11600
C 	C 	0.19200 0.32690 0.08620 0.10900
H 	H 	0.22370 0.31810 0.04770 -0.01400
C 	C 	0.45030 0.43830 0.19510 -0.19500
H 	H 	0.42590 0.40950 0.22310 0.09700
C 	C 	0.48110 0.27060 0.19650 -0.19600
H 	H 	0.52550 0.26290 0.16740 0.08400
C 	C 	0.28910 0.48760 0.16320 -0.49300
H 	H 	0.28080 0.52610 0.18650 0.17900
H 	H 	0.27740 0.45640 0.19800 0.17600
C 	C 	0.52380 0.52410 0.11240 -0.00500
H 	H 	0.54800 0.55300 0.08430 0.03100
C 	C 	0.38730 0.28630 0.15850 -0.00500
H 	H 	0.36900 0.28810 0.10460 0.02600
O 	O 	0.96576 0.52477 0.80569 -0.62300
H 	H 	0.88000 0.42600 0.02100 0.26000
H 	H 	0.11400 0.43800 0.95400 0.30200
H 	H 	0.92900 0.52600 0.76100 0.22300
Co	Co	0.50000 0.00000 0.50000 1.17600
Co	Co	-0.00000 0.50000 -0.00000 1.16700
