data_crystal

_cell_length_a 11.43260
_cell_length_b 40.44570
_cell_length_c 63.89980
_cell_angle_alpha 90.00000
_cell_angle_beta  90.00000
_cell_angle_gamma 90.00000

_symmetry_space_group_name_	'P 1'
_symmetry_space_group_name_H-M	'P 1'

loop_
_symmetry_equiv_pos_as_xyz
  x,y,z

loop_
_atom_site_label
_atom_site_type_symbol
_atom_site_fract_x
_atom_site_fract_y
_atom_site_fract_z
_atom_site_charge
Zn	Zn	0.45642 0.54002 0.53145 1.21000
O 	O 	0.19130 0.31684 0.76559 -0.37600
O 	O 	0.02440 0.30633 0.75031 -0.40700
O 	O 	0.95610 0.34638 0.67690 -0.39900
O 	O 	0.07250 0.38480 0.66446 -0.36200
O 	O 	0.50990 0.54320 0.57662 -0.30100
O 	O 	0.49640 0.57749 0.54954 -0.43700
N 	N 	0.87810 0.41302 0.63276 -0.26100
N 	N 	0.89270 0.44279 0.60404 -0.15600
N 	N 	0.19000 0.48035 0.55510 -0.15400
N 	N 	0.34690 0.50495 0.54282 -0.25800
N 	N 	0.77870 0.49190 0.53875 -0.15400
N 	N 	0.61270 0.51541 0.52973 -0.25200
C 	C 	0.12580 0.31856 0.75044 0.30200
C 	C 	0.16470 0.33670 0.73062 -0.04700
C 	C 	0.27540 0.35021 0.73034 -0.04200
H 	H 	0.32490 0.34780 0.74220 0.06600
C 	C 	0.31570 0.36754 0.71277 0.01500
C 	C 	0.24270 0.37123 0.69557 -0.03900
H 	H 	0.26930 0.38290 0.68360 0.05900
C 	C 	0.12990 0.35778 0.69597 -0.05600
C 	C 	0.09080 0.34059 0.71341 -0.00500
H 	H 	0.01420 0.33150 0.71360 0.06000
C 	C 	0.04960 0.36340 0.67775 0.29600
C 	C 	0.79720 0.43710 0.63348 0.00500
H 	H 	0.74500 0.44080 0.64480 0.02300
C 	C 	0.80080 0.45540 0.61568 0.00600
H 	H 	0.75060 0.47320 0.61200 0.03500
C 	C 	0.93470 0.41678 0.61486 0.10300
H 	H 	0.99680 0.40300 0.61020 -0.00600
C 	C 	0.92600 0.45508 0.58420 0.21300
C 	C 	0.83790 0.46470 0.57063 -0.25500
H 	H 	0.75800 0.46090 0.57400 0.12600
C 	C 	0.86920 0.48008 0.55203 0.21600
C 	C 	0.98410 0.48481 0.54645 -0.25700
H 	H 	0.00400 0.49500 0.53350 0.12500
C 	C 	0.06990 0.47431 0.56018 0.21200
C 	C 	0.04350 0.45948 0.57929 -0.25000
H 	H 	0.10350 0.45260 0.58860 0.13100
C 	C 	0.28510 0.46082 0.56098 0.01600
H 	H 	0.28320 0.44090 0.56880 0.03700
C 	C 	0.38040 0.47619 0.55320 0.00800
H 	H 	0.45860 0.46850 0.55460 0.02900
C 	C 	0.23170 0.50654 0.54421 0.10400
H 	H 	0.18490 0.52360 0.53840 -0.00400
C 	C 	0.77880 0.49374 0.51707 0.00800
H 	H 	0.83850 0.48640 0.50780 0.03100
C 	C 	0.67650 0.50514 0.54559 0.10100
H 	H 	0.65410 0.50680 0.55990 -0.00200
C 	C 	0.67610 0.50824 0.51181 0.00800
H 	H 	0.65130 0.51280 0.49790 0.00800
C 	C 	0.52310 0.57075 0.56839 0.33300
C 	C 	0.57620 0.59861 0.58068 -0.09500
C 	C 	0.57870 0.59835 0.60227 -0.01200
H 	H 	0.54860 0.57980 0.60960 0.05400
Zn	Zn	0.45642 0.04002 0.03145 1.21000
O 	O 	0.19130 0.81684 0.26559 -0.37600
O 	O 	0.02440 0.80633 0.25031 -0.40700
O 	O 	0.95610 0.84638 0.17690 -0.39900
O 	O 	0.07250 0.88480 0.16446 -0.36200
O 	O 	0.50990 0.04320 0.07662 -0.30100
O 	O 	0.49640 0.07749 0.04954 -0.43700
N 	N 	0.87810 0.91302 0.13276 -0.26100
N 	N 	0.89270 0.94279 0.10404 -0.15600
N 	N 	0.19000 0.98035 0.05510 -0.15400
N 	N 	0.34690 0.00495 0.04282 -0.25800
N 	N 	0.77870 0.99190 0.03875 -0.15400
N 	N 	0.61270 0.01541 0.02973 -0.25200
C 	C 	0.12580 0.81856 0.25044 0.30200
C 	C 	0.16470 0.83670 0.23062 -0.04700
C 	C 	0.27540 0.85021 0.23034 -0.04200
H 	H 	0.32490 0.84780 0.24220 0.06600
C 	C 	0.31570 0.86754 0.21277 0.01500
C 	C 	0.24270 0.87123 0.19557 -0.03900
H 	H 	0.26930 0.88290 0.18360 0.05900
C 	C 	0.12990 0.85778 0.19597 -0.05600
C 	C 	0.09080 0.84059 0.21341 -0.00500
H 	H 	0.01420 0.83150 0.21360 0.06000
C 	C 	0.04960 0.86340 0.17775 0.29600
C 	C 	0.79720 0.93710 0.13348 0.00500
H 	H 	0.74500 0.94080 0.14480 0.02300
C 	C 	0.80080 0.95540 0.11568 0.00600
H 	H 	0.75060 0.97320 0.11200 0.03500
C 	C 	0.93470 0.91678 0.11486 0.10300
H 	H 	0.99680 0.90300 0.11020 -0.00600
C 	C 	0.92600 0.95508 0.08420 0.21300
C 	C 	0.83790 0.96470 0.07063 -0.25500
H 	H 	0.75800 0.96090 0.07400 0.12600
C 	C 	0.86920 0.98008 0.05203 0.21600
C 	C 	0.98410 0.98481 0.04645 -0.25700
H 	H 	0.00400 0.99500 0.03350 0.12500
C 	C 	0.06990 0.97431 0.06018 0.21200
C 	C 	0.04350 0.95948 0.07929 -0.25000
H 	H 	0.10350 0.95260 0.08860 0.13100
C 	C 	0.28510 0.96082 0.06098 0.01600
H 	H 	0.28320 0.94090 0.06880 0.03700
C 	C 	0.38040 0.97619 0.05320 0.00800
H 	H 	0.45860 0.96850 0.05460 0.02900
C 	C 	0.23170 0.00654 0.04421 0.10400
H 	H 	0.18490 0.02360 0.03840 -0.00400
C 	C 	0.77880 0.99374 0.01707 0.00800
H 	H 	0.83850 0.98640 0.00780 0.03100
C 	C 	0.67650 0.00514 0.04559 0.10100
H 	H 	0.65410 0.00680 0.05990 -0.00200
C 	C 	0.67610 0.00824 0.01181 0.00800
H 	H 	0.65130 0.01280 0.99790 0.00800
C 	C 	0.52310 0.07075 0.06839 0.33300
C 	C 	0.57620 0.09861 0.08068 -0.09500
C 	C 	0.57870 0.09835 0.10227 -0.01200
H 	H 	0.54860 0.07980 0.10960 0.05400
Zn	Zn	0.95642 0.54002 0.03145 1.21000
O 	O 	0.69130 0.31684 0.26559 -0.37600
O 	O 	0.52440 0.30633 0.25031 -0.40700
O 	O 	0.45610 0.34638 0.17690 -0.39900
O 	O 	0.57250 0.38480 0.16446 -0.36200
O 	O 	0.00990 0.54320 0.07662 -0.30100
O 	O 	0.99640 0.57749 0.04954 -0.43700
N 	N 	0.37810 0.41302 0.13276 -0.26100
N 	N 	0.39270 0.44279 0.10404 -0.15600
N 	N 	0.69000 0.48035 0.05510 -0.15400
N 	N 	0.84690 0.50495 0.04282 -0.25800
N 	N 	0.27870 0.49190 0.03875 -0.15400
N 	N 	0.11270 0.51541 0.02973 -0.25200
C 	C 	0.62580 0.31856 0.25044 0.30200
C 	C 	0.66470 0.33670 0.23062 -0.04700
C 	C 	0.77540 0.35021 0.23034 -0.04200
H 	H 	0.82490 0.34780 0.24220 0.06600
C 	C 	0.81570 0.36754 0.21277 0.01500
C 	C 	0.74270 0.37123 0.19557 -0.03900
H 	H 	0.76930 0.38290 0.18360 0.05900
C 	C 	0.62990 0.35778 0.19597 -0.05500
C 	C 	0.59080 0.34059 0.21341 -0.00500
H 	H 	0.51420 0.33150 0.21360 0.06000
C 	C 	0.54960 0.36340 0.17775 0.29600
C 	C 	0.29720 0.43710 0.13348 0.00500
H 	H 	0.24500 0.44080 0.14480 0.02300
C 	C 	0.30080 0.45540 0.11568 0.00600
H 	H 	0.25060 0.47320 0.11200 0.03500
C 	C 	0.43470 0.41678 0.11486 0.10300
H 	H 	0.49680 0.40300 0.11020 -0.00600
C 	C 	0.42600 0.45508 0.08420 0.21300
C 	C 	0.33790 0.46470 0.07063 -0.25500
H 	H 	0.25800 0.46090 0.07400 0.12600
C 	C 	0.36920 0.48008 0.05203 0.21600
C 	C 	0.48410 0.48481 0.04645 -0.25700
H 	H 	0.50400 0.49500 0.03350 0.12500
C 	C 	0.56990 0.47431 0.06018 0.21200
C 	C 	0.54350 0.45948 0.07929 -0.25000
H 	H 	0.60350 0.45260 0.08860 0.13100
C 	C 	0.78510 0.46082 0.06098 0.01600
H 	H 	0.78320 0.44090 0.06880 0.03700
C 	C 	0.88040 0.47619 0.05320 0.00800
H 	H 	0.95860 0.46850 0.05460 0.02900
C 	C 	0.73170 0.50654 0.04421 0.10400
H 	H 	0.68490 0.52360 0.03840 -0.00400
C 	C 	0.27880 0.49374 0.01707 0.00800
H 	H 	0.33850 0.48640 0.00780 0.03100
C 	C 	0.17650 0.50514 0.04559 0.10100
H 	H 	0.15410 0.50680 0.05990 -0.00200
C 	C 	0.17610 0.50824 0.01181 0.00800
H 	H 	0.15130 0.51280 0.99790 0.00800
C 	C 	0.02310 0.57075 0.06839 0.33400
C 	C 	0.07620 0.59861 0.08068 -0.09500
C 	C 	0.07870 0.59835 0.10227 -0.01200
H 	H 	0.04860 0.57980 0.10960 0.05400
Zn	Zn	0.95642 0.04002 0.53145 1.21000
O 	O 	0.69130 0.81684 0.76559 -0.37600
O 	O 	0.52440 0.80633 0.75031 -0.40700
O 	O 	0.45610 0.84638 0.67690 -0.39900
O 	O 	0.57250 0.88480 0.66446 -0.36200
O 	O 	0.00990 0.04320 0.57662 -0.30100
O 	O 	0.99640 0.07749 0.54954 -0.43700
N 	N 	0.37810 0.91302 0.63276 -0.26100
N 	N 	0.39270 0.94279 0.60404 -0.15600
N 	N 	0.69000 0.98035 0.55510 -0.15400
N 	N 	0.84690 0.00495 0.54282 -0.25800
N 	N 	0.27870 0.99190 0.53875 -0.15400
N 	N 	0.11270 0.01541 0.52973 -0.25200
C 	C 	0.62580 0.81856 0.75044 0.30200
C 	C 	0.66470 0.83670 0.73062 -0.04700
C 	C 	0.77540 0.85021 0.73034 -0.04200
H 	H 	0.82490 0.84780 0.74220 0.06600
C 	C 	0.81570 0.86754 0.71277 0.01500
C 	C 	0.74270 0.87123 0.69557 -0.03900
H 	H 	0.76930 0.88290 0.68360 0.05900
C 	C 	0.62990 0.85778 0.69597 -0.05500
C 	C 	0.59080 0.84059 0.71341 -0.00500
H 	H 	0.51420 0.83150 0.71360 0.06000
C 	C 	0.54960 0.86340 0.67775 0.29600
C 	C 	0.29720 0.93710 0.63348 0.00500
H 	H 	0.24500 0.94080 0.64480 0.02300
C 	C 	0.30080 0.95540 0.61568 0.00600
H 	H 	0.25060 0.97320 0.61200 0.03500
C 	C 	0.43470 0.91678 0.61486 0.10300
H 	H 	0.49680 0.90300 0.61020 -0.00600
C 	C 	0.42600 0.95508 0.58420 0.21300
C 	C 	0.33790 0.96470 0.57063 -0.25500
H 	H 	0.25800 0.96090 0.57400 0.12600
C 	C 	0.36920 0.98008 0.55203 0.21600
C 	C 	0.48410 0.98481 0.54645 -0.25700
H 	H 	0.50400 0.99500 0.53350 0.12500
C 	C 	0.56990 0.97431 0.56018 0.21200
C 	C 	0.54350 0.95948 0.57929 -0.25000
H 	H 	0.60350 0.95260 0.58860 0.13100
C 	C 	0.78510 0.96082 0.56098 0.01600
H 	H 	0.78320 0.94090 0.56880 0.03700
C 	C 	0.88040 0.97619 0.55320 0.00800
H 	H 	0.95860 0.96850 0.55460 0.02900
C 	C 	0.73170 0.00654 0.54421 0.10400
H 	H 	0.68490 0.02360 0.53840 -0.00400
C 	C 	0.27880 0.99374 0.51707 0.00800
H 	H 	0.33850 0.98640 0.50780 0.03100
C 	C 	0.17650 0.00514 0.54559 0.10100
H 	H 	0.15410 0.00680 0.55990 -0.00200
C 	C 	0.17610 0.00824 0.51181 0.00800
H 	H 	0.15130 0.01280 0.49790 0.00800
C 	C 	0.02310 0.07075 0.56839 0.33400
C 	C 	0.07620 0.09861 0.58068 -0.09500
C 	C 	0.07870 0.09835 0.60227 -0.01200
H 	H 	0.04860 0.07980 0.60960 0.05400
Zn	Zn	0.29358 0.20998 0.53145 1.21000
O 	O 	0.55870 0.43316 0.76559 -0.37600
O 	O 	0.72560 0.44367 0.75031 -0.40700
O 	O 	0.79390 0.40362 0.67690 -0.39900
O 	O 	0.67750 0.36520 0.66446 -0.36200
O 	O 	0.24010 0.20680 0.57662 -0.30100
O 	O 	0.25360 0.17251 0.54954 -0.43700
N 	N 	0.87190 0.33698 0.63276 -0.26100
N 	N 	0.85730 0.30721 0.60404 -0.15600
N 	N 	0.56000 0.26965 0.55510 -0.15400
N 	N 	0.40310 0.24505 0.54282 -0.25800
N 	N 	0.97130 0.25810 0.53875 -0.15400
N 	N 	0.13730 0.23459 0.52973 -0.25200
C 	C 	0.62420 0.43144 0.75044 0.30200
C 	C 	0.58530 0.41330 0.73062 -0.04700
C 	C 	0.47460 0.39979 0.73034 -0.04200
H 	H 	0.42510 0.40220 0.74220 0.06600
C 	C 	0.43430 0.38246 0.71277 0.01500
C 	C 	0.50730 0.37877 0.69557 -0.03900
H 	H 	0.48070 0.36710 0.68360 0.05900
C 	C 	0.62010 0.39222 0.69597 -0.05600
C 	C 	0.65920 0.40941 0.71341 -0.00500
H 	H 	0.73580 0.41850 0.71360 0.06000
C 	C 	0.70040 0.38660 0.67775 0.29600
C 	C 	0.95280 0.31290 0.63348 0.00500
H 	H 	0.00500 0.30920 0.64480 0.02300
C 	C 	0.94920 0.29460 0.61568 0.00600
H 	H 	0.99940 0.27680 0.61200 0.03500
C 	C 	0.81530 0.33322 0.61486 0.10300
H 	H 	0.75320 0.34700 0.61020 -0.00600
C 	C 	0.82400 0.29492 0.58420 0.21300
C 	C 	0.91210 0.28530 0.57063 -0.25500
H 	H 	0.99200 0.28910 0.57400 0.12600
C 	C 	0.88080 0.26992 0.55203 0.21600
C 	C 	0.76590 0.26519 0.54645 -0.25700
H 	H 	0.74600 0.25500 0.53350 0.12500
C 	C 	0.68010 0.27569 0.56018 0.21200
C 	C 	0.70650 0.29052 0.57929 -0.25000
H 	H 	0.64650 0.29740 0.58860 0.13100
C 	C 	0.46490 0.28918 0.56098 0.01600
H 	H 	0.46680 0.30910 0.56880 0.03700
C 	C 	0.36960 0.27381 0.55320 0.00800
H 	H 	0.29140 0.28150 0.55460 0.02900
C 	C 	0.51830 0.24346 0.54421 0.10400
H 	H 	0.56510 0.22640 0.53840 -0.00400
C 	C 	0.97120 0.25626 0.51707 0.00800
H 	H 	0.91150 0.26360 0.50780 0.03200
C 	C 	0.07350 0.24486 0.54559 0.10200
H 	H 	0.09590 0.24320 0.55990 -0.00200
C 	C 	0.07390 0.24176 0.51181 0.00800
H 	H 	0.09870 0.23720 0.49790 0.00800
C 	C 	0.22690 0.17925 0.56839 0.33300
C 	C 	0.17380 0.15139 0.58068 -0.09400
C 	C 	0.17130 0.15165 0.60227 -0.01200
H 	H 	0.20140 0.17020 0.60960 0.05400
Zn	Zn	0.29358 0.70998 0.03145 1.21000
O 	O 	0.55870 0.93316 0.26559 -0.37600
O 	O 	0.72560 0.94367 0.25031 -0.40700
O 	O 	0.79390 0.90362 0.17690 -0.39900
O 	O 	0.67750 0.86520 0.16446 -0.36200
O 	O 	0.24010 0.70680 0.07662 -0.30100
O 	O 	0.25360 0.67251 0.04954 -0.43700
N 	N 	0.87190 0.83698 0.13276 -0.26100
N 	N 	0.85730 0.80721 0.10404 -0.15600
N 	N 	0.56000 0.76965 0.05510 -0.15400
N 	N 	0.40310 0.74505 0.04282 -0.25800
N 	N 	0.97130 0.75810 0.03875 -0.15400
N 	N 	0.13730 0.73459 0.02973 -0.25200
C 	C 	0.62420 0.93144 0.25044 0.30200
C 	C 	0.58530 0.91330 0.23062 -0.04700
C 	C 	0.47460 0.89979 0.23034 -0.04200
H 	H 	0.42510 0.90220 0.24220 0.06600
C 	C 	0.43430 0.88246 0.21277 0.01500
C 	C 	0.50730 0.87877 0.19557 -0.03900
H 	H 	0.48070 0.86710 0.18360 0.05900
C 	C 	0.62010 0.89222 0.19597 -0.05600
C 	C 	0.65920 0.90941 0.21341 -0.00500
H 	H 	0.73580 0.91850 0.21360 0.06000
C 	C 	0.70040 0.88660 0.17775 0.29600
C 	C 	0.95280 0.81290 0.13348 0.00500
H 	H 	0.00500 0.80920 0.14480 0.02300
C 	C 	0.94920 0.79460 0.11568 0.00600
H 	H 	0.99940 0.77680 0.11200 0.03500
C 	C 	0.81530 0.83322 0.11486 0.10300
H 	H 	0.75320 0.84700 0.11020 -0.00600
C 	C 	0.82400 0.79492 0.08420 0.21300
C 	C 	0.91210 0.78530 0.07063 -0.25500
H 	H 	0.99200 0.78910 0.07400 0.12600
C 	C 	0.88080 0.76992 0.05203 0.21600
C 	C 	0.76590 0.76519 0.04645 -0.25700
H 	H 	0.74600 0.75500 0.03350 0.12500
C 	C 	0.68010 0.77569 0.06018 0.21200
C 	C 	0.70650 0.79052 0.07929 -0.25000
H 	H 	0.64650 0.79740 0.08860 0.13100
C 	C 	0.46490 0.78918 0.06098 0.01600
H 	H 	0.46680 0.80910 0.06880 0.03700
C 	C 	0.36960 0.77381 0.05320 0.00800
H 	H 	0.29140 0.78150 0.05460 0.02900
C 	C 	0.51830 0.74346 0.04421 0.10400
H 	H 	0.56510 0.72640 0.03840 -0.00400
C 	C 	0.97120 0.75626 0.01707 0.00800
H 	H 	0.91150 0.76360 0.00780 0.03200
C 	C 	0.07350 0.74486 0.04559 0.10200
H 	H 	0.09590 0.74320 0.05990 -0.00200
C 	C 	0.07390 0.74176 0.01181 0.00800
H 	H 	0.09870 0.73720 0.99790 0.00800
C 	C 	0.22690 0.67925 0.06839 0.33300
C 	C 	0.17380 0.65139 0.08068 -0.09400
C 	C 	0.17130 0.65165 0.10227 -0.01200
H 	H 	0.20140 0.67020 0.10960 0.05400
Zn	Zn	0.79358 0.20998 0.03145 1.21000
O 	O 	0.05870 0.43316 0.26559 -0.37600
O 	O 	0.22560 0.44367 0.25031 -0.40700
O 	O 	0.29390 0.40362 0.17690 -0.39900
O 	O 	0.17750 0.36520 0.16446 -0.36200
O 	O 	0.74010 0.20680 0.07662 -0.30100
O 	O 	0.75360 0.17251 0.04954 -0.43700
N 	N 	0.37190 0.33698 0.13276 -0.26100
N 	N 	0.35730 0.30721 0.10404 -0.15600
N 	N 	0.06000 0.26965 0.05510 -0.15400
N 	N 	0.90310 0.24505 0.04282 -0.25800
N 	N 	0.47130 0.25810 0.03875 -0.15400
N 	N 	0.63730 0.23459 0.02973 -0.25200
C 	C 	0.12420 0.43144 0.25044 0.30200
C 	C 	0.08530 0.41330 0.23062 -0.04700
C 	C 	0.97460 0.39979 0.23034 -0.04200
H 	H 	0.92510 0.40220 0.24220 0.06600
C 	C 	0.93430 0.38246 0.21277 0.01400
C 	C 	0.00730 0.37877 0.19557 -0.03800
H 	H 	0.98070 0.36710 0.18360 0.05800
C 	C 	0.12010 0.39222 0.19597 -0.05600
C 	C 	0.15920 0.40941 0.21341 -0.00500
H 	H 	0.23580 0.41850 0.21360 0.06000
C 	C 	0.20040 0.38660 0.17775 0.29600
C 	C 	0.45280 0.31290 0.13348 0.00500
H 	H 	0.50500 0.30920 0.14480 0.02300
C 	C 	0.44920 0.29460 0.11568 0.00600
H 	H 	0.49940 0.27680 0.11200 0.03500
C 	C 	0.31530 0.33322 0.11486 0.10300
H 	H 	0.25320 0.34700 0.11020 -0.00600
C 	C 	0.32400 0.29492 0.08420 0.21300
C 	C 	0.41210 0.28530 0.07063 -0.25500
H 	H 	0.49200 0.28910 0.07400 0.12600
C 	C 	0.38080 0.26992 0.05203 0.21600
C 	C 	0.26590 0.26519 0.04645 -0.25700
H 	H 	0.24600 0.25500 0.03350 0.12500
C 	C 	0.18010 0.27569 0.06018 0.21200
C 	C 	0.20650 0.29052 0.07929 -0.25000
H 	H 	0.14650 0.29740 0.08860 0.13100
C 	C 	0.96490 0.28918 0.06098 0.01600
H 	H 	0.96680 0.30910 0.06880 0.03700
C 	C 	0.86960 0.27381 0.05320 0.00800
H 	H 	0.79140 0.28150 0.05460 0.02900
C 	C 	0.01830 0.24346 0.04421 0.10400
H 	H 	0.06510 0.22640 0.03840 -0.00400
C 	C 	0.47120 0.25626 0.01707 0.00800
H 	H 	0.41150 0.26360 0.00780 0.03100
C 	C 	0.57350 0.24486 0.04559 0.10100
H 	H 	0.59590 0.24320 0.05990 -0.00200
C 	C 	0.57390 0.24176 0.01181 0.00800
H 	H 	0.59870 0.23720 0.99790 0.00800
C 	C 	0.72690 0.17925 0.06839 0.33300
C 	C 	0.67380 0.15139 0.08068 -0.09500
C 	C 	0.67130 0.15165 0.10227 -0.01200
H 	H 	0.70140 0.17020 0.10960 0.05400
Zn	Zn	0.79358 0.70998 0.53145 1.21000
O 	O 	0.05870 0.93316 0.76559 -0.37600
O 	O 	0.22560 0.94367 0.75031 -0.40700
O 	O 	0.29390 0.90362 0.67690 -0.39900
O 	O 	0.17750 0.86520 0.66446 -0.36200
O 	O 	0.74010 0.70680 0.57662 -0.30100
O 	O 	0.75360 0.67251 0.54954 -0.43700
N 	N 	0.37190 0.83698 0.63276 -0.26100
N 	N 	0.35730 0.80721 0.60404 -0.15600
N 	N 	0.06000 0.76965 0.55510 -0.15400
N 	N 	0.90310 0.74505 0.54282 -0.25800
N 	N 	0.47130 0.75810 0.53875 -0.15400
N 	N 	0.63730 0.73459 0.52973 -0.25200
C 	C 	0.12420 0.93144 0.75044 0.30200
C 	C 	0.08530 0.91330 0.73062 -0.04700
C 	C 	0.97460 0.89979 0.73034 -0.04200
H 	H 	0.92510 0.90220 0.74220 0.06600
C 	C 	0.93430 0.88246 0.71277 0.01400
C 	C 	0.00730 0.87877 0.69557 -0.03800
H 	H 	0.98070 0.86710 0.68360 0.05800
C 	C 	0.12010 0.89222 0.69597 -0.05600
C 	C 	0.15920 0.90941 0.71341 -0.00500
H 	H 	0.23580 0.91850 0.71360 0.06000
C 	C 	0.20040 0.88660 0.67775 0.29600
C 	C 	0.45280 0.81290 0.63348 0.00500
H 	H 	0.50500 0.80920 0.64480 0.02300
C 	C 	0.44920 0.79460 0.61568 0.00600
H 	H 	0.49940 0.77680 0.61200 0.03500
C 	C 	0.31530 0.83322 0.61486 0.10300
H 	H 	0.25320 0.84700 0.61020 -0.00600
C 	C 	0.32400 0.79492 0.58420 0.21300
C 	C 	0.41210 0.78530 0.57063 -0.25500
H 	H 	0.49200 0.78910 0.57400 0.12600
C 	C 	0.38080 0.76992 0.55203 0.21600
C 	C 	0.26590 0.76519 0.54645 -0.25700
H 	H 	0.24600 0.75500 0.53350 0.12500
C 	C 	0.18010 0.77569 0.56018 0.21200
C 	C 	0.20650 0.79052 0.57929 -0.25000
H 	H 	0.14650 0.79740 0.58860 0.13100
C 	C 	0.96490 0.78918 0.56098 0.01600
H 	H 	0.96680 0.80910 0.56880 0.03700
C 	C 	0.86960 0.77381 0.55320 0.00800
H 	H 	0.79140 0.78150 0.55460 0.02900
C 	C 	0.01830 0.74346 0.54421 0.10400
H 	H 	0.06510 0.72640 0.53840 -0.00400
C 	C 	0.47120 0.75626 0.51707 0.00800
H 	H 	0.41150 0.76360 0.50780 0.03100
C 	C 	0.57350 0.74486 0.54559 0.10100
H 	H 	0.59590 0.74320 0.55990 -0.00200
C 	C 	0.57390 0.74176 0.51181 0.00800
H 	H 	0.59870 0.73720 0.49790 0.00800
C 	C 	0.72690 0.67925 0.56839 0.33300
C 	C 	0.67380 0.65139 0.58068 -0.09500
C 	C 	0.67130 0.65165 0.60227 -0.01200
H 	H 	0.70140 0.67020 0.60960 0.05400
Zn	Zn	0.29358 0.54002 0.21855 1.21000
O 	O 	0.55870 0.31684 0.98441 -0.37600
O 	O 	0.72560 0.30633 0.99969 -0.40700
O 	O 	0.79390 0.34638 0.07310 -0.39900
O 	O 	0.67750 0.38480 0.08554 -0.36200
O 	O 	0.24010 0.54320 0.17338 -0.30100
O 	O 	0.25360 0.57749 0.20046 -0.43700
N 	N 	0.87190 0.41302 0.11724 -0.26100
N 	N 	0.85730 0.44279 0.14596 -0.15600
N 	N 	0.56000 0.48035 0.19490 -0.15400
N 	N 	0.40310 0.50495 0.20718 -0.25800
N 	N 	0.97130 0.49190 0.21125 -0.15400
N 	N 	0.13730 0.51541 0.22027 -0.25200
C 	C 	0.62420 0.31856 0.99956 0.30200
C 	C 	0.58530 0.33670 0.01938 -0.04700
C 	C 	0.47460 0.35021 0.01966 -0.04200
H 	H 	0.42510 0.34780 0.00780 0.06600
C 	C 	0.43430 0.36754 0.03723 0.01500
C 	C 	0.50730 0.37123 0.05443 -0.03900
H 	H 	0.48070 0.38290 0.06640 0.05900
C 	C 	0.62010 0.35778 0.05403 -0.05600
C 	C 	0.65920 0.34059 0.03659 -0.00500
H 	H 	0.73580 0.33150 0.03640 0.06000
C 	C 	0.70040 0.36340 0.07225 0.29600
C 	C 	0.95280 0.43710 0.11652 0.00500
H 	H 	0.00500 0.44080 0.10520 0.02300
C 	C 	0.94920 0.45540 0.13432 0.00600
H 	H 	0.99940 0.47320 0.13800 0.03500
C 	C 	0.81530 0.41678 0.13514 0.10300
H 	H 	0.75320 0.40300 0.13980 -0.00600
C 	C 	0.82400 0.45508 0.16580 0.21300
C 	C 	0.91210 0.46470 0.17937 -0.25500
H 	H 	0.99200 0.46090 0.17600 0.12600
C 	C 	0.88080 0.48008 0.19797 0.21600
C 	C 	0.76590 0.48481 0.20355 -0.25700
H 	H 	0.74600 0.49500 0.21650 0.12500
C 	C 	0.68010 0.47431 0.18982 0.21200
C 	C 	0.70650 0.45948 0.17071 -0.25000
H 	H 	0.64650 0.45260 0.16140 0.13100
C 	C 	0.46490 0.46082 0.18902 0.01600
H 	H 	0.46680 0.44090 0.18120 0.03700
C 	C 	0.36960 0.47619 0.19680 0.00800
H 	H 	0.29140 0.46850 0.19540 0.02900
C 	C 	0.51830 0.50654 0.20579 0.10400
H 	H 	0.56510 0.52360 0.21160 -0.00400
C 	C 	0.97120 0.49374 0.23293 0.00800
H 	H 	0.91150 0.48640 0.24220 0.03200
C 	C 	0.07350 0.50514 0.20441 0.10200
H 	H 	0.09590 0.50680 0.19010 -0.00200
C 	C 	0.07390 0.50824 0.23819 0.00800
H 	H 	0.09870 0.51280 0.25210 0.00800
C 	C 	0.22690 0.57075 0.18161 0.33300
C 	C 	0.17380 0.59861 0.16932 -0.09400
C 	C 	0.17130 0.59835 0.14773 -0.01200
H 	H 	0.20140 0.57980 0.14040 0.05400
Zn	Zn	0.29358 0.04002 0.71855 1.21000
O 	O 	0.55870 0.81684 0.48441 -0.37600
O 	O 	0.72560 0.80633 0.49969 -0.40700
O 	O 	0.79390 0.84638 0.57310 -0.39900
O 	O 	0.67750 0.88480 0.58554 -0.36200
O 	O 	0.24010 0.04320 0.67338 -0.30100
O 	O 	0.25360 0.07749 0.70046 -0.43700
N 	N 	0.87190 0.91302 0.61724 -0.26100
N 	N 	0.85730 0.94279 0.64596 -0.15600
N 	N 	0.56000 0.98035 0.69490 -0.15400
N 	N 	0.40310 0.00495 0.70718 -0.25800
N 	N 	0.97130 0.99190 0.71125 -0.15400
N 	N 	0.13730 0.01541 0.72027 -0.25200
C 	C 	0.62420 0.81856 0.49956 0.30200
C 	C 	0.58530 0.83670 0.51938 -0.04700
C 	C 	0.47460 0.85021 0.51966 -0.04200
H 	H 	0.42510 0.84780 0.50780 0.06600
C 	C 	0.43430 0.86754 0.53723 0.01500
C 	C 	0.50730 0.87123 0.55443 -0.03900
H 	H 	0.48070 0.88290 0.56640 0.05900
C 	C 	0.62010 0.85778 0.55403 -0.05600
C 	C 	0.65920 0.84059 0.53659 -0.00500
H 	H 	0.73580 0.83150 0.53640 0.06000
C 	C 	0.70040 0.86340 0.57225 0.29600
C 	C 	0.95280 0.93710 0.61652 0.00500
H 	H 	0.00500 0.94080 0.60520 0.02300
C 	C 	0.94920 0.95540 0.63432 0.00600
H 	H 	0.99940 0.97320 0.63800 0.03500
C 	C 	0.81530 0.91678 0.63514 0.10300
H 	H 	0.75320 0.90300 0.63980 -0.00600
C 	C 	0.82400 0.95508 0.66580 0.21300
C 	C 	0.91210 0.96470 0.67937 -0.25500
H 	H 	0.99200 0.96090 0.67600 0.12600
C 	C 	0.88080 0.98008 0.69797 0.21600
C 	C 	0.76590 0.98481 0.70355 -0.25700
H 	H 	0.74600 0.99500 0.71650 0.12500
C 	C 	0.68010 0.97431 0.68982 0.21200
C 	C 	0.70650 0.95948 0.67071 -0.25000
H 	H 	0.64650 0.95260 0.66140 0.13100
C 	C 	0.46490 0.96082 0.68902 0.01600
H 	H 	0.46680 0.94090 0.68120 0.03700
C 	C 	0.36960 0.97619 0.69680 0.00800
H 	H 	0.29140 0.96850 0.69540 0.02900
C 	C 	0.51830 0.00654 0.70579 0.10400
H 	H 	0.56510 0.02360 0.71160 -0.00400
C 	C 	0.97120 0.99374 0.73293 0.00800
H 	H 	0.91150 0.98640 0.74220 0.03200
C 	C 	0.07350 0.00514 0.70441 0.10200
H 	H 	0.09590 0.00680 0.69010 -0.00200
C 	C 	0.07390 0.00824 0.73819 0.00800
H 	H 	0.09870 0.01280 0.75210 0.00800
C 	C 	0.22690 0.07075 0.68161 0.33300
C 	C 	0.17380 0.09861 0.66932 -0.09400
C 	C 	0.17130 0.09835 0.64773 -0.01200
H 	H 	0.20140 0.07980 0.64040 0.05400
Zn	Zn	0.79358 0.54002 0.71855 1.21000
O 	O 	0.05870 0.31684 0.48441 -0.37600
O 	O 	0.22560 0.30633 0.49969 -0.40700
O 	O 	0.29390 0.34638 0.57310 -0.39900
O 	O 	0.17750 0.38480 0.58554 -0.36200
O 	O 	0.74010 0.54320 0.67338 -0.30100
O 	O 	0.75360 0.57749 0.70046 -0.43700
N 	N 	0.37190 0.41302 0.61724 -0.26100
N 	N 	0.35730 0.44279 0.64596 -0.15600
N 	N 	0.06000 0.48035 0.69490 -0.15400
N 	N 	0.90310 0.50495 0.70718 -0.25800
N 	N 	0.47130 0.49190 0.71125 -0.15400
N 	N 	0.63730 0.51541 0.72027 -0.25200
C 	C 	0.12420 0.31856 0.49956 0.30200
C 	C 	0.08530 0.33670 0.51938 -0.04700
C 	C 	0.97460 0.35021 0.51966 -0.04200
H 	H 	0.92510 0.34780 0.50780 0.06600
C 	C 	0.93430 0.36754 0.53723 0.01400
C 	C 	0.00730 0.37123 0.55443 -0.03800
H 	H 	0.98070 0.38290 0.56640 0.05800
C 	C 	0.12010 0.35778 0.55403 -0.05600
C 	C 	0.15920 0.34059 0.53659 -0.00500
H 	H 	0.23580 0.33150 0.53640 0.06000
C 	C 	0.20040 0.36340 0.57225 0.29600
C 	C 	0.45280 0.43710 0.61652 0.00500
H 	H 	0.50500 0.44080 0.60520 0.02300
C 	C 	0.44920 0.45540 0.63432 0.00600
H 	H 	0.49940 0.47320 0.63800 0.03500
C 	C 	0.31530 0.41678 0.63514 0.10300
H 	H 	0.25320 0.40300 0.63980 -0.00600
C 	C 	0.32400 0.45508 0.66580 0.21300
C 	C 	0.41210 0.46470 0.67937 -0.25500
H 	H 	0.49200 0.46090 0.67600 0.12600
C 	C 	0.38080 0.48008 0.69797 0.21600
C 	C 	0.26590 0.48481 0.70355 -0.25700
H 	H 	0.24600 0.49500 0.71650 0.12500
C 	C 	0.18010 0.47431 0.68982 0.21200
C 	C 	0.20650 0.45948 0.67071 -0.25000
H 	H 	0.14650 0.45260 0.66140 0.13100
C 	C 	0.96490 0.46082 0.68902 0.01600
H 	H 	0.96680 0.44090 0.68120 0.03700
C 	C 	0.86960 0.47619 0.69680 0.00800
H 	H 	0.79140 0.46850 0.69540 0.02900
C 	C 	0.01830 0.50654 0.70579 0.10400
H 	H 	0.06510 0.52360 0.71160 -0.00400
C 	C 	0.47120 0.49374 0.73293 0.00800
H 	H 	0.41150 0.48640 0.74220 0.03100
C 	C 	0.57350 0.50514 0.70441 0.10100
H 	H 	0.59590 0.50680 0.69010 -0.00200
C 	C 	0.57390 0.50824 0.73819 0.00800
H 	H 	0.59870 0.51280 0.75210 0.00800
C 	C 	0.72690 0.57075 0.68161 0.33300
C 	C 	0.67380 0.59861 0.66932 -0.09500
C 	C 	0.67130 0.59835 0.64773 -0.01200
H 	H 	0.70140 0.57980 0.64040 0.05400
Zn	Zn	0.79358 0.04002 0.21855 1.21000
O 	O 	0.05870 0.81684 0.98441 -0.37600
O 	O 	0.22560 0.80633 0.99969 -0.40700
O 	O 	0.29390 0.84638 0.07310 -0.39900
O 	O 	0.17750 0.88480 0.08554 -0.36200
O 	O 	0.74010 0.04320 0.17338 -0.30100
O 	O 	0.75360 0.07749 0.20046 -0.43700
N 	N 	0.37190 0.91302 0.11724 -0.26100
N 	N 	0.35730 0.94279 0.14596 -0.15600
N 	N 	0.06000 0.98035 0.19490 -0.15400
N 	N 	0.90310 0.00495 0.20718 -0.25800
N 	N 	0.47130 0.99190 0.21125 -0.15400
N 	N 	0.63730 0.01541 0.22027 -0.25200
C 	C 	0.12420 0.81856 0.99956 0.30200
C 	C 	0.08530 0.83670 0.01938 -0.04700
C 	C 	0.97460 0.85021 0.01966 -0.04200
H 	H 	0.92510 0.84780 0.00780 0.06600
C 	C 	0.93430 0.86754 0.03723 0.01400
C 	C 	0.00730 0.87123 0.05443 -0.03800
H 	H 	0.98070 0.88290 0.06640 0.05800
C 	C 	0.12010 0.85778 0.05403 -0.05600
C 	C 	0.15920 0.84059 0.03659 -0.00500
H 	H 	0.23580 0.83150 0.03640 0.06000
C 	C 	0.20040 0.86340 0.07225 0.29600
C 	C 	0.45280 0.93710 0.11652 0.00500
H 	H 	0.50500 0.94080 0.10520 0.02300
C 	C 	0.44920 0.95540 0.13432 0.00600
H 	H 	0.49940 0.97320 0.13800 0.03500
C 	C 	0.31530 0.91678 0.13514 0.10300
H 	H 	0.25320 0.90300 0.13980 -0.00600
C 	C 	0.32400 0.95508 0.16580 0.21300
C 	C 	0.41210 0.96470 0.17937 -0.25500
H 	H 	0.49200 0.96090 0.17600 0.12600
C 	C 	0.38080 0.98008 0.19797 0.21600
C 	C 	0.26590 0.98481 0.20355 -0.25700
H 	H 	0.24600 0.99500 0.21650 0.12500
C 	C 	0.18010 0.97431 0.18982 0.21200
C 	C 	0.20650 0.95948 0.17071 -0.25000
H 	H 	0.14650 0.95260 0.16140 0.13100
C 	C 	0.96490 0.96082 0.18902 0.01600
H 	H 	0.96680 0.94090 0.18120 0.03700
C 	C 	0.86960 0.97619 0.19680 0.00800
H 	H 	0.79140 0.96850 0.19540 0.02900
C 	C 	0.01830 0.00654 0.20579 0.10400
H 	H 	0.06510 0.02360 0.21160 -0.00400
C 	C 	0.47120 0.99374 0.23293 0.00800
H 	H 	0.41150 0.98640 0.24220 0.03100
C 	C 	0.57350 0.00514 0.20441 0.10100
H 	H 	0.59590 0.00680 0.19010 -0.00200
C 	C 	0.57390 0.00824 0.23819 0.00800
H 	H 	0.59870 0.01280 0.25210 0.00800
C 	C 	0.72690 0.07075 0.18161 0.33300
C 	C 	0.67380 0.09861 0.16932 -0.09500
C 	C 	0.67130 0.09835 0.14773 -0.01200
H 	H 	0.70140 0.07980 0.14040 0.05400
Zn	Zn	0.45642 0.20998 0.21855 1.21000
O 	O 	0.19130 0.43316 0.98441 -0.37600
O 	O 	0.02440 0.44367 0.99969 -0.40700
O 	O 	0.95610 0.40362 0.07310 -0.39900
O 	O 	0.07250 0.36520 0.08554 -0.36200
O 	O 	0.50990 0.20680 0.17338 -0.30100
O 	O 	0.49640 0.17251 0.20046 -0.43700
N 	N 	0.87810 0.33698 0.11724 -0.26100
N 	N 	0.89270 0.30721 0.14596 -0.15600
N 	N 	0.19000 0.26965 0.19490 -0.15400
N 	N 	0.34690 0.24505 0.20718 -0.25800
N 	N 	0.77870 0.25810 0.21125 -0.15400
N 	N 	0.61270 0.23459 0.22027 -0.25200
C 	C 	0.12580 0.43144 0.99956 0.30200
C 	C 	0.16470 0.41330 0.01938 -0.04700
C 	C 	0.27540 0.39979 0.01966 -0.04200
H 	H 	0.32490 0.40220 0.00780 0.06600
C 	C 	0.31570 0.38246 0.03723 0.01500
C 	C 	0.24270 0.37877 0.05443 -0.03900
H 	H 	0.26930 0.36710 0.06640 0.05900
C 	C 	0.12990 0.39222 0.05403 -0.05600
C 	C 	0.09080 0.40941 0.03659 -0.00500
H 	H 	0.01420 0.41850 0.03640 0.06000
C 	C 	0.04960 0.38660 0.07225 0.29600
C 	C 	0.79720 0.31290 0.11652 0.00500
H 	H 	0.74500 0.30920 0.10520 0.02300
C 	C 	0.80080 0.29460 0.13432 0.00600
H 	H 	0.75060 0.27680 0.13800 0.03500
C 	C 	0.93470 0.33322 0.13514 0.10300
H 	H 	0.99680 0.34700 0.13980 -0.00600
C 	C 	0.92600 0.29492 0.16580 0.21300
C 	C 	0.83790 0.28530 0.17937 -0.25500
H 	H 	0.75800 0.28910 0.17600 0.12600
C 	C 	0.86920 0.26992 0.19797 0.21600
C 	C 	0.98410 0.26519 0.20355 -0.25700
H 	H 	0.00400 0.25500 0.21650 0.12500
C 	C 	0.06990 0.27569 0.18982 0.21200
C 	C 	0.04350 0.29052 0.17071 -0.25000
H 	H 	0.10350 0.29740 0.16140 0.13100
C 	C 	0.28510 0.28918 0.18902 0.01600
H 	H 	0.28320 0.30910 0.18120 0.03700
C 	C 	0.38040 0.27381 0.19680 0.00800
H 	H 	0.45860 0.28150 0.19540 0.02900
C 	C 	0.23170 0.24346 0.20579 0.10400
H 	H 	0.18490 0.22640 0.21160 -0.00400
C 	C 	0.77880 0.25626 0.23293 0.00800
H 	H 	0.83850 0.26360 0.24220 0.03100
C 	C 	0.67650 0.24486 0.20441 0.10100
H 	H 	0.65410 0.24320 0.19010 -0.00200
C 	C 	0.67610 0.24176 0.23819 0.00800
H 	H 	0.65130 0.23720 0.25210 0.00800
C 	C 	0.52310 0.17925 0.18161 0.33300
C 	C 	0.57620 0.15139 0.16932 -0.09500
C 	C 	0.57870 0.15165 0.14773 -0.01200
H 	H 	0.54860 0.17020 0.14040 0.05400
Zn	Zn	0.45642 0.70998 0.71855 1.21000
O 	O 	0.19130 0.93316 0.48441 -0.37600
O 	O 	0.02440 0.94367 0.49969 -0.40700
O 	O 	0.95610 0.90362 0.57310 -0.39900
O 	O 	0.07250 0.86520 0.58554 -0.36200
O 	O 	0.50990 0.70680 0.67338 -0.30100
O 	O 	0.49640 0.67251 0.70046 -0.43700
N 	N 	0.87810 0.83698 0.61724 -0.26100
N 	N 	0.89270 0.80721 0.64596 -0.15600
N 	N 	0.19000 0.76965 0.69490 -0.15400
N 	N 	0.34690 0.74505 0.70718 -0.25800
N 	N 	0.77870 0.75810 0.71125 -0.15400
N 	N 	0.61270 0.73459 0.72027 -0.25200
C 	C 	0.12580 0.93144 0.49956 0.30200
C 	C 	0.16470 0.91330 0.51938 -0.04700
C 	C 	0.27540 0.89979 0.51966 -0.04200
H 	H 	0.32490 0.90220 0.50780 0.06600
C 	C 	0.31570 0.88246 0.53723 0.01500
C 	C 	0.24270 0.87877 0.55443 -0.03900
H 	H 	0.26930 0.86710 0.56640 0.05900
C 	C 	0.12990 0.89222 0.55403 -0.05600
C 	C 	0.09080 0.90941 0.53659 -0.00500
H 	H 	0.01420 0.91850 0.53640 0.06000
C 	C 	0.04960 0.88660 0.57225 0.29600
C 	C 	0.79720 0.81290 0.61652 0.00500
H 	H 	0.74500 0.80920 0.60520 0.02300
C 	C 	0.80080 0.79460 0.63432 0.00600
H 	H 	0.75060 0.77680 0.63800 0.03500
C 	C 	0.93470 0.83322 0.63514 0.10300
H 	H 	0.99680 0.84700 0.63980 -0.00600
C 	C 	0.92600 0.79492 0.66580 0.21300
C 	C 	0.83790 0.78530 0.67937 -0.25500
H 	H 	0.75800 0.78910 0.67600 0.12600
C 	C 	0.86920 0.76992 0.69797 0.21600
C 	C 	0.98410 0.76519 0.70355 -0.25700
H 	H 	0.00400 0.75500 0.71650 0.12500
C 	C 	0.06990 0.77569 0.68982 0.21200
C 	C 	0.04350 0.79052 0.67071 -0.25000
H 	H 	0.10350 0.79740 0.66140 0.13100
C 	C 	0.28510 0.78918 0.68902 0.01600
H 	H 	0.28320 0.80910 0.68120 0.03700
C 	C 	0.38040 0.77381 0.69680 0.00800
H 	H 	0.45860 0.78150 0.69540 0.02900
C 	C 	0.23170 0.74346 0.70579 0.10400
H 	H 	0.18490 0.72640 0.71160 -0.00400
C 	C 	0.77880 0.75626 0.73293 0.00800
H 	H 	0.83850 0.76360 0.74220 0.03100
C 	C 	0.67650 0.74486 0.70441 0.10100
H 	H 	0.65410 0.74320 0.69010 -0.00200
C 	C 	0.67610 0.74176 0.73819 0.00800
H 	H 	0.65130 0.73720 0.75210 0.00800
C 	C 	0.52310 0.67925 0.68161 0.33300
C 	C 	0.57620 0.65139 0.66932 -0.09500
C 	C 	0.57870 0.65165 0.64773 -0.01200
H 	H 	0.54860 0.67020 0.64040 0.05400
Zn	Zn	0.95642 0.20998 0.71855 1.21000
O 	O 	0.69130 0.43316 0.48441 -0.37600
O 	O 	0.52440 0.44367 0.49969 -0.40700
O 	O 	0.45610 0.40362 0.57310 -0.39900
O 	O 	0.57250 0.36520 0.58554 -0.36200
O 	O 	0.00990 0.20680 0.67338 -0.30100
O 	O 	0.99640 0.17251 0.70046 -0.43700
N 	N 	0.37810 0.33698 0.61724 -0.26100
N 	N 	0.39270 0.30721 0.64596 -0.15600
N 	N 	0.69000 0.26965 0.69490 -0.15400
N 	N 	0.84690 0.24505 0.70718 -0.25800
N 	N 	0.27870 0.25810 0.71125 -0.15400
N 	N 	0.11270 0.23459 0.72027 -0.25200
C 	C 	0.62580 0.43144 0.49956 0.30200
C 	C 	0.66470 0.41330 0.51938 -0.04700
C 	C 	0.77540 0.39979 0.51966 -0.04200
H 	H 	0.82490 0.40220 0.50780 0.06600
C 	C 	0.81570 0.38246 0.53723 0.01500
C 	C 	0.74270 0.37877 0.55443 -0.03900
H 	H 	0.76930 0.36710 0.56640 0.05900
C 	C 	0.62990 0.39222 0.55403 -0.05500
C 	C 	0.59080 0.40941 0.53659 -0.00500
H 	H 	0.51420 0.41850 0.53640 0.06000
C 	C 	0.54960 0.38660 0.57225 0.29600
C 	C 	0.29720 0.31290 0.61652 0.00500
H 	H 	0.24500 0.30920 0.60520 0.02300
C 	C 	0.30080 0.29460 0.63432 0.00600
H 	H 	0.25060 0.27680 0.63800 0.03500
C 	C 	0.43470 0.33322 0.63514 0.10300
H 	H 	0.49680 0.34700 0.63980 -0.00600
C 	C 	0.42600 0.29492 0.66580 0.21300
C 	C 	0.33790 0.28530 0.67937 -0.25500
H 	H 	0.25800 0.28910 0.67600 0.12600
C 	C 	0.36920 0.26992 0.69797 0.21600
C 	C 	0.48410 0.26519 0.70355 -0.25700
H 	H 	0.50400 0.25500 0.71650 0.12500
C 	C 	0.56990 0.27569 0.68982 0.21200
C 	C 	0.54350 0.29052 0.67071 -0.25000
H 	H 	0.60350 0.29740 0.66140 0.13100
C 	C 	0.78510 0.28918 0.68902 0.01600
H 	H 	0.78320 0.30910 0.68120 0.03700
C 	C 	0.88040 0.27381 0.69680 0.00800
H 	H 	0.95860 0.28150 0.69540 0.02900
C 	C 	0.73170 0.24346 0.70579 0.10400
H 	H 	0.68490 0.22640 0.71160 -0.00400
C 	C 	0.27880 0.25626 0.73293 0.00800
H 	H 	0.33850 0.26360 0.74220 0.03100
C 	C 	0.17650 0.24486 0.70441 0.10100
H 	H 	0.15410 0.24320 0.69010 -0.00200
C 	C 	0.17610 0.24176 0.73819 0.00800
H 	H 	0.15130 0.23720 0.75210 0.00800
C 	C 	0.02310 0.17925 0.68161 0.33400
C 	C 	0.07620 0.15139 0.66932 -0.09500
C 	C 	0.07870 0.15165 0.64773 -0.01200
H 	H 	0.04860 0.17020 0.64040 0.05400
Zn	Zn	0.95642 0.70998 0.21855 1.21000
O 	O 	0.69130 0.93316 0.98441 -0.37600
O 	O 	0.52440 0.94367 0.99969 -0.40700
O 	O 	0.45610 0.90362 0.07310 -0.39900
O 	O 	0.57250 0.86520 0.08554 -0.36200
O 	O 	0.00990 0.70680 0.17338 -0.30100
O 	O 	0.99640 0.67251 0.20046 -0.43700
N 	N 	0.37810 0.83698 0.11724 -0.26100
N 	N 	0.39270 0.80721 0.14596 -0.15600
N 	N 	0.69000 0.76965 0.19490 -0.15400
N 	N 	0.84690 0.74505 0.20718 -0.25800
N 	N 	0.27870 0.75810 0.21125 -0.15400
N 	N 	0.11270 0.73459 0.22027 -0.25200
C 	C 	0.62580 0.93144 0.99956 0.30200
C 	C 	0.66470 0.91330 0.01938 -0.04700
C 	C 	0.77540 0.89979 0.01966 -0.04200
H 	H 	0.82490 0.90220 0.00780 0.06600
C 	C 	0.81570 0.88246 0.03723 0.01500
C 	C 	0.74270 0.87877 0.05443 -0.03900
H 	H 	0.76930 0.86710 0.06640 0.05900
C 	C 	0.62990 0.89222 0.05403 -0.05500
C 	C 	0.59080 0.90941 0.03659 -0.00500
H 	H 	0.51420 0.91850 0.03640 0.06000
C 	C 	0.54960 0.88660 0.07225 0.29600
C 	C 	0.29720 0.81290 0.11652 0.00500
H 	H 	0.24500 0.80920 0.10520 0.02300
C 	C 	0.30080 0.79460 0.13432 0.00600
H 	H 	0.25060 0.77680 0.13800 0.03500
C 	C 	0.43470 0.83322 0.13514 0.10300
H 	H 	0.49680 0.84700 0.13980 -0.00600
C 	C 	0.42600 0.79492 0.16580 0.21300
C 	C 	0.33790 0.78530 0.17937 -0.25500
H 	H 	0.25800 0.78910 0.17600 0.12600
C 	C 	0.36920 0.76992 0.19797 0.21600
C 	C 	0.48410 0.76519 0.20355 -0.25700
H 	H 	0.50400 0.75500 0.21650 0.12500
C 	C 	0.56990 0.77569 0.18982 0.21200
C 	C 	0.54350 0.79052 0.17071 -0.25000
H 	H 	0.60350 0.79740 0.16140 0.13100
C 	C 	0.78510 0.78918 0.18902 0.01600
H 	H 	0.78320 0.80910 0.18120 0.03700
C 	C 	0.88040 0.77381 0.19680 0.00800
H 	H 	0.95860 0.78150 0.19540 0.02900
C 	C 	0.73170 0.74346 0.20579 0.10400
H 	H 	0.68490 0.72640 0.21160 -0.00400
C 	C 	0.27880 0.75626 0.23293 0.00800
H 	H 	0.33850 0.76360 0.24220 0.03100
C 	C 	0.17650 0.74486 0.20441 0.10100
H 	H 	0.15410 0.74320 0.19010 -0.00200
C 	C 	0.17610 0.74176 0.23819 0.00800
H 	H 	0.15130 0.73720 0.25210 0.00800
C 	C 	0.02310 0.67925 0.18161 0.33400
C 	C 	0.07620 0.65139 0.16932 -0.09500
C 	C 	0.07870 0.65165 0.14773 -0.01200
H 	H 	0.04860 0.67020 0.14040 0.05400
Zn	Zn	0.54358 0.45998 0.46855 1.21000
O 	O 	0.80870 0.68316 0.23441 -0.37600
O 	O 	0.97560 0.69367 0.24969 -0.40700
O 	O 	0.04390 0.65362 0.32310 -0.39900
O 	O 	0.92750 0.61520 0.33554 -0.36200
O 	O 	0.49010 0.45680 0.42338 -0.30100
O 	O 	0.50360 0.42251 0.45046 -0.43700
N 	N 	0.12190 0.58698 0.36724 -0.26100
N 	N 	0.10730 0.55721 0.39596 -0.15600
N 	N 	0.81000 0.51965 0.44490 -0.15400
N 	N 	0.65310 0.49505 0.45718 -0.25800
N 	N 	0.22130 0.50810 0.46125 -0.15400
N 	N 	0.38730 0.48459 0.47027 -0.25200
C 	C 	0.87420 0.68144 0.24956 0.30200
C 	C 	0.83530 0.66330 0.26938 -0.04700
C 	C 	0.72460 0.64979 0.26966 -0.04200
H 	H 	0.67510 0.65220 0.25780 0.06600
C 	C 	0.68430 0.63246 0.28723 0.01500
C 	C 	0.75730 0.62877 0.30443 -0.03900
H 	H 	0.73070 0.61710 0.31640 0.05900
C 	C 	0.87010 0.64222 0.30403 -0.05600
C 	C 	0.90920 0.65941 0.28659 -0.00500
H 	H 	0.98580 0.66850 0.28640 0.06000
C 	C 	0.95040 0.63660 0.32225 0.29600
C 	C 	0.20280 0.56290 0.36652 0.00500
H 	H 	0.25500 0.55920 0.35520 0.02300
C 	C 	0.19920 0.54460 0.38432 0.00600
H 	H 	0.24940 0.52680 0.38800 0.03500
C 	C 	0.06530 0.58322 0.38514 0.10300
H 	H 	0.00320 0.59700 0.38980 -0.00600
C 	C 	0.07400 0.54492 0.41580 0.21300
C 	C 	0.16210 0.53530 0.42937 -0.25500
H 	H 	0.24200 0.53910 0.42600 0.12600
C 	C 	0.13080 0.51992 0.44797 0.21600
C 	C 	0.01590 0.51519 0.45355 -0.25700
H 	H 	0.99600 0.50500 0.46650 0.12500
C 	C 	0.93010 0.52569 0.43982 0.21200
C 	C 	0.95650 0.54052 0.42071 -0.25000
H 	H 	0.89650 0.54740 0.41140 0.13100
C 	C 	0.71490 0.53918 0.43902 0.01600
H 	H 	0.71680 0.55910 0.43120 0.03700
C 	C 	0.61960 0.52381 0.44680 0.00800
H 	H 	0.54140 0.53150 0.44540 0.02900
C 	C 	0.76830 0.49346 0.45579 0.10400
H 	H 	0.81510 0.47640 0.46160 -0.00400
C 	C 	0.22120 0.50626 0.48293 0.00800
H 	H 	0.16150 0.51360 0.49220 0.03100
C 	C 	0.32350 0.49486 0.45441 0.10100
H 	H 	0.34590 0.49320 0.44010 -0.00200
C 	C 	0.32390 0.49176 0.48819 0.00800
H 	H 	0.34870 0.48720 0.50210 0.00800
C 	C 	0.47690 0.42925 0.43161 0.33300
C 	C 	0.42380 0.40139 0.41932 -0.09500
C 	C 	0.42130 0.40165 0.39773 -0.01200
H 	H 	0.45140 0.42020 0.39040 0.05400
Zn	Zn	0.54358 0.95998 0.96855 1.21000
O 	O 	0.80870 0.18316 0.73441 -0.37600
O 	O 	0.97560 0.19367 0.74969 -0.40700
O 	O 	0.04390 0.15362 0.82310 -0.39900
O 	O 	0.92750 0.11520 0.83554 -0.36200
O 	O 	0.49010 0.95680 0.92338 -0.30100
O 	O 	0.50360 0.92251 0.95046 -0.43700
N 	N 	0.12190 0.08698 0.86724 -0.26100
N 	N 	0.10730 0.05721 0.89596 -0.15600
N 	N 	0.81000 0.01965 0.94490 -0.15400
N 	N 	0.65310 0.99505 0.95718 -0.25800
N 	N 	0.22130 0.00810 0.96125 -0.15400
N 	N 	0.38730 0.98459 0.97027 -0.25200
C 	C 	0.87420 0.18144 0.74956 0.30200
C 	C 	0.83530 0.16330 0.76938 -0.04700
C 	C 	0.72460 0.14979 0.76966 -0.04200
H 	H 	0.67510 0.15220 0.75780 0.06600
C 	C 	0.68430 0.13246 0.78723 0.01500
C 	C 	0.75730 0.12877 0.80443 -0.03900
H 	H 	0.73070 0.11710 0.81640 0.05900
C 	C 	0.87010 0.14222 0.80403 -0.05600
C 	C 	0.90920 0.15941 0.78659 -0.00500
H 	H 	0.98580 0.16850 0.78640 0.06000
C 	C 	0.95040 0.13660 0.82225 0.29600
C 	C 	0.20280 0.06290 0.86652 0.00500
H 	H 	0.25500 0.05920 0.85520 0.02300
C 	C 	0.19920 0.04460 0.88432 0.00600
H 	H 	0.24940 0.02680 0.88800 0.03500
C 	C 	0.06530 0.08322 0.88514 0.10300
H 	H 	0.00320 0.09700 0.88980 -0.00600
C 	C 	0.07400 0.04492 0.91580 0.21300
C 	C 	0.16210 0.03530 0.92937 -0.25500
H 	H 	0.24200 0.03910 0.92600 0.12600
C 	C 	0.13080 0.01992 0.94797 0.21600
C 	C 	0.01590 0.01519 0.95355 -0.25700
H 	H 	0.99600 0.00500 0.96650 0.12500
C 	C 	0.93010 0.02569 0.93982 0.21200
C 	C 	0.95650 0.04052 0.92071 -0.25000
H 	H 	0.89650 0.04740 0.91140 0.13100
C 	C 	0.71490 0.03918 0.93902 0.01600
H 	H 	0.71680 0.05910 0.93120 0.03700
C 	C 	0.61960 0.02381 0.94680 0.00800
H 	H 	0.54140 0.03150 0.94540 0.02900
C 	C 	0.76830 0.99346 0.95579 0.10400
H 	H 	0.81510 0.97640 0.96160 -0.00400
C 	C 	0.22120 0.00626 0.98293 0.00800
H 	H 	0.16150 0.01360 0.99220 0.03100
C 	C 	0.32350 0.99486 0.95441 0.10100
H 	H 	0.34590 0.99320 0.94010 -0.00200
C 	C 	0.32390 0.99176 0.98819 0.00800
H 	H 	0.34870 0.98720 0.00210 0.00800
C 	C 	0.47690 0.92925 0.93161 0.33300
C 	C 	0.42380 0.90139 0.91932 -0.09500
C 	C 	0.42130 0.90165 0.89773 -0.01200
H 	H 	0.45140 0.92020 0.89040 0.05400
Zn	Zn	0.04358 0.45998 0.96855 1.21000
O 	O 	0.30870 0.68316 0.73441 -0.37600
O 	O 	0.47560 0.69367 0.74969 -0.40700
O 	O 	0.54390 0.65362 0.82310 -0.39900
O 	O 	0.42750 0.61520 0.83554 -0.36200
O 	O 	0.99010 0.45680 0.92338 -0.30100
O 	O 	0.00360 0.42251 0.95046 -0.43700
N 	N 	0.62190 0.58698 0.86724 -0.26100
N 	N 	0.60730 0.55721 0.89596 -0.15600
N 	N 	0.31000 0.51965 0.94490 -0.15400
N 	N 	0.15310 0.49505 0.95718 -0.25800
N 	N 	0.72130 0.50810 0.96125 -0.15400
N 	N 	0.88730 0.48459 0.97027 -0.25200
C 	C 	0.37420 0.68144 0.74956 0.30200
C 	C 	0.33530 0.66330 0.76938 -0.04700
C 	C 	0.22460 0.64979 0.76966 -0.04200
H 	H 	0.17510 0.65220 0.75780 0.06600
C 	C 	0.18430 0.63246 0.78723 0.01500
C 	C 	0.25730 0.62877 0.80443 -0.03900
H 	H 	0.23070 0.61710 0.81640 0.05900
C 	C 	0.37010 0.64222 0.80403 -0.05500
C 	C 	0.40920 0.65941 0.78659 -0.00500
H 	H 	0.48580 0.66850 0.78640 0.06000
C 	C 	0.45040 0.63660 0.82225 0.29600
C 	C 	0.70280 0.56290 0.86652 0.00500
H 	H 	0.75500 0.55920 0.85520 0.02300
C 	C 	0.69920 0.54460 0.88432 0.00600
H 	H 	0.74940 0.52680 0.88800 0.03500
C 	C 	0.56530 0.58322 0.88514 0.10300
H 	H 	0.50320 0.59700 0.88980 -0.00600
C 	C 	0.57400 0.54492 0.91580 0.21300
C 	C 	0.66210 0.53530 0.92937 -0.25500
H 	H 	0.74200 0.53910 0.92600 0.12600
C 	C 	0.63080 0.51992 0.94797 0.21600
C 	C 	0.51590 0.51519 0.95355 -0.25700
H 	H 	0.49600 0.50500 0.96650 0.12500
C 	C 	0.43010 0.52569 0.93982 0.21200
C 	C 	0.45650 0.54052 0.92071 -0.25000
H 	H 	0.39650 0.54740 0.91140 0.13100
C 	C 	0.21490 0.53918 0.93902 0.01600
H 	H 	0.21680 0.55910 0.93120 0.03700
C 	C 	0.11960 0.52381 0.94680 0.00800
H 	H 	0.04140 0.53150 0.94540 0.02900
C 	C 	0.26830 0.49346 0.95579 0.10400
H 	H 	0.31510 0.47640 0.96160 -0.00400
C 	C 	0.72120 0.50626 0.98293 0.00800
H 	H 	0.66150 0.51360 0.99220 0.03100
C 	C 	0.82350 0.49486 0.95441 0.10100
H 	H 	0.84590 0.49320 0.94010 -0.00200
C 	C 	0.82390 0.49176 0.98819 0.00800
H 	H 	0.84870 0.48720 0.00210 0.00800
C 	C 	0.97690 0.42925 0.93161 0.33400
C 	C 	0.92380 0.40139 0.91932 -0.09500
C 	C 	0.92130 0.40165 0.89773 -0.01200
H 	H 	0.95140 0.42020 0.89040 0.05400
Zn	Zn	0.04358 0.95998 0.46855 1.21000
O 	O 	0.30870 0.18316 0.23441 -0.37600
O 	O 	0.47560 0.19367 0.24969 -0.40700
O 	O 	0.54390 0.15362 0.32310 -0.39900
O 	O 	0.42750 0.11520 0.33554 -0.36200
O 	O 	0.99010 0.95680 0.42338 -0.30100
O 	O 	0.00360 0.92251 0.45046 -0.43700
N 	N 	0.62190 0.08698 0.36724 -0.26100
N 	N 	0.60730 0.05721 0.39596 -0.15600
N 	N 	0.31000 0.01965 0.44490 -0.15400
N 	N 	0.15310 0.99505 0.45718 -0.25800
N 	N 	0.72130 0.00810 0.46125 -0.15400
N 	N 	0.88730 0.98459 0.47027 -0.25200
C 	C 	0.37420 0.18144 0.24956 0.30200
C 	C 	0.33530 0.16330 0.26938 -0.04700
C 	C 	0.22460 0.14979 0.26966 -0.04200
H 	H 	0.17510 0.15220 0.25780 0.06600
C 	C 	0.18430 0.13246 0.28723 0.01500
C 	C 	0.25730 0.12877 0.30443 -0.03900
H 	H 	0.23070 0.11710 0.31640 0.05900
C 	C 	0.37010 0.14222 0.30403 -0.05500
C 	C 	0.40920 0.15941 0.28659 -0.00500
H 	H 	0.48580 0.16850 0.28640 0.06000
C 	C 	0.45040 0.13660 0.32225 0.29600
C 	C 	0.70280 0.06290 0.36652 0.00500
H 	H 	0.75500 0.05920 0.35520 0.02300
C 	C 	0.69920 0.04460 0.38432 0.00600
H 	H 	0.74940 0.02680 0.38800 0.03500
C 	C 	0.56530 0.08322 0.38514 0.10300
H 	H 	0.50320 0.09700 0.38980 -0.00600
C 	C 	0.57400 0.04492 0.41580 0.21300
C 	C 	0.66210 0.03530 0.42937 -0.25500
H 	H 	0.74200 0.03910 0.42600 0.12600
C 	C 	0.63080 0.01992 0.44797 0.21600
C 	C 	0.51590 0.01519 0.45355 -0.25700
H 	H 	0.49600 0.00500 0.46650 0.12500
C 	C 	0.43010 0.02569 0.43982 0.21200
C 	C 	0.45650 0.04052 0.42071 -0.25000
H 	H 	0.39650 0.04740 0.41140 0.13100
C 	C 	0.21490 0.03918 0.43902 0.01600
H 	H 	0.21680 0.05910 0.43120 0.03700
C 	C 	0.11960 0.02381 0.44680 0.00800
H 	H 	0.04140 0.03150 0.44540 0.02900
C 	C 	0.26830 0.99346 0.45579 0.10400
H 	H 	0.31510 0.97640 0.46160 -0.00400
C 	C 	0.72120 0.00626 0.48293 0.00800
H 	H 	0.66150 0.01360 0.49220 0.03100
C 	C 	0.82350 0.99486 0.45441 0.10100
H 	H 	0.84590 0.99320 0.44010 -0.00200
C 	C 	0.82390 0.99176 0.48819 0.00800
H 	H 	0.84870 0.98720 0.50210 0.00800
C 	C 	0.97690 0.92925 0.43161 0.33400
C 	C 	0.92380 0.90139 0.41932 -0.09500
C 	C 	0.92130 0.90165 0.39773 -0.01200
H 	H 	0.95140 0.92020 0.39040 0.05400
Zn	Zn	0.70642 0.79002 0.46855 1.21000
O 	O 	0.44130 0.56684 0.23441 -0.37600
O 	O 	0.27440 0.55633 0.24969 -0.40700
O 	O 	0.20610 0.59638 0.32310 -0.39900
O 	O 	0.32250 0.63480 0.33554 -0.36200
O 	O 	0.75990 0.79320 0.42338 -0.30100
O 	O 	0.74640 0.82749 0.45046 -0.43700
N 	N 	0.12810 0.66302 0.36724 -0.26100
N 	N 	0.14270 0.69279 0.39596 -0.15600
N 	N 	0.44000 0.73035 0.44490 -0.15400
N 	N 	0.59690 0.75495 0.45718 -0.25800
N 	N 	0.02870 0.74190 0.46125 -0.15400
N 	N 	0.86270 0.76541 0.47027 -0.25200
C 	C 	0.37580 0.56856 0.24956 0.30200
C 	C 	0.41470 0.58670 0.26938 -0.04700
C 	C 	0.52540 0.60021 0.26966 -0.04200
H 	H 	0.57490 0.59780 0.25780 0.06600
C 	C 	0.56570 0.61754 0.28723 0.01500
C 	C 	0.49270 0.62123 0.30443 -0.03900
H 	H 	0.51930 0.63290 0.31640 0.05900
C 	C 	0.37990 0.60778 0.30403 -0.05600
C 	C 	0.34080 0.59059 0.28659 -0.00500
H 	H 	0.26420 0.58150 0.28640 0.06000
C 	C 	0.29960 0.61340 0.32225 0.29600
C 	C 	0.04720 0.68710 0.36652 0.00500
H 	H 	0.99500 0.69080 0.35520 0.02300
C 	C 	0.05080 0.70540 0.38432 0.00600
H 	H 	0.00060 0.72320 0.38800 0.03500
C 	C 	0.18470 0.66678 0.38514 0.10300
H 	H 	0.24680 0.65300 0.38980 -0.00600
C 	C 	0.17600 0.70508 0.41580 0.21300
C 	C 	0.08790 0.71470 0.42937 -0.25500
H 	H 	0.00800 0.71090 0.42600 0.12600
C 	C 	0.11920 0.73008 0.44797 0.21600
C 	C 	0.23410 0.73481 0.45355 -0.25700
H 	H 	0.25400 0.74500 0.46650 0.12500
C 	C 	0.31990 0.72431 0.43982 0.21200
C 	C 	0.29350 0.70948 0.42071 -0.25000
H 	H 	0.35350 0.70260 0.41140 0.13100
C 	C 	0.53510 0.71082 0.43902 0.01600
H 	H 	0.53320 0.69090 0.43120 0.03700
C 	C 	0.63040 0.72619 0.44680 0.00800
H 	H 	0.70860 0.71850 0.44540 0.02900
C 	C 	0.48170 0.75654 0.45579 0.10400
H 	H 	0.43490 0.77360 0.46160 -0.00400
C 	C 	0.02880 0.74374 0.48293 0.00800
H 	H 	0.08850 0.73640 0.49220 0.03200
C 	C 	0.92650 0.75514 0.45441 0.10200
H 	H 	0.90410 0.75680 0.44010 -0.00200
C 	C 	0.92610 0.75824 0.48819 0.00800
H 	H 	0.90130 0.76280 0.50210 0.00800
C 	C 	0.77310 0.82075 0.43161 0.33300
C 	C 	0.82620 0.84861 0.41932 -0.09400
C 	C 	0.82870 0.84835 0.39773 -0.01200
H 	H 	0.79860 0.82980 0.39040 0.05400
Zn	Zn	0.70642 0.29002 0.96855 1.21000
O 	O 	0.44130 0.06684 0.73441 -0.37600
O 	O 	0.27440 0.05633 0.74969 -0.40700
O 	O 	0.20610 0.09638 0.82310 -0.39900
O 	O 	0.32250 0.13480 0.83554 -0.36200
O 	O 	0.75990 0.29320 0.92338 -0.30100
O 	O 	0.74640 0.32749 0.95046 -0.43700
N 	N 	0.12810 0.16302 0.86724 -0.26100
N 	N 	0.14270 0.19279 0.89596 -0.15600
N 	N 	0.44000 0.23035 0.94490 -0.15400
N 	N 	0.59690 0.25495 0.95718 -0.25800
N 	N 	0.02870 0.24190 0.96125 -0.15400
N 	N 	0.86270 0.26541 0.97027 -0.25200
C 	C 	0.37580 0.06856 0.74956 0.30200
C 	C 	0.41470 0.08670 0.76938 -0.04700
C 	C 	0.52540 0.10021 0.76966 -0.04200
H 	H 	0.57490 0.09780 0.75780 0.06600
C 	C 	0.56570 0.11754 0.78723 0.01500
C 	C 	0.49270 0.12123 0.80443 -0.03900
H 	H 	0.51930 0.13290 0.81640 0.05900
C 	C 	0.37990 0.10778 0.80403 -0.05600
C 	C 	0.34080 0.09059 0.78659 -0.00500
H 	H 	0.26420 0.08150 0.78640 0.06000
C 	C 	0.29960 0.11340 0.82225 0.29600
C 	C 	0.04720 0.18710 0.86652 0.00500
H 	H 	0.99500 0.19080 0.85520 0.02300
C 	C 	0.05080 0.20540 0.88432 0.00600
H 	H 	0.00060 0.22320 0.88800 0.03500
C 	C 	0.18470 0.16678 0.88514 0.10300
H 	H 	0.24680 0.15300 0.88980 -0.00600
C 	C 	0.17600 0.20508 0.91580 0.21300
C 	C 	0.08790 0.21470 0.92937 -0.25500
H 	H 	0.00800 0.21090 0.92600 0.12600
C 	C 	0.11920 0.23008 0.94797 0.21600
C 	C 	0.23410 0.23481 0.95355 -0.25700
H 	H 	0.25400 0.24500 0.96650 0.12500
C 	C 	0.31990 0.22431 0.93982 0.21200
C 	C 	0.29350 0.20948 0.92071 -0.25000
H 	H 	0.35350 0.20260 0.91140 0.13100
C 	C 	0.53510 0.21082 0.93902 0.01600
H 	H 	0.53320 0.19090 0.93120 0.03700
C 	C 	0.63040 0.22619 0.94680 0.00800
H 	H 	0.70860 0.21850 0.94540 0.02900
C 	C 	0.48170 0.25654 0.95579 0.10400
H 	H 	0.43490 0.27360 0.96160 -0.00400
C 	C 	0.02880 0.24374 0.98293 0.00800
H 	H 	0.08850 0.23640 0.99220 0.03200
C 	C 	0.92650 0.25514 0.95441 0.10200
H 	H 	0.90410 0.25680 0.94010 -0.00200
C 	C 	0.92610 0.25824 0.98819 0.00800
H 	H 	0.90130 0.26280 0.00210 0.00800
C 	C 	0.77310 0.32075 0.93161 0.33300
C 	C 	0.82620 0.34861 0.91932 -0.09400
C 	C 	0.82870 0.34835 0.89773 -0.01200
H 	H 	0.79860 0.32980 0.89040 0.05400
Zn	Zn	0.20642 0.79002 0.96855 1.21000
O 	O 	0.94130 0.56684 0.73441 -0.37600
O 	O 	0.77440 0.55633 0.74969 -0.40700
O 	O 	0.70610 0.59638 0.82310 -0.39900
O 	O 	0.82250 0.63480 0.83554 -0.36200
O 	O 	0.25990 0.79320 0.92338 -0.30100
O 	O 	0.24640 0.82749 0.95046 -0.43700
N 	N 	0.62810 0.66302 0.86724 -0.26100
N 	N 	0.64270 0.69279 0.89596 -0.15600
N 	N 	0.94000 0.73035 0.94490 -0.15400
N 	N 	0.09690 0.75495 0.95718 -0.25800
N 	N 	0.52870 0.74190 0.96125 -0.15400
N 	N 	0.36270 0.76541 0.97027 -0.25200
C 	C 	0.87580 0.56856 0.74956 0.30200
C 	C 	0.91470 0.58670 0.76938 -0.04700
C 	C 	0.02540 0.60021 0.76966 -0.04200
H 	H 	0.07490 0.59780 0.75780 0.06600
C 	C 	0.06570 0.61754 0.78723 0.01400
C 	C 	0.99270 0.62123 0.80443 -0.03800
H 	H 	0.01930 0.63290 0.81640 0.05800
C 	C 	0.87990 0.60778 0.80403 -0.05600
C 	C 	0.84080 0.59059 0.78659 -0.00500
H 	H 	0.76420 0.58150 0.78640 0.06000
C 	C 	0.79960 0.61340 0.82225 0.29600
C 	C 	0.54720 0.68710 0.86652 0.00500
H 	H 	0.49500 0.69080 0.85520 0.02300
C 	C 	0.55080 0.70540 0.88432 0.00600
H 	H 	0.50060 0.72320 0.88800 0.03500
C 	C 	0.68470 0.66678 0.88514 0.10300
H 	H 	0.74680 0.65300 0.88980 -0.00600
C 	C 	0.67600 0.70508 0.91580 0.21300
C 	C 	0.58790 0.71470 0.92937 -0.25500
H 	H 	0.50800 0.71090 0.92600 0.12600
C 	C 	0.61920 0.73008 0.94797 0.21600
C 	C 	0.73410 0.73481 0.95355 -0.25700
H 	H 	0.75400 0.74500 0.96650 0.12500
C 	C 	0.81990 0.72431 0.93982 0.21200
C 	C 	0.79350 0.70948 0.92071 -0.25000
H 	H 	0.85350 0.70260 0.91140 0.13100
C 	C 	0.03510 0.71082 0.93902 0.01600
H 	H 	0.03320 0.69090 0.93120 0.03700
C 	C 	0.13040 0.72619 0.94680 0.00800
H 	H 	0.20860 0.71850 0.94540 0.02900
C 	C 	0.98170 0.75654 0.95579 0.10400
H 	H 	0.93490 0.77360 0.96160 -0.00400
C 	C 	0.52880 0.74374 0.98293 0.00800
H 	H 	0.58850 0.73640 0.99220 0.03100
C 	C 	0.42650 0.75514 0.95441 0.10100
H 	H 	0.40410 0.75680 0.94010 -0.00200
C 	C 	0.42610 0.75824 0.98819 0.00800
H 	H 	0.40130 0.76280 0.00210 0.00800
C 	C 	0.27310 0.82075 0.93161 0.33300
C 	C 	0.32620 0.84861 0.91932 -0.09500
C 	C 	0.32870 0.84835 0.89773 -0.01200
H 	H 	0.29860 0.82980 0.89040 0.05400
Zn	Zn	0.20642 0.29002 0.46855 1.21000
O 	O 	0.94130 0.06684 0.23441 -0.37600
O 	O 	0.77440 0.05633 0.24969 -0.40700
O 	O 	0.70610 0.09638 0.32310 -0.39900
O 	O 	0.82250 0.13480 0.33554 -0.36200
O 	O 	0.25990 0.29320 0.42338 -0.30100
O 	O 	0.24640 0.32749 0.45046 -0.43700
N 	N 	0.62810 0.16302 0.36724 -0.26100
N 	N 	0.64270 0.19279 0.39596 -0.15600
N 	N 	0.94000 0.23035 0.44490 -0.15400
N 	N 	0.09690 0.25495 0.45718 -0.25800
N 	N 	0.52870 0.24190 0.46125 -0.15400
N 	N 	0.36270 0.26541 0.47027 -0.25200
C 	C 	0.87580 0.06856 0.24956 0.30200
C 	C 	0.91470 0.08670 0.26938 -0.04700
C 	C 	0.02540 0.10021 0.26966 -0.04200
H 	H 	0.07490 0.09780 0.25780 0.06600
C 	C 	0.06570 0.11754 0.28723 0.01400
C 	C 	0.99270 0.12123 0.30443 -0.03800
H 	H 	0.01930 0.13290 0.31640 0.05800
C 	C 	0.87990 0.10778 0.30403 -0.05600
C 	C 	0.84080 0.09059 0.28659 -0.00500
H 	H 	0.76420 0.08150 0.28640 0.06000
C 	C 	0.79960 0.11340 0.32225 0.29600
C 	C 	0.54720 0.18710 0.36652 0.00500
H 	H 	0.49500 0.19080 0.35520 0.02300
C 	C 	0.55080 0.20540 0.38432 0.00600
H 	H 	0.50060 0.22320 0.38800 0.03500
C 	C 	0.68470 0.16678 0.38514 0.10300
H 	H 	0.74680 0.15300 0.38980 -0.00600
C 	C 	0.67600 0.20508 0.41580 0.21300
C 	C 	0.58790 0.21470 0.42937 -0.25500
H 	H 	0.50800 0.21090 0.42600 0.12600
C 	C 	0.61920 0.23008 0.44797 0.21600
C 	C 	0.73410 0.23481 0.45355 -0.25700
H 	H 	0.75400 0.24500 0.46650 0.12500
C 	C 	0.81990 0.22431 0.43982 0.21200
C 	C 	0.79350 0.20948 0.42071 -0.25000
H 	H 	0.85350 0.20260 0.41140 0.13100
C 	C 	0.03510 0.21082 0.43902 0.01600
H 	H 	0.03320 0.19090 0.43120 0.03700
C 	C 	0.13040 0.22619 0.44680 0.00800
H 	H 	0.20860 0.21850 0.44540 0.02900
C 	C 	0.98170 0.25654 0.45579 0.10400
H 	H 	0.93490 0.27360 0.46160 -0.00400
C 	C 	0.52880 0.24374 0.48293 0.00800
H 	H 	0.58850 0.23640 0.49220 0.03100
C 	C 	0.42650 0.25514 0.45441 0.10100
H 	H 	0.40410 0.25680 0.44010 -0.00200
C 	C 	0.42610 0.25824 0.48819 0.00800
H 	H 	0.40130 0.26280 0.50210 0.00800
C 	C 	0.27310 0.32075 0.43161 0.33300
C 	C 	0.32620 0.34861 0.41932 -0.09500
C 	C 	0.32870 0.34835 0.39773 -0.01200
H 	H 	0.29860 0.32980 0.39040 0.05400
Zn	Zn	0.70642 0.45998 0.78145 1.21000
O 	O 	0.44130 0.68316 0.01559 -0.37600
O 	O 	0.27440 0.69367 0.00031 -0.40700
O 	O 	0.20610 0.65362 0.92690 -0.39900
O 	O 	0.32250 0.61520 0.91446 -0.36200
O 	O 	0.75990 0.45680 0.82662 -0.30100
O 	O 	0.74640 0.42251 0.79954 -0.43700
N 	N 	0.12810 0.58698 0.88276 -0.26100
N 	N 	0.14270 0.55721 0.85404 -0.15600
N 	N 	0.44000 0.51965 0.80510 -0.15400
N 	N 	0.59690 0.49505 0.79282 -0.25800
N 	N 	0.02870 0.50810 0.78875 -0.15400
N 	N 	0.86270 0.48459 0.77973 -0.25200
C 	C 	0.37580 0.68144 0.00044 0.30200
C 	C 	0.41470 0.66330 0.98062 -0.04700
C 	C 	0.52540 0.64979 0.98034 -0.04200
H 	H 	0.57490 0.65220 0.99220 0.06600
C 	C 	0.56570 0.63246 0.96277 0.01500
C 	C 	0.49270 0.62877 0.94557 -0.03900
H 	H 	0.51930 0.61710 0.93360 0.05900
C 	C 	0.37990 0.64222 0.94597 -0.05600
C 	C 	0.34080 0.65941 0.96341 -0.00500
H 	H 	0.26420 0.66850 0.96360 0.06000
C 	C 	0.29960 0.63660 0.92775 0.29600
C 	C 	0.04720 0.56290 0.88348 0.00500
H 	H 	0.99500 0.55920 0.89480 0.02300
C 	C 	0.05080 0.54460 0.86568 0.00600
H 	H 	0.00060 0.52680 0.86200 0.03500
C 	C 	0.18470 0.58322 0.86486 0.10300
H 	H 	0.24680 0.59700 0.86020 -0.00600
C 	C 	0.17600 0.54492 0.83420 0.21300
C 	C 	0.08790 0.53530 0.82063 -0.25500
H 	H 	0.00800 0.53910 0.82400 0.12600
C 	C 	0.11920 0.51992 0.80203 0.21600
C 	C 	0.23410 0.51519 0.79645 -0.25700
H 	H 	0.25400 0.50500 0.78350 0.12500
C 	C 	0.31990 0.52569 0.81018 0.21200
C 	C 	0.29350 0.54052 0.82929 -0.25000
H 	H 	0.35350 0.54740 0.83860 0.13100
C 	C 	0.53510 0.53918 0.81098 0.01600
H 	H 	0.53320 0.55910 0.81880 0.03700
C 	C 	0.63040 0.52381 0.80320 0.00800
H 	H 	0.70860 0.53150 0.80460 0.02900
C 	C 	0.48170 0.49346 0.79421 0.10400
H 	H 	0.43490 0.47640 0.78840 -0.00400
C 	C 	0.02880 0.50626 0.76707 0.00800
H 	H 	0.08850 0.51360 0.75780 0.03200
C 	C 	0.92650 0.49486 0.79559 0.10200
H 	H 	0.90410 0.49320 0.80990 -0.00200
C 	C 	0.92610 0.49176 0.76181 0.00800
H 	H 	0.90130 0.48720 0.74790 0.00800
C 	C 	0.77310 0.42925 0.81839 0.33300
C 	C 	0.82620 0.40139 0.83068 -0.09400
C 	C 	0.82870 0.40165 0.85227 -0.01200
H 	H 	0.79860 0.42020 0.85960 0.05400
Zn	Zn	0.70642 0.95998 0.28145 1.21000
O 	O 	0.44130 0.18316 0.51559 -0.37600
O 	O 	0.27440 0.19367 0.50031 -0.40700
O 	O 	0.20610 0.15362 0.42690 -0.39900
O 	O 	0.32250 0.11520 0.41446 -0.36200
O 	O 	0.75990 0.95680 0.32662 -0.30100
O 	O 	0.74640 0.92251 0.29954 -0.43700
N 	N 	0.12810 0.08698 0.38276 -0.26100
N 	N 	0.14270 0.05721 0.35404 -0.15600
N 	N 	0.44000 0.01965 0.30510 -0.15400
N 	N 	0.59690 0.99505 0.29282 -0.25800
N 	N 	0.02870 0.00810 0.28875 -0.15400
N 	N 	0.86270 0.98459 0.27973 -0.25200
C 	C 	0.37580 0.18144 0.50044 0.30200
C 	C 	0.41470 0.16330 0.48062 -0.04700
C 	C 	0.52540 0.14979 0.48034 -0.04200
H 	H 	0.57490 0.15220 0.49220 0.06600
C 	C 	0.56570 0.13246 0.46277 0.01500
C 	C 	0.49270 0.12877 0.44557 -0.03900
H 	H 	0.51930 0.11710 0.43360 0.05900
C 	C 	0.37990 0.14222 0.44597 -0.05600
C 	C 	0.34080 0.15941 0.46341 -0.00500
H 	H 	0.26420 0.16850 0.46360 0.06000
C 	C 	0.29960 0.13660 0.42775 0.29600
C 	C 	0.04720 0.06290 0.38348 0.00500
H 	H 	0.99500 0.05920 0.39480 0.02300
C 	C 	0.05080 0.04460 0.36568 0.00600
H 	H 	0.00060 0.02680 0.36200 0.03500
C 	C 	0.18470 0.08322 0.36486 0.10300
H 	H 	0.24680 0.09700 0.36020 -0.00600
C 	C 	0.17600 0.04492 0.33420 0.21300
C 	C 	0.08790 0.03530 0.32063 -0.25500
H 	H 	0.00800 0.03910 0.32400 0.12600
C 	C 	0.11920 0.01992 0.30203 0.21600
C 	C 	0.23410 0.01519 0.29645 -0.25700
H 	H 	0.25400 0.00500 0.28350 0.12500
C 	C 	0.31990 0.02569 0.31018 0.21200
C 	C 	0.29350 0.04052 0.32929 -0.25000
H 	H 	0.35350 0.04740 0.33860 0.13100
C 	C 	0.53510 0.03918 0.31098 0.01600
H 	H 	0.53320 0.05910 0.31880 0.03700
C 	C 	0.63040 0.02381 0.30320 0.00800
H 	H 	0.70860 0.03150 0.30460 0.02900
C 	C 	0.48170 0.99346 0.29421 0.10400
H 	H 	0.43490 0.97640 0.28840 -0.00400
C 	C 	0.02880 0.00626 0.26707 0.00800
H 	H 	0.08850 0.01360 0.25780 0.03200
C 	C 	0.92650 0.99486 0.29559 0.10200
H 	H 	0.90410 0.99320 0.30990 -0.00200
C 	C 	0.92610 0.99176 0.26181 0.00800
H 	H 	0.90130 0.98720 0.24790 0.00800
C 	C 	0.77310 0.92925 0.31839 0.33300
C 	C 	0.82620 0.90139 0.33068 -0.09400
C 	C 	0.82870 0.90165 0.35227 -0.01200
H 	H 	0.79860 0.92020 0.35960 0.05400
Zn	Zn	0.20642 0.45998 0.28145 1.21000
O 	O 	0.94130 0.68316 0.51559 -0.37600
O 	O 	0.77440 0.69367 0.50031 -0.40700
O 	O 	0.70610 0.65362 0.42690 -0.39900
O 	O 	0.82250 0.61520 0.41446 -0.36200
O 	O 	0.25990 0.45680 0.32662 -0.30100
O 	O 	0.24640 0.42251 0.29954 -0.43700
N 	N 	0.62810 0.58698 0.38276 -0.26100
N 	N 	0.64270 0.55721 0.35404 -0.15600
N 	N 	0.94000 0.51965 0.30510 -0.15400
N 	N 	0.09690 0.49505 0.29282 -0.25800
N 	N 	0.52870 0.50810 0.28875 -0.15400
N 	N 	0.36270 0.48459 0.27973 -0.25200
C 	C 	0.87580 0.68144 0.50044 0.30200
C 	C 	0.91470 0.66330 0.48062 -0.04700
C 	C 	0.02540 0.64979 0.48034 -0.04200
H 	H 	0.07490 0.65220 0.49220 0.06600
C 	C 	0.06570 0.63246 0.46277 0.01400
C 	C 	0.99270 0.62877 0.44557 -0.03800
H 	H 	0.01930 0.61710 0.43360 0.05800
C 	C 	0.87990 0.64222 0.44597 -0.05600
C 	C 	0.84080 0.65941 0.46341 -0.00500
H 	H 	0.76420 0.66850 0.46360 0.06000
C 	C 	0.79960 0.63660 0.42775 0.29600
C 	C 	0.54720 0.56290 0.38348 0.00500
H 	H 	0.49500 0.55920 0.39480 0.02300
C 	C 	0.55080 0.54460 0.36568 0.00600
H 	H 	0.50060 0.52680 0.36200 0.03500
C 	C 	0.68470 0.58322 0.36486 0.10300
H 	H 	0.74680 0.59700 0.36020 -0.00600
C 	C 	0.67600 0.54492 0.33420 0.21300
C 	C 	0.58790 0.53530 0.32063 -0.25500
H 	H 	0.50800 0.53910 0.32400 0.12600
C 	C 	0.61920 0.51992 0.30203 0.21600
C 	C 	0.73410 0.51519 0.29645 -0.25700
H 	H 	0.75400 0.50500 0.28350 0.12500
C 	C 	0.81990 0.52569 0.31018 0.21200
C 	C 	0.79350 0.54052 0.32929 -0.25000
H 	H 	0.85350 0.54740 0.33860 0.13100
C 	C 	0.03510 0.53918 0.31098 0.01600
H 	H 	0.03320 0.55910 0.31880 0.03700
C 	C 	0.13040 0.52381 0.30320 0.00800
H 	H 	0.20860 0.53150 0.30460 0.02900
C 	C 	0.98170 0.49346 0.29421 0.10400
H 	H 	0.93490 0.47640 0.28840 -0.00400
C 	C 	0.52880 0.50626 0.26707 0.00800
H 	H 	0.58850 0.51360 0.25780 0.03100
C 	C 	0.42650 0.49486 0.29559 0.10100
H 	H 	0.40410 0.49320 0.30990 -0.00200
C 	C 	0.42610 0.49176 0.26181 0.00800
H 	H 	0.40130 0.48720 0.24790 0.00800
C 	C 	0.27310 0.42925 0.31839 0.33300
C 	C 	0.32620 0.40139 0.33068 -0.09500
C 	C 	0.32870 0.40165 0.35227 -0.01200
H 	H 	0.29860 0.42020 0.35960 0.05400
Zn	Zn	0.20642 0.95998 0.78145 1.21000
O 	O 	0.94130 0.18316 0.01559 -0.37600
O 	O 	0.77440 0.19367 0.00031 -0.40700
O 	O 	0.70610 0.15362 0.92690 -0.39900
O 	O 	0.82250 0.11520 0.91446 -0.36200
O 	O 	0.25990 0.95680 0.82662 -0.30100
O 	O 	0.24640 0.92251 0.79954 -0.43700
N 	N 	0.62810 0.08698 0.88276 -0.26100
N 	N 	0.64270 0.05721 0.85404 -0.15600
N 	N 	0.94000 0.01965 0.80510 -0.15400
N 	N 	0.09690 0.99505 0.79282 -0.25800
N 	N 	0.52870 0.00810 0.78875 -0.15400
N 	N 	0.36270 0.98459 0.77973 -0.25200
C 	C 	0.87580 0.18144 0.00044 0.30200
C 	C 	0.91470 0.16330 0.98062 -0.04700
C 	C 	0.02540 0.14979 0.98034 -0.04200
H 	H 	0.07490 0.15220 0.99220 0.06600
C 	C 	0.06570 0.13246 0.96277 0.01400
C 	C 	0.99270 0.12877 0.94557 -0.03800
H 	H 	0.01930 0.11710 0.93360 0.05800
C 	C 	0.87990 0.14222 0.94597 -0.05600
C 	C 	0.84080 0.15941 0.96341 -0.00500
H 	H 	0.76420 0.16850 0.96360 0.06000
C 	C 	0.79960 0.13660 0.92775 0.29600
C 	C 	0.54720 0.06290 0.88348 0.00500
H 	H 	0.49500 0.05920 0.89480 0.02300
C 	C 	0.55080 0.04460 0.86568 0.00600
H 	H 	0.50060 0.02680 0.86200 0.03500
C 	C 	0.68470 0.08322 0.86486 0.10300
H 	H 	0.74680 0.09700 0.86020 -0.00600
C 	C 	0.67600 0.04492 0.83420 0.21300
C 	C 	0.58790 0.03530 0.82063 -0.25500
H 	H 	0.50800 0.03910 0.82400 0.12600
C 	C 	0.61920 0.01992 0.80203 0.21600
C 	C 	0.73410 0.01519 0.79645 -0.25700
H 	H 	0.75400 0.00500 0.78350 0.12500
C 	C 	0.81990 0.02569 0.81018 0.21200
C 	C 	0.79350 0.04052 0.82929 -0.25000
H 	H 	0.85350 0.04740 0.83860 0.13100
C 	C 	0.03510 0.03918 0.81098 0.01600
H 	H 	0.03320 0.05910 0.81880 0.03700
C 	C 	0.13040 0.02381 0.80320 0.00800
H 	H 	0.20860 0.03150 0.80460 0.02900
C 	C 	0.98170 0.99346 0.79421 0.10400
H 	H 	0.93490 0.97640 0.78840 -0.00400
C 	C 	0.52880 0.00626 0.76707 0.00800
H 	H 	0.58850 0.01360 0.75780 0.03100
C 	C 	0.42650 0.99486 0.79559 0.10100
H 	H 	0.40410 0.99320 0.80990 -0.00200
C 	C 	0.42610 0.99176 0.76181 0.00800
H 	H 	0.40130 0.98720 0.74790 0.00800
C 	C 	0.27310 0.92925 0.81839 0.33300
C 	C 	0.32620 0.90139 0.83068 -0.09500
C 	C 	0.32870 0.90165 0.85227 -0.01200
H 	H 	0.29860 0.92020 0.85960 0.05400
Zn	Zn	0.54358 0.79002 0.78145 1.21000
O 	O 	0.80870 0.56684 0.01559 -0.37600
O 	O 	0.97560 0.55633 0.00031 -0.40700
O 	O 	0.04390 0.59638 0.92690 -0.39900
O 	O 	0.92750 0.63480 0.91446 -0.36200
O 	O 	0.49010 0.79320 0.82662 -0.30100
O 	O 	0.50360 0.82749 0.79954 -0.43700
N 	N 	0.12190 0.66302 0.88276 -0.26100
N 	N 	0.10730 0.69279 0.85404 -0.15600
N 	N 	0.81000 0.73035 0.80510 -0.15400
N 	N 	0.65310 0.75495 0.79282 -0.25800
N 	N 	0.22130 0.74190 0.78875 -0.15400
N 	N 	0.38730 0.76541 0.77973 -0.25200
C 	C 	0.87420 0.56856 0.00044 0.30200
C 	C 	0.83530 0.58670 0.98062 -0.04700
C 	C 	0.72460 0.60021 0.98034 -0.04200
H 	H 	0.67510 0.59780 0.99220 0.06600
C 	C 	0.68430 0.61754 0.96277 0.01500
C 	C 	0.75730 0.62123 0.94557 -0.03900
H 	H 	0.73070 0.63290 0.93360 0.05900
C 	C 	0.87010 0.60778 0.94597 -0.05600
C 	C 	0.90920 0.59059 0.96341 -0.00500
H 	H 	0.98580 0.58150 0.96360 0.06000
C 	C 	0.95040 0.61340 0.92775 0.29600
C 	C 	0.20280 0.68710 0.88348 0.00500
H 	H 	0.25500 0.69080 0.89480 0.02300
C 	C 	0.19920 0.70540 0.86568 0.00600
H 	H 	0.24940 0.72320 0.86200 0.03500
C 	C 	0.06530 0.66678 0.86486 0.10300
H 	H 	0.00320 0.65300 0.86020 -0.00600
C 	C 	0.07400 0.70508 0.83420 0.21300
C 	C 	0.16210 0.71470 0.82063 -0.25500
H 	H 	0.24200 0.71090 0.82400 0.12600
C 	C 	0.13080 0.73008 0.80203 0.21600
C 	C 	0.01590 0.73481 0.79645 -0.25700
H 	H 	0.99600 0.74500 0.78350 0.12500
C 	C 	0.93010 0.72431 0.81018 0.21200
C 	C 	0.95650 0.70948 0.82929 -0.25000
H 	H 	0.89650 0.70260 0.83860 0.13100
C 	C 	0.71490 0.71082 0.81098 0.01600
H 	H 	0.71680 0.69090 0.81880 0.03700
C 	C 	0.61960 0.72619 0.80320 0.00800
H 	H 	0.54140 0.71850 0.80460 0.02900
C 	C 	0.76830 0.75654 0.79421 0.10400
H 	H 	0.81510 0.77360 0.78840 -0.00400
C 	C 	0.22120 0.74374 0.76707 0.00800
H 	H 	0.16150 0.73640 0.75780 0.03100
C 	C 	0.32350 0.75514 0.79559 0.10100
H 	H 	0.34590 0.75680 0.80990 -0.00200
C 	C 	0.32390 0.75824 0.76181 0.00800
H 	H 	0.34870 0.76280 0.74790 0.00800
C 	C 	0.47690 0.82075 0.81839 0.33300
C 	C 	0.42380 0.84861 0.83068 -0.09500
C 	C 	0.42130 0.84835 0.85227 -0.01200
H 	H 	0.45140 0.82980 0.85960 0.05400
Zn	Zn	0.54358 0.29002 0.28145 1.21000
O 	O 	0.80870 0.06684 0.51559 -0.37600
O 	O 	0.97560 0.05633 0.50031 -0.40700
O 	O 	0.04390 0.09638 0.42690 -0.39900
O 	O 	0.92750 0.13480 0.41446 -0.36200
O 	O 	0.49010 0.29320 0.32662 -0.30100
O 	O 	0.50360 0.32749 0.29954 -0.43700
N 	N 	0.12190 0.16302 0.38276 -0.26100
N 	N 	0.10730 0.19279 0.35404 -0.15600
N 	N 	0.81000 0.23035 0.30510 -0.15400
N 	N 	0.65310 0.25495 0.29282 -0.25800
N 	N 	0.22130 0.24190 0.28875 -0.15400
N 	N 	0.38730 0.26541 0.27973 -0.25200
C 	C 	0.87420 0.06856 0.50044 0.30200
C 	C 	0.83530 0.08670 0.48062 -0.04700
C 	C 	0.72460 0.10021 0.48034 -0.04200
H 	H 	0.67510 0.09780 0.49220 0.06600
C 	C 	0.68430 0.11754 0.46277 0.01500
C 	C 	0.75730 0.12123 0.44557 -0.03900
H 	H 	0.73070 0.13290 0.43360 0.05900
C 	C 	0.87010 0.10778 0.44597 -0.05600
C 	C 	0.90920 0.09059 0.46341 -0.00500
H 	H 	0.98580 0.08150 0.46360 0.06000
C 	C 	0.95040 0.11340 0.42775 0.29600
C 	C 	0.20280 0.18710 0.38348 0.00500
H 	H 	0.25500 0.19080 0.39480 0.02300
C 	C 	0.19920 0.20540 0.36568 0.00600
H 	H 	0.24940 0.22320 0.36200 0.03500
C 	C 	0.06530 0.16678 0.36486 0.10300
H 	H 	0.00320 0.15300 0.36020 -0.00600
C 	C 	0.07400 0.20508 0.33420 0.21300
C 	C 	0.16210 0.21470 0.32063 -0.25500
H 	H 	0.24200 0.21090 0.32400 0.12600
C 	C 	0.13080 0.23008 0.30203 0.21600
C 	C 	0.01590 0.23481 0.29645 -0.25700
H 	H 	0.99600 0.24500 0.28350 0.12500
C 	C 	0.93010 0.22431 0.31018 0.21200
C 	C 	0.95650 0.20948 0.32929 -0.25000
H 	H 	0.89650 0.20260 0.33860 0.13100
C 	C 	0.71490 0.21082 0.31098 0.01600
H 	H 	0.71680 0.19090 0.31880 0.03700
C 	C 	0.61960 0.22619 0.30320 0.00800
H 	H 	0.54140 0.21850 0.30460 0.02900
C 	C 	0.76830 0.25654 0.29421 0.10400
H 	H 	0.81510 0.27360 0.28840 -0.00400
C 	C 	0.22120 0.24374 0.26707 0.00800
H 	H 	0.16150 0.23640 0.25780 0.03100
C 	C 	0.32350 0.25514 0.29559 0.10100
H 	H 	0.34590 0.25680 0.30990 -0.00200
C 	C 	0.32390 0.25824 0.26181 0.00800
H 	H 	0.34870 0.26280 0.24790 0.00800
C 	C 	0.47690 0.32075 0.31839 0.33300
C 	C 	0.42380 0.34861 0.33068 -0.09500
C 	C 	0.42130 0.34835 0.35227 -0.01200
H 	H 	0.45140 0.32980 0.35960 0.05400
Zn	Zn	0.04358 0.79002 0.28145 1.21000
O 	O 	0.30870 0.56684 0.51559 -0.37600
O 	O 	0.47560 0.55633 0.50031 -0.40700
O 	O 	0.54390 0.59638 0.42690 -0.39900
O 	O 	0.42750 0.63480 0.41446 -0.36200
O 	O 	0.99010 0.79320 0.32662 -0.30100
O 	O 	0.00360 0.82749 0.29954 -0.43700
N 	N 	0.62190 0.66302 0.38276 -0.26100
N 	N 	0.60730 0.69279 0.35404 -0.15600
N 	N 	0.31000 0.73035 0.30510 -0.15400
N 	N 	0.15310 0.75495 0.29282 -0.25800
N 	N 	0.72130 0.74190 0.28875 -0.15400
N 	N 	0.88730 0.76541 0.27973 -0.25200
C 	C 	0.37420 0.56856 0.50044 0.30200
C 	C 	0.33530 0.58670 0.48062 -0.04700
C 	C 	0.22460 0.60021 0.48034 -0.04200
H 	H 	0.17510 0.59780 0.49220 0.06600
C 	C 	0.18430 0.61754 0.46277 0.01500
C 	C 	0.25730 0.62123 0.44557 -0.03900
H 	H 	0.23070 0.63290 0.43360 0.05900
C 	C 	0.37010 0.60778 0.44597 -0.05500
C 	C 	0.40920 0.59059 0.46341 -0.00500
H 	H 	0.48580 0.58150 0.46360 0.06000
C 	C 	0.45040 0.61340 0.42775 0.29600
C 	C 	0.70280 0.68710 0.38348 0.00500
H 	H 	0.75500 0.69080 0.39480 0.02300
C 	C 	0.69920 0.70540 0.36568 0.00600
H 	H 	0.74940 0.72320 0.36200 0.03500
C 	C 	0.56530 0.66678 0.36486 0.10300
H 	H 	0.50320 0.65300 0.36020 -0.00600
C 	C 	0.57400 0.70508 0.33420 0.21300
C 	C 	0.66210 0.71470 0.32063 -0.25500
H 	H 	0.74200 0.71090 0.32400 0.12600
C 	C 	0.63080 0.73008 0.30203 0.21600
C 	C 	0.51590 0.73481 0.29645 -0.25700
H 	H 	0.49600 0.74500 0.28350 0.12500
C 	C 	0.43010 0.72431 0.31018 0.21200
C 	C 	0.45650 0.70948 0.32929 -0.25000
H 	H 	0.39650 0.70260 0.33860 0.13100
C 	C 	0.21490 0.71082 0.31098 0.01600
H 	H 	0.21680 0.69090 0.31880 0.03700
C 	C 	0.11960 0.72619 0.30320 0.00800
H 	H 	0.04140 0.71850 0.30460 0.02900
C 	C 	0.26830 0.75654 0.29421 0.10400
H 	H 	0.31510 0.77360 0.28840 -0.00400
C 	C 	0.72120 0.74374 0.26707 0.00800
H 	H 	0.66150 0.73640 0.25780 0.03100
C 	C 	0.82350 0.75514 0.29559 0.10100
H 	H 	0.84590 0.75680 0.30990 -0.00200
C 	C 	0.82390 0.75824 0.26181 0.00800
H 	H 	0.84870 0.76280 0.24790 0.00800
C 	C 	0.97690 0.82075 0.31839 0.33400
C 	C 	0.92380 0.84861 0.33068 -0.09500
C 	C 	0.92130 0.84835 0.35227 -0.01200
H 	H 	0.95140 0.82980 0.35960 0.05400
Zn	Zn	0.04358 0.29002 0.78145 1.21000
O 	O 	0.30870 0.06684 0.01559 -0.37600
O 	O 	0.47560 0.05633 0.00031 -0.40700
O 	O 	0.54390 0.09638 0.92690 -0.39900
O 	O 	0.42750 0.13480 0.91446 -0.36200
O 	O 	0.99010 0.29320 0.82662 -0.30100
O 	O 	0.00360 0.32749 0.79954 -0.43700
N 	N 	0.62190 0.16302 0.88276 -0.26100
N 	N 	0.60730 0.19279 0.85404 -0.15600
N 	N 	0.31000 0.23035 0.80510 -0.15400
N 	N 	0.15310 0.25495 0.79282 -0.25800
N 	N 	0.72130 0.24190 0.78875 -0.15400
N 	N 	0.88730 0.26541 0.77973 -0.25200
C 	C 	0.37420 0.06856 0.00044 0.30200
C 	C 	0.33530 0.08670 0.98062 -0.04700
C 	C 	0.22460 0.10021 0.98034 -0.04200
H 	H 	0.17510 0.09780 0.99220 0.06600
C 	C 	0.18430 0.11754 0.96277 0.01500
C 	C 	0.25730 0.12123 0.94557 -0.03900
H 	H 	0.23070 0.13290 0.93360 0.05900
C 	C 	0.37010 0.10778 0.94597 -0.05500
C 	C 	0.40920 0.09059 0.96341 -0.00500
H 	H 	0.48580 0.08150 0.96360 0.06000
C 	C 	0.45040 0.11340 0.92775 0.29600
C 	C 	0.70280 0.18710 0.88348 0.00500
H 	H 	0.75500 0.19080 0.89480 0.02300
C 	C 	0.69920 0.20540 0.86568 0.00600
H 	H 	0.74940 0.22320 0.86200 0.03500
C 	C 	0.56530 0.16678 0.86486 0.10300
H 	H 	0.50320 0.15300 0.86020 -0.00600
C 	C 	0.57400 0.20508 0.83420 0.21300
C 	C 	0.66210 0.21470 0.82063 -0.25500
H 	H 	0.74200 0.21090 0.82400 0.12600
C 	C 	0.63080 0.23008 0.80203 0.21600
C 	C 	0.51590 0.23481 0.79645 -0.25700
H 	H 	0.49600 0.24500 0.78350 0.12500
C 	C 	0.43010 0.22431 0.81018 0.21200
C 	C 	0.45650 0.20948 0.82929 -0.25000
H 	H 	0.39650 0.20260 0.83860 0.13100
C 	C 	0.21490 0.21082 0.81098 0.01600
H 	H 	0.21680 0.19090 0.81880 0.03700
C 	C 	0.11960 0.22619 0.80320 0.00800
H 	H 	0.04140 0.21850 0.80460 0.02900
C 	C 	0.26830 0.25654 0.79421 0.10400
H 	H 	0.31510 0.27360 0.78840 -0.00400
C 	C 	0.72120 0.24374 0.76707 0.00800
H 	H 	0.66150 0.23640 0.75780 0.03100
C 	C 	0.82350 0.25514 0.79559 0.10100
H 	H 	0.84590 0.25680 0.80990 -0.00200
C 	C 	0.82390 0.25824 0.76181 0.00800
H 	H 	0.84870 0.26280 0.74790 0.00800
C 	C 	0.97690 0.32075 0.81839 0.33400
C 	C 	0.92380 0.34861 0.83068 -0.09500
C 	C 	0.92130 0.34835 0.85227 -0.01200
H 	H 	0.95140 0.32980 0.85960 0.05400
Zn	Zn	0.87500 0.37500 0.65340 1.20500
Zn	Zn	0.87500 0.87500 0.15340 1.20500
Zn	Zn	0.37500 0.37500 0.15340 1.20500
Zn	Zn	0.37500 0.87500 0.65340 1.20500
Zn	Zn	0.87500 0.37500 0.09660 1.20500
Zn	Zn	0.87500 0.87500 0.59660 1.20500
Zn	Zn	0.37500 0.37500 0.59660 1.20500
Zn	Zn	0.37500 0.87500 0.09660 1.20500
Zn	Zn	0.12500 0.62500 0.34660 1.20500
Zn	Zn	0.12500 0.12500 0.84660 1.20500
Zn	Zn	0.62500 0.62500 0.84660 1.20500
Zn	Zn	0.62500 0.12500 0.34660 1.20500
Zn	Zn	0.12500 0.62500 0.90340 1.20500
Zn	Zn	0.12500 0.12500 0.40340 1.20500
Zn	Zn	0.62500 0.62500 0.40340 1.20500
Zn	Zn	0.62500 0.12500 0.90340 1.20500
C 	C 	0.62500 0.62500 0.56972 0.08700
C 	C 	0.62500 0.62500 0.61339 0.00000
C 	C 	0.62500 0.12500 0.06972 0.08700
C 	C 	0.62500 0.12500 0.11339 0.00000
C 	C 	0.12500 0.12500 0.56972 0.08700
C 	C 	0.12500 0.12500 0.61339 0.00000
C 	C 	0.12500 0.62500 0.06972 0.08700
C 	C 	0.12500 0.62500 0.11339 0.00000
C 	C 	0.12500 0.62500 0.18028 0.08700
C 	C 	0.12500 0.62500 0.13661 0.00000
C 	C 	0.12500 0.12500 0.68028 0.08700
C 	C 	0.12500 0.12500 0.63661 0.00000
C 	C 	0.62500 0.62500 0.68028 0.08700
C 	C 	0.62500 0.62500 0.63661 0.00000
C 	C 	0.62500 0.12500 0.18028 0.08700
C 	C 	0.62500 0.12500 0.13661 0.00000
C 	C 	0.37500 0.37500 0.43028 0.08700
C 	C 	0.37500 0.37500 0.38661 0.00000
C 	C 	0.37500 0.87500 0.93028 0.08700
C 	C 	0.37500 0.87500 0.88661 0.00000
C 	C 	0.87500 0.87500 0.43028 0.08700
C 	C 	0.87500 0.87500 0.38661 0.00000
C 	C 	0.87500 0.37500 0.93028 0.08700
C 	C 	0.87500 0.37500 0.88661 0.00000
C 	C 	0.87500 0.37500 0.81972 0.08700
C 	C 	0.87500 0.37500 0.86339 0.00000
C 	C 	0.87500 0.87500 0.31972 0.08700
C 	C 	0.87500 0.87500 0.36339 0.00000
C 	C 	0.37500 0.87500 0.81972 0.08700
C 	C 	0.37500 0.87500 0.86339 0.00000
C 	C 	0.37500 0.37500 0.31972 0.08700
C 	C 	0.37500 0.37500 0.36339 0.00000
