data_crystal

_cell_length_a 51.55000
_cell_length_b 51.55000
_cell_length_c 51.55000
_cell_angle_alpha 90.00000
_cell_angle_beta  90.00000
_cell_angle_gamma 90.00000

_symmetry_space_group_name_	'P 1'
_symmetry_space_group_name_H-M	'P 1'

loop_
_symmetry_equiv_pos_as_xyz
  x,y,z

loop_
_atom_site_label
_atom_site_type_symbol
_atom_site_fract_x
_atom_site_fract_y
_atom_site_fract_z
_atom_site_charge
O 	O 	0.26428 0.52996 0.18384 -0.72600
O 	O 	0.29760 0.52840 0.20990 -0.89700
C 	C 	0.28725 0.53626 0.19247 0.67700
C 	C 	0.29329 0.56396 0.18343 -0.24800
C 	C 	0.31533 0.57155 0.18921 0.11100
H 	H 	0.32780 0.55980 0.19610 -0.05800
C 	C 	0.32251 0.60095 0.18508 -0.13700
C 	C 	0.34996 0.61239 0.19486 0.41000
C 	C 	0.35030 0.63205 0.17179 -0.19000
C 	C 	0.33157 0.63296 0.15143 0.08800
C 	C 	0.31481 0.60943 0.16146 0.01300
C 	C 	0.28944 0.60104 0.14396 -0.12600
H 	H 	0.28210 0.60950 0.12930 0.03500
C 	C 	0.34134 0.62268 0.21811 -0.85300
H 	H 	0.34170 0.60920 0.23150 0.26000
H 	H 	0.32360 0.62910 0.21600 0.27000
H 	H 	0.35270 0.63710 0.22330 0.25700
C 	C 	0.37215 0.59136 0.18938 -0.65200
H 	H 	0.37350 0.58830 0.17070 0.19000
H 	H 	0.36780 0.57510 0.19820 0.17500
H 	H 	0.38880 0.59780 0.19590 0.18800
C 	C 	0.27992 0.57387 0.15879 0.02800
H 	H 	0.26580 0.56430 0.15180 -0.01400
O 	O 	0.26428 0.02996 0.68384 -0.72600
O 	O 	0.29760 0.02840 0.70990 -0.89700
C 	C 	0.28725 0.03626 0.69247 0.67800
C 	C 	0.29329 0.06396 0.68343 -0.24700
C 	C 	0.31533 0.07155 0.68921 0.11200
H 	H 	0.32780 0.05980 0.69610 -0.05700
C 	C 	0.32251 0.10095 0.68508 -0.13600
C 	C 	0.34996 0.11239 0.69486 0.41100
C 	C 	0.35030 0.13205 0.67179 -0.18900
C 	C 	0.33157 0.13296 0.65143 0.08900
C 	C 	0.31481 0.10943 0.66146 0.01400
C 	C 	0.28944 0.10104 0.64396 -0.12500
H 	H 	0.28210 0.10950 0.62930 0.03500
C 	C 	0.34134 0.12268 0.71811 -0.85300
H 	H 	0.34170 0.10920 0.73150 0.25900
H 	H 	0.32360 0.12910 0.71600 0.27000
H 	H 	0.35270 0.13710 0.72330 0.25700
C 	C 	0.37215 0.09136 0.68938 -0.65200
H 	H 	0.37350 0.08830 0.67070 0.19000
H 	H 	0.36780 0.07510 0.69820 0.17400
H 	H 	0.38880 0.09780 0.69590 0.18800
C 	C 	0.27992 0.07387 0.65879 0.02800
H 	H 	0.26580 0.06430 0.65180 -0.01400
O 	O 	0.76428 0.52996 0.68384 -0.72500
O 	O 	0.79760 0.52840 0.70990 -0.89600
C 	C 	0.78725 0.53626 0.69247 0.67800
C 	C 	0.79329 0.56396 0.68343 -0.24700
C 	C 	0.81533 0.57155 0.68921 0.11200
H 	H 	0.82780 0.55980 0.69610 -0.05700
C 	C 	0.82251 0.60095 0.68508 -0.13600
C 	C 	0.84996 0.61239 0.69486 0.41100
C 	C 	0.85030 0.63205 0.67179 -0.18900
C 	C 	0.83157 0.63296 0.65143 0.08900
C 	C 	0.81481 0.60943 0.66146 0.01400
C 	C 	0.78944 0.60104 0.64396 -0.12500
H 	H 	0.78210 0.60950 0.62930 0.03500
C 	C 	0.84134 0.62268 0.71811 -0.85300
H 	H 	0.84170 0.60920 0.73150 0.26000
H 	H 	0.82360 0.62910 0.71600 0.27000
H 	H 	0.85270 0.63710 0.72330 0.25700
C 	C 	0.87215 0.59136 0.68938 -0.65300
H 	H 	0.87350 0.58830 0.67070 0.19100
H 	H 	0.86780 0.57510 0.69820 0.17500
H 	H 	0.88880 0.59780 0.69590 0.18900
C 	C 	0.77992 0.57387 0.65879 0.02800
H 	H 	0.76580 0.56430 0.65180 -0.01400
O 	O 	0.76428 0.02996 0.18384 -0.72600
O 	O 	0.79760 0.02840 0.20990 -0.89700
C 	C 	0.78725 0.03626 0.19247 0.67800
C 	C 	0.79329 0.06396 0.18343 -0.24700
C 	C 	0.81533 0.07155 0.18921 0.11200
H 	H 	0.82780 0.05980 0.19610 -0.05700
C 	C 	0.82251 0.10095 0.18508 -0.13600
C 	C 	0.84996 0.11239 0.19486 0.41100
C 	C 	0.85030 0.13205 0.17179 -0.18900
C 	C 	0.83157 0.13296 0.15143 0.08900
C 	C 	0.81481 0.10943 0.16146 0.01400
C 	C 	0.78944 0.10104 0.14396 -0.12500
H 	H 	0.78210 0.10950 0.12930 0.03500
C 	C 	0.84134 0.12268 0.21811 -0.85300
H 	H 	0.84170 0.10920 0.23150 0.26000
H 	H 	0.82360 0.12910 0.21600 0.27000
H 	H 	0.85270 0.13710 0.22330 0.25700
C 	C 	0.87215 0.09136 0.18938 -0.65200
H 	H 	0.87350 0.08830 0.17070 0.19000
H 	H 	0.86780 0.07510 0.19820 0.17500
H 	H 	0.88880 0.09780 0.19590 0.18800
C 	C 	0.77992 0.07387 0.15879 0.02800
H 	H 	0.76580 0.06430 0.15180 -0.01400
O 	O 	0.73572 0.47004 0.18384 -0.72500
O 	O 	0.70240 0.47160 0.20990 -0.89600
C 	C 	0.71275 0.46374 0.19247 0.67800
C 	C 	0.70671 0.43604 0.18343 -0.24700
C 	C 	0.68467 0.42845 0.18921 0.11200
H 	H 	0.67220 0.44020 0.19610 -0.05700
C 	C 	0.67749 0.39905 0.18508 -0.13600
C 	C 	0.65004 0.38761 0.19486 0.41100
C 	C 	0.64970 0.36795 0.17179 -0.18900
C 	C 	0.66843 0.36704 0.15143 0.08900
C 	C 	0.68519 0.39057 0.16146 0.01400
C 	C 	0.71056 0.39896 0.14396 -0.12500
H 	H 	0.71790 0.39050 0.12930 0.03500
C 	C 	0.65866 0.37732 0.21811 -0.85300
H 	H 	0.65830 0.39080 0.23150 0.26000
H 	H 	0.67640 0.37090 0.21600 0.27000
H 	H 	0.64730 0.36290 0.22330 0.25700
C 	C 	0.62785 0.40864 0.18938 -0.65200
H 	H 	0.62650 0.41170 0.17070 0.19000
H 	H 	0.63220 0.42490 0.19820 0.17500
H 	H 	0.61120 0.40220 0.19590 0.18800
C 	C 	0.72008 0.42613 0.15879 0.02800
H 	H 	0.73420 0.43570 0.15180 -0.01400
O 	O 	0.73572 0.97004 0.68384 -0.72500
O 	O 	0.70240 0.97160 0.70990 -0.89500
C 	C 	0.71275 0.96374 0.69247 0.67800
C 	C 	0.70671 0.93604 0.68343 -0.24700
C 	C 	0.68467 0.92845 0.68921 0.11200
H 	H 	0.67220 0.94020 0.69610 -0.05700
C 	C 	0.67749 0.89905 0.68508 -0.13600
C 	C 	0.65004 0.88761 0.69486 0.41100
C 	C 	0.64970 0.86795 0.67179 -0.18900
C 	C 	0.66843 0.86704 0.65143 0.08900
C 	C 	0.68519 0.89057 0.66146 0.01400
C 	C 	0.71056 0.89896 0.64396 -0.12500
H 	H 	0.71790 0.89050 0.62930 0.03500
C 	C 	0.65866 0.87732 0.71811 -0.85300
H 	H 	0.65830 0.89080 0.73150 0.26000
H 	H 	0.67640 0.87090 0.71600 0.27000
H 	H 	0.64730 0.86290 0.72330 0.25700
C 	C 	0.62785 0.90864 0.68938 -0.65300
H 	H 	0.62650 0.91170 0.67070 0.19100
H 	H 	0.63220 0.92490 0.69820 0.17500
H 	H 	0.61120 0.90220 0.69590 0.18900
C 	C 	0.72008 0.92613 0.65879 0.02800
H 	H 	0.73420 0.93570 0.65180 -0.01400
O 	O 	0.23572 0.47004 0.68384 -0.72500
O 	O 	0.20240 0.47160 0.70990 -0.89600
C 	C 	0.21275 0.46374 0.69247 0.67800
C 	C 	0.20671 0.43604 0.68343 -0.24700
C 	C 	0.18467 0.42845 0.68921 0.11200
H 	H 	0.17220 0.44020 0.69610 -0.05700
C 	C 	0.17749 0.39905 0.68508 -0.13600
C 	C 	0.15004 0.38761 0.69486 0.41100
C 	C 	0.14970 0.36795 0.67179 -0.18900
C 	C 	0.16843 0.36704 0.65143 0.08900
C 	C 	0.18519 0.39057 0.66146 0.01400
C 	C 	0.21056 0.39896 0.64396 -0.12500
H 	H 	0.21790 0.39050 0.62930 0.03500
C 	C 	0.15866 0.37732 0.71811 -0.85300
H 	H 	0.15830 0.39080 0.73150 0.26000
H 	H 	0.17640 0.37090 0.71600 0.27000
H 	H 	0.14730 0.36290 0.72330 0.25700
C 	C 	0.12785 0.40864 0.68938 -0.65200
H 	H 	0.12650 0.41170 0.67070 0.19000
H 	H 	0.13220 0.42490 0.69820 0.17500
H 	H 	0.11120 0.40220 0.69590 0.18800
C 	C 	0.22008 0.42613 0.65879 0.02800
H 	H 	0.23420 0.43570 0.65180 -0.01400
O 	O 	0.23572 0.97004 0.18384 -0.72500
O 	O 	0.20240 0.97160 0.20990 -0.89500
C 	C 	0.21275 0.96374 0.19247 0.67800
C 	C 	0.20671 0.93604 0.18343 -0.24700
C 	C 	0.18467 0.92845 0.18921 0.11200
H 	H 	0.17220 0.94020 0.19610 -0.05700
C 	C 	0.17749 0.89905 0.18508 -0.13600
C 	C 	0.15004 0.88761 0.19486 0.41100
C 	C 	0.14970 0.86795 0.17179 -0.18900
C 	C 	0.16843 0.86704 0.15143 0.08900
C 	C 	0.18519 0.89057 0.16146 0.01400
C 	C 	0.21056 0.89896 0.14396 -0.12500
H 	H 	0.21790 0.89050 0.12930 0.03500
C 	C 	0.15866 0.87732 0.21811 -0.85300
H 	H 	0.15830 0.89080 0.23150 0.26000
H 	H 	0.17640 0.87090 0.21600 0.27000
H 	H 	0.14730 0.86290 0.22330 0.25700
C 	C 	0.12785 0.90864 0.18938 -0.65200
H 	H 	0.12650 0.91170 0.17070 0.19100
H 	H 	0.13220 0.92490 0.19820 0.17500
H 	H 	0.11120 0.90220 0.19590 0.18800
C 	C 	0.22008 0.92613 0.15879 0.02800
H 	H 	0.23420 0.93570 0.15180 -0.01400
O 	O 	0.73572 0.52996 0.81616 -0.72500
O 	O 	0.70240 0.52840 0.79010 -0.89600
C 	C 	0.71275 0.53626 0.80753 0.67800
C 	C 	0.70671 0.56396 0.81657 -0.24700
C 	C 	0.68467 0.57155 0.81079 0.11200
H 	H 	0.67220 0.55980 0.80390 -0.05700
C 	C 	0.67749 0.60095 0.81492 -0.13600
C 	C 	0.65004 0.61239 0.80514 0.41100
C 	C 	0.64970 0.63205 0.82821 -0.18900
C 	C 	0.66843 0.63296 0.84857 0.08900
C 	C 	0.68519 0.60943 0.83854 0.01400
C 	C 	0.71056 0.60104 0.85604 -0.12500
H 	H 	0.71790 0.60950 0.87070 0.03500
C 	C 	0.65866 0.62268 0.78189 -0.85300
H 	H 	0.65830 0.60920 0.76850 0.26000
H 	H 	0.67640 0.62910 0.78400 0.27000
H 	H 	0.64730 0.63710 0.77670 0.25700
C 	C 	0.62785 0.59136 0.81062 -0.65200
H 	H 	0.62650 0.58830 0.82930 0.19100
H 	H 	0.63220 0.57510 0.80180 0.17500
H 	H 	0.61120 0.59780 0.80410 0.18900
C 	C 	0.72008 0.57387 0.84121 0.02800
H 	H 	0.73420 0.56430 0.84820 -0.01400
O 	O 	0.73572 0.02996 0.31616 -0.72600
O 	O 	0.70240 0.02840 0.29010 -0.89700
C 	C 	0.71275 0.03626 0.30753 0.67800
C 	C 	0.70671 0.06396 0.31657 -0.24700
C 	C 	0.68467 0.07155 0.31079 0.11200
H 	H 	0.67220 0.05980 0.30390 -0.05700
C 	C 	0.67749 0.10095 0.31492 -0.13600
C 	C 	0.65004 0.11239 0.30514 0.41100
C 	C 	0.64970 0.13205 0.32821 -0.18900
C 	C 	0.66843 0.13296 0.34857 0.08900
C 	C 	0.68519 0.10943 0.33854 0.01400
C 	C 	0.71056 0.10104 0.35604 -0.12500
H 	H 	0.71790 0.10950 0.37070 0.03500
C 	C 	0.65866 0.12268 0.28189 -0.85300
H 	H 	0.65830 0.10920 0.26850 0.25900
H 	H 	0.67640 0.12910 0.28400 0.27000
H 	H 	0.64730 0.13710 0.27670 0.25700
C 	C 	0.62785 0.09136 0.31062 -0.65200
H 	H 	0.62650 0.08830 0.32930 0.19000
H 	H 	0.63220 0.07510 0.30180 0.17400
H 	H 	0.61120 0.09780 0.30410 0.18800
C 	C 	0.72008 0.07387 0.34121 0.02800
H 	H 	0.73420 0.06430 0.34820 -0.01400
O 	O 	0.23572 0.52996 0.31616 -0.72500
O 	O 	0.20240 0.52840 0.29010 -0.89600
C 	C 	0.21275 0.53626 0.30753 0.67800
C 	C 	0.20671 0.56396 0.31657 -0.24700
C 	C 	0.18467 0.57155 0.31079 0.11200
H 	H 	0.17220 0.55980 0.30390 -0.05700
C 	C 	0.17749 0.60095 0.31492 -0.13600
C 	C 	0.15004 0.61239 0.30514 0.41100
C 	C 	0.14970 0.63205 0.32821 -0.18900
C 	C 	0.16843 0.63296 0.34857 0.08900
C 	C 	0.18519 0.60943 0.33854 0.01400
C 	C 	0.21056 0.60104 0.35604 -0.12500
H 	H 	0.21790 0.60950 0.37070 0.03500
C 	C 	0.15866 0.62268 0.28189 -0.85300
H 	H 	0.15830 0.60920 0.26850 0.26000
H 	H 	0.17640 0.62910 0.28400 0.27000
H 	H 	0.14730 0.63710 0.27670 0.25700
C 	C 	0.12785 0.59136 0.31062 -0.65200
H 	H 	0.12650 0.58830 0.32930 0.19000
H 	H 	0.13220 0.57510 0.30180 0.17500
H 	H 	0.11120 0.59780 0.30410 0.18800
C 	C 	0.22008 0.57387 0.34121 0.02800
H 	H 	0.23420 0.56430 0.34820 -0.01400
O 	O 	0.23572 0.02996 0.81616 -0.72600
O 	O 	0.20240 0.02840 0.79010 -0.89700
C 	C 	0.21275 0.03626 0.80753 0.67800
C 	C 	0.20671 0.06396 0.81657 -0.24700
C 	C 	0.18467 0.07155 0.81079 0.11200
H 	H 	0.17220 0.05980 0.80390 -0.05700
C 	C 	0.17749 0.10095 0.81492 -0.13600
C 	C 	0.15004 0.11239 0.80514 0.41000
C 	C 	0.14970 0.13205 0.82821 -0.18900
C 	C 	0.16843 0.13296 0.84857 0.08900
C 	C 	0.18519 0.10943 0.83854 0.01400
C 	C 	0.21056 0.10104 0.85604 -0.12500
H 	H 	0.21790 0.10950 0.87070 0.03500
C 	C 	0.15866 0.12268 0.78189 -0.85300
H 	H 	0.15830 0.10920 0.76850 0.25900
H 	H 	0.17640 0.12910 0.78400 0.27000
H 	H 	0.14730 0.13710 0.77670 0.25700
C 	C 	0.12785 0.09136 0.81062 -0.65200
H 	H 	0.12650 0.08830 0.82930 0.19000
H 	H 	0.13220 0.07510 0.80180 0.17400
H 	H 	0.11120 0.09780 0.80410 0.18800
C 	C 	0.22008 0.07387 0.84121 0.02800
H 	H 	0.23420 0.06430 0.84820 -0.01400
O 	O 	0.26428 0.47004 0.81616 -0.72500
O 	O 	0.29760 0.47160 0.79010 -0.89600
C 	C 	0.28725 0.46374 0.80753 0.67800
C 	C 	0.29329 0.43604 0.81657 -0.24700
C 	C 	0.31533 0.42845 0.81079 0.11200
H 	H 	0.32780 0.44020 0.80390 -0.05700
C 	C 	0.32251 0.39905 0.81492 -0.13600
C 	C 	0.34996 0.38761 0.80514 0.41100
C 	C 	0.35030 0.36795 0.82821 -0.18900
C 	C 	0.33157 0.36704 0.84857 0.08900
C 	C 	0.31481 0.39057 0.83854 0.01400
C 	C 	0.28944 0.39896 0.85604 -0.12500
H 	H 	0.28210 0.39050 0.87070 0.03500
C 	C 	0.34134 0.37732 0.78189 -0.85300
H 	H 	0.34170 0.39080 0.76850 0.26000
H 	H 	0.32360 0.37090 0.78400 0.27000
H 	H 	0.35270 0.36290 0.77670 0.25700
C 	C 	0.37215 0.40864 0.81062 -0.65200
H 	H 	0.37350 0.41170 0.82930 0.19100
H 	H 	0.36780 0.42490 0.80180 0.17500
H 	H 	0.38880 0.40220 0.80410 0.18900
C 	C 	0.27992 0.42613 0.84121 0.02900
H 	H 	0.26580 0.43570 0.84820 -0.01400
O 	O 	0.26428 0.97004 0.31616 -0.72500
O 	O 	0.29760 0.97160 0.29010 -0.89500
C 	C 	0.28725 0.96374 0.30753 0.67800
C 	C 	0.29329 0.93604 0.31657 -0.24700
C 	C 	0.31533 0.92845 0.31079 0.11200
H 	H 	0.32780 0.94020 0.30390 -0.05700
C 	C 	0.32251 0.89905 0.31492 -0.13600
C 	C 	0.34996 0.88761 0.30514 0.41100
C 	C 	0.35030 0.86795 0.32821 -0.18900
C 	C 	0.33157 0.86704 0.34857 0.08900
C 	C 	0.31481 0.89057 0.33854 0.01400
C 	C 	0.28944 0.89896 0.35604 -0.12500
H 	H 	0.28210 0.89050 0.37070 0.03500
C 	C 	0.34134 0.87732 0.28189 -0.85300
H 	H 	0.34170 0.89080 0.26850 0.26000
H 	H 	0.32360 0.87090 0.28400 0.27000
H 	H 	0.35270 0.86290 0.27670 0.25700
C 	C 	0.37215 0.90864 0.31062 -0.65300
H 	H 	0.37350 0.91170 0.32930 0.19100
H 	H 	0.36780 0.92490 0.30180 0.17500
H 	H 	0.38880 0.90220 0.30410 0.18900
C 	C 	0.27992 0.92613 0.34121 0.02900
H 	H 	0.26580 0.93570 0.34820 -0.01400
O 	O 	0.76428 0.47004 0.31616 -0.72500
O 	O 	0.79760 0.47160 0.29010 -0.89600
C 	C 	0.78725 0.46374 0.30753 0.67800
C 	C 	0.79329 0.43604 0.31657 -0.24700
C 	C 	0.81533 0.42845 0.31079 0.11200
H 	H 	0.82780 0.44020 0.30390 -0.05700
C 	C 	0.82251 0.39905 0.31492 -0.13600
C 	C 	0.84996 0.38761 0.30514 0.41100
C 	C 	0.85030 0.36795 0.32821 -0.18900
C 	C 	0.83157 0.36704 0.34857 0.08900
C 	C 	0.81481 0.39057 0.33854 0.01400
C 	C 	0.78944 0.39896 0.35604 -0.12500
H 	H 	0.78210 0.39050 0.37070 0.03500
C 	C 	0.84134 0.37732 0.28189 -0.85300
H 	H 	0.84170 0.39080 0.26850 0.26000
H 	H 	0.82360 0.37090 0.28400 0.27000
H 	H 	0.85270 0.36290 0.27670 0.25700
C 	C 	0.87215 0.40864 0.31062 -0.65300
H 	H 	0.87350 0.41170 0.32930 0.19100
H 	H 	0.86780 0.42490 0.30180 0.17500
H 	H 	0.88880 0.40220 0.30410 0.18900
C 	C 	0.77992 0.42613 0.34121 0.02800
H 	H 	0.76580 0.43570 0.34820 -0.01400
O 	O 	0.76428 0.97004 0.81616 -0.72500
O 	O 	0.79760 0.97160 0.79010 -0.89500
C 	C 	0.78725 0.96374 0.80753 0.67800
C 	C 	0.79329 0.93604 0.81657 -0.24700
C 	C 	0.81533 0.92845 0.81079 0.11200
H 	H 	0.82780 0.94020 0.80390 -0.05600
C 	C 	0.82251 0.89905 0.81492 -0.13600
C 	C 	0.84996 0.88761 0.80514 0.41100
C 	C 	0.85030 0.86795 0.82821 -0.18900
C 	C 	0.83157 0.86704 0.84857 0.08900
C 	C 	0.81481 0.89057 0.83854 0.01400
C 	C 	0.78944 0.89896 0.85604 -0.12500
H 	H 	0.78210 0.89050 0.87070 0.03500
C 	C 	0.84134 0.87732 0.78189 -0.85300
H 	H 	0.84170 0.89080 0.76850 0.26000
H 	H 	0.82360 0.87090 0.78400 0.27000
H 	H 	0.85270 0.86290 0.77670 0.25700
C 	C 	0.87215 0.90864 0.81062 -0.65300
H 	H 	0.87350 0.91170 0.82930 0.19100
H 	H 	0.86780 0.92490 0.80180 0.17500
H 	H 	0.88880 0.90220 0.80410 0.18900
C 	C 	0.77992 0.92613 0.84121 0.02900
H 	H 	0.76580 0.93570 0.84820 -0.01400
O 	O 	0.18384 0.26428 0.52996 -0.72500
O 	O 	0.20990 0.29760 0.52840 -0.89600
C 	C 	0.19247 0.28725 0.53626 0.67800
C 	C 	0.18343 0.29329 0.56396 -0.24700
C 	C 	0.18921 0.31533 0.57155 0.11200
H 	H 	0.19610 0.32780 0.55980 -0.05700
C 	C 	0.18508 0.32251 0.60095 -0.13600
C 	C 	0.19486 0.34996 0.61239 0.41100
C 	C 	0.17179 0.35030 0.63205 -0.18900
C 	C 	0.15143 0.33157 0.63296 0.08900
C 	C 	0.16146 0.31481 0.60943 0.01400
C 	C 	0.14396 0.28944 0.60104 -0.12500
H 	H 	0.12930 0.28210 0.60950 0.03500
C 	C 	0.21811 0.34134 0.62268 -0.85300
H 	H 	0.23150 0.34170 0.60920 0.26000
H 	H 	0.21600 0.32360 0.62910 0.27000
H 	H 	0.22330 0.35270 0.63710 0.25700
C 	C 	0.18938 0.37215 0.59136 -0.65200
H 	H 	0.17070 0.37350 0.58830 0.19000
H 	H 	0.19820 0.36780 0.57510 0.17500
H 	H 	0.19590 0.38880 0.59780 0.18800
C 	C 	0.15879 0.27992 0.57387 0.02800
H 	H 	0.15180 0.26580 0.56430 -0.01400
O 	O 	0.18384 0.76428 0.02996 -0.72600
O 	O 	0.20990 0.79760 0.02840 -0.89700
C 	C 	0.19247 0.78725 0.03626 0.67800
C 	C 	0.18343 0.79329 0.06396 -0.24700
C 	C 	0.18921 0.81533 0.07155 0.11200
H 	H 	0.19610 0.82780 0.05980 -0.05700
C 	C 	0.18508 0.82251 0.10095 -0.13600
C 	C 	0.19486 0.84996 0.11239 0.41100
C 	C 	0.17179 0.85030 0.13205 -0.18900
C 	C 	0.15143 0.83157 0.13296 0.08900
C 	C 	0.16146 0.81481 0.10943 0.01400
C 	C 	0.14396 0.78944 0.10104 -0.12500
H 	H 	0.12930 0.78210 0.10950 0.03500
C 	C 	0.21811 0.84134 0.12268 -0.85300
H 	H 	0.23150 0.84170 0.10920 0.26000
H 	H 	0.21600 0.82360 0.12910 0.27000
H 	H 	0.22330 0.85270 0.13710 0.25700
C 	C 	0.18938 0.87215 0.09136 -0.65200
H 	H 	0.17070 0.87350 0.08830 0.19000
H 	H 	0.19820 0.86780 0.07510 0.17500
H 	H 	0.19590 0.88880 0.09780 0.18800
C 	C 	0.15879 0.77992 0.07387 0.02800
H 	H 	0.15180 0.76580 0.06430 -0.01400
O 	O 	0.68384 0.26428 0.02996 -0.72600
O 	O 	0.70990 0.29760 0.02840 -0.89700
C 	C 	0.69247 0.28725 0.03626 0.67800
C 	C 	0.68343 0.29329 0.06396 -0.24700
C 	C 	0.68921 0.31533 0.07155 0.11200
H 	H 	0.69610 0.32780 0.05980 -0.05700
C 	C 	0.68508 0.32251 0.10095 -0.13600
C 	C 	0.69486 0.34996 0.11239 0.41100
C 	C 	0.67179 0.35030 0.13205 -0.18900
C 	C 	0.65143 0.33157 0.13296 0.08900
C 	C 	0.66146 0.31481 0.10943 0.01400
C 	C 	0.64396 0.28944 0.10104 -0.12500
H 	H 	0.62930 0.28210 0.10950 0.03500
C 	C 	0.71811 0.34134 0.12268 -0.85300
H 	H 	0.73150 0.34170 0.10920 0.25900
H 	H 	0.71600 0.32360 0.12910 0.27000
H 	H 	0.72330 0.35270 0.13710 0.25700
C 	C 	0.68938 0.37215 0.09136 -0.65200
H 	H 	0.67070 0.37350 0.08830 0.19000
H 	H 	0.69820 0.36780 0.07510 0.17400
H 	H 	0.69590 0.38880 0.09780 0.18800
C 	C 	0.65879 0.27992 0.07387 0.02800
H 	H 	0.65180 0.26580 0.06430 -0.01400
O 	O 	0.68384 0.76428 0.52996 -0.72500
O 	O 	0.70990 0.79760 0.52840 -0.89600
C 	C 	0.69247 0.78725 0.53626 0.67800
C 	C 	0.68343 0.79329 0.56396 -0.24700
C 	C 	0.68921 0.81533 0.57155 0.11200
H 	H 	0.69610 0.82780 0.55980 -0.05700
C 	C 	0.68508 0.82251 0.60095 -0.13600
C 	C 	0.69486 0.84996 0.61239 0.41100
C 	C 	0.67179 0.85030 0.63205 -0.18900
C 	C 	0.65143 0.83157 0.63296 0.08900
C 	C 	0.66146 0.81481 0.60943 0.01400
C 	C 	0.64396 0.78944 0.60104 -0.12500
H 	H 	0.62930 0.78210 0.60950 0.03500
C 	C 	0.71811 0.84134 0.62268 -0.85300
H 	H 	0.73150 0.84170 0.60920 0.26000
H 	H 	0.71600 0.82360 0.62910 0.27000
H 	H 	0.72330 0.85270 0.63710 0.25700
C 	C 	0.68938 0.87215 0.59136 -0.65300
H 	H 	0.67070 0.87350 0.58830 0.19100
H 	H 	0.69820 0.86780 0.57510 0.17500
H 	H 	0.69590 0.88880 0.59780 0.18900
C 	C 	0.65879 0.77992 0.57387 0.02800
H 	H 	0.65180 0.76580 0.56430 -0.01400
O 	O 	0.18384 0.73572 0.47004 -0.72500
O 	O 	0.20990 0.70240 0.47160 -0.89600
C 	C 	0.19247 0.71275 0.46374 0.67800
C 	C 	0.18343 0.70671 0.43604 -0.24700
C 	C 	0.18921 0.68467 0.42845 0.11200
H 	H 	0.19610 0.67220 0.44020 -0.05700
C 	C 	0.18508 0.67749 0.39905 -0.13600
C 	C 	0.19486 0.65004 0.38761 0.41100
C 	C 	0.17179 0.64970 0.36795 -0.18900
C 	C 	0.15143 0.66843 0.36704 0.08900
C 	C 	0.16146 0.68519 0.39057 0.01400
C 	C 	0.14396 0.71056 0.39896 -0.12500
H 	H 	0.12930 0.71790 0.39050 0.03500
C 	C 	0.21811 0.65866 0.37732 -0.85300
H 	H 	0.23150 0.65830 0.39080 0.26000
H 	H 	0.21600 0.67640 0.37090 0.27000
H 	H 	0.22330 0.64730 0.36290 0.25700
C 	C 	0.18938 0.62785 0.40864 -0.65200
H 	H 	0.17070 0.62650 0.41170 0.19000
H 	H 	0.19820 0.63220 0.42490 0.17500
H 	H 	0.19590 0.61120 0.40220 0.18800
C 	C 	0.15879 0.72008 0.42613 0.02800
H 	H 	0.15180 0.73420 0.43570 -0.01400
O 	O 	0.18384 0.23572 0.97004 -0.72500
O 	O 	0.20990 0.20240 0.97160 -0.89500
C 	C 	0.19247 0.21275 0.96374 0.67800
C 	C 	0.18343 0.20671 0.93604 -0.24700
C 	C 	0.18921 0.18467 0.92845 0.11200
H 	H 	0.19610 0.17220 0.94020 -0.05700
C 	C 	0.18508 0.17749 0.89905 -0.13600
C 	C 	0.19486 0.15004 0.88761 0.41100
C 	C 	0.17179 0.14970 0.86795 -0.18900
C 	C 	0.15143 0.16843 0.86704 0.08900
C 	C 	0.16146 0.18519 0.89057 0.01400
C 	C 	0.14396 0.21056 0.89896 -0.12500
H 	H 	0.12930 0.21790 0.89050 0.03500
C 	C 	0.21811 0.15866 0.87732 -0.85300
H 	H 	0.23150 0.15830 0.89080 0.26000
H 	H 	0.21600 0.17640 0.87090 0.27000
H 	H 	0.22330 0.14730 0.86290 0.25700
C 	C 	0.18938 0.12785 0.90864 -0.65200
H 	H 	0.17070 0.12650 0.91170 0.19100
H 	H 	0.19820 0.13220 0.92490 0.17500
H 	H 	0.19590 0.11120 0.90220 0.18800
C 	C 	0.15879 0.22008 0.92613 0.02800
H 	H 	0.15180 0.23420 0.93570 -0.01400
O 	O 	0.68384 0.73572 0.97004 -0.72500
O 	O 	0.70990 0.70240 0.97160 -0.89500
C 	C 	0.69247 0.71275 0.96374 0.67800
C 	C 	0.68343 0.70671 0.93604 -0.24700
C 	C 	0.68921 0.68467 0.92845 0.11200
H 	H 	0.69610 0.67220 0.94020 -0.05700
C 	C 	0.68508 0.67749 0.89905 -0.13600
C 	C 	0.69486 0.65004 0.88761 0.41100
C 	C 	0.67179 0.64970 0.86795 -0.18900
C 	C 	0.65143 0.66843 0.86704 0.08900
C 	C 	0.66146 0.68519 0.89057 0.01400
C 	C 	0.64396 0.71056 0.89896 -0.12500
H 	H 	0.62930 0.71790 0.89050 0.03500
C 	C 	0.71811 0.65866 0.87732 -0.85300
H 	H 	0.73150 0.65830 0.89080 0.26000
H 	H 	0.71600 0.67640 0.87090 0.27000
H 	H 	0.72330 0.64730 0.86290 0.25700
C 	C 	0.68938 0.62785 0.90864 -0.65300
H 	H 	0.67070 0.62650 0.91170 0.19100
H 	H 	0.69820 0.63220 0.92490 0.17500
H 	H 	0.69590 0.61120 0.90220 0.18900
C 	C 	0.65879 0.72008 0.92613 0.02800
H 	H 	0.65180 0.73420 0.93570 -0.01400
O 	O 	0.68384 0.23572 0.47004 -0.72500
O 	O 	0.70990 0.20240 0.47160 -0.89600
C 	C 	0.69247 0.21275 0.46374 0.67800
C 	C 	0.68343 0.20671 0.43604 -0.24700
C 	C 	0.68921 0.18467 0.42845 0.11200
H 	H 	0.69610 0.17220 0.44020 -0.05700
C 	C 	0.68508 0.17749 0.39905 -0.13600
C 	C 	0.69486 0.15004 0.38761 0.41100
C 	C 	0.67179 0.14970 0.36795 -0.18900
C 	C 	0.65143 0.16843 0.36704 0.08900
C 	C 	0.66146 0.18519 0.39057 0.01400
C 	C 	0.64396 0.21056 0.39896 -0.12500
H 	H 	0.62930 0.21790 0.39050 0.03500
C 	C 	0.71811 0.15866 0.37732 -0.85300
H 	H 	0.73150 0.15830 0.39080 0.26000
H 	H 	0.71600 0.17640 0.37090 0.27000
H 	H 	0.72330 0.14730 0.36290 0.25700
C 	C 	0.68938 0.12785 0.40864 -0.65200
H 	H 	0.67070 0.12650 0.41170 0.19000
H 	H 	0.69820 0.13220 0.42490 0.17500
H 	H 	0.69590 0.11120 0.40220 0.18800
C 	C 	0.65879 0.22008 0.42613 0.02800
H 	H 	0.65180 0.23420 0.43570 -0.01400
O 	O 	0.81616 0.73572 0.52996 -0.72500
O 	O 	0.79010 0.70240 0.52840 -0.89600
C 	C 	0.80753 0.71275 0.53626 0.67800
C 	C 	0.81657 0.70671 0.56396 -0.24700
C 	C 	0.81079 0.68467 0.57155 0.11200
H 	H 	0.80390 0.67220 0.55980 -0.05700
C 	C 	0.81492 0.67749 0.60095 -0.13600
C 	C 	0.80514 0.65004 0.61239 0.41100
C 	C 	0.82821 0.64970 0.63205 -0.18900
C 	C 	0.84857 0.66843 0.63296 0.08900
C 	C 	0.83854 0.68519 0.60943 0.01400
C 	C 	0.85604 0.71056 0.60104 -0.12500
H 	H 	0.87070 0.71790 0.60950 0.03500
C 	C 	0.78189 0.65866 0.62268 -0.85300
H 	H 	0.76850 0.65830 0.60920 0.26000
H 	H 	0.78400 0.67640 0.62910 0.27000
H 	H 	0.77670 0.64730 0.63710 0.25700
C 	C 	0.81062 0.62785 0.59136 -0.65200
H 	H 	0.82930 0.62650 0.58830 0.19100
H 	H 	0.80180 0.63220 0.57510 0.17500
H 	H 	0.80410 0.61120 0.59780 0.18900
C 	C 	0.84121 0.72008 0.57387 0.02800
H 	H 	0.84820 0.73420 0.56430 -0.01400
O 	O 	0.81616 0.23572 0.02996 -0.72600
O 	O 	0.79010 0.20240 0.02840 -0.89700
C 	C 	0.80753 0.21275 0.03626 0.67800
C 	C 	0.81657 0.20671 0.06396 -0.24700
C 	C 	0.81079 0.18467 0.07155 0.11200
H 	H 	0.80390 0.17220 0.05980 -0.05700
C 	C 	0.81492 0.17749 0.10095 -0.13600
C 	C 	0.80514 0.15004 0.11239 0.41000
C 	C 	0.82821 0.14970 0.13205 -0.18900
C 	C 	0.84857 0.16843 0.13296 0.08900
C 	C 	0.83854 0.18519 0.10943 0.01400
C 	C 	0.85604 0.21056 0.10104 -0.12500
H 	H 	0.87070 0.21790 0.10950 0.03500
C 	C 	0.78189 0.15866 0.12268 -0.85300
H 	H 	0.76850 0.15830 0.10920 0.25900
H 	H 	0.78400 0.17640 0.12910 0.27000
H 	H 	0.77670 0.14730 0.13710 0.25700
C 	C 	0.81062 0.12785 0.09136 -0.65200
H 	H 	0.82930 0.12650 0.08830 0.19000
H 	H 	0.80180 0.13220 0.07510 0.17400
H 	H 	0.80410 0.11120 0.09780 0.18800
C 	C 	0.84121 0.22008 0.07387 0.02800
H 	H 	0.84820 0.23420 0.06430 -0.01400
O 	O 	0.31616 0.73572 0.02996 -0.72600
O 	O 	0.29010 0.70240 0.02840 -0.89700
C 	C 	0.30753 0.71275 0.03626 0.67800
C 	C 	0.31657 0.70671 0.06396 -0.24700
C 	C 	0.31079 0.68467 0.07155 0.11200
H 	H 	0.30390 0.67220 0.05980 -0.05700
C 	C 	0.31492 0.67749 0.10095 -0.13600
C 	C 	0.30514 0.65004 0.11239 0.41100
C 	C 	0.32821 0.64970 0.13205 -0.18900
C 	C 	0.34857 0.66843 0.13296 0.08900
C 	C 	0.33854 0.68519 0.10943 0.01400
C 	C 	0.35604 0.71056 0.10104 -0.12500
H 	H 	0.37070 0.71790 0.10950 0.03500
C 	C 	0.28189 0.65866 0.12268 -0.85300
H 	H 	0.26850 0.65830 0.10920 0.25900
H 	H 	0.28400 0.67640 0.12910 0.27000
H 	H 	0.27670 0.64730 0.13710 0.25700
C 	C 	0.31062 0.62785 0.09136 -0.65200
H 	H 	0.32930 0.62650 0.08830 0.19000
H 	H 	0.30180 0.63220 0.07510 0.17400
H 	H 	0.30410 0.61120 0.09780 0.18800
C 	C 	0.34121 0.72008 0.07387 0.02800
H 	H 	0.34820 0.73420 0.06430 -0.01400
O 	O 	0.31616 0.23572 0.52996 -0.72500
O 	O 	0.29010 0.20240 0.52840 -0.89600
C 	C 	0.30753 0.21275 0.53626 0.67800
C 	C 	0.31657 0.20671 0.56396 -0.24700
C 	C 	0.31079 0.18467 0.57155 0.11200
H 	H 	0.30390 0.17220 0.55980 -0.05700
C 	C 	0.31492 0.17749 0.60095 -0.13600
C 	C 	0.30514 0.15004 0.61239 0.41100
C 	C 	0.32821 0.14970 0.63205 -0.18900
C 	C 	0.34857 0.16843 0.63296 0.08900
C 	C 	0.33854 0.18519 0.60943 0.01400
C 	C 	0.35604 0.21056 0.60104 -0.12500
H 	H 	0.37070 0.21790 0.60950 0.03500
C 	C 	0.28189 0.15866 0.62268 -0.85300
H 	H 	0.26850 0.15830 0.60920 0.26000
H 	H 	0.28400 0.17640 0.62910 0.27000
H 	H 	0.27670 0.14730 0.63710 0.25700
C 	C 	0.31062 0.12785 0.59136 -0.65200
H 	H 	0.32930 0.12650 0.58830 0.19000
H 	H 	0.30180 0.13220 0.57510 0.17500
H 	H 	0.30410 0.11120 0.59780 0.18800
C 	C 	0.34121 0.22008 0.57387 0.02800
H 	H 	0.34820 0.23420 0.56430 -0.01400
O 	O 	0.81616 0.26428 0.47004 -0.72500
O 	O 	0.79010 0.29760 0.47160 -0.89600
C 	C 	0.80753 0.28725 0.46374 0.67800
C 	C 	0.81657 0.29329 0.43604 -0.24700
C 	C 	0.81079 0.31533 0.42845 0.11200
H 	H 	0.80390 0.32780 0.44020 -0.05700
C 	C 	0.81492 0.32251 0.39905 -0.13600
C 	C 	0.80514 0.34996 0.38761 0.41100
C 	C 	0.82821 0.35030 0.36795 -0.18900
C 	C 	0.84857 0.33157 0.36704 0.08900
C 	C 	0.83854 0.31481 0.39057 0.01400
C 	C 	0.85604 0.28944 0.39896 -0.12500
H 	H 	0.87070 0.28210 0.39050 0.03500
C 	C 	0.78189 0.34134 0.37732 -0.85300
H 	H 	0.76850 0.34170 0.39080 0.26000
H 	H 	0.78400 0.32360 0.37090 0.27000
H 	H 	0.77670 0.35270 0.36290 0.25700
C 	C 	0.81062 0.37215 0.40864 -0.65200
H 	H 	0.82930 0.37350 0.41170 0.19100
H 	H 	0.80180 0.36780 0.42490 0.17500
H 	H 	0.80410 0.38880 0.40220 0.18900
C 	C 	0.84121 0.27992 0.42613 0.02900
H 	H 	0.84820 0.26580 0.43570 -0.01400
O 	O 	0.81616 0.76428 0.97004 -0.72500
O 	O 	0.79010 0.79760 0.97160 -0.89500
C 	C 	0.80753 0.78725 0.96374 0.67800
C 	C 	0.81657 0.79329 0.93604 -0.24700
C 	C 	0.81079 0.81533 0.92845 0.11200
H 	H 	0.80390 0.82780 0.94020 -0.05600
C 	C 	0.81492 0.82251 0.89905 -0.13600
C 	C 	0.80514 0.84996 0.88761 0.41100
C 	C 	0.82821 0.85030 0.86795 -0.18900
C 	C 	0.84857 0.83157 0.86704 0.08900
C 	C 	0.83854 0.81481 0.89057 0.01400
C 	C 	0.85604 0.78944 0.89896 -0.12500
H 	H 	0.87070 0.78210 0.89050 0.03500
C 	C 	0.78189 0.84134 0.87732 -0.85300
H 	H 	0.76850 0.84170 0.89080 0.26000
H 	H 	0.78400 0.82360 0.87090 0.27000
H 	H 	0.77670 0.85270 0.86290 0.25700
C 	C 	0.81062 0.87215 0.90864 -0.65300
H 	H 	0.82930 0.87350 0.91170 0.19100
H 	H 	0.80180 0.86780 0.92490 0.17500
H 	H 	0.80410 0.88880 0.90220 0.18900
C 	C 	0.84121 0.77992 0.92613 0.02900
H 	H 	0.84820 0.76580 0.93570 -0.01400
O 	O 	0.31616 0.26428 0.97004 -0.72500
O 	O 	0.29010 0.29760 0.97160 -0.89500
C 	C 	0.30753 0.28725 0.96374 0.67800
C 	C 	0.31657 0.29329 0.93604 -0.24700
C 	C 	0.31079 0.31533 0.92845 0.11200
H 	H 	0.30390 0.32780 0.94020 -0.05700
C 	C 	0.31492 0.32251 0.89905 -0.13600
C 	C 	0.30514 0.34996 0.88761 0.41100
C 	C 	0.32821 0.35030 0.86795 -0.18900
C 	C 	0.34857 0.33157 0.86704 0.08900
C 	C 	0.33854 0.31481 0.89057 0.01400
C 	C 	0.35604 0.28944 0.89896 -0.12500
H 	H 	0.37070 0.28210 0.89050 0.03500
C 	C 	0.28189 0.34134 0.87732 -0.85300
H 	H 	0.26850 0.34170 0.89080 0.26000
H 	H 	0.28400 0.32360 0.87090 0.27000
H 	H 	0.27670 0.35270 0.86290 0.25700
C 	C 	0.31062 0.37215 0.90864 -0.65300
H 	H 	0.32930 0.37350 0.91170 0.19100
H 	H 	0.30180 0.36780 0.92490 0.17500
H 	H 	0.30410 0.38880 0.90220 0.18900
C 	C 	0.34121 0.27992 0.92613 0.02900
H 	H 	0.34820 0.26580 0.93570 -0.01400
O 	O 	0.31616 0.76428 0.47004 -0.72500
O 	O 	0.29010 0.79760 0.47160 -0.89600
C 	C 	0.30753 0.78725 0.46374 0.67800
C 	C 	0.31657 0.79329 0.43604 -0.24700
C 	C 	0.31079 0.81533 0.42845 0.11200
H 	H 	0.30390 0.82780 0.44020 -0.05700
C 	C 	0.31492 0.82251 0.39905 -0.13600
C 	C 	0.30514 0.84996 0.38761 0.41100
C 	C 	0.32821 0.85030 0.36795 -0.18900
C 	C 	0.34857 0.83157 0.36704 0.08900
C 	C 	0.33854 0.81481 0.39057 0.01400
C 	C 	0.35604 0.78944 0.39896 -0.12500
H 	H 	0.37070 0.78210 0.39050 0.03500
C 	C 	0.28189 0.84134 0.37732 -0.85300
H 	H 	0.26850 0.84170 0.39080 0.26000
H 	H 	0.28400 0.82360 0.37090 0.27000
H 	H 	0.27670 0.85270 0.36290 0.25700
C 	C 	0.31062 0.87215 0.40864 -0.65300
H 	H 	0.32930 0.87350 0.41170 0.19100
H 	H 	0.30180 0.86780 0.42490 0.17500
H 	H 	0.30410 0.88880 0.40220 0.18900
C 	C 	0.34121 0.77992 0.42613 0.02800
H 	H 	0.34820 0.76580 0.43570 -0.01400
O 	O 	0.52996 0.18384 0.26428 -0.72500
O 	O 	0.52840 0.20990 0.29760 -0.89600
C 	C 	0.53626 0.19247 0.28725 0.67800
C 	C 	0.56396 0.18343 0.29329 -0.24700
C 	C 	0.57155 0.18921 0.31533 0.11200
H 	H 	0.55980 0.19610 0.32780 -0.05700
C 	C 	0.60095 0.18508 0.32251 -0.13600
C 	C 	0.61239 0.19486 0.34996 0.41100
C 	C 	0.63205 0.17179 0.35030 -0.18900
C 	C 	0.63296 0.15143 0.33157 0.08900
C 	C 	0.60943 0.16146 0.31481 0.01400
C 	C 	0.60104 0.14396 0.28944 -0.12500
H 	H 	0.60950 0.12930 0.28210 0.03500
C 	C 	0.62268 0.21811 0.34134 -0.85300
H 	H 	0.60920 0.23150 0.34170 0.26000
H 	H 	0.62910 0.21600 0.32360 0.27000
H 	H 	0.63710 0.22330 0.35270 0.25700
C 	C 	0.59136 0.18938 0.37215 -0.65200
H 	H 	0.58830 0.17070 0.37350 0.19000
H 	H 	0.57510 0.19820 0.36780 0.17500
H 	H 	0.59780 0.19590 0.38880 0.18800
C 	C 	0.57387 0.15879 0.27992 0.02800
H 	H 	0.56430 0.15180 0.26580 -0.01400
O 	O 	0.52996 0.68384 0.76428 -0.72500
O 	O 	0.52840 0.70990 0.79760 -0.89600
C 	C 	0.53626 0.69247 0.78725 0.67800
C 	C 	0.56396 0.68343 0.79329 -0.24700
C 	C 	0.57155 0.68921 0.81533 0.11200
H 	H 	0.55980 0.69610 0.82780 -0.05700
C 	C 	0.60095 0.68508 0.82251 -0.13600
C 	C 	0.61239 0.69486 0.84996 0.41100
C 	C 	0.63205 0.67179 0.85030 -0.18900
C 	C 	0.63296 0.65143 0.83157 0.08900
C 	C 	0.60943 0.66146 0.81481 0.01400
C 	C 	0.60104 0.64396 0.78944 -0.12500
H 	H 	0.60950 0.62930 0.78210 0.03500
C 	C 	0.62268 0.71811 0.84134 -0.85300
H 	H 	0.60920 0.73150 0.84170 0.26000
H 	H 	0.62910 0.71600 0.82360 0.27000
H 	H 	0.63710 0.72330 0.85270 0.25700
C 	C 	0.59136 0.68938 0.87215 -0.65300
H 	H 	0.58830 0.67070 0.87350 0.19100
H 	H 	0.57510 0.69820 0.86780 0.17500
H 	H 	0.59780 0.69590 0.88880 0.18900
C 	C 	0.57387 0.65879 0.77992 0.02800
H 	H 	0.56430 0.65180 0.76580 -0.01400
O 	O 	0.02996 0.18384 0.76428 -0.72600
O 	O 	0.02840 0.20990 0.79760 -0.89700
C 	C 	0.03626 0.19247 0.78725 0.67800
C 	C 	0.06396 0.18343 0.79329 -0.24700
C 	C 	0.07155 0.18921 0.81533 0.11200
H 	H 	0.05980 0.19610 0.82780 -0.05700
C 	C 	0.10095 0.18508 0.82251 -0.13600
C 	C 	0.11239 0.19486 0.84996 0.41100
C 	C 	0.13205 0.17179 0.85030 -0.18900
C 	C 	0.13296 0.15143 0.83157 0.08900
C 	C 	0.10943 0.16146 0.81481 0.01400
C 	C 	0.10104 0.14396 0.78944 -0.12500
H 	H 	0.10950 0.12930 0.78210 0.03500
C 	C 	0.12268 0.21811 0.84134 -0.85300
H 	H 	0.10920 0.23150 0.84170 0.26000
H 	H 	0.12910 0.21600 0.82360 0.27000
H 	H 	0.13710 0.22330 0.85270 0.25700
C 	C 	0.09136 0.18938 0.87215 -0.65200
H 	H 	0.08830 0.17070 0.87350 0.19000
H 	H 	0.07510 0.19820 0.86780 0.17500
H 	H 	0.09780 0.19590 0.88880 0.18800
C 	C 	0.07387 0.15879 0.77992 0.02800
H 	H 	0.06430 0.15180 0.76580 -0.01400
O 	O 	0.02996 0.68384 0.26428 -0.72600
O 	O 	0.02840 0.70990 0.29760 -0.89700
C 	C 	0.03626 0.69247 0.28725 0.67800
C 	C 	0.06396 0.68343 0.29329 -0.24700
C 	C 	0.07155 0.68921 0.31533 0.11200
H 	H 	0.05980 0.69610 0.32780 -0.05700
C 	C 	0.10095 0.68508 0.32251 -0.13600
C 	C 	0.11239 0.69486 0.34996 0.41100
C 	C 	0.13205 0.67179 0.35030 -0.18900
C 	C 	0.13296 0.65143 0.33157 0.08900
C 	C 	0.10943 0.66146 0.31481 0.01400
C 	C 	0.10104 0.64396 0.28944 -0.12500
H 	H 	0.10950 0.62930 0.28210 0.03500
C 	C 	0.12268 0.71811 0.34134 -0.85300
H 	H 	0.10920 0.73150 0.34170 0.25900
H 	H 	0.12910 0.71600 0.32360 0.27000
H 	H 	0.13710 0.72330 0.35270 0.25700
C 	C 	0.09136 0.68938 0.37215 -0.65200
H 	H 	0.08830 0.67070 0.37350 0.19000
H 	H 	0.07510 0.69820 0.36780 0.17400
H 	H 	0.09780 0.69590 0.38880 0.18800
C 	C 	0.07387 0.65879 0.27992 0.02800
H 	H 	0.06430 0.65180 0.26580 -0.01400
O 	O 	0.47004 0.18384 0.73572 -0.72500
O 	O 	0.47160 0.20990 0.70240 -0.89600
C 	C 	0.46374 0.19247 0.71275 0.67800
C 	C 	0.43604 0.18343 0.70671 -0.24700
C 	C 	0.42845 0.18921 0.68467 0.11200
H 	H 	0.44020 0.19610 0.67220 -0.05700
C 	C 	0.39905 0.18508 0.67749 -0.13600
C 	C 	0.38761 0.19486 0.65004 0.41100
C 	C 	0.36795 0.17179 0.64970 -0.18900
C 	C 	0.36704 0.15143 0.66843 0.08900
C 	C 	0.39057 0.16146 0.68519 0.01400
C 	C 	0.39896 0.14396 0.71056 -0.12500
H 	H 	0.39050 0.12930 0.71790 0.03500
C 	C 	0.37732 0.21811 0.65866 -0.85300
H 	H 	0.39080 0.23150 0.65830 0.26000
H 	H 	0.37090 0.21600 0.67640 0.27000
H 	H 	0.36290 0.22330 0.64730 0.25700
C 	C 	0.40864 0.18938 0.62785 -0.65200
H 	H 	0.41170 0.17070 0.62650 0.19000
H 	H 	0.42490 0.19820 0.63220 0.17500
H 	H 	0.40220 0.19590 0.61120 0.18800
C 	C 	0.42613 0.15879 0.72008 0.02800
H 	H 	0.43570 0.15180 0.73420 -0.01400
O 	O 	0.47004 0.68384 0.23572 -0.72500
O 	O 	0.47160 0.70990 0.20240 -0.89600
C 	C 	0.46374 0.69247 0.21275 0.67800
C 	C 	0.43604 0.68343 0.20671 -0.24700
C 	C 	0.42845 0.68921 0.18467 0.11200
H 	H 	0.44020 0.69610 0.17220 -0.05700
C 	C 	0.39905 0.68508 0.17749 -0.13600
C 	C 	0.38761 0.69486 0.15004 0.41100
C 	C 	0.36795 0.67179 0.14970 -0.18900
C 	C 	0.36704 0.65143 0.16843 0.08900
C 	C 	0.39057 0.66146 0.18519 0.01400
C 	C 	0.39896 0.64396 0.21056 -0.12500
H 	H 	0.39050 0.62930 0.21790 0.03500
C 	C 	0.37732 0.71811 0.15866 -0.85300
H 	H 	0.39080 0.73150 0.15830 0.26000
H 	H 	0.37090 0.71600 0.17640 0.27000
H 	H 	0.36290 0.72330 0.14730 0.25700
C 	C 	0.40864 0.68938 0.12785 -0.65200
H 	H 	0.41170 0.67070 0.12650 0.19000
H 	H 	0.42490 0.69820 0.13220 0.17500
H 	H 	0.40220 0.69590 0.11120 0.18800
C 	C 	0.42613 0.65879 0.22008 0.02800
H 	H 	0.43570 0.65180 0.23420 -0.01400
O 	O 	0.97004 0.18384 0.23572 -0.72500
O 	O 	0.97160 0.20990 0.20240 -0.89500
C 	C 	0.96374 0.19247 0.21275 0.67800
C 	C 	0.93604 0.18343 0.20671 -0.24700
C 	C 	0.92845 0.18921 0.18467 0.11200
H 	H 	0.94020 0.19610 0.17220 -0.05700
C 	C 	0.89905 0.18508 0.17749 -0.13600
C 	C 	0.88761 0.19486 0.15004 0.41100
C 	C 	0.86795 0.17179 0.14970 -0.18900
C 	C 	0.86704 0.15143 0.16843 0.08900
C 	C 	0.89057 0.16146 0.18519 0.01400
C 	C 	0.89896 0.14396 0.21056 -0.12500
H 	H 	0.89050 0.12930 0.21790 0.03500
C 	C 	0.87732 0.21811 0.15866 -0.85300
H 	H 	0.89080 0.23150 0.15830 0.26000
H 	H 	0.87090 0.21600 0.17640 0.27000
H 	H 	0.86290 0.22330 0.14730 0.25700
C 	C 	0.90864 0.18938 0.12785 -0.65200
H 	H 	0.91170 0.17070 0.12650 0.19100
H 	H 	0.92490 0.19820 0.13220 0.17500
H 	H 	0.90220 0.19590 0.11120 0.18800
C 	C 	0.92613 0.15879 0.22008 0.02800
H 	H 	0.93570 0.15180 0.23420 -0.01400
O 	O 	0.97004 0.68384 0.73572 -0.72500
O 	O 	0.97160 0.70990 0.70240 -0.89500
C 	C 	0.96374 0.69247 0.71275 0.67800
C 	C 	0.93604 0.68343 0.70671 -0.24700
C 	C 	0.92845 0.68921 0.68467 0.11200
H 	H 	0.94020 0.69610 0.67220 -0.05700
C 	C 	0.89905 0.68508 0.67749 -0.13600
C 	C 	0.88761 0.69486 0.65004 0.41100
C 	C 	0.86795 0.67179 0.64970 -0.18900
C 	C 	0.86704 0.65143 0.66843 0.08900
C 	C 	0.89057 0.66146 0.68519 0.01400
C 	C 	0.89896 0.64396 0.71056 -0.12500
H 	H 	0.89050 0.62930 0.71790 0.03500
C 	C 	0.87732 0.71811 0.65866 -0.85300
H 	H 	0.89080 0.73150 0.65830 0.26000
H 	H 	0.87090 0.71600 0.67640 0.27000
H 	H 	0.86290 0.72330 0.64730 0.25700
C 	C 	0.90864 0.68938 0.62785 -0.65300
H 	H 	0.91170 0.67070 0.62650 0.19100
H 	H 	0.92490 0.69820 0.63220 0.17500
H 	H 	0.90220 0.69590 0.61120 0.18900
C 	C 	0.92613 0.65879 0.72008 0.02800
H 	H 	0.93570 0.65180 0.73420 -0.01400
O 	O 	0.52996 0.81616 0.73572 -0.72500
O 	O 	0.52840 0.79010 0.70240 -0.89600
C 	C 	0.53626 0.80753 0.71275 0.67800
C 	C 	0.56396 0.81657 0.70671 -0.24700
C 	C 	0.57155 0.81079 0.68467 0.11200
H 	H 	0.55980 0.80390 0.67220 -0.05700
C 	C 	0.60095 0.81492 0.67749 -0.13600
C 	C 	0.61239 0.80514 0.65004 0.41100
C 	C 	0.63205 0.82821 0.64970 -0.18900
C 	C 	0.63296 0.84857 0.66843 0.08900
C 	C 	0.60943 0.83854 0.68519 0.01400
C 	C 	0.60104 0.85604 0.71056 -0.12500
H 	H 	0.60950 0.87070 0.71790 0.03500
C 	C 	0.62268 0.78189 0.65866 -0.85300
H 	H 	0.60920 0.76850 0.65830 0.26000
H 	H 	0.62910 0.78400 0.67640 0.27000
H 	H 	0.63710 0.77670 0.64730 0.25700
C 	C 	0.59136 0.81062 0.62785 -0.65200
H 	H 	0.58830 0.82930 0.62650 0.19100
H 	H 	0.57510 0.80180 0.63220 0.17500
H 	H 	0.59780 0.80410 0.61120 0.18900
C 	C 	0.57387 0.84121 0.72008 0.02800
H 	H 	0.56430 0.84820 0.73420 -0.01400
O 	O 	0.52996 0.31616 0.23572 -0.72500
O 	O 	0.52840 0.29010 0.20240 -0.89600
C 	C 	0.53626 0.30753 0.21275 0.67800
C 	C 	0.56396 0.31657 0.20671 -0.24700
C 	C 	0.57155 0.31079 0.18467 0.11200
H 	H 	0.55980 0.30390 0.17220 -0.05700
C 	C 	0.60095 0.31492 0.17749 -0.13600
C 	C 	0.61239 0.30514 0.15004 0.41100
C 	C 	0.63205 0.32821 0.14970 -0.18900
C 	C 	0.63296 0.34857 0.16843 0.08900
C 	C 	0.60943 0.33854 0.18519 0.01400
C 	C 	0.60104 0.35604 0.21056 -0.12500
H 	H 	0.60950 0.37070 0.21790 0.03500
C 	C 	0.62268 0.28189 0.15866 -0.85300
H 	H 	0.60920 0.26850 0.15830 0.26000
H 	H 	0.62910 0.28400 0.17640 0.27000
H 	H 	0.63710 0.27670 0.14730 0.25700
C 	C 	0.59136 0.31062 0.12785 -0.65200
H 	H 	0.58830 0.32930 0.12650 0.19000
H 	H 	0.57510 0.30180 0.13220 0.17500
H 	H 	0.59780 0.30410 0.11120 0.18800
C 	C 	0.57387 0.34121 0.22008 0.02800
H 	H 	0.56430 0.34820 0.23420 -0.01400
O 	O 	0.02996 0.81616 0.23572 -0.72600
O 	O 	0.02840 0.79010 0.20240 -0.89700
C 	C 	0.03626 0.80753 0.21275 0.67800
C 	C 	0.06396 0.81657 0.20671 -0.24700
C 	C 	0.07155 0.81079 0.18467 0.11200
H 	H 	0.05980 0.80390 0.17220 -0.05700
C 	C 	0.10095 0.81492 0.17749 -0.13600
C 	C 	0.11239 0.80514 0.15004 0.41000
C 	C 	0.13205 0.82821 0.14970 -0.18900
C 	C 	0.13296 0.84857 0.16843 0.08900
C 	C 	0.10943 0.83854 0.18519 0.01400
C 	C 	0.10104 0.85604 0.21056 -0.12500
H 	H 	0.10950 0.87070 0.21790 0.03500
C 	C 	0.12268 0.78189 0.15866 -0.85300
H 	H 	0.10920 0.76850 0.15830 0.25900
H 	H 	0.12910 0.78400 0.17640 0.27000
H 	H 	0.13710 0.77670 0.14730 0.25700
C 	C 	0.09136 0.81062 0.12785 -0.65200
H 	H 	0.08830 0.82930 0.12650 0.19000
H 	H 	0.07510 0.80180 0.13220 0.17400
H 	H 	0.09780 0.80410 0.11120 0.18800
C 	C 	0.07387 0.84121 0.22008 0.02800
H 	H 	0.06430 0.84820 0.23420 -0.01400
O 	O 	0.02996 0.31616 0.73572 -0.72600
O 	O 	0.02840 0.29010 0.70240 -0.89700
C 	C 	0.03626 0.30753 0.71275 0.67800
C 	C 	0.06396 0.31657 0.70671 -0.24700
C 	C 	0.07155 0.31079 0.68467 0.11200
H 	H 	0.05980 0.30390 0.67220 -0.05700
C 	C 	0.10095 0.31492 0.67749 -0.13600
C 	C 	0.11239 0.30514 0.65004 0.41100
C 	C 	0.13205 0.32821 0.64970 -0.18900
C 	C 	0.13296 0.34857 0.66843 0.08900
C 	C 	0.10943 0.33854 0.68519 0.01400
C 	C 	0.10104 0.35604 0.71056 -0.12500
H 	H 	0.10950 0.37070 0.71790 0.03500
C 	C 	0.12268 0.28189 0.65866 -0.85300
H 	H 	0.10920 0.26850 0.65830 0.25900
H 	H 	0.12910 0.28400 0.67640 0.27000
H 	H 	0.13710 0.27670 0.64730 0.25700
C 	C 	0.09136 0.31062 0.62785 -0.65200
H 	H 	0.08830 0.32930 0.62650 0.19000
H 	H 	0.07510 0.30180 0.63220 0.17400
H 	H 	0.09780 0.30410 0.61120 0.18800
C 	C 	0.07387 0.34121 0.72008 0.02800
H 	H 	0.06430 0.34820 0.73420 -0.01400
O 	O 	0.47004 0.81616 0.26428 -0.72500
O 	O 	0.47160 0.79010 0.29760 -0.89600
C 	C 	0.46374 0.80753 0.28725 0.67800
C 	C 	0.43604 0.81657 0.29329 -0.24700
C 	C 	0.42845 0.81079 0.31533 0.11200
H 	H 	0.44020 0.80390 0.32780 -0.05700
C 	C 	0.39905 0.81492 0.32251 -0.13600
C 	C 	0.38761 0.80514 0.34996 0.41100
C 	C 	0.36795 0.82821 0.35030 -0.18900
C 	C 	0.36704 0.84857 0.33157 0.08900
C 	C 	0.39057 0.83854 0.31481 0.01400
C 	C 	0.39896 0.85604 0.28944 -0.12500
H 	H 	0.39050 0.87070 0.28210 0.03500
C 	C 	0.37732 0.78189 0.34134 -0.85300
H 	H 	0.39080 0.76850 0.34170 0.26000
H 	H 	0.37090 0.78400 0.32360 0.27000
H 	H 	0.36290 0.77670 0.35270 0.25700
C 	C 	0.40864 0.81062 0.37215 -0.65200
H 	H 	0.41170 0.82930 0.37350 0.19100
H 	H 	0.42490 0.80180 0.36780 0.17500
H 	H 	0.40220 0.80410 0.38880 0.18900
C 	C 	0.42613 0.84121 0.27992 0.02900
H 	H 	0.43570 0.84820 0.26580 -0.01400
O 	O 	0.47004 0.31616 0.76428 -0.72500
O 	O 	0.47160 0.29010 0.79760 -0.89600
C 	C 	0.46374 0.30753 0.78725 0.67800
C 	C 	0.43604 0.31657 0.79329 -0.24700
C 	C 	0.42845 0.31079 0.81533 0.11200
H 	H 	0.44020 0.30390 0.82780 -0.05700
C 	C 	0.39905 0.31492 0.82251 -0.13600
C 	C 	0.38761 0.30514 0.84996 0.41100
C 	C 	0.36795 0.32821 0.85030 -0.18900
C 	C 	0.36704 0.34857 0.83157 0.08900
C 	C 	0.39057 0.33854 0.81481 0.01400
C 	C 	0.39896 0.35604 0.78944 -0.12500
H 	H 	0.39050 0.37070 0.78210 0.03500
C 	C 	0.37732 0.28189 0.84134 -0.85300
H 	H 	0.39080 0.26850 0.84170 0.26000
H 	H 	0.37090 0.28400 0.82360 0.27000
H 	H 	0.36290 0.27670 0.85270 0.25700
C 	C 	0.40864 0.31062 0.87215 -0.65300
H 	H 	0.41170 0.32930 0.87350 0.19100
H 	H 	0.42490 0.30180 0.86780 0.17500
H 	H 	0.40220 0.30410 0.88880 0.18900
C 	C 	0.42613 0.34121 0.77992 0.02800
H 	H 	0.43570 0.34820 0.76580 -0.01400
O 	O 	0.97004 0.81616 0.76428 -0.72500
O 	O 	0.97160 0.79010 0.79760 -0.89500
C 	C 	0.96374 0.80753 0.78725 0.67800
C 	C 	0.93604 0.81657 0.79329 -0.24700
C 	C 	0.92845 0.81079 0.81533 0.11200
H 	H 	0.94020 0.80390 0.82780 -0.05600
C 	C 	0.89905 0.81492 0.82251 -0.13600
C 	C 	0.88761 0.80514 0.84996 0.41100
C 	C 	0.86795 0.82821 0.85030 -0.18900
C 	C 	0.86704 0.84857 0.83157 0.08900
C 	C 	0.89057 0.83854 0.81481 0.01400
C 	C 	0.89896 0.85604 0.78944 -0.12500
H 	H 	0.89050 0.87070 0.78210 0.03500
C 	C 	0.87732 0.78189 0.84134 -0.85300
H 	H 	0.89080 0.76850 0.84170 0.26000
H 	H 	0.87090 0.78400 0.82360 0.27000
H 	H 	0.86290 0.77670 0.85270 0.25700
C 	C 	0.90864 0.81062 0.87215 -0.65300
H 	H 	0.91170 0.82930 0.87350 0.19100
H 	H 	0.92490 0.80180 0.86780 0.17500
H 	H 	0.90220 0.80410 0.88880 0.18900
C 	C 	0.92613 0.84121 0.77992 0.02900
H 	H 	0.93570 0.84820 0.76580 -0.01400
O 	O 	0.97004 0.31616 0.26428 -0.72500
O 	O 	0.97160 0.29010 0.29760 -0.89500
C 	C 	0.96374 0.30753 0.28725 0.67800
C 	C 	0.93604 0.31657 0.29329 -0.24700
C 	C 	0.92845 0.31079 0.31533 0.11200
H 	H 	0.94020 0.30390 0.32780 -0.05700
C 	C 	0.89905 0.31492 0.32251 -0.13600
C 	C 	0.88761 0.30514 0.34996 0.41100
C 	C 	0.86795 0.32821 0.35030 -0.18900
C 	C 	0.86704 0.34857 0.33157 0.08900
C 	C 	0.89057 0.33854 0.31481 0.01400
C 	C 	0.89896 0.35604 0.28944 -0.12500
H 	H 	0.89050 0.37070 0.28210 0.03500
C 	C 	0.87732 0.28189 0.34134 -0.85300
H 	H 	0.89080 0.26850 0.34170 0.26000
H 	H 	0.87090 0.28400 0.32360 0.27000
H 	H 	0.86290 0.27670 0.35270 0.25700
C 	C 	0.90864 0.31062 0.37215 -0.65300
H 	H 	0.91170 0.32930 0.37350 0.19100
H 	H 	0.92490 0.30180 0.36780 0.17500
H 	H 	0.90220 0.30410 0.38880 0.18900
C 	C 	0.92613 0.34121 0.27992 0.02900
H 	H 	0.93570 0.34820 0.26580 -0.01400
O 	O 	0.02996 0.76428 0.31616 -0.72600
O 	O 	0.02840 0.79760 0.29010 -0.89700
C 	C 	0.03626 0.78725 0.30753 0.67800
C 	C 	0.06396 0.79329 0.31657 -0.24700
C 	C 	0.07155 0.81533 0.31079 0.11200
H 	H 	0.05980 0.82780 0.30390 -0.05700
C 	C 	0.10095 0.82251 0.31492 -0.13600
C 	C 	0.11239 0.84996 0.30514 0.41100
C 	C 	0.13205 0.85030 0.32821 -0.18900
C 	C 	0.13296 0.83157 0.34857 0.08900
C 	C 	0.10943 0.81481 0.33854 0.01400
C 	C 	0.10104 0.78944 0.35604 -0.12500
H 	H 	0.10950 0.78210 0.37070 0.03500
C 	C 	0.12268 0.84134 0.28189 -0.85300
H 	H 	0.10920 0.84170 0.26850 0.26000
H 	H 	0.12910 0.82360 0.28400 0.27000
H 	H 	0.13710 0.85270 0.27670 0.25700
C 	C 	0.09136 0.87215 0.31062 -0.65200
H 	H 	0.08830 0.87350 0.32930 0.19000
H 	H 	0.07510 0.86780 0.30180 0.17500
H 	H 	0.09780 0.88880 0.30410 0.18800
C 	C 	0.07387 0.77992 0.34121 0.02800
H 	H 	0.06430 0.76580 0.34820 -0.01400
O 	O 	0.02996 0.26428 0.81616 -0.72600
O 	O 	0.02840 0.29760 0.79010 -0.89700
C 	C 	0.03626 0.28725 0.80753 0.67800
C 	C 	0.06396 0.29329 0.81657 -0.24700
C 	C 	0.07155 0.31533 0.81079 0.11200
H 	H 	0.05980 0.32780 0.80390 -0.05700
C 	C 	0.10095 0.32251 0.81492 -0.13600
C 	C 	0.11239 0.34996 0.80514 0.41100
C 	C 	0.13205 0.35030 0.82821 -0.18900
C 	C 	0.13296 0.33157 0.84857 0.08900
C 	C 	0.10943 0.31481 0.83854 0.01400
C 	C 	0.10104 0.28944 0.85604 -0.12500
H 	H 	0.10950 0.28210 0.87070 0.03500
C 	C 	0.12268 0.34134 0.78189 -0.85300
H 	H 	0.10920 0.34170 0.76850 0.26000
H 	H 	0.12910 0.32360 0.78400 0.27000
H 	H 	0.13710 0.35270 0.77670 0.25700
C 	C 	0.09136 0.37215 0.81062 -0.65200
H 	H 	0.08830 0.37350 0.82930 0.19000
H 	H 	0.07510 0.36780 0.80180 0.17400
H 	H 	0.09780 0.38880 0.80410 0.18800
C 	C 	0.07387 0.27992 0.84121 0.02800
H 	H 	0.06430 0.26580 0.84820 -0.01400
O 	O 	0.52996 0.76428 0.81616 -0.72500
O 	O 	0.52840 0.79760 0.79010 -0.89600
C 	C 	0.53626 0.78725 0.80753 0.67800
C 	C 	0.56396 0.79329 0.81657 -0.24700
C 	C 	0.57155 0.81533 0.81079 0.11200
H 	H 	0.55980 0.82780 0.80390 -0.05700
C 	C 	0.60095 0.82251 0.81492 -0.13600
C 	C 	0.61239 0.84996 0.80514 0.41100
C 	C 	0.63205 0.85030 0.82821 -0.18900
C 	C 	0.63296 0.83157 0.84857 0.08900
C 	C 	0.60943 0.81481 0.83854 0.01400
C 	C 	0.60104 0.78944 0.85604 -0.12500
H 	H 	0.60950 0.78210 0.87070 0.03500
C 	C 	0.62268 0.84134 0.78189 -0.85300
H 	H 	0.60920 0.84170 0.76850 0.26000
H 	H 	0.62910 0.82360 0.78400 0.27000
H 	H 	0.63710 0.85270 0.77670 0.25700
C 	C 	0.59136 0.87215 0.81062 -0.65300
H 	H 	0.58830 0.87350 0.82930 0.19100
H 	H 	0.57510 0.86780 0.80180 0.17500
H 	H 	0.59780 0.88880 0.80410 0.18900
C 	C 	0.57387 0.77992 0.84121 0.02900
H 	H 	0.56430 0.76580 0.84820 -0.01400
O 	O 	0.52996 0.26428 0.31616 -0.72500
O 	O 	0.52840 0.29760 0.29010 -0.89600
C 	C 	0.53626 0.28725 0.30753 0.67800
C 	C 	0.56396 0.29329 0.31657 -0.24700
C 	C 	0.57155 0.31533 0.31079 0.11200
H 	H 	0.55980 0.32780 0.30390 -0.05700
C 	C 	0.60095 0.32251 0.31492 -0.13600
C 	C 	0.61239 0.34996 0.30514 0.41100
C 	C 	0.63205 0.35030 0.32821 -0.18900
C 	C 	0.63296 0.33157 0.34857 0.08900
C 	C 	0.60943 0.31481 0.33854 0.01400
C 	C 	0.60104 0.28944 0.35604 -0.12500
H 	H 	0.60950 0.28210 0.37070 0.03500
C 	C 	0.62268 0.34134 0.28189 -0.85300
H 	H 	0.60920 0.34170 0.26850 0.26000
H 	H 	0.62910 0.32360 0.28400 0.27000
H 	H 	0.63710 0.35270 0.27670 0.25700
C 	C 	0.59136 0.37215 0.31062 -0.65200
H 	H 	0.58830 0.37350 0.32930 0.19100
H 	H 	0.57510 0.36780 0.30180 0.17500
H 	H 	0.59780 0.38880 0.30410 0.18800
C 	C 	0.57387 0.27992 0.34121 0.02800
H 	H 	0.56430 0.26580 0.34820 -0.01400
O 	O 	0.97004 0.23572 0.31616 -0.72500
O 	O 	0.97160 0.20240 0.29010 -0.89500
C 	C 	0.96374 0.21275 0.30753 0.67800
C 	C 	0.93604 0.20671 0.31657 -0.24700
C 	C 	0.92845 0.18467 0.31079 0.11200
H 	H 	0.94020 0.17220 0.30390 -0.05700
C 	C 	0.89905 0.17749 0.31492 -0.13600
C 	C 	0.88761 0.15004 0.30514 0.41100
C 	C 	0.86795 0.14970 0.32821 -0.18900
C 	C 	0.86704 0.16843 0.34857 0.08900
C 	C 	0.89057 0.18519 0.33854 0.01400
C 	C 	0.89896 0.21056 0.35604 -0.12500
H 	H 	0.89050 0.21790 0.37070 0.03500
C 	C 	0.87732 0.15866 0.28189 -0.85300
H 	H 	0.89080 0.15830 0.26850 0.26000
H 	H 	0.87090 0.17640 0.28400 0.27000
H 	H 	0.86290 0.14730 0.27670 0.25700
C 	C 	0.90864 0.12785 0.31062 -0.65300
H 	H 	0.91170 0.12650 0.32930 0.19100
H 	H 	0.92490 0.13220 0.30180 0.17500
H 	H 	0.90220 0.11120 0.30410 0.18900
C 	C 	0.92613 0.22008 0.34121 0.02800
H 	H 	0.93570 0.23420 0.34820 -0.01400
O 	O 	0.97004 0.73572 0.81616 -0.72500
O 	O 	0.97160 0.70240 0.79010 -0.89500
C 	C 	0.96374 0.71275 0.80753 0.67800
C 	C 	0.93604 0.70671 0.81657 -0.24700
C 	C 	0.92845 0.68467 0.81079 0.11200
H 	H 	0.94020 0.67220 0.80390 -0.05700
C 	C 	0.89905 0.67749 0.81492 -0.13600
C 	C 	0.88761 0.65004 0.80514 0.41100
C 	C 	0.86795 0.64970 0.82821 -0.18900
C 	C 	0.86704 0.66843 0.84857 0.08900
C 	C 	0.89057 0.68519 0.83854 0.01400
C 	C 	0.89896 0.71056 0.85604 -0.12500
H 	H 	0.89050 0.71790 0.87070 0.03500
C 	C 	0.87732 0.65866 0.78189 -0.85300
H 	H 	0.89080 0.65830 0.76850 0.26000
H 	H 	0.87090 0.67640 0.78400 0.27000
H 	H 	0.86290 0.64730 0.77670 0.25700
C 	C 	0.90864 0.62785 0.81062 -0.65300
H 	H 	0.91170 0.62650 0.82930 0.19100
H 	H 	0.92490 0.63220 0.80180 0.17500
H 	H 	0.90220 0.61120 0.80410 0.18900
C 	C 	0.92613 0.72008 0.84121 0.02900
H 	H 	0.93570 0.73420 0.84820 -0.01400
O 	O 	0.47004 0.23572 0.81616 -0.72500
O 	O 	0.47160 0.20240 0.79010 -0.89600
C 	C 	0.46374 0.21275 0.80753 0.67800
C 	C 	0.43604 0.20671 0.81657 -0.24700
C 	C 	0.42845 0.18467 0.81079 0.11200
H 	H 	0.44020 0.17220 0.80390 -0.05700
C 	C 	0.39905 0.17749 0.81492 -0.13600
C 	C 	0.38761 0.15004 0.80514 0.41100
C 	C 	0.36795 0.14970 0.82821 -0.18900
C 	C 	0.36704 0.16843 0.84857 0.08900
C 	C 	0.39057 0.18519 0.83854 0.01400
C 	C 	0.39896 0.21056 0.85604 -0.12500
H 	H 	0.39050 0.21790 0.87070 0.03500
C 	C 	0.37732 0.15866 0.78189 -0.85300
H 	H 	0.39080 0.15830 0.76850 0.26000
H 	H 	0.37090 0.17640 0.78400 0.27000
H 	H 	0.36290 0.14730 0.77670 0.25700
C 	C 	0.40864 0.12785 0.81062 -0.65200
H 	H 	0.41170 0.12650 0.82930 0.19000
H 	H 	0.42490 0.13220 0.80180 0.17500
H 	H 	0.40220 0.11120 0.80410 0.18800
C 	C 	0.42613 0.22008 0.84121 0.02800
H 	H 	0.43570 0.23420 0.84820 -0.01400
O 	O 	0.47004 0.73572 0.31616 -0.72500
O 	O 	0.47160 0.70240 0.29010 -0.89600
C 	C 	0.46374 0.71275 0.30753 0.67800
C 	C 	0.43604 0.70671 0.31657 -0.24700
C 	C 	0.42845 0.68467 0.31079 0.11200
H 	H 	0.44020 0.67220 0.30390 -0.05700
C 	C 	0.39905 0.67749 0.31492 -0.13600
C 	C 	0.38761 0.65004 0.30514 0.41100
C 	C 	0.36795 0.64970 0.32821 -0.18900
C 	C 	0.36704 0.66843 0.34857 0.08900
C 	C 	0.39057 0.68519 0.33854 0.01400
C 	C 	0.39896 0.71056 0.35604 -0.12500
H 	H 	0.39050 0.71790 0.37070 0.03500
C 	C 	0.37732 0.65866 0.28189 -0.85300
H 	H 	0.39080 0.65830 0.26850 0.26000
H 	H 	0.37090 0.67640 0.28400 0.27000
H 	H 	0.36290 0.64730 0.27670 0.25700
C 	C 	0.40864 0.62785 0.31062 -0.65200
H 	H 	0.41170 0.62650 0.32930 0.19100
H 	H 	0.42490 0.63220 0.30180 0.17500
H 	H 	0.40220 0.61120 0.30410 0.18800
C 	C 	0.42613 0.72008 0.34121 0.02800
H 	H 	0.43570 0.73420 0.34820 -0.01400
O 	O 	0.02996 0.23572 0.68384 -0.72600
O 	O 	0.02840 0.20240 0.70990 -0.89700
C 	C 	0.03626 0.21275 0.69247 0.67800
C 	C 	0.06396 0.20671 0.68343 -0.24700
C 	C 	0.07155 0.18467 0.68921 0.11200
H 	H 	0.05980 0.17220 0.69610 -0.05700
C 	C 	0.10095 0.17749 0.68508 -0.13600
C 	C 	0.11239 0.15004 0.69486 0.41000
C 	C 	0.13205 0.14970 0.67179 -0.18900
C 	C 	0.13296 0.16843 0.65143 0.08900
C 	C 	0.10943 0.18519 0.66146 0.01400
C 	C 	0.10104 0.21056 0.64396 -0.12500
H 	H 	0.10950 0.21790 0.62930 0.03500
C 	C 	0.12268 0.15866 0.71811 -0.85200
H 	H 	0.10920 0.15830 0.73150 0.25900
H 	H 	0.12910 0.17640 0.71600 0.27000
H 	H 	0.13710 0.14730 0.72330 0.25700
C 	C 	0.09136 0.12785 0.68938 -0.65100
H 	H 	0.08830 0.12650 0.67070 0.19000
H 	H 	0.07510 0.13220 0.69820 0.17400
H 	H 	0.09780 0.11120 0.69590 0.18800
C 	C 	0.07387 0.22008 0.65879 0.02800
H 	H 	0.06430 0.23420 0.65180 -0.01400
O 	O 	0.02996 0.73572 0.18384 -0.72600
O 	O 	0.02840 0.70240 0.20990 -0.89700
C 	C 	0.03626 0.71275 0.19247 0.67800
C 	C 	0.06396 0.70671 0.18343 -0.24700
C 	C 	0.07155 0.68467 0.18921 0.11200
H 	H 	0.05980 0.67220 0.19610 -0.05700
C 	C 	0.10095 0.67749 0.18508 -0.13600
C 	C 	0.11239 0.65004 0.19486 0.41100
C 	C 	0.13205 0.64970 0.17179 -0.18900
C 	C 	0.13296 0.66843 0.15143 0.08900
C 	C 	0.10943 0.68519 0.16146 0.01400
C 	C 	0.10104 0.71056 0.14396 -0.12500
H 	H 	0.10950 0.71790 0.12930 0.03500
C 	C 	0.12268 0.65866 0.21811 -0.85300
H 	H 	0.10920 0.65830 0.23150 0.25900
H 	H 	0.12910 0.67640 0.21600 0.27000
H 	H 	0.13710 0.64730 0.22330 0.25700
C 	C 	0.09136 0.62785 0.18938 -0.65200
H 	H 	0.08830 0.62650 0.17070 0.19000
H 	H 	0.07510 0.63220 0.19820 0.17400
H 	H 	0.09780 0.61120 0.19590 0.18800
C 	C 	0.07387 0.72008 0.15879 0.02800
H 	H 	0.06430 0.73420 0.15180 -0.01400
O 	O 	0.52996 0.23572 0.18384 -0.72500
O 	O 	0.52840 0.20240 0.20990 -0.89600
C 	C 	0.53626 0.21275 0.19247 0.67800
C 	C 	0.56396 0.20671 0.18343 -0.24700
C 	C 	0.57155 0.18467 0.18921 0.11200
H 	H 	0.55980 0.17220 0.19610 -0.05700
C 	C 	0.60095 0.17749 0.18508 -0.13600
C 	C 	0.61239 0.15004 0.19486 0.41100
C 	C 	0.63205 0.14970 0.17179 -0.18900
C 	C 	0.63296 0.16843 0.15143 0.08900
C 	C 	0.60943 0.18519 0.16146 0.01400
C 	C 	0.60104 0.21056 0.14396 -0.12500
H 	H 	0.60950 0.21790 0.12930 0.03500
C 	C 	0.62268 0.15866 0.21811 -0.85300
H 	H 	0.60920 0.15830 0.23150 0.26000
H 	H 	0.62910 0.17640 0.21600 0.27000
H 	H 	0.63710 0.14730 0.22330 0.25700
C 	C 	0.59136 0.12785 0.18938 -0.65200
H 	H 	0.58830 0.12650 0.17070 0.19000
H 	H 	0.57510 0.13220 0.19820 0.17400
H 	H 	0.59780 0.11120 0.19590 0.18800
C 	C 	0.57387 0.22008 0.15879 0.02800
H 	H 	0.56430 0.23420 0.15180 -0.01400
O 	O 	0.52996 0.73572 0.68384 -0.72500
O 	O 	0.52840 0.70240 0.70990 -0.89600
C 	C 	0.53626 0.71275 0.69247 0.67800
C 	C 	0.56396 0.70671 0.68343 -0.24700
C 	C 	0.57155 0.68467 0.68921 0.11200
H 	H 	0.55980 0.67220 0.69610 -0.05700
C 	C 	0.60095 0.67749 0.68508 -0.13600
C 	C 	0.61239 0.65004 0.69486 0.41100
C 	C 	0.63205 0.64970 0.67179 -0.18900
C 	C 	0.63296 0.66843 0.65143 0.08900
C 	C 	0.60943 0.68519 0.66146 0.01400
C 	C 	0.60104 0.71056 0.64396 -0.12500
H 	H 	0.60950 0.71790 0.62930 0.03500
C 	C 	0.62268 0.65866 0.71811 -0.85300
H 	H 	0.60920 0.65830 0.73150 0.26000
H 	H 	0.62910 0.67640 0.71600 0.27000
H 	H 	0.63710 0.64730 0.72330 0.25700
C 	C 	0.59136 0.62785 0.68938 -0.65200
H 	H 	0.58830 0.62650 0.67070 0.19100
H 	H 	0.57510 0.63220 0.69820 0.17500
H 	H 	0.59780 0.61120 0.69590 0.18800
C 	C 	0.57387 0.72008 0.65879 0.02800
H 	H 	0.56430 0.73420 0.65180 -0.01400
O 	O 	0.97004 0.76428 0.68384 -0.72500
O 	O 	0.97160 0.79760 0.70990 -0.89500
C 	C 	0.96374 0.78725 0.69247 0.67800
C 	C 	0.93604 0.79329 0.68343 -0.24700
C 	C 	0.92845 0.81533 0.68921 0.11200
H 	H 	0.94020 0.82780 0.69610 -0.05600
C 	C 	0.89905 0.82251 0.68508 -0.13600
C 	C 	0.88761 0.84996 0.69486 0.41100
C 	C 	0.86795 0.85030 0.67179 -0.18900
C 	C 	0.86704 0.83157 0.65143 0.08900
C 	C 	0.89057 0.81481 0.66146 0.01400
C 	C 	0.89896 0.78944 0.64396 -0.12500
H 	H 	0.89050 0.78210 0.62930 0.03500
C 	C 	0.87732 0.84134 0.71811 -0.85300
H 	H 	0.89080 0.84170 0.73150 0.26000
H 	H 	0.87090 0.82360 0.71600 0.27000
H 	H 	0.86290 0.85270 0.72330 0.25700
C 	C 	0.90864 0.87215 0.68938 -0.65300
H 	H 	0.91170 0.87350 0.67070 0.19100
H 	H 	0.92490 0.86780 0.69820 0.17500
H 	H 	0.90220 0.88880 0.69590 0.18900
C 	C 	0.92613 0.77992 0.65879 0.02900
H 	H 	0.93570 0.76580 0.65180 -0.01400
O 	O 	0.97004 0.26428 0.18384 -0.72500
O 	O 	0.97160 0.29760 0.20990 -0.89500
C 	C 	0.96374 0.28725 0.19247 0.67800
C 	C 	0.93604 0.29329 0.18343 -0.24700
C 	C 	0.92845 0.31533 0.18921 0.11200
H 	H 	0.94020 0.32780 0.19610 -0.05700
C 	C 	0.89905 0.32251 0.18508 -0.13600
C 	C 	0.88761 0.34996 0.19486 0.41100
C 	C 	0.86795 0.35030 0.17179 -0.18900
C 	C 	0.86704 0.33157 0.15143 0.08900
C 	C 	0.89057 0.31481 0.16146 0.01400
C 	C 	0.89896 0.28944 0.14396 -0.12500
H 	H 	0.89050 0.28210 0.12930 0.03500
C 	C 	0.87732 0.34134 0.21811 -0.85300
H 	H 	0.89080 0.34170 0.23150 0.26000
H 	H 	0.87090 0.32360 0.21600 0.27000
H 	H 	0.86290 0.35270 0.22330 0.25700
C 	C 	0.90864 0.37215 0.18938 -0.65300
H 	H 	0.91170 0.37350 0.17070 0.19100
H 	H 	0.92490 0.36780 0.19820 0.17500
H 	H 	0.90220 0.38880 0.19590 0.18900
C 	C 	0.92613 0.27992 0.15879 0.02800
H 	H 	0.93570 0.26580 0.15180 -0.01400
O 	O 	0.47004 0.76428 0.18384 -0.72500
O 	O 	0.47160 0.79760 0.20990 -0.89600
C 	C 	0.46374 0.78725 0.19247 0.67800
C 	C 	0.43604 0.79329 0.18343 -0.24700
C 	C 	0.42845 0.81533 0.18921 0.11200
H 	H 	0.44020 0.82780 0.19610 -0.05700
C 	C 	0.39905 0.82251 0.18508 -0.13600
C 	C 	0.38761 0.84996 0.19486 0.41100
C 	C 	0.36795 0.85030 0.17179 -0.18900
C 	C 	0.36704 0.83157 0.15143 0.08900
C 	C 	0.39057 0.81481 0.16146 0.01400
C 	C 	0.39896 0.78944 0.14396 -0.12500
H 	H 	0.39050 0.78210 0.12930 0.03500
C 	C 	0.37732 0.84134 0.21811 -0.85300
H 	H 	0.39080 0.84170 0.23150 0.26000
H 	H 	0.37090 0.82360 0.21600 0.27000
H 	H 	0.36290 0.85270 0.22330 0.25700
C 	C 	0.40864 0.87215 0.18938 -0.65300
H 	H 	0.41170 0.87350 0.17070 0.19100
H 	H 	0.42490 0.86780 0.19820 0.17500
H 	H 	0.40220 0.88880 0.19590 0.18900
C 	C 	0.42613 0.77992 0.15879 0.02800
H 	H 	0.43570 0.76580 0.15180 -0.01400
O 	O 	0.47004 0.26428 0.68384 -0.72500
O 	O 	0.47160 0.29760 0.70990 -0.89600
C 	C 	0.46374 0.28725 0.69247 0.67800
C 	C 	0.43604 0.29329 0.68343 -0.24700
C 	C 	0.42845 0.31533 0.68921 0.11200
H 	H 	0.44020 0.32780 0.69610 -0.05700
C 	C 	0.39905 0.32251 0.68508 -0.13600
C 	C 	0.38761 0.34996 0.69486 0.41100
C 	C 	0.36795 0.35030 0.67179 -0.18900
C 	C 	0.36704 0.33157 0.65143 0.08900
C 	C 	0.39057 0.31481 0.66146 0.01400
C 	C 	0.39896 0.28944 0.64396 -0.12500
H 	H 	0.39050 0.28210 0.62930 0.03500
C 	C 	0.37732 0.34134 0.71811 -0.85300
H 	H 	0.39080 0.34170 0.73150 0.26000
H 	H 	0.37090 0.32360 0.71600 0.27000
H 	H 	0.36290 0.35270 0.72330 0.25700
C 	C 	0.40864 0.37215 0.68938 -0.65200
H 	H 	0.41170 0.37350 0.67070 0.19100
H 	H 	0.42490 0.36780 0.69820 0.17500
H 	H 	0.40220 0.38880 0.69590 0.18800
C 	C 	0.42613 0.27992 0.65879 0.02800
H 	H 	0.43570 0.26580 0.65180 -0.01400
O 	O 	0.76428 0.68384 0.97004 -0.72500
O 	O 	0.79760 0.70990 0.97160 -0.89500
C 	C 	0.78725 0.69247 0.96374 0.67800
C 	C 	0.79329 0.68343 0.93604 -0.24700
C 	C 	0.81533 0.68921 0.92845 0.11200
H 	H 	0.82780 0.69610 0.94020 -0.05600
C 	C 	0.82251 0.68508 0.89905 -0.13600
C 	C 	0.84996 0.69486 0.88761 0.41100
C 	C 	0.85030 0.67179 0.86795 -0.18900
C 	C 	0.83157 0.65143 0.86704 0.08900
C 	C 	0.81481 0.66146 0.89057 0.01400
C 	C 	0.78944 0.64396 0.89896 -0.12500
H 	H 	0.78210 0.62930 0.89050 0.03500
C 	C 	0.84134 0.71811 0.87732 -0.85300
H 	H 	0.84170 0.73150 0.89080 0.26000
H 	H 	0.82360 0.71600 0.87090 0.27000
H 	H 	0.85270 0.72330 0.86290 0.25700
C 	C 	0.87215 0.68938 0.90864 -0.65300
H 	H 	0.87350 0.67070 0.91170 0.19100
H 	H 	0.86780 0.69820 0.92490 0.17500
H 	H 	0.88880 0.69590 0.90220 0.18900
C 	C 	0.77992 0.65879 0.92613 0.02900
H 	H 	0.76580 0.65180 0.93570 -0.01400
O 	O 	0.76428 0.18384 0.47004 -0.72500
O 	O 	0.79760 0.20990 0.47160 -0.89600
C 	C 	0.78725 0.19247 0.46374 0.67800
C 	C 	0.79329 0.18343 0.43604 -0.24700
C 	C 	0.81533 0.18921 0.42845 0.11200
H 	H 	0.82780 0.19610 0.44020 -0.05700
C 	C 	0.82251 0.18508 0.39905 -0.13600
C 	C 	0.84996 0.19486 0.38761 0.41100
C 	C 	0.85030 0.17179 0.36795 -0.18900
C 	C 	0.83157 0.15143 0.36704 0.08900
C 	C 	0.81481 0.16146 0.39057 0.01400
C 	C 	0.78944 0.14396 0.39896 -0.12500
H 	H 	0.78210 0.12930 0.39050 0.03500
C 	C 	0.84134 0.21811 0.37732 -0.85300
H 	H 	0.84170 0.23150 0.39080 0.26000
H 	H 	0.82360 0.21600 0.37090 0.27000
H 	H 	0.85270 0.22330 0.36290 0.25700
C 	C 	0.87215 0.18938 0.40864 -0.65300
H 	H 	0.87350 0.17070 0.41170 0.19100
H 	H 	0.86780 0.19820 0.42490 0.17500
H 	H 	0.88880 0.19590 0.40220 0.18900
C 	C 	0.77992 0.15879 0.42613 0.02800
H 	H 	0.76580 0.15180 0.43570 -0.01400
O 	O 	0.26428 0.68384 0.47004 -0.72500
O 	O 	0.29760 0.70990 0.47160 -0.89600
C 	C 	0.28725 0.69247 0.46374 0.67800
C 	C 	0.29329 0.68343 0.43604 -0.24700
C 	C 	0.31533 0.68921 0.42845 0.11200
H 	H 	0.32780 0.69610 0.44020 -0.05700
C 	C 	0.32251 0.68508 0.39905 -0.13600
C 	C 	0.34996 0.69486 0.38761 0.41100
C 	C 	0.35030 0.67179 0.36795 -0.18900
C 	C 	0.33157 0.65143 0.36704 0.08900
C 	C 	0.31481 0.66146 0.39057 0.01400
C 	C 	0.28944 0.64396 0.39896 -0.12500
H 	H 	0.28210 0.62930 0.39050 0.03500
C 	C 	0.34134 0.71811 0.37732 -0.85300
H 	H 	0.34170 0.73150 0.39080 0.26000
H 	H 	0.32360 0.71600 0.37090 0.27000
H 	H 	0.35270 0.72330 0.36290 0.25700
C 	C 	0.37215 0.68938 0.40864 -0.65200
H 	H 	0.37350 0.67070 0.41170 0.19100
H 	H 	0.36780 0.69820 0.42490 0.17500
H 	H 	0.38880 0.69590 0.40220 0.18800
C 	C 	0.27992 0.65879 0.42613 0.02800
H 	H 	0.26580 0.65180 0.43570 -0.01400
O 	O 	0.26428 0.18384 0.97004 -0.72500
O 	O 	0.29760 0.20990 0.97160 -0.89500
C 	C 	0.28725 0.19247 0.96374 0.67800
C 	C 	0.29329 0.18343 0.93604 -0.24700
C 	C 	0.31533 0.18921 0.92845 0.11200
H 	H 	0.32780 0.19610 0.94020 -0.05700
C 	C 	0.32251 0.18508 0.89905 -0.13600
C 	C 	0.34996 0.19486 0.88761 0.41100
C 	C 	0.35030 0.17179 0.86795 -0.18900
C 	C 	0.33157 0.15143 0.86704 0.08900
C 	C 	0.31481 0.16146 0.89057 0.01400
C 	C 	0.28944 0.14396 0.89896 -0.12500
H 	H 	0.28210 0.12930 0.89050 0.03500
C 	C 	0.34134 0.21811 0.87732 -0.85300
H 	H 	0.34170 0.23150 0.89080 0.26000
H 	H 	0.32360 0.21600 0.87090 0.27000
H 	H 	0.35270 0.22330 0.86290 0.25700
C 	C 	0.37215 0.18938 0.90864 -0.65300
H 	H 	0.37350 0.17070 0.91170 0.19100
H 	H 	0.36780 0.19820 0.92490 0.17500
H 	H 	0.38880 0.19590 0.90220 0.18900
C 	C 	0.27992 0.15879 0.92613 0.02800
H 	H 	0.26580 0.15180 0.93570 -0.01400
O 	O 	0.23572 0.68384 0.02996 -0.72600
O 	O 	0.20240 0.70990 0.02840 -0.89700
C 	C 	0.21275 0.69247 0.03626 0.67800
C 	C 	0.20671 0.68343 0.06396 -0.24700
C 	C 	0.18467 0.68921 0.07155 0.11200
H 	H 	0.17220 0.69610 0.05980 -0.05700
C 	C 	0.17749 0.68508 0.10095 -0.13600
C 	C 	0.15004 0.69486 0.11239 0.41000
C 	C 	0.14970 0.67179 0.13205 -0.18900
C 	C 	0.16843 0.65143 0.13296 0.08900
C 	C 	0.18519 0.66146 0.10943 0.01400
C 	C 	0.21056 0.64396 0.10104 -0.12500
H 	H 	0.21790 0.62930 0.10950 0.03500
C 	C 	0.15866 0.71811 0.12268 -0.85200
H 	H 	0.15830 0.73150 0.10920 0.25900
H 	H 	0.17640 0.71600 0.12910 0.27000
H 	H 	0.14730 0.72330 0.13710 0.25700
C 	C 	0.12785 0.68938 0.09136 -0.65100
H 	H 	0.12650 0.67070 0.08830 0.19000
H 	H 	0.13220 0.69820 0.07510 0.17400
H 	H 	0.11120 0.69590 0.09780 0.18800
C 	C 	0.22008 0.65879 0.07387 0.02800
H 	H 	0.23420 0.65180 0.06430 -0.01400
O 	O 	0.23572 0.18384 0.52996 -0.72500
O 	O 	0.20240 0.20990 0.52840 -0.89600
C 	C 	0.21275 0.19247 0.53626 0.67800
C 	C 	0.20671 0.18343 0.56396 -0.24700
C 	C 	0.18467 0.18921 0.57155 0.11200
H 	H 	0.17220 0.19610 0.55980 -0.05700
C 	C 	0.17749 0.18508 0.60095 -0.13600
C 	C 	0.15004 0.19486 0.61239 0.41100
C 	C 	0.14970 0.17179 0.63205 -0.18900
C 	C 	0.16843 0.15143 0.63296 0.08900
C 	C 	0.18519 0.16146 0.60943 0.01400
C 	C 	0.21056 0.14396 0.60104 -0.12500
H 	H 	0.21790 0.12930 0.60950 0.03500
C 	C 	0.15866 0.21811 0.62268 -0.85300
H 	H 	0.15830 0.23150 0.60920 0.26000
H 	H 	0.17640 0.21600 0.62910 0.27000
H 	H 	0.14730 0.22330 0.63710 0.25700
C 	C 	0.12785 0.18938 0.59136 -0.65200
H 	H 	0.12650 0.17070 0.58830 0.19000
H 	H 	0.13220 0.19820 0.57510 0.17400
H 	H 	0.11120 0.19590 0.59780 0.18800
C 	C 	0.22008 0.15879 0.57387 0.02800
H 	H 	0.23420 0.15180 0.56430 -0.01400
O 	O 	0.73572 0.68384 0.52996 -0.72500
O 	O 	0.70240 0.70990 0.52840 -0.89600
C 	C 	0.71275 0.69247 0.53626 0.67800
C 	C 	0.70671 0.68343 0.56396 -0.24700
C 	C 	0.68467 0.68921 0.57155 0.11200
H 	H 	0.67220 0.69610 0.55980 -0.05700
C 	C 	0.67749 0.68508 0.60095 -0.13600
C 	C 	0.65004 0.69486 0.61239 0.41100
C 	C 	0.64970 0.67179 0.63205 -0.18900
C 	C 	0.66843 0.65143 0.63296 0.08900
C 	C 	0.68519 0.66146 0.60943 0.01400
C 	C 	0.71056 0.64396 0.60104 -0.12500
H 	H 	0.71790 0.62930 0.60950 0.03500
C 	C 	0.65866 0.71811 0.62268 -0.85300
H 	H 	0.65830 0.73150 0.60920 0.26000
H 	H 	0.67640 0.71600 0.62910 0.27000
H 	H 	0.64730 0.72330 0.63710 0.25700
C 	C 	0.62785 0.68938 0.59136 -0.65200
H 	H 	0.62650 0.67070 0.58830 0.19100
H 	H 	0.63220 0.69820 0.57510 0.17500
H 	H 	0.61120 0.69590 0.59780 0.18800
C 	C 	0.72008 0.65879 0.57387 0.02800
H 	H 	0.73420 0.65180 0.56430 -0.01400
O 	O 	0.73572 0.18384 0.02996 -0.72600
O 	O 	0.70240 0.20990 0.02840 -0.89700
C 	C 	0.71275 0.19247 0.03626 0.67800
C 	C 	0.70671 0.18343 0.06396 -0.24700
C 	C 	0.68467 0.18921 0.07155 0.11200
H 	H 	0.67220 0.19610 0.05980 -0.05700
C 	C 	0.67749 0.18508 0.10095 -0.13600
C 	C 	0.65004 0.19486 0.11239 0.41100
C 	C 	0.64970 0.17179 0.13205 -0.18900
C 	C 	0.66843 0.15143 0.13296 0.08900
C 	C 	0.68519 0.16146 0.10943 0.01400
C 	C 	0.71056 0.14396 0.10104 -0.12500
H 	H 	0.71790 0.12930 0.10950 0.03500
C 	C 	0.65866 0.21811 0.12268 -0.85300
H 	H 	0.65830 0.23150 0.10920 0.25900
H 	H 	0.67640 0.21600 0.12910 0.27000
H 	H 	0.64730 0.22330 0.13710 0.25700
C 	C 	0.62785 0.18938 0.09136 -0.65200
H 	H 	0.62650 0.17070 0.08830 0.19000
H 	H 	0.63220 0.19820 0.07510 0.17400
H 	H 	0.61120 0.19590 0.09780 0.18800
C 	C 	0.72008 0.15879 0.07387 0.02800
H 	H 	0.73420 0.15180 0.06430 -0.01400
O 	O 	0.23572 0.31616 0.97004 -0.72500
O 	O 	0.20240 0.29010 0.97160 -0.89500
C 	C 	0.21275 0.30753 0.96374 0.67800
C 	C 	0.20671 0.31657 0.93604 -0.24700
C 	C 	0.18467 0.31079 0.92845 0.11200
H 	H 	0.17220 0.30390 0.94020 -0.05700
C 	C 	0.17749 0.31492 0.89905 -0.13600
C 	C 	0.15004 0.30514 0.88761 0.41100
C 	C 	0.14970 0.32821 0.86795 -0.18900
C 	C 	0.16843 0.34857 0.86704 0.08900
C 	C 	0.18519 0.33854 0.89057 0.01400
C 	C 	0.21056 0.35604 0.89896 -0.12500
H 	H 	0.21790 0.37070 0.89050 0.03500
C 	C 	0.15866 0.28189 0.87732 -0.85300
H 	H 	0.15830 0.26850 0.89080 0.26000
H 	H 	0.17640 0.28400 0.87090 0.27000
H 	H 	0.14730 0.27670 0.86290 0.25700
C 	C 	0.12785 0.31062 0.90864 -0.65300
H 	H 	0.12650 0.32930 0.91170 0.19100
H 	H 	0.13220 0.30180 0.92490 0.17500
H 	H 	0.11120 0.30410 0.90220 0.18900
C 	C 	0.22008 0.34121 0.92613 0.02800
H 	H 	0.23420 0.34820 0.93570 -0.01400
O 	O 	0.23572 0.81616 0.47004 -0.72500
O 	O 	0.20240 0.79010 0.47160 -0.89600
C 	C 	0.21275 0.80753 0.46374 0.67800
C 	C 	0.20671 0.81657 0.43604 -0.24700
C 	C 	0.18467 0.81079 0.42845 0.11200
H 	H 	0.17220 0.80390 0.44020 -0.05700
C 	C 	0.17749 0.81492 0.39905 -0.13600
C 	C 	0.15004 0.80514 0.38761 0.41100
C 	C 	0.14970 0.82821 0.36795 -0.18900
C 	C 	0.16843 0.84857 0.36704 0.08900
C 	C 	0.18519 0.83854 0.39057 0.01400
C 	C 	0.21056 0.85604 0.39896 -0.12500
H 	H 	0.21790 0.87070 0.39050 0.03500
C 	C 	0.15866 0.78189 0.37732 -0.85300
H 	H 	0.15830 0.76850 0.39080 0.26000
H 	H 	0.17640 0.78400 0.37090 0.27000
H 	H 	0.14730 0.77670 0.36290 0.25700
C 	C 	0.12785 0.81062 0.40864 -0.65200
H 	H 	0.12650 0.82930 0.41170 0.19000
H 	H 	0.13220 0.80180 0.42490 0.17500
H 	H 	0.11120 0.80410 0.40220 0.18800
C 	C 	0.22008 0.84121 0.42613 0.02800
H 	H 	0.23420 0.84820 0.43570 -0.01400
O 	O 	0.73572 0.31616 0.47004 -0.72500
O 	O 	0.70240 0.29010 0.47160 -0.89600
C 	C 	0.71275 0.30753 0.46374 0.67800
C 	C 	0.70671 0.31657 0.43604 -0.24700
C 	C 	0.68467 0.31079 0.42845 0.11200
H 	H 	0.67220 0.30390 0.44020 -0.05700
C 	C 	0.67749 0.31492 0.39905 -0.13600
C 	C 	0.65004 0.30514 0.38761 0.41100
C 	C 	0.64970 0.32821 0.36795 -0.18900
C 	C 	0.66843 0.34857 0.36704 0.08900
C 	C 	0.68519 0.33854 0.39057 0.01400
C 	C 	0.71056 0.35604 0.39896 -0.12500
H 	H 	0.71790 0.37070 0.39050 0.03500
C 	C 	0.65866 0.28189 0.37732 -0.85300
H 	H 	0.65830 0.26850 0.39080 0.26000
H 	H 	0.67640 0.28400 0.37090 0.27000
H 	H 	0.64730 0.27670 0.36290 0.25700
C 	C 	0.62785 0.31062 0.40864 -0.65200
H 	H 	0.62650 0.32930 0.41170 0.19100
H 	H 	0.63220 0.30180 0.42490 0.17500
H 	H 	0.61120 0.30410 0.40220 0.18800
C 	C 	0.72008 0.34121 0.42613 0.02800
H 	H 	0.73420 0.34820 0.43570 -0.01400
O 	O 	0.73572 0.81616 0.97004 -0.72500
O 	O 	0.70240 0.79010 0.97160 -0.89500
C 	C 	0.71275 0.80753 0.96374 0.67800
C 	C 	0.70671 0.81657 0.93604 -0.24700
C 	C 	0.68467 0.81079 0.92845 0.11200
H 	H 	0.67220 0.80390 0.94020 -0.05700
C 	C 	0.67749 0.81492 0.89905 -0.13600
C 	C 	0.65004 0.80514 0.88761 0.41100
C 	C 	0.64970 0.82821 0.86795 -0.18900
C 	C 	0.66843 0.84857 0.86704 0.08900
C 	C 	0.68519 0.83854 0.89057 0.01400
C 	C 	0.71056 0.85604 0.89896 -0.12500
H 	H 	0.71790 0.87070 0.89050 0.03500
C 	C 	0.65866 0.78189 0.87732 -0.85300
H 	H 	0.65830 0.76850 0.89080 0.26000
H 	H 	0.67640 0.78400 0.87090 0.27000
H 	H 	0.64730 0.77670 0.86290 0.25700
C 	C 	0.62785 0.81062 0.90864 -0.65300
H 	H 	0.62650 0.82930 0.91170 0.19100
H 	H 	0.63220 0.80180 0.92490 0.17500
H 	H 	0.61120 0.80410 0.90220 0.18900
C 	C 	0.72008 0.84121 0.92613 0.02900
H 	H 	0.73420 0.84820 0.93570 -0.01400
O 	O 	0.76428 0.31616 0.02996 -0.72600
O 	O 	0.79760 0.29010 0.02840 -0.89700
C 	C 	0.78725 0.30753 0.03626 0.67800
C 	C 	0.79329 0.31657 0.06396 -0.24700
C 	C 	0.81533 0.31079 0.07155 0.11200
H 	H 	0.82780 0.30390 0.05980 -0.05700
C 	C 	0.82251 0.31492 0.10095 -0.13600
C 	C 	0.84996 0.30514 0.11239 0.41100
C 	C 	0.85030 0.32821 0.13205 -0.18900
C 	C 	0.83157 0.34857 0.13296 0.08900
C 	C 	0.81481 0.33854 0.10943 0.01400
C 	C 	0.78944 0.35604 0.10104 -0.12500
H 	H 	0.78210 0.37070 0.10950 0.03500
C 	C 	0.84134 0.28189 0.12268 -0.85300
H 	H 	0.84170 0.26850 0.10920 0.26000
H 	H 	0.82360 0.28400 0.12910 0.27000
H 	H 	0.85270 0.27670 0.13710 0.25700
C 	C 	0.87215 0.31062 0.09136 -0.65200
H 	H 	0.87350 0.32930 0.08830 0.19000
H 	H 	0.86780 0.30180 0.07510 0.17500
H 	H 	0.88880 0.30410 0.09780 0.18800
C 	C 	0.77992 0.34121 0.07387 0.02800
H 	H 	0.76580 0.34820 0.06430 -0.01400
O 	O 	0.76428 0.81616 0.52996 -0.72500
O 	O 	0.79760 0.79010 0.52840 -0.89600
C 	C 	0.78725 0.80753 0.53626 0.67800
C 	C 	0.79329 0.81657 0.56396 -0.24700
C 	C 	0.81533 0.81079 0.57155 0.11200
H 	H 	0.82780 0.80390 0.55980 -0.05700
C 	C 	0.82251 0.81492 0.60095 -0.13600
C 	C 	0.84996 0.80514 0.61239 0.41100
C 	C 	0.85030 0.82821 0.63205 -0.18900
C 	C 	0.83157 0.84857 0.63296 0.08900
C 	C 	0.81481 0.83854 0.60943 0.01400
C 	C 	0.78944 0.85604 0.60104 -0.12500
H 	H 	0.78210 0.87070 0.60950 0.03500
C 	C 	0.84134 0.78189 0.62268 -0.85300
H 	H 	0.84170 0.76850 0.60920 0.26000
H 	H 	0.82360 0.78400 0.62910 0.27000
H 	H 	0.85270 0.77670 0.63710 0.25700
C 	C 	0.87215 0.81062 0.59136 -0.65300
H 	H 	0.87350 0.82930 0.58830 0.19100
H 	H 	0.86780 0.80180 0.57510 0.17500
H 	H 	0.88880 0.80410 0.59780 0.18900
C 	C 	0.77992 0.84121 0.57387 0.02900
H 	H 	0.76580 0.84820 0.56430 -0.01400
O 	O 	0.26428 0.31616 0.52996 -0.72500
O 	O 	0.29760 0.29010 0.52840 -0.89600
C 	C 	0.28725 0.30753 0.53626 0.67800
C 	C 	0.29329 0.31657 0.56396 -0.24700
C 	C 	0.31533 0.31079 0.57155 0.11200
H 	H 	0.32780 0.30390 0.55980 -0.05700
C 	C 	0.32251 0.31492 0.60095 -0.13600
C 	C 	0.34996 0.30514 0.61239 0.41100
C 	C 	0.35030 0.32821 0.63205 -0.18900
C 	C 	0.33157 0.34857 0.63296 0.08900
C 	C 	0.31481 0.33854 0.60943 0.01400
C 	C 	0.28944 0.35604 0.60104 -0.12500
H 	H 	0.28210 0.37070 0.60950 0.03500
C 	C 	0.34134 0.28189 0.62268 -0.85300
H 	H 	0.34170 0.26850 0.60920 0.26000
H 	H 	0.32360 0.28400 0.62910 0.27000
H 	H 	0.35270 0.27670 0.63710 0.25700
C 	C 	0.37215 0.31062 0.59136 -0.65200
H 	H 	0.37350 0.32930 0.58830 0.19100
H 	H 	0.36780 0.30180 0.57510 0.17500
H 	H 	0.38880 0.30410 0.59780 0.18800
C 	C 	0.27992 0.34121 0.57387 0.02800
H 	H 	0.26580 0.34820 0.56430 -0.01400
O 	O 	0.26428 0.81616 0.02996 -0.72600
O 	O 	0.29760 0.79010 0.02840 -0.89700
C 	C 	0.28725 0.80753 0.03626 0.67800
C 	C 	0.29329 0.81657 0.06396 -0.24700
C 	C 	0.31533 0.81079 0.07155 0.11200
H 	H 	0.32780 0.80390 0.05980 -0.05700
C 	C 	0.32251 0.81492 0.10095 -0.13600
C 	C 	0.34996 0.80514 0.11239 0.41100
C 	C 	0.35030 0.82821 0.13205 -0.18900
C 	C 	0.33157 0.84857 0.13296 0.08900
C 	C 	0.31481 0.83854 0.10943 0.01400
C 	C 	0.28944 0.85604 0.10104 -0.12500
H 	H 	0.28210 0.87070 0.10950 0.03500
C 	C 	0.34134 0.78189 0.12268 -0.85300
H 	H 	0.34170 0.76850 0.10920 0.26000
H 	H 	0.32360 0.78400 0.12910 0.27000
H 	H 	0.35270 0.77670 0.13710 0.25700
C 	C 	0.37215 0.81062 0.09136 -0.65200
H 	H 	0.37350 0.82930 0.08830 0.19000
H 	H 	0.36780 0.80180 0.07510 0.17400
H 	H 	0.38880 0.80410 0.09780 0.18800
C 	C 	0.27992 0.84121 0.07387 0.02800
H 	H 	0.26580 0.84820 0.06430 -0.01400
O 	O 	0.68384 0.02996 0.23572 -0.72600
O 	O 	0.70990 0.02840 0.20240 -0.89700
C 	C 	0.69247 0.03626 0.21275 0.67800
C 	C 	0.68343 0.06396 0.20671 -0.24700
C 	C 	0.68921 0.07155 0.18467 0.11200
H 	H 	0.69610 0.05980 0.17220 -0.05700
C 	C 	0.68508 0.10095 0.17749 -0.13600
C 	C 	0.69486 0.11239 0.15004 0.41000
C 	C 	0.67179 0.13205 0.14970 -0.18900
C 	C 	0.65143 0.13296 0.16843 0.08900
C 	C 	0.66146 0.10943 0.18519 0.01400
C 	C 	0.64396 0.10104 0.21056 -0.12500
H 	H 	0.62930 0.10950 0.21790 0.03500
C 	C 	0.71811 0.12268 0.15866 -0.85200
H 	H 	0.73150 0.10920 0.15830 0.25900
H 	H 	0.71600 0.12910 0.17640 0.27000
H 	H 	0.72330 0.13710 0.14730 0.25700
C 	C 	0.68938 0.09136 0.12785 -0.65100
H 	H 	0.67070 0.08830 0.12650 0.19000
H 	H 	0.69820 0.07510 0.13220 0.17400
H 	H 	0.69590 0.09780 0.11120 0.18800
C 	C 	0.65879 0.07387 0.22008 0.02800
H 	H 	0.65180 0.06430 0.23420 -0.01400
O 	O 	0.68384 0.52996 0.73572 -0.72500
O 	O 	0.70990 0.52840 0.70240 -0.89600
C 	C 	0.69247 0.53626 0.71275 0.67800
C 	C 	0.68343 0.56396 0.70671 -0.24700
C 	C 	0.68921 0.57155 0.68467 0.11200
H 	H 	0.69610 0.55980 0.67220 -0.05700
C 	C 	0.68508 0.60095 0.67749 -0.13600
C 	C 	0.69486 0.61239 0.65004 0.41100
C 	C 	0.67179 0.63205 0.64970 -0.18900
C 	C 	0.65143 0.63296 0.66843 0.08900
C 	C 	0.66146 0.60943 0.68519 0.01400
C 	C 	0.64396 0.60104 0.71056 -0.12500
H 	H 	0.62930 0.60950 0.71790 0.03500
C 	C 	0.71811 0.62268 0.65866 -0.85300
H 	H 	0.73150 0.60920 0.65830 0.26000
H 	H 	0.71600 0.62910 0.67640 0.27000
H 	H 	0.72330 0.63710 0.64730 0.25700
C 	C 	0.68938 0.59136 0.62785 -0.65200
H 	H 	0.67070 0.58830 0.62650 0.19100
H 	H 	0.69820 0.57510 0.63220 0.17500
H 	H 	0.69590 0.59780 0.61120 0.18800
C 	C 	0.65879 0.57387 0.72008 0.02800
H 	H 	0.65180 0.56430 0.73420 -0.01400
O 	O 	0.18384 0.02996 0.73572 -0.72600
O 	O 	0.20990 0.02840 0.70240 -0.89700
C 	C 	0.19247 0.03626 0.71275 0.67800
C 	C 	0.18343 0.06396 0.70671 -0.24700
C 	C 	0.18921 0.07155 0.68467 0.11200
H 	H 	0.19610 0.05980 0.67220 -0.05700
C 	C 	0.18508 0.10095 0.67749 -0.13600
C 	C 	0.19486 0.11239 0.65004 0.41100
C 	C 	0.17179 0.13205 0.64970 -0.18900
C 	C 	0.15143 0.13296 0.66843 0.08900
C 	C 	0.16146 0.10943 0.68519 0.01400
C 	C 	0.14396 0.10104 0.71056 -0.12500
H 	H 	0.12930 0.10950 0.71790 0.03500
C 	C 	0.21811 0.12268 0.65866 -0.85300
H 	H 	0.23150 0.10920 0.65830 0.25900
H 	H 	0.21600 0.12910 0.67640 0.27000
H 	H 	0.22330 0.13710 0.64730 0.25700
C 	C 	0.18938 0.09136 0.62785 -0.65200
H 	H 	0.17070 0.08830 0.62650 0.19000
H 	H 	0.19820 0.07510 0.63220 0.17400
H 	H 	0.19590 0.09780 0.61120 0.18800
C 	C 	0.15879 0.07387 0.72008 0.02800
H 	H 	0.15180 0.06430 0.73420 -0.01400
O 	O 	0.18384 0.52996 0.23572 -0.72500
O 	O 	0.20990 0.52840 0.20240 -0.89600
C 	C 	0.19247 0.53626 0.21275 0.67800
C 	C 	0.18343 0.56396 0.20671 -0.24700
C 	C 	0.18921 0.57155 0.18467 0.11200
H 	H 	0.19610 0.55980 0.17220 -0.05700
C 	C 	0.18508 0.60095 0.17749 -0.13600
C 	C 	0.19486 0.61239 0.15004 0.41100
C 	C 	0.17179 0.63205 0.14970 -0.18900
C 	C 	0.15143 0.63296 0.16843 0.08900
C 	C 	0.16146 0.60943 0.18519 0.01400
C 	C 	0.14396 0.60104 0.21056 -0.12500
H 	H 	0.12930 0.60950 0.21790 0.03500
C 	C 	0.21811 0.62268 0.15866 -0.85300
H 	H 	0.23150 0.60920 0.15830 0.26000
H 	H 	0.21600 0.62910 0.17640 0.27000
H 	H 	0.22330 0.63710 0.14730 0.25700
C 	C 	0.18938 0.59136 0.12785 -0.65200
H 	H 	0.17070 0.58830 0.12650 0.19000
H 	H 	0.19820 0.57510 0.13220 0.17400
H 	H 	0.19590 0.59780 0.11120 0.18800
C 	C 	0.15879 0.57387 0.22008 0.02800
H 	H 	0.15180 0.56430 0.23420 -0.01400
O 	O 	0.68384 0.97004 0.76428 -0.72500
O 	O 	0.70990 0.97160 0.79760 -0.89500
C 	C 	0.69247 0.96374 0.78725 0.67800
C 	C 	0.68343 0.93604 0.79329 -0.24700
C 	C 	0.68921 0.92845 0.81533 0.11200
H 	H 	0.69610 0.94020 0.82780 -0.05600
C 	C 	0.68508 0.89905 0.82251 -0.13600
C 	C 	0.69486 0.88761 0.84996 0.41100
C 	C 	0.67179 0.86795 0.85030 -0.18900
C 	C 	0.65143 0.86704 0.83157 0.08900
C 	C 	0.66146 0.89057 0.81481 0.01400
C 	C 	0.64396 0.89896 0.78944 -0.12500
H 	H 	0.62930 0.89050 0.78210 0.03500
C 	C 	0.71811 0.87732 0.84134 -0.85300
H 	H 	0.73150 0.89080 0.84170 0.26000
H 	H 	0.71600 0.87090 0.82360 0.27000
H 	H 	0.72330 0.86290 0.85270 0.25700
C 	C 	0.68938 0.90864 0.87215 -0.65300
H 	H 	0.67070 0.91170 0.87350 0.19100
H 	H 	0.69820 0.92490 0.86780 0.17500
H 	H 	0.69590 0.90220 0.88880 0.18900
C 	C 	0.65879 0.92613 0.77992 0.02900
H 	H 	0.65180 0.93570 0.76580 -0.01400
O 	O 	0.68384 0.47004 0.26428 -0.72500
O 	O 	0.70990 0.47160 0.29760 -0.89600
C 	C 	0.69247 0.46374 0.28725 0.67800
C 	C 	0.68343 0.43604 0.29329 -0.24700
C 	C 	0.68921 0.42845 0.31533 0.11200
H 	H 	0.69610 0.44020 0.32780 -0.05700
C 	C 	0.68508 0.39905 0.32251 -0.13600
C 	C 	0.69486 0.38761 0.34996 0.41100
C 	C 	0.67179 0.36795 0.35030 -0.18900
C 	C 	0.65143 0.36704 0.33157 0.08900
C 	C 	0.66146 0.39057 0.31481 0.01400
C 	C 	0.64396 0.39896 0.28944 -0.12500
H 	H 	0.62930 0.39050 0.28210 0.03500
C 	C 	0.71811 0.37732 0.34134 -0.85300
H 	H 	0.73150 0.39080 0.34170 0.26000
H 	H 	0.71600 0.37090 0.32360 0.27000
H 	H 	0.72330 0.36290 0.35270 0.25700
C 	C 	0.68938 0.40864 0.37215 -0.65200
H 	H 	0.67070 0.41170 0.37350 0.19100
H 	H 	0.69820 0.42490 0.36780 0.17500
H 	H 	0.69590 0.40220 0.38880 0.18800
C 	C 	0.65879 0.42613 0.27992 0.02800
H 	H 	0.65180 0.43570 0.26580 -0.01400
O 	O 	0.18384 0.97004 0.26428 -0.72500
O 	O 	0.20990 0.97160 0.29760 -0.89500
C 	C 	0.19247 0.96374 0.28725 0.67800
C 	C 	0.18343 0.93604 0.29329 -0.24700
C 	C 	0.18921 0.92845 0.31533 0.11200
H 	H 	0.19610 0.94020 0.32780 -0.05700
C 	C 	0.18508 0.89905 0.32251 -0.13600
C 	C 	0.19486 0.88761 0.34996 0.41100
C 	C 	0.17179 0.86795 0.35030 -0.18900
C 	C 	0.15143 0.86704 0.33157 0.08900
C 	C 	0.16146 0.89057 0.31481 0.01400
C 	C 	0.14396 0.89896 0.28944 -0.12500
H 	H 	0.12930 0.89050 0.28210 0.03500
C 	C 	0.21811 0.87732 0.34134 -0.85300
H 	H 	0.23150 0.89080 0.34170 0.26000
H 	H 	0.21600 0.87090 0.32360 0.27000
H 	H 	0.22330 0.86290 0.35270 0.25700
C 	C 	0.18938 0.90864 0.37215 -0.65300
H 	H 	0.17070 0.91170 0.37350 0.19100
H 	H 	0.19820 0.92490 0.36780 0.17500
H 	H 	0.19590 0.90220 0.38880 0.18900
C 	C 	0.15879 0.92613 0.27992 0.02800
H 	H 	0.15180 0.93570 0.26580 -0.01400
O 	O 	0.18384 0.47004 0.76428 -0.72500
O 	O 	0.20990 0.47160 0.79760 -0.89600
C 	C 	0.19247 0.46374 0.78725 0.67800
C 	C 	0.18343 0.43604 0.79329 -0.24700
C 	C 	0.18921 0.42845 0.81533 0.11200
H 	H 	0.19610 0.44020 0.82780 -0.05700
C 	C 	0.18508 0.39905 0.82251 -0.13600
C 	C 	0.19486 0.38761 0.84996 0.41100
C 	C 	0.17179 0.36795 0.85030 -0.18900
C 	C 	0.15143 0.36704 0.83157 0.08900
C 	C 	0.16146 0.39057 0.81481 0.01400
C 	C 	0.14396 0.39896 0.78944 -0.12500
H 	H 	0.12930 0.39050 0.78210 0.03500
C 	C 	0.21811 0.37732 0.84134 -0.85300
H 	H 	0.23150 0.39080 0.84170 0.26000
H 	H 	0.21600 0.37090 0.82360 0.27000
H 	H 	0.22330 0.36290 0.85270 0.25700
C 	C 	0.18938 0.40864 0.87215 -0.65300
H 	H 	0.17070 0.41170 0.87350 0.19100
H 	H 	0.19820 0.42490 0.86780 0.17500
H 	H 	0.19590 0.40220 0.88880 0.18900
C 	C 	0.15879 0.42613 0.77992 0.02800
H 	H 	0.15180 0.43570 0.76580 -0.01400
O 	O 	0.31616 0.02996 0.76428 -0.72600
O 	O 	0.29010 0.02840 0.79760 -0.89700
C 	C 	0.30753 0.03626 0.78725 0.67800
C 	C 	0.31657 0.06396 0.79329 -0.24700
C 	C 	0.31079 0.07155 0.81533 0.11200
H 	H 	0.30390 0.05980 0.82780 -0.05700
C 	C 	0.31492 0.10095 0.82251 -0.13600
C 	C 	0.30514 0.11239 0.84996 0.41100
C 	C 	0.32821 0.13205 0.85030 -0.18900
C 	C 	0.34857 0.13296 0.83157 0.08900
C 	C 	0.33854 0.10943 0.81481 0.01400
C 	C 	0.35604 0.10104 0.78944 -0.12500
H 	H 	0.37070 0.10950 0.78210 0.03500
C 	C 	0.28189 0.12268 0.84134 -0.85300
H 	H 	0.26850 0.10920 0.84170 0.26000
H 	H 	0.28400 0.12910 0.82360 0.27000
H 	H 	0.27670 0.13710 0.85270 0.25700
C 	C 	0.31062 0.09136 0.87215 -0.65200
H 	H 	0.32930 0.08830 0.87350 0.19000
H 	H 	0.30180 0.07510 0.86780 0.17500
H 	H 	0.30410 0.09780 0.88880 0.18800
C 	C 	0.34121 0.07387 0.77992 0.02800
H 	H 	0.34820 0.06430 0.76580 -0.01400
O 	O 	0.31616 0.52996 0.26428 -0.72500
O 	O 	0.29010 0.52840 0.29760 -0.89600
C 	C 	0.30753 0.53626 0.28725 0.67800
C 	C 	0.31657 0.56396 0.29329 -0.24700
C 	C 	0.31079 0.57155 0.31533 0.11200
H 	H 	0.30390 0.55980 0.32780 -0.05700
C 	C 	0.31492 0.60095 0.32251 -0.13600
C 	C 	0.30514 0.61239 0.34996 0.41100
C 	C 	0.32821 0.63205 0.35030 -0.18900
C 	C 	0.34857 0.63296 0.33157 0.08900
C 	C 	0.33854 0.60943 0.31481 0.01400
C 	C 	0.35604 0.60104 0.28944 -0.12500
H 	H 	0.37070 0.60950 0.28210 0.03500
C 	C 	0.28189 0.62268 0.34134 -0.85300
H 	H 	0.26850 0.60920 0.34170 0.26000
H 	H 	0.28400 0.62910 0.32360 0.27000
H 	H 	0.27670 0.63710 0.35270 0.25700
C 	C 	0.31062 0.59136 0.37215 -0.65200
H 	H 	0.32930 0.58830 0.37350 0.19100
H 	H 	0.30180 0.57510 0.36780 0.17500
H 	H 	0.30410 0.59780 0.38880 0.18800
C 	C 	0.34121 0.57387 0.27992 0.02800
H 	H 	0.34820 0.56430 0.26580 -0.01400
O 	O 	0.81616 0.02996 0.26428 -0.72600
O 	O 	0.79010 0.02840 0.29760 -0.89700
C 	C 	0.80753 0.03626 0.28725 0.67800
C 	C 	0.81657 0.06396 0.29329 -0.24700
C 	C 	0.81079 0.07155 0.31533 0.11200
H 	H 	0.80390 0.05980 0.32780 -0.05700
C 	C 	0.81492 0.10095 0.32251 -0.13600
C 	C 	0.80514 0.11239 0.34996 0.41100
C 	C 	0.82821 0.13205 0.35030 -0.18900
C 	C 	0.84857 0.13296 0.33157 0.08900
C 	C 	0.83854 0.10943 0.31481 0.01400
C 	C 	0.85604 0.10104 0.28944 -0.12500
H 	H 	0.87070 0.10950 0.28210 0.03500
C 	C 	0.78189 0.12268 0.34134 -0.85300
H 	H 	0.76850 0.10920 0.34170 0.26000
H 	H 	0.78400 0.12910 0.32360 0.27000
H 	H 	0.77670 0.13710 0.35270 0.25700
C 	C 	0.81062 0.09136 0.37215 -0.65200
H 	H 	0.82930 0.08830 0.37350 0.19000
H 	H 	0.80180 0.07510 0.36780 0.17400
H 	H 	0.80410 0.09780 0.38880 0.18800
C 	C 	0.84121 0.07387 0.27992 0.02800
H 	H 	0.84820 0.06430 0.26580 -0.01400
O 	O 	0.81616 0.52996 0.76428 -0.72500
O 	O 	0.79010 0.52840 0.79760 -0.89600
C 	C 	0.80753 0.53626 0.78725 0.67800
C 	C 	0.81657 0.56396 0.79329 -0.24700
C 	C 	0.81079 0.57155 0.81533 0.11200
H 	H 	0.80390 0.55980 0.82780 -0.05700
C 	C 	0.81492 0.60095 0.82251 -0.13600
C 	C 	0.80514 0.61239 0.84996 0.41100
C 	C 	0.82821 0.63205 0.85030 -0.18900
C 	C 	0.84857 0.63296 0.83157 0.08900
C 	C 	0.83854 0.60943 0.81481 0.01400
C 	C 	0.85604 0.60104 0.78944 -0.12500
H 	H 	0.87070 0.60950 0.78210 0.03500
C 	C 	0.78189 0.62268 0.84134 -0.85300
H 	H 	0.76850 0.60920 0.84170 0.26000
H 	H 	0.78400 0.62910 0.82360 0.27000
H 	H 	0.77670 0.63710 0.85270 0.25700
C 	C 	0.81062 0.59136 0.87215 -0.65300
H 	H 	0.82930 0.58830 0.87350 0.19100
H 	H 	0.80180 0.57510 0.86780 0.17500
H 	H 	0.80410 0.59780 0.88880 0.18900
C 	C 	0.84121 0.57387 0.77992 0.02900
H 	H 	0.84820 0.56430 0.76580 -0.01400
O 	O 	0.31616 0.97004 0.23572 -0.72500
O 	O 	0.29010 0.97160 0.20240 -0.89500
C 	C 	0.30753 0.96374 0.21275 0.67800
C 	C 	0.31657 0.93604 0.20671 -0.24700
C 	C 	0.31079 0.92845 0.18467 0.11200
H 	H 	0.30390 0.94020 0.17220 -0.05700
C 	C 	0.31492 0.89905 0.17749 -0.13600
C 	C 	0.30514 0.88761 0.15004 0.41100
C 	C 	0.32821 0.86795 0.14970 -0.18900
C 	C 	0.34857 0.86704 0.16843 0.08900
C 	C 	0.33854 0.89057 0.18519 0.01400
C 	C 	0.35604 0.89896 0.21056 -0.12500
H 	H 	0.37070 0.89050 0.21790 0.03500
C 	C 	0.28189 0.87732 0.15866 -0.85300
H 	H 	0.26850 0.89080 0.15830 0.26000
H 	H 	0.28400 0.87090 0.17640 0.27000
H 	H 	0.27670 0.86290 0.14730 0.25700
C 	C 	0.31062 0.90864 0.12785 -0.65300
H 	H 	0.32930 0.91170 0.12650 0.19100
H 	H 	0.30180 0.92490 0.13220 0.17500
H 	H 	0.30410 0.90220 0.11120 0.18900
C 	C 	0.34121 0.92613 0.22008 0.02800
H 	H 	0.34820 0.93570 0.23420 -0.01400
O 	O 	0.31616 0.47004 0.73572 -0.72500
O 	O 	0.29010 0.47160 0.70240 -0.89600
C 	C 	0.30753 0.46374 0.71275 0.67800
C 	C 	0.31657 0.43604 0.70671 -0.24700
C 	C 	0.31079 0.42845 0.68467 0.11200
H 	H 	0.30390 0.44020 0.67220 -0.05700
C 	C 	0.31492 0.39905 0.67749 -0.13600
C 	C 	0.30514 0.38761 0.65004 0.41100
C 	C 	0.32821 0.36795 0.64970 -0.18900
C 	C 	0.34857 0.36704 0.66843 0.08900
C 	C 	0.33854 0.39057 0.68519 0.01400
C 	C 	0.35604 0.39896 0.71056 -0.12500
H 	H 	0.37070 0.39050 0.71790 0.03500
C 	C 	0.28189 0.37732 0.65866 -0.85300
H 	H 	0.26850 0.39080 0.65830 0.26000
H 	H 	0.28400 0.37090 0.67640 0.27000
H 	H 	0.27670 0.36290 0.64730 0.25700
C 	C 	0.31062 0.40864 0.62785 -0.65200
H 	H 	0.32930 0.41170 0.62650 0.19100
H 	H 	0.30180 0.42490 0.63220 0.17500
H 	H 	0.30410 0.40220 0.61120 0.18800
C 	C 	0.34121 0.42613 0.72008 0.02800
H 	H 	0.34820 0.43570 0.73420 -0.01400
O 	O 	0.81616 0.97004 0.73572 -0.72500
O 	O 	0.79010 0.97160 0.70240 -0.89500
C 	C 	0.80753 0.96374 0.71275 0.67800
C 	C 	0.81657 0.93604 0.70671 -0.24700
C 	C 	0.81079 0.92845 0.68467 0.11200
H 	H 	0.80390 0.94020 0.67220 -0.05700
C 	C 	0.81492 0.89905 0.67749 -0.13600
C 	C 	0.80514 0.88761 0.65004 0.41100
C 	C 	0.82821 0.86795 0.64970 -0.18900
C 	C 	0.84857 0.86704 0.66843 0.08900
C 	C 	0.83854 0.89057 0.68519 0.01400
C 	C 	0.85604 0.89896 0.71056 -0.12500
H 	H 	0.87070 0.89050 0.71790 0.03500
C 	C 	0.78189 0.87732 0.65866 -0.85300
H 	H 	0.76850 0.89080 0.65830 0.26000
H 	H 	0.78400 0.87090 0.67640 0.27000
H 	H 	0.77670 0.86290 0.64730 0.25700
C 	C 	0.81062 0.90864 0.62785 -0.65300
H 	H 	0.82930 0.91170 0.62650 0.19100
H 	H 	0.80180 0.92490 0.63220 0.17500
H 	H 	0.80410 0.90220 0.61120 0.18900
C 	C 	0.84121 0.92613 0.72008 0.02900
H 	H 	0.84820 0.93570 0.73420 -0.01400
O 	O 	0.81616 0.47004 0.23572 -0.72500
O 	O 	0.79010 0.47160 0.20240 -0.89600
C 	C 	0.80753 0.46374 0.21275 0.67800
C 	C 	0.81657 0.43604 0.20671 -0.24700
C 	C 	0.81079 0.42845 0.18467 0.11200
H 	H 	0.80390 0.44020 0.17220 -0.05700
C 	C 	0.81492 0.39905 0.17749 -0.13600
C 	C 	0.80514 0.38761 0.15004 0.41100
C 	C 	0.82821 0.36795 0.14970 -0.18900
C 	C 	0.84857 0.36704 0.16843 0.08900
C 	C 	0.83854 0.39057 0.18519 0.01400
C 	C 	0.85604 0.39896 0.21056 -0.12500
H 	H 	0.87070 0.39050 0.21790 0.03500
C 	C 	0.78189 0.37732 0.15866 -0.85300
H 	H 	0.76850 0.39080 0.15830 0.26000
H 	H 	0.78400 0.37090 0.17640 0.27000
H 	H 	0.77670 0.36290 0.14730 0.25700
C 	C 	0.81062 0.40864 0.12785 -0.65200
H 	H 	0.82930 0.41170 0.12650 0.19000
H 	H 	0.80180 0.42490 0.13220 0.17500
H 	H 	0.80410 0.40220 0.11120 0.18800
C 	C 	0.84121 0.42613 0.22008 0.02800
H 	H 	0.84820 0.43570 0.23420 -0.01400
O 	O 	0.73572 0.47004 0.81616 -0.72500
O 	O 	0.70240 0.47160 0.79010 -0.89600
C 	C 	0.71275 0.46374 0.80753 0.67800
C 	C 	0.70671 0.43604 0.81657 -0.24700
C 	C 	0.68467 0.42845 0.81079 0.11200
H 	H 	0.67220 0.44020 0.80390 -0.05700
C 	C 	0.67749 0.39905 0.81492 -0.13600
C 	C 	0.65004 0.38761 0.80514 0.41100
C 	C 	0.64970 0.36795 0.82821 -0.18900
C 	C 	0.66843 0.36704 0.84857 0.08900
C 	C 	0.68519 0.39057 0.83854 0.01400
C 	C 	0.71056 0.39896 0.85604 -0.12500
H 	H 	0.71790 0.39050 0.87070 0.03500
C 	C 	0.65866 0.37732 0.78189 -0.85300
H 	H 	0.65830 0.39080 0.76850 0.26000
H 	H 	0.67640 0.37090 0.78400 0.27000
H 	H 	0.64730 0.36290 0.77670 0.25700
C 	C 	0.62785 0.40864 0.81062 -0.65200
H 	H 	0.62650 0.41170 0.82930 0.19100
H 	H 	0.63220 0.42490 0.80180 0.17500
H 	H 	0.61120 0.40220 0.80410 0.18900
C 	C 	0.72008 0.42613 0.84121 0.02800
H 	H 	0.73420 0.43570 0.84820 -0.01400
O 	O 	0.73572 0.97004 0.31616 -0.72500
O 	O 	0.70240 0.97160 0.29010 -0.89500
C 	C 	0.71275 0.96374 0.30753 0.67800
C 	C 	0.70671 0.93604 0.31657 -0.24700
C 	C 	0.68467 0.92845 0.31079 0.11200
H 	H 	0.67220 0.94020 0.30390 -0.05700
C 	C 	0.67749 0.89905 0.31492 -0.13600
C 	C 	0.65004 0.88761 0.30514 0.41100
C 	C 	0.64970 0.86795 0.32821 -0.18900
C 	C 	0.66843 0.86704 0.34857 0.08900
C 	C 	0.68519 0.89057 0.33854 0.01400
C 	C 	0.71056 0.89896 0.35604 -0.12500
H 	H 	0.71790 0.89050 0.37070 0.03500
C 	C 	0.65866 0.87732 0.28189 -0.85300
H 	H 	0.65830 0.89080 0.26850 0.26000
H 	H 	0.67640 0.87090 0.28400 0.27000
H 	H 	0.64730 0.86290 0.27670 0.25700
C 	C 	0.62785 0.90864 0.31062 -0.65300
H 	H 	0.62650 0.91170 0.32930 0.19100
H 	H 	0.63220 0.92490 0.30180 0.17500
H 	H 	0.61120 0.90220 0.30410 0.18900
C 	C 	0.72008 0.92613 0.34121 0.02900
H 	H 	0.73420 0.93570 0.34820 -0.01400
O 	O 	0.23572 0.47004 0.31616 -0.72500
O 	O 	0.20240 0.47160 0.29010 -0.89600
C 	C 	0.21275 0.46374 0.30753 0.67800
C 	C 	0.20671 0.43604 0.31657 -0.24700
C 	C 	0.18467 0.42845 0.31079 0.11200
H 	H 	0.17220 0.44020 0.30390 -0.05700
C 	C 	0.17749 0.39905 0.31492 -0.13600
C 	C 	0.15004 0.38761 0.30514 0.41100
C 	C 	0.14970 0.36795 0.32821 -0.18900
C 	C 	0.16843 0.36704 0.34857 0.08900
C 	C 	0.18519 0.39057 0.33854 0.01400
C 	C 	0.21056 0.39896 0.35604 -0.12500
H 	H 	0.21790 0.39050 0.37070 0.03500
C 	C 	0.15866 0.37732 0.28189 -0.85300
H 	H 	0.15830 0.39080 0.26850 0.26000
H 	H 	0.17640 0.37090 0.28400 0.27000
H 	H 	0.14730 0.36290 0.27670 0.25700
C 	C 	0.12785 0.40864 0.31062 -0.65200
H 	H 	0.12650 0.41170 0.32930 0.19000
H 	H 	0.13220 0.42490 0.30180 0.17500
H 	H 	0.11120 0.40220 0.30410 0.18800
C 	C 	0.22008 0.42613 0.34121 0.02800
H 	H 	0.23420 0.43570 0.34820 -0.01400
O 	O 	0.23572 0.97004 0.81616 -0.72500
O 	O 	0.20240 0.97160 0.79010 -0.89500
C 	C 	0.21275 0.96374 0.80753 0.67800
C 	C 	0.20671 0.93604 0.81657 -0.24700
C 	C 	0.18467 0.92845 0.81079 0.11200
H 	H 	0.17220 0.94020 0.80390 -0.05700
C 	C 	0.17749 0.89905 0.81492 -0.13600
C 	C 	0.15004 0.88761 0.80514 0.41100
C 	C 	0.14970 0.86795 0.82821 -0.18900
C 	C 	0.16843 0.86704 0.84857 0.08900
C 	C 	0.18519 0.89057 0.83854 0.01400
C 	C 	0.21056 0.89896 0.85604 -0.12500
H 	H 	0.21790 0.89050 0.87070 0.03500
C 	C 	0.15866 0.87732 0.78189 -0.85300
H 	H 	0.15830 0.89080 0.76850 0.26000
H 	H 	0.17640 0.87090 0.78400 0.27000
H 	H 	0.14730 0.86290 0.77670 0.25700
C 	C 	0.12785 0.90864 0.81062 -0.65300
H 	H 	0.12650 0.91170 0.82930 0.19100
H 	H 	0.13220 0.92490 0.80180 0.17500
H 	H 	0.11120 0.90220 0.80410 0.18900
C 	C 	0.22008 0.92613 0.84121 0.02900
H 	H 	0.23420 0.93570 0.84820 -0.01400
O 	O 	0.26428 0.52996 0.81616 -0.72500
O 	O 	0.29760 0.52840 0.79010 -0.89600
C 	C 	0.28725 0.53626 0.80753 0.67800
C 	C 	0.29329 0.56396 0.81657 -0.24700
C 	C 	0.31533 0.57155 0.81079 0.11200
H 	H 	0.32780 0.55980 0.80390 -0.05700
C 	C 	0.32251 0.60095 0.81492 -0.13600
C 	C 	0.34996 0.61239 0.80514 0.41100
C 	C 	0.35030 0.63205 0.82821 -0.18900
C 	C 	0.33157 0.63296 0.84857 0.08900
C 	C 	0.31481 0.60943 0.83854 0.01400
C 	C 	0.28944 0.60104 0.85604 -0.12500
H 	H 	0.28210 0.60950 0.87070 0.03500
C 	C 	0.34134 0.62268 0.78189 -0.85300
H 	H 	0.34170 0.60920 0.76850 0.26000
H 	H 	0.32360 0.62910 0.78400 0.27000
H 	H 	0.35270 0.63710 0.77670 0.25700
C 	C 	0.37215 0.59136 0.81062 -0.65200
H 	H 	0.37350 0.58830 0.82930 0.19100
H 	H 	0.36780 0.57510 0.80180 0.17500
H 	H 	0.38880 0.59780 0.80410 0.18900
C 	C 	0.27992 0.57387 0.84121 0.02900
H 	H 	0.26580 0.56430 0.84820 -0.01400
O 	O 	0.26428 0.02996 0.31616 -0.72600
O 	O 	0.29760 0.02840 0.29010 -0.89700
C 	C 	0.28725 0.03626 0.30753 0.67800
C 	C 	0.29329 0.06396 0.31657 -0.24700
C 	C 	0.31533 0.07155 0.31079 0.11200
H 	H 	0.32780 0.05980 0.30390 -0.05700
C 	C 	0.32251 0.10095 0.31492 -0.13600
C 	C 	0.34996 0.11239 0.30514 0.41100
C 	C 	0.35030 0.13205 0.32821 -0.18900
C 	C 	0.33157 0.13296 0.34857 0.08900
C 	C 	0.31481 0.10943 0.33854 0.01400
C 	C 	0.28944 0.10104 0.35604 -0.12500
H 	H 	0.28210 0.10950 0.37070 0.03500
C 	C 	0.34134 0.12268 0.28189 -0.85300
H 	H 	0.34170 0.10920 0.26850 0.26000
H 	H 	0.32360 0.12910 0.28400 0.27000
H 	H 	0.35270 0.13710 0.27670 0.25700
C 	C 	0.37215 0.09136 0.31062 -0.65200
H 	H 	0.37350 0.08830 0.32930 0.19000
H 	H 	0.36780 0.07510 0.30180 0.17400
H 	H 	0.38880 0.09780 0.30410 0.18800
C 	C 	0.27992 0.07387 0.34121 0.02800
H 	H 	0.26580 0.06430 0.34820 -0.01400
O 	O 	0.76428 0.52996 0.31616 -0.72500
O 	O 	0.79760 0.52840 0.29010 -0.89600
C 	C 	0.78725 0.53626 0.30753 0.67800
C 	C 	0.79329 0.56396 0.31657 -0.24700
C 	C 	0.81533 0.57155 0.31079 0.11200
H 	H 	0.82780 0.55980 0.30390 -0.05700
C 	C 	0.82251 0.60095 0.31492 -0.13600
C 	C 	0.84996 0.61239 0.30514 0.41100
C 	C 	0.85030 0.63205 0.32821 -0.18900
C 	C 	0.83157 0.63296 0.34857 0.08900
C 	C 	0.81481 0.60943 0.33854 0.01400
C 	C 	0.78944 0.60104 0.35604 -0.12500
H 	H 	0.78210 0.60950 0.37070 0.03500
C 	C 	0.84134 0.62268 0.28189 -0.85300
H 	H 	0.84170 0.60920 0.26850 0.26000
H 	H 	0.82360 0.62910 0.28400 0.27000
H 	H 	0.85270 0.63710 0.27670 0.25700
C 	C 	0.87215 0.59136 0.31062 -0.65300
H 	H 	0.87350 0.58830 0.32930 0.19100
H 	H 	0.86780 0.57510 0.30180 0.17500
H 	H 	0.88880 0.59780 0.30410 0.18900
C 	C 	0.77992 0.57387 0.34121 0.02800
H 	H 	0.76580 0.56430 0.34820 -0.01400
O 	O 	0.76428 0.02996 0.81616 -0.72600
O 	O 	0.79760 0.02840 0.79010 -0.89700
C 	C 	0.78725 0.03626 0.80753 0.67800
C 	C 	0.79329 0.06396 0.81657 -0.24700
C 	C 	0.81533 0.07155 0.81079 0.11200
H 	H 	0.82780 0.05980 0.80390 -0.05700
C 	C 	0.82251 0.10095 0.81492 -0.13600
C 	C 	0.84996 0.11239 0.80514 0.41100
C 	C 	0.85030 0.13205 0.82821 -0.18900
C 	C 	0.83157 0.13296 0.84857 0.08900
C 	C 	0.81481 0.10943 0.83854 0.01400
C 	C 	0.78944 0.10104 0.85604 -0.12500
H 	H 	0.78210 0.10950 0.87070 0.03500
C 	C 	0.84134 0.12268 0.78189 -0.85300
H 	H 	0.84170 0.10920 0.76850 0.26000
H 	H 	0.82360 0.12910 0.78400 0.27000
H 	H 	0.85270 0.13710 0.77670 0.25700
C 	C 	0.87215 0.09136 0.81062 -0.65200
H 	H 	0.87350 0.08830 0.82930 0.19100
H 	H 	0.86780 0.07510 0.80180 0.17500
H 	H 	0.88880 0.09780 0.80410 0.18800
C 	C 	0.77992 0.07387 0.84121 0.02800
H 	H 	0.76580 0.06430 0.84820 -0.01400
O 	O 	0.26428 0.47004 0.18384 -0.72500
O 	O 	0.29760 0.47160 0.20990 -0.89600
C 	C 	0.28725 0.46374 0.19247 0.67800
C 	C 	0.29329 0.43604 0.18343 -0.24700
C 	C 	0.31533 0.42845 0.18921 0.11200
H 	H 	0.32780 0.44020 0.19610 -0.05700
C 	C 	0.32251 0.39905 0.18508 -0.13600
C 	C 	0.34996 0.38761 0.19486 0.41100
C 	C 	0.35030 0.36795 0.17179 -0.18900
C 	C 	0.33157 0.36704 0.15143 0.08900
C 	C 	0.31481 0.39057 0.16146 0.01400
C 	C 	0.28944 0.39896 0.14396 -0.12500
H 	H 	0.28210 0.39050 0.12930 0.03500
C 	C 	0.34134 0.37732 0.21811 -0.85300
H 	H 	0.34170 0.39080 0.23150 0.26000
H 	H 	0.32360 0.37090 0.21600 0.27000
H 	H 	0.35270 0.36290 0.22330 0.25700
C 	C 	0.37215 0.40864 0.18938 -0.65200
H 	H 	0.37350 0.41170 0.17070 0.19000
H 	H 	0.36780 0.42490 0.19820 0.17500
H 	H 	0.38880 0.40220 0.19590 0.18800
C 	C 	0.27992 0.42613 0.15879 0.02800
H 	H 	0.26580 0.43570 0.15180 -0.01400
O 	O 	0.26428 0.97004 0.68384 -0.72500
O 	O 	0.29760 0.97160 0.70990 -0.89500
C 	C 	0.28725 0.96374 0.69247 0.67800
C 	C 	0.29329 0.93604 0.68343 -0.24700
C 	C 	0.31533 0.92845 0.68921 0.11200
H 	H 	0.32780 0.94020 0.69610 -0.05700
C 	C 	0.32251 0.89905 0.68508 -0.13600
C 	C 	0.34996 0.88761 0.69486 0.41100
C 	C 	0.35030 0.86795 0.67179 -0.18900
C 	C 	0.33157 0.86704 0.65143 0.08900
C 	C 	0.31481 0.89057 0.66146 0.01400
C 	C 	0.28944 0.89896 0.64396 -0.12500
H 	H 	0.28210 0.89050 0.62930 0.03500
C 	C 	0.34134 0.87732 0.71811 -0.85300
H 	H 	0.34170 0.89080 0.73150 0.26000
H 	H 	0.32360 0.87090 0.71600 0.27000
H 	H 	0.35270 0.86290 0.72330 0.25700
C 	C 	0.37215 0.90864 0.68938 -0.65300
H 	H 	0.37350 0.91170 0.67070 0.19100
H 	H 	0.36780 0.92490 0.69820 0.17500
H 	H 	0.38880 0.90220 0.69590 0.18900
C 	C 	0.27992 0.92613 0.65879 0.02900
H 	H 	0.26580 0.93570 0.65180 -0.01400
O 	O 	0.76428 0.47004 0.68384 -0.72500
O 	O 	0.79760 0.47160 0.70990 -0.89600
C 	C 	0.78725 0.46374 0.69247 0.67800
C 	C 	0.79329 0.43604 0.68343 -0.24700
C 	C 	0.81533 0.42845 0.68921 0.11200
H 	H 	0.82780 0.44020 0.69610 -0.05700
C 	C 	0.82251 0.39905 0.68508 -0.13600
C 	C 	0.84996 0.38761 0.69486 0.41100
C 	C 	0.85030 0.36795 0.67179 -0.18900
C 	C 	0.83157 0.36704 0.65143 0.08900
C 	C 	0.81481 0.39057 0.66146 0.01400
C 	C 	0.78944 0.39896 0.64396 -0.12500
H 	H 	0.78210 0.39050 0.62930 0.03500
C 	C 	0.84134 0.37732 0.71811 -0.85300
H 	H 	0.84170 0.39080 0.73150 0.26000
H 	H 	0.82360 0.37090 0.71600 0.27000
H 	H 	0.85270 0.36290 0.72330 0.25700
C 	C 	0.87215 0.40864 0.68938 -0.65300
H 	H 	0.87350 0.41170 0.67070 0.19100
H 	H 	0.86780 0.42490 0.69820 0.17500
H 	H 	0.88880 0.40220 0.69590 0.18900
C 	C 	0.77992 0.42613 0.65879 0.02800
H 	H 	0.76580 0.43570 0.65180 -0.01400
O 	O 	0.76428 0.97004 0.18384 -0.72500
O 	O 	0.79760 0.97160 0.20990 -0.89500
C 	C 	0.78725 0.96374 0.19247 0.67800
C 	C 	0.79329 0.93604 0.18343 -0.24700
C 	C 	0.81533 0.92845 0.18921 0.11200
H 	H 	0.82780 0.94020 0.19610 -0.05600
C 	C 	0.82251 0.89905 0.18508 -0.13600
C 	C 	0.84996 0.88761 0.19486 0.41100
C 	C 	0.85030 0.86795 0.17179 -0.18900
C 	C 	0.83157 0.86704 0.15143 0.08900
C 	C 	0.81481 0.89057 0.16146 0.01400
C 	C 	0.78944 0.89896 0.14396 -0.12500
H 	H 	0.78210 0.89050 0.12930 0.03500
C 	C 	0.84134 0.87732 0.21811 -0.85300
H 	H 	0.84170 0.89080 0.23150 0.26000
H 	H 	0.82360 0.87090 0.21600 0.27000
H 	H 	0.85270 0.86290 0.22330 0.25700
C 	C 	0.87215 0.90864 0.18938 -0.65300
H 	H 	0.87350 0.91170 0.17070 0.19100
H 	H 	0.86780 0.92490 0.19820 0.17500
H 	H 	0.88880 0.90220 0.19590 0.18900
C 	C 	0.77992 0.92613 0.15879 0.02800
H 	H 	0.76580 0.93570 0.15180 -0.01400
O 	O 	0.73572 0.52996 0.18384 -0.72500
O 	O 	0.70240 0.52840 0.20990 -0.89600
C 	C 	0.71275 0.53626 0.19247 0.67800
C 	C 	0.70671 0.56396 0.18343 -0.24700
C 	C 	0.68467 0.57155 0.18921 0.11200
H 	H 	0.67220 0.55980 0.19610 -0.05700
C 	C 	0.67749 0.60095 0.18508 -0.13600
C 	C 	0.65004 0.61239 0.19486 0.41100
C 	C 	0.64970 0.63205 0.17179 -0.18900
C 	C 	0.66843 0.63296 0.15143 0.08900
C 	C 	0.68519 0.60943 0.16146 0.01400
C 	C 	0.71056 0.60104 0.14396 -0.12500
H 	H 	0.71790 0.60950 0.12930 0.03500
C 	C 	0.65866 0.62268 0.21811 -0.85300
H 	H 	0.65830 0.60920 0.23150 0.26000
H 	H 	0.67640 0.62910 0.21600 0.27000
H 	H 	0.64730 0.63710 0.22330 0.25700
C 	C 	0.62785 0.59136 0.18938 -0.65200
H 	H 	0.62650 0.58830 0.17070 0.19000
H 	H 	0.63220 0.57510 0.19820 0.17500
H 	H 	0.61120 0.59780 0.19590 0.18800
C 	C 	0.72008 0.57387 0.15879 0.02800
H 	H 	0.73420 0.56430 0.15180 -0.01400
O 	O 	0.73572 0.02996 0.68384 -0.72600
O 	O 	0.70240 0.02840 0.70990 -0.89700
C 	C 	0.71275 0.03626 0.69247 0.67800
C 	C 	0.70671 0.06396 0.68343 -0.24700
C 	C 	0.68467 0.07155 0.68921 0.11200
H 	H 	0.67220 0.05980 0.69610 -0.05700
C 	C 	0.67749 0.10095 0.68508 -0.13600
C 	C 	0.65004 0.11239 0.69486 0.41100
C 	C 	0.64970 0.13205 0.67179 -0.18900
C 	C 	0.66843 0.13296 0.65143 0.08900
C 	C 	0.68519 0.10943 0.66146 0.01400
C 	C 	0.71056 0.10104 0.64396 -0.12500
H 	H 	0.71790 0.10950 0.62930 0.03500
C 	C 	0.65866 0.12268 0.71811 -0.85300
H 	H 	0.65830 0.10920 0.73150 0.25900
H 	H 	0.67640 0.12910 0.71600 0.27000
H 	H 	0.64730 0.13710 0.72330 0.25700
C 	C 	0.62785 0.09136 0.68938 -0.65200
H 	H 	0.62650 0.08830 0.67070 0.19000
H 	H 	0.63220 0.07510 0.69820 0.17400
H 	H 	0.61120 0.09780 0.69590 0.18800
C 	C 	0.72008 0.07387 0.65879 0.02800
H 	H 	0.73420 0.06430 0.65180 -0.01400
O 	O 	0.23572 0.52996 0.68384 -0.72500
O 	O 	0.20240 0.52840 0.70990 -0.89600
C 	C 	0.21275 0.53626 0.69247 0.67800
C 	C 	0.20671 0.56396 0.68343 -0.24700
C 	C 	0.18467 0.57155 0.68921 0.11200
H 	H 	0.17220 0.55980 0.69610 -0.05700
C 	C 	0.17749 0.60095 0.68508 -0.13600
C 	C 	0.15004 0.61239 0.69486 0.41100
C 	C 	0.14970 0.63205 0.67179 -0.18900
C 	C 	0.16843 0.63296 0.65143 0.08900
C 	C 	0.18519 0.60943 0.66146 0.01400
C 	C 	0.21056 0.60104 0.64396 -0.12500
H 	H 	0.21790 0.60950 0.62930 0.03500
C 	C 	0.15866 0.62268 0.71811 -0.85300
H 	H 	0.15830 0.60920 0.73150 0.26000
H 	H 	0.17640 0.62910 0.71600 0.27000
H 	H 	0.14730 0.63710 0.72330 0.25700
C 	C 	0.12785 0.59136 0.68938 -0.65200
H 	H 	0.12650 0.58830 0.67070 0.19000
H 	H 	0.13220 0.57510 0.69820 0.17500
H 	H 	0.11120 0.59780 0.69590 0.18800
C 	C 	0.22008 0.57387 0.65879 0.02800
H 	H 	0.23420 0.56430 0.65180 -0.01400
O 	O 	0.23572 0.02996 0.18384 -0.72600
O 	O 	0.20240 0.02840 0.20990 -0.89700
C 	C 	0.21275 0.03626 0.19247 0.67800
C 	C 	0.20671 0.06396 0.18343 -0.24700
C 	C 	0.18467 0.07155 0.18921 0.11200
H 	H 	0.17220 0.05980 0.19610 -0.05700
C 	C 	0.17749 0.10095 0.18508 -0.13600
C 	C 	0.15004 0.11239 0.19486 0.41000
C 	C 	0.14970 0.13205 0.17179 -0.18800
C 	C 	0.16843 0.13296 0.15143 0.08800
C 	C 	0.18519 0.10943 0.16146 0.01400
C 	C 	0.21056 0.10104 0.14396 -0.12500
H 	H 	0.21790 0.10950 0.12930 0.03500
C 	C 	0.15866 0.12268 0.21811 -0.85200
H 	H 	0.15830 0.10920 0.23150 0.25900
H 	H 	0.17640 0.12910 0.21600 0.27000
H 	H 	0.14730 0.13710 0.22330 0.25700
C 	C 	0.12785 0.09136 0.18938 -0.65100
H 	H 	0.12650 0.08830 0.17070 0.19000
H 	H 	0.13220 0.07510 0.19820 0.17400
H 	H 	0.11120 0.09780 0.19590 0.18800
C 	C 	0.22008 0.07387 0.15879 0.02800
H 	H 	0.23420 0.06430 0.15180 -0.01400
O 	O 	0.81616 0.73572 0.47004 -0.72500
O 	O 	0.79010 0.70240 0.47160 -0.89600
C 	C 	0.80753 0.71275 0.46374 0.67800
C 	C 	0.81657 0.70671 0.43604 -0.24700
C 	C 	0.81079 0.68467 0.42845 0.11200
H 	H 	0.80390 0.67220 0.44020 -0.05700
C 	C 	0.81492 0.67749 0.39905 -0.13600
C 	C 	0.80514 0.65004 0.38761 0.41100
C 	C 	0.82821 0.64970 0.36795 -0.18900
C 	C 	0.84857 0.66843 0.36704 0.08900
C 	C 	0.83854 0.68519 0.39057 0.01400
C 	C 	0.85604 0.71056 0.39896 -0.12500
H 	H 	0.87070 0.71790 0.39050 0.03500
C 	C 	0.78189 0.65866 0.37732 -0.85300
H 	H 	0.76850 0.65830 0.39080 0.26000
H 	H 	0.78400 0.67640 0.37090 0.27000
H 	H 	0.77670 0.64730 0.36290 0.25700
C 	C 	0.81062 0.62785 0.40864 -0.65200
H 	H 	0.82930 0.62650 0.41170 0.19100
H 	H 	0.80180 0.63220 0.42490 0.17500
H 	H 	0.80410 0.61120 0.40220 0.18900
C 	C 	0.84121 0.72008 0.42613 0.02800
H 	H 	0.84820 0.73420 0.43570 -0.01400
O 	O 	0.81616 0.23572 0.97004 -0.72500
O 	O 	0.79010 0.20240 0.97160 -0.89500
C 	C 	0.80753 0.21275 0.96374 0.67800
C 	C 	0.81657 0.20671 0.93604 -0.24700
C 	C 	0.81079 0.18467 0.92845 0.11200
H 	H 	0.80390 0.17220 0.94020 -0.05700
C 	C 	0.81492 0.17749 0.89905 -0.13600
C 	C 	0.80514 0.15004 0.88761 0.41100
C 	C 	0.82821 0.14970 0.86795 -0.18900
C 	C 	0.84857 0.16843 0.86704 0.08900
C 	C 	0.83854 0.18519 0.89057 0.01400
C 	C 	0.85604 0.21056 0.89896 -0.12500
H 	H 	0.87070 0.21790 0.89050 0.03500
C 	C 	0.78189 0.15866 0.87732 -0.85300
H 	H 	0.76850 0.15830 0.89080 0.26000
H 	H 	0.78400 0.17640 0.87090 0.27000
H 	H 	0.77670 0.14730 0.86290 0.25700
C 	C 	0.81062 0.12785 0.90864 -0.65300
H 	H 	0.82930 0.12650 0.91170 0.19100
H 	H 	0.80180 0.13220 0.92490 0.17500
H 	H 	0.80410 0.11120 0.90220 0.18900
C 	C 	0.84121 0.22008 0.92613 0.02900
H 	H 	0.84820 0.23420 0.93570 -0.01400
O 	O 	0.31616 0.73572 0.97004 -0.72500
O 	O 	0.29010 0.70240 0.97160 -0.89500
C 	C 	0.30753 0.71275 0.96374 0.67800
C 	C 	0.31657 0.70671 0.93604 -0.24700
C 	C 	0.31079 0.68467 0.92845 0.11200
H 	H 	0.30390 0.67220 0.94020 -0.05700
C 	C 	0.31492 0.67749 0.89905 -0.13600
C 	C 	0.30514 0.65004 0.88761 0.41100
C 	C 	0.32821 0.64970 0.86795 -0.18900
C 	C 	0.34857 0.66843 0.86704 0.08900
C 	C 	0.33854 0.68519 0.89057 0.01400
C 	C 	0.35604 0.71056 0.89896 -0.12500
H 	H 	0.37070 0.71790 0.89050 0.03500
C 	C 	0.28189 0.65866 0.87732 -0.85300
H 	H 	0.26850 0.65830 0.89080 0.26000
H 	H 	0.28400 0.67640 0.87090 0.27000
H 	H 	0.27670 0.64730 0.86290 0.25700
C 	C 	0.31062 0.62785 0.90864 -0.65300
H 	H 	0.32930 0.62650 0.91170 0.19100
H 	H 	0.30180 0.63220 0.92490 0.17500
H 	H 	0.30410 0.61120 0.90220 0.18900
C 	C 	0.34121 0.72008 0.92613 0.02900
H 	H 	0.34820 0.73420 0.93570 -0.01400
O 	O 	0.31616 0.23572 0.47004 -0.72500
O 	O 	0.29010 0.20240 0.47160 -0.89600
C 	C 	0.30753 0.21275 0.46374 0.67800
C 	C 	0.31657 0.20671 0.43604 -0.24700
C 	C 	0.31079 0.18467 0.42845 0.11200
H 	H 	0.30390 0.17220 0.44020 -0.05700
C 	C 	0.31492 0.17749 0.39905 -0.13600
C 	C 	0.30514 0.15004 0.38761 0.41100
C 	C 	0.32821 0.14970 0.36795 -0.18900
C 	C 	0.34857 0.16843 0.36704 0.08900
C 	C 	0.33854 0.18519 0.39057 0.01400
C 	C 	0.35604 0.21056 0.39896 -0.12500
H 	H 	0.37070 0.21790 0.39050 0.03500
C 	C 	0.28189 0.15866 0.37732 -0.85300
H 	H 	0.26850 0.15830 0.39080 0.26000
H 	H 	0.28400 0.17640 0.37090 0.27000
H 	H 	0.27670 0.14730 0.36290 0.25700
C 	C 	0.31062 0.12785 0.40864 -0.65200
H 	H 	0.32930 0.12650 0.41170 0.19000
H 	H 	0.30180 0.13220 0.42490 0.17500
H 	H 	0.30410 0.11120 0.40220 0.18800
C 	C 	0.34121 0.22008 0.42613 0.02800
H 	H 	0.34820 0.23420 0.43570 -0.01400
O 	O 	0.81616 0.26428 0.52996 -0.72500
O 	O 	0.79010 0.29760 0.52840 -0.89600
C 	C 	0.80753 0.28725 0.53626 0.67800
C 	C 	0.81657 0.29329 0.56396 -0.24700
C 	C 	0.81079 0.31533 0.57155 0.11200
H 	H 	0.80390 0.32780 0.55980 -0.05700
C 	C 	0.81492 0.32251 0.60095 -0.13600
C 	C 	0.80514 0.34996 0.61239 0.41100
C 	C 	0.82821 0.35030 0.63205 -0.18900
C 	C 	0.84857 0.33157 0.63296 0.08900
C 	C 	0.83854 0.31481 0.60943 0.01400
C 	C 	0.85604 0.28944 0.60104 -0.12500
H 	H 	0.87070 0.28210 0.60950 0.03500
C 	C 	0.78189 0.34134 0.62268 -0.85300
H 	H 	0.76850 0.34170 0.60920 0.26000
H 	H 	0.78400 0.32360 0.62910 0.27000
H 	H 	0.77670 0.35270 0.63710 0.25700
C 	C 	0.81062 0.37215 0.59136 -0.65200
H 	H 	0.82930 0.37350 0.58830 0.19100
H 	H 	0.80180 0.36780 0.57510 0.17500
H 	H 	0.80410 0.38880 0.59780 0.18900
C 	C 	0.84121 0.27992 0.57387 0.02900
H 	H 	0.84820 0.26580 0.56430 -0.01400
O 	O 	0.81616 0.76428 0.02996 -0.72600
O 	O 	0.79010 0.79760 0.02840 -0.89700
C 	C 	0.80753 0.78725 0.03626 0.67800
C 	C 	0.81657 0.79329 0.06396 -0.24700
C 	C 	0.81079 0.81533 0.07155 0.11200
H 	H 	0.80390 0.82780 0.05980 -0.05700
C 	C 	0.81492 0.82251 0.10095 -0.13600
C 	C 	0.80514 0.84996 0.11239 0.41100
C 	C 	0.82821 0.85030 0.13205 -0.18900
C 	C 	0.84857 0.83157 0.13296 0.08900
C 	C 	0.83854 0.81481 0.10943 0.01400
C 	C 	0.85604 0.78944 0.10104 -0.12500
H 	H 	0.87070 0.78210 0.10950 0.03500
C 	C 	0.78189 0.84134 0.12268 -0.85300
H 	H 	0.76850 0.84170 0.10920 0.26000
H 	H 	0.78400 0.82360 0.12910 0.27000
H 	H 	0.77670 0.85270 0.13710 0.25700
C 	C 	0.81062 0.87215 0.09136 -0.65200
H 	H 	0.82930 0.87350 0.08830 0.19100
H 	H 	0.80180 0.86780 0.07510 0.17500
H 	H 	0.80410 0.88880 0.09780 0.18800
C 	C 	0.84121 0.77992 0.07387 0.02800
H 	H 	0.84820 0.76580 0.06430 -0.01400
O 	O 	0.31616 0.26428 0.02996 -0.72600
O 	O 	0.29010 0.29760 0.02840 -0.89700
C 	C 	0.30753 0.28725 0.03626 0.67800
C 	C 	0.31657 0.29329 0.06396 -0.24700
C 	C 	0.31079 0.31533 0.07155 0.11200
H 	H 	0.30390 0.32780 0.05980 -0.05700
C 	C 	0.31492 0.32251 0.10095 -0.13600
C 	C 	0.30514 0.34996 0.11239 0.41100
C 	C 	0.32821 0.35030 0.13205 -0.18900
C 	C 	0.34857 0.33157 0.13296 0.08900
C 	C 	0.33854 0.31481 0.10943 0.01400
C 	C 	0.35604 0.28944 0.10104 -0.12500
H 	H 	0.37070 0.28210 0.10950 0.03500
C 	C 	0.28189 0.34134 0.12268 -0.85300
H 	H 	0.26850 0.34170 0.10920 0.26000
H 	H 	0.28400 0.32360 0.12910 0.27000
H 	H 	0.27670 0.35270 0.13710 0.25700
C 	C 	0.31062 0.37215 0.09136 -0.65200
H 	H 	0.32930 0.37350 0.08830 0.19000
H 	H 	0.30180 0.36780 0.07510 0.17400
H 	H 	0.30410 0.38880 0.09780 0.18800
C 	C 	0.34121 0.27992 0.07387 0.02800
H 	H 	0.34820 0.26580 0.06430 -0.01400
O 	O 	0.31616 0.76428 0.52996 -0.72500
O 	O 	0.29010 0.79760 0.52840 -0.89600
C 	C 	0.30753 0.78725 0.53626 0.67800
C 	C 	0.31657 0.79329 0.56396 -0.24700
C 	C 	0.31079 0.81533 0.57155 0.11200
H 	H 	0.30390 0.82780 0.55980 -0.05700
C 	C 	0.31492 0.82251 0.60095 -0.13600
C 	C 	0.30514 0.84996 0.61239 0.41100
C 	C 	0.32821 0.85030 0.63205 -0.18900
C 	C 	0.34857 0.83157 0.63296 0.08900
C 	C 	0.33854 0.81481 0.60943 0.01400
C 	C 	0.35604 0.78944 0.60104 -0.12500
H 	H 	0.37070 0.78210 0.60950 0.03500
C 	C 	0.28189 0.84134 0.62268 -0.85300
H 	H 	0.26850 0.84170 0.60920 0.26000
H 	H 	0.28400 0.82360 0.62910 0.27000
H 	H 	0.27670 0.85270 0.63710 0.25700
C 	C 	0.31062 0.87215 0.59136 -0.65300
H 	H 	0.32930 0.87350 0.58830 0.19100
H 	H 	0.30180 0.86780 0.57510 0.17500
H 	H 	0.30410 0.88880 0.59780 0.18900
C 	C 	0.34121 0.77992 0.57387 0.02800
H 	H 	0.34820 0.76580 0.56430 -0.01400
O 	O 	0.18384 0.26428 0.47004 -0.72500
O 	O 	0.20990 0.29760 0.47160 -0.89600
C 	C 	0.19247 0.28725 0.46374 0.67800
C 	C 	0.18343 0.29329 0.43604 -0.24700
C 	C 	0.18921 0.31533 0.42845 0.11200
H 	H 	0.19610 0.32780 0.44020 -0.05700
C 	C 	0.18508 0.32251 0.39905 -0.13600
C 	C 	0.19486 0.34996 0.38761 0.41100
C 	C 	0.17179 0.35030 0.36795 -0.18900
C 	C 	0.15143 0.33157 0.36704 0.08900
C 	C 	0.16146 0.31481 0.39057 0.01400
C 	C 	0.14396 0.28944 0.39896 -0.12500
H 	H 	0.12930 0.28210 0.39050 0.03500
C 	C 	0.21811 0.34134 0.37732 -0.85300
H 	H 	0.23150 0.34170 0.39080 0.26000
H 	H 	0.21600 0.32360 0.37090 0.27000
H 	H 	0.22330 0.35270 0.36290 0.25700
C 	C 	0.18938 0.37215 0.40864 -0.65200
H 	H 	0.17070 0.37350 0.41170 0.19000
H 	H 	0.19820 0.36780 0.42490 0.17500
H 	H 	0.19590 0.38880 0.40220 0.18800
C 	C 	0.15879 0.27992 0.42613 0.02800
H 	H 	0.15180 0.26580 0.43570 -0.01400
O 	O 	0.18384 0.76428 0.97004 -0.72500
O 	O 	0.20990 0.79760 0.97160 -0.89500
C 	C 	0.19247 0.78725 0.96374 0.67800
C 	C 	0.18343 0.79329 0.93604 -0.24700
C 	C 	0.18921 0.81533 0.92845 0.11200
H 	H 	0.19610 0.82780 0.94020 -0.05600
C 	C 	0.18508 0.82251 0.89905 -0.13600
C 	C 	0.19486 0.84996 0.88761 0.41100
C 	C 	0.17179 0.85030 0.86795 -0.18900
C 	C 	0.15143 0.83157 0.86704 0.08900
C 	C 	0.16146 0.81481 0.89057 0.01400
C 	C 	0.14396 0.78944 0.89896 -0.12500
H 	H 	0.12930 0.78210 0.89050 0.03500
C 	C 	0.21811 0.84134 0.87732 -0.85300
H 	H 	0.23150 0.84170 0.89080 0.26000
H 	H 	0.21600 0.82360 0.87090 0.27000
H 	H 	0.22330 0.85270 0.86290 0.25700
C 	C 	0.18938 0.87215 0.90864 -0.65300
H 	H 	0.17070 0.87350 0.91170 0.19100
H 	H 	0.19820 0.86780 0.92490 0.17500
H 	H 	0.19590 0.88880 0.90220 0.18900
C 	C 	0.15879 0.77992 0.92613 0.02800
H 	H 	0.15180 0.76580 0.93570 -0.01400
O 	O 	0.68384 0.26428 0.97004 -0.72500
O 	O 	0.70990 0.29760 0.97160 -0.89500
C 	C 	0.69247 0.28725 0.96374 0.67800
C 	C 	0.68343 0.29329 0.93604 -0.24700
C 	C 	0.68921 0.31533 0.92845 0.11200
H 	H 	0.69610 0.32780 0.94020 -0.05700
C 	C 	0.68508 0.32251 0.89905 -0.13600
C 	C 	0.69486 0.34996 0.88761 0.41100
C 	C 	0.67179 0.35030 0.86795 -0.18900
C 	C 	0.65143 0.33157 0.86704 0.08900
C 	C 	0.66146 0.31481 0.89057 0.01400
C 	C 	0.64396 0.28944 0.89896 -0.12500
H 	H 	0.62930 0.28210 0.89050 0.03500
C 	C 	0.71811 0.34134 0.87732 -0.85300
H 	H 	0.73150 0.34170 0.89080 0.26000
H 	H 	0.71600 0.32360 0.87090 0.27000
H 	H 	0.72330 0.35270 0.86290 0.25700
C 	C 	0.68938 0.37215 0.90864 -0.65300
H 	H 	0.67070 0.37350 0.91170 0.19100
H 	H 	0.69820 0.36780 0.92490 0.17500
H 	H 	0.69590 0.38880 0.90220 0.18900
C 	C 	0.65879 0.27992 0.92613 0.02900
H 	H 	0.65180 0.26580 0.93570 -0.01400
O 	O 	0.68384 0.76428 0.47004 -0.72500
O 	O 	0.70990 0.79760 0.47160 -0.89600
C 	C 	0.69247 0.78725 0.46374 0.67800
C 	C 	0.68343 0.79329 0.43604 -0.24700
C 	C 	0.68921 0.81533 0.42845 0.11200
H 	H 	0.69610 0.82780 0.44020 -0.05700
C 	C 	0.68508 0.82251 0.39905 -0.13600
C 	C 	0.69486 0.84996 0.38761 0.41100
C 	C 	0.67179 0.85030 0.36795 -0.18900
C 	C 	0.65143 0.83157 0.36704 0.08900
C 	C 	0.66146 0.81481 0.39057 0.01400
C 	C 	0.64396 0.78944 0.39896 -0.12500
H 	H 	0.62930 0.78210 0.39050 0.03500
C 	C 	0.71811 0.84134 0.37732 -0.85300
H 	H 	0.73150 0.84170 0.39080 0.26000
H 	H 	0.71600 0.82360 0.37090 0.27000
H 	H 	0.72330 0.85270 0.36290 0.25700
C 	C 	0.68938 0.87215 0.40864 -0.65300
H 	H 	0.67070 0.87350 0.41170 0.19100
H 	H 	0.69820 0.86780 0.42490 0.17500
H 	H 	0.69590 0.88880 0.40220 0.18900
C 	C 	0.65879 0.77992 0.42613 0.02800
H 	H 	0.65180 0.76580 0.43570 -0.01400
O 	O 	0.18384 0.73572 0.52996 -0.72500
O 	O 	0.20990 0.70240 0.52840 -0.89600
C 	C 	0.19247 0.71275 0.53626 0.67800
C 	C 	0.18343 0.70671 0.56396 -0.24700
C 	C 	0.18921 0.68467 0.57155 0.11200
H 	H 	0.19610 0.67220 0.55980 -0.05700
C 	C 	0.18508 0.67749 0.60095 -0.13600
C 	C 	0.19486 0.65004 0.61239 0.41100
C 	C 	0.17179 0.64970 0.63205 -0.18900
C 	C 	0.15143 0.66843 0.63296 0.08900
C 	C 	0.16146 0.68519 0.60943 0.01400
C 	C 	0.14396 0.71056 0.60104 -0.12500
H 	H 	0.12930 0.71790 0.60950 0.03500
C 	C 	0.21811 0.65866 0.62268 -0.85300
H 	H 	0.23150 0.65830 0.60920 0.26000
H 	H 	0.21600 0.67640 0.62910 0.27000
H 	H 	0.22330 0.64730 0.63710 0.25700
C 	C 	0.18938 0.62785 0.59136 -0.65200
H 	H 	0.17070 0.62650 0.58830 0.19000
H 	H 	0.19820 0.63220 0.57510 0.17500
H 	H 	0.19590 0.61120 0.59780 0.18800
C 	C 	0.15879 0.72008 0.57387 0.02800
H 	H 	0.15180 0.73420 0.56430 -0.01400
O 	O 	0.18384 0.23572 0.02996 -0.72600
O 	O 	0.20990 0.20240 0.02840 -0.89700
C 	C 	0.19247 0.21275 0.03626 0.67800
C 	C 	0.18343 0.20671 0.06396 -0.24700
C 	C 	0.18921 0.18467 0.07155 0.11200
H 	H 	0.19610 0.17220 0.05980 -0.05700
C 	C 	0.18508 0.17749 0.10095 -0.13600
C 	C 	0.19486 0.15004 0.11239 0.41000
C 	C 	0.17179 0.14970 0.13205 -0.18800
C 	C 	0.15143 0.16843 0.13296 0.08800
C 	C 	0.16146 0.18519 0.10943 0.01400
C 	C 	0.14396 0.21056 0.10104 -0.12500
H 	H 	0.12930 0.21790 0.10950 0.03500
C 	C 	0.21811 0.15866 0.12268 -0.85200
H 	H 	0.23150 0.15830 0.10920 0.25900
H 	H 	0.21600 0.17640 0.12910 0.27000
H 	H 	0.22330 0.14730 0.13710 0.25700
C 	C 	0.18938 0.12785 0.09136 -0.65100
H 	H 	0.17070 0.12650 0.08830 0.19000
H 	H 	0.19820 0.13220 0.07510 0.17400
H 	H 	0.19590 0.11120 0.09780 0.18800
C 	C 	0.15879 0.22008 0.07387 0.02800
H 	H 	0.15180 0.23420 0.06430 -0.01400
O 	O 	0.68384 0.73572 0.02996 -0.72600
O 	O 	0.70990 0.70240 0.02840 -0.89700
C 	C 	0.69247 0.71275 0.03626 0.67800
C 	C 	0.68343 0.70671 0.06396 -0.24700
C 	C 	0.68921 0.68467 0.07155 0.11200
H 	H 	0.69610 0.67220 0.05980 -0.05700
C 	C 	0.68508 0.67749 0.10095 -0.13600
C 	C 	0.69486 0.65004 0.11239 0.41100
C 	C 	0.67179 0.64970 0.13205 -0.18900
C 	C 	0.65143 0.66843 0.13296 0.08900
C 	C 	0.66146 0.68519 0.10943 0.01400
C 	C 	0.64396 0.71056 0.10104 -0.12500
H 	H 	0.62930 0.71790 0.10950 0.03500
C 	C 	0.71811 0.65866 0.12268 -0.85300
H 	H 	0.73150 0.65830 0.10920 0.25900
H 	H 	0.71600 0.67640 0.12910 0.27000
H 	H 	0.72330 0.64730 0.13710 0.25700
C 	C 	0.68938 0.62785 0.09136 -0.65200
H 	H 	0.67070 0.62650 0.08830 0.19000
H 	H 	0.69820 0.63220 0.07510 0.17400
H 	H 	0.69590 0.61120 0.09780 0.18800
C 	C 	0.65879 0.72008 0.07387 0.02800
H 	H 	0.65180 0.73420 0.06430 -0.01400
O 	O 	0.68384 0.23572 0.52996 -0.72500
O 	O 	0.70990 0.20240 0.52840 -0.89600
C 	C 	0.69247 0.21275 0.53626 0.67800
C 	C 	0.68343 0.20671 0.56396 -0.24700
C 	C 	0.68921 0.18467 0.57155 0.11200
H 	H 	0.69610 0.17220 0.55980 -0.05700
C 	C 	0.68508 0.17749 0.60095 -0.13600
C 	C 	0.69486 0.15004 0.61239 0.41100
C 	C 	0.67179 0.14970 0.63205 -0.18900
C 	C 	0.65143 0.16843 0.63296 0.08900
C 	C 	0.66146 0.18519 0.60943 0.01400
C 	C 	0.64396 0.21056 0.60104 -0.12500
H 	H 	0.62930 0.21790 0.60950 0.03500
C 	C 	0.71811 0.15866 0.62268 -0.85300
H 	H 	0.73150 0.15830 0.60920 0.26000
H 	H 	0.71600 0.17640 0.62910 0.27000
H 	H 	0.72330 0.14730 0.63710 0.25700
C 	C 	0.68938 0.12785 0.59136 -0.65200
H 	H 	0.67070 0.12650 0.58830 0.19000
H 	H 	0.69820 0.13220 0.57510 0.17500
H 	H 	0.69590 0.11120 0.59780 0.18800
C 	C 	0.65879 0.22008 0.57387 0.02800
H 	H 	0.65180 0.23420 0.56430 -0.01400
O 	O 	0.47004 0.81616 0.73572 -0.72500
O 	O 	0.47160 0.79010 0.70240 -0.89600
C 	C 	0.46374 0.80753 0.71275 0.67800
C 	C 	0.43604 0.81657 0.70671 -0.24700
C 	C 	0.42845 0.81079 0.68467 0.11200
H 	H 	0.44020 0.80390 0.67220 -0.05700
C 	C 	0.39905 0.81492 0.67749 -0.13600
C 	C 	0.38761 0.80514 0.65004 0.41100
C 	C 	0.36795 0.82821 0.64970 -0.18900
C 	C 	0.36704 0.84857 0.66843 0.08900
C 	C 	0.39057 0.83854 0.68519 0.01400
C 	C 	0.39896 0.85604 0.71056 -0.12500
H 	H 	0.39050 0.87070 0.71790 0.03500
C 	C 	0.37732 0.78189 0.65866 -0.85300
H 	H 	0.39080 0.76850 0.65830 0.26000
H 	H 	0.37090 0.78400 0.67640 0.27000
H 	H 	0.36290 0.77670 0.64730 0.25700
C 	C 	0.40864 0.81062 0.62785 -0.65200
H 	H 	0.41170 0.82930 0.62650 0.19100
H 	H 	0.42490 0.80180 0.63220 0.17500
H 	H 	0.40220 0.80410 0.61120 0.18900
C 	C 	0.42613 0.84121 0.72008 0.02800
H 	H 	0.43570 0.84820 0.73420 -0.01400
O 	O 	0.47004 0.31616 0.23572 -0.72500
O 	O 	0.47160 0.29010 0.20240 -0.89600
C 	C 	0.46374 0.30753 0.21275 0.67800
C 	C 	0.43604 0.31657 0.20671 -0.24700
C 	C 	0.42845 0.31079 0.18467 0.11200
H 	H 	0.44020 0.30390 0.17220 -0.05700
C 	C 	0.39905 0.31492 0.17749 -0.13600
C 	C 	0.38761 0.30514 0.15004 0.41100
C 	C 	0.36795 0.32821 0.14970 -0.18900
C 	C 	0.36704 0.34857 0.16843 0.08900
C 	C 	0.39057 0.33854 0.18519 0.01400
C 	C 	0.39896 0.35604 0.21056 -0.12500
H 	H 	0.39050 0.37070 0.21790 0.03500
C 	C 	0.37732 0.28189 0.15866 -0.85300
H 	H 	0.39080 0.26850 0.15830 0.26000
H 	H 	0.37090 0.28400 0.17640 0.27000
H 	H 	0.36290 0.27670 0.14730 0.25700
C 	C 	0.40864 0.31062 0.12785 -0.65200
H 	H 	0.41170 0.32930 0.12650 0.19000
H 	H 	0.42490 0.30180 0.13220 0.17500
H 	H 	0.40220 0.30410 0.11120 0.18800
C 	C 	0.42613 0.34121 0.22008 0.02800
H 	H 	0.43570 0.34820 0.23420 -0.01400
O 	O 	0.97004 0.81616 0.23572 -0.72500
O 	O 	0.97160 0.79010 0.20240 -0.89500
C 	C 	0.96374 0.80753 0.21275 0.67800
C 	C 	0.93604 0.81657 0.20671 -0.24700
C 	C 	0.92845 0.81079 0.18467 0.11200
H 	H 	0.94020 0.80390 0.17220 -0.05700
C 	C 	0.89905 0.81492 0.17749 -0.13600
C 	C 	0.88761 0.80514 0.15004 0.41100
C 	C 	0.86795 0.82821 0.14970 -0.18900
C 	C 	0.86704 0.84857 0.16843 0.08900
C 	C 	0.89057 0.83854 0.18519 0.01400
C 	C 	0.89896 0.85604 0.21056 -0.12500
H 	H 	0.89050 0.87070 0.21790 0.03500
C 	C 	0.87732 0.78189 0.15866 -0.85300
H 	H 	0.89080 0.76850 0.15830 0.26000
H 	H 	0.87090 0.78400 0.17640 0.27000
H 	H 	0.86290 0.77670 0.14730 0.25700
C 	C 	0.90864 0.81062 0.12785 -0.65300
H 	H 	0.91170 0.82930 0.12650 0.19100
H 	H 	0.92490 0.80180 0.13220 0.17500
H 	H 	0.90220 0.80410 0.11120 0.18900
C 	C 	0.92613 0.84121 0.22008 0.02900
H 	H 	0.93570 0.84820 0.23420 -0.01400
O 	O 	0.97004 0.31616 0.73572 -0.72500
O 	O 	0.97160 0.29010 0.70240 -0.89500
C 	C 	0.96374 0.30753 0.71275 0.67800
C 	C 	0.93604 0.31657 0.70671 -0.24700
C 	C 	0.92845 0.31079 0.68467 0.11200
H 	H 	0.94020 0.30390 0.67220 -0.05700
C 	C 	0.89905 0.31492 0.67749 -0.13600
C 	C 	0.88761 0.30514 0.65004 0.41100
C 	C 	0.86795 0.32821 0.64970 -0.18900
C 	C 	0.86704 0.34857 0.66843 0.08900
C 	C 	0.89057 0.33854 0.68519 0.01400
C 	C 	0.89896 0.35604 0.71056 -0.12500
H 	H 	0.89050 0.37070 0.71790 0.03500
C 	C 	0.87732 0.28189 0.65866 -0.85300
H 	H 	0.89080 0.26850 0.65830 0.26000
H 	H 	0.87090 0.28400 0.67640 0.27000
H 	H 	0.86290 0.27670 0.64730 0.25700
C 	C 	0.90864 0.31062 0.62785 -0.65300
H 	H 	0.91170 0.32930 0.62650 0.19100
H 	H 	0.92490 0.30180 0.63220 0.17500
H 	H 	0.90220 0.30410 0.61120 0.18900
C 	C 	0.92613 0.34121 0.72008 0.02900
H 	H 	0.93570 0.34820 0.73420 -0.01400
O 	O 	0.52996 0.81616 0.26428 -0.72500
O 	O 	0.52840 0.79010 0.29760 -0.89600
C 	C 	0.53626 0.80753 0.28725 0.67800
C 	C 	0.56396 0.81657 0.29329 -0.24700
C 	C 	0.57155 0.81079 0.31533 0.11200
H 	H 	0.55980 0.80390 0.32780 -0.05700
C 	C 	0.60095 0.81492 0.32251 -0.13600
C 	C 	0.61239 0.80514 0.34996 0.41100
C 	C 	0.63205 0.82821 0.35030 -0.18900
C 	C 	0.63296 0.84857 0.33157 0.08900
C 	C 	0.60943 0.83854 0.31481 0.01400
C 	C 	0.60104 0.85604 0.28944 -0.12500
H 	H 	0.60950 0.87070 0.28210 0.03500
C 	C 	0.62268 0.78189 0.34134 -0.85300
H 	H 	0.60920 0.76850 0.34170 0.26000
H 	H 	0.62910 0.78400 0.32360 0.27000
H 	H 	0.63710 0.77670 0.35270 0.25700
C 	C 	0.59136 0.81062 0.37215 -0.65200
H 	H 	0.58830 0.82930 0.37350 0.19100
H 	H 	0.57510 0.80180 0.36780 0.17500
H 	H 	0.59780 0.80410 0.38880 0.18900
C 	C 	0.57387 0.84121 0.27992 0.02900
H 	H 	0.56430 0.84820 0.26580 -0.01400
O 	O 	0.52996 0.31616 0.76428 -0.72500
O 	O 	0.52840 0.29010 0.79760 -0.89600
C 	C 	0.53626 0.30753 0.78725 0.67800
C 	C 	0.56396 0.31657 0.79329 -0.24700
C 	C 	0.57155 0.31079 0.81533 0.11200
H 	H 	0.55980 0.30390 0.82780 -0.05700
C 	C 	0.60095 0.31492 0.82251 -0.13600
C 	C 	0.61239 0.30514 0.84996 0.41100
C 	C 	0.63205 0.32821 0.85030 -0.18900
C 	C 	0.63296 0.34857 0.83157 0.08900
C 	C 	0.60943 0.33854 0.81481 0.01400
C 	C 	0.60104 0.35604 0.78944 -0.12500
H 	H 	0.60950 0.37070 0.78210 0.03500
C 	C 	0.62268 0.28189 0.84134 -0.85300
H 	H 	0.60920 0.26850 0.84170 0.26000
H 	H 	0.62910 0.28400 0.82360 0.27000
H 	H 	0.63710 0.27670 0.85270 0.25700
C 	C 	0.59136 0.31062 0.87215 -0.65300
H 	H 	0.58830 0.32930 0.87350 0.19100
H 	H 	0.57510 0.30180 0.86780 0.17500
H 	H 	0.59780 0.30410 0.88880 0.18900
C 	C 	0.57387 0.34121 0.77992 0.02800
H 	H 	0.56430 0.34820 0.76580 -0.01400
O 	O 	0.02996 0.81616 0.76428 -0.72600
O 	O 	0.02840 0.79010 0.79760 -0.89700
C 	C 	0.03626 0.80753 0.78725 0.67800
C 	C 	0.06396 0.81657 0.79329 -0.24700
C 	C 	0.07155 0.81079 0.81533 0.11200
H 	H 	0.05980 0.80390 0.82780 -0.05700
C 	C 	0.10095 0.81492 0.82251 -0.13600
C 	C 	0.11239 0.80514 0.84996 0.41100
C 	C 	0.13205 0.82821 0.85030 -0.18900
C 	C 	0.13296 0.84857 0.83157 0.08900
C 	C 	0.10943 0.83854 0.81481 0.01400
C 	C 	0.10104 0.85604 0.78944 -0.12500
H 	H 	0.10950 0.87070 0.78210 0.03500
C 	C 	0.12268 0.78189 0.84134 -0.85300
H 	H 	0.10920 0.76850 0.84170 0.26000
H 	H 	0.12910 0.78400 0.82360 0.27000
H 	H 	0.13710 0.77670 0.85270 0.25700
C 	C 	0.09136 0.81062 0.87215 -0.65200
H 	H 	0.08830 0.82930 0.87350 0.19100
H 	H 	0.07510 0.80180 0.86780 0.17500
H 	H 	0.09780 0.80410 0.88880 0.18800
C 	C 	0.07387 0.84121 0.77992 0.02800
H 	H 	0.06430 0.84820 0.76580 -0.01400
O 	O 	0.02996 0.31616 0.26428 -0.72600
O 	O 	0.02840 0.29010 0.29760 -0.89700
C 	C 	0.03626 0.30753 0.28725 0.67800
C 	C 	0.06396 0.31657 0.29329 -0.24700
C 	C 	0.07155 0.31079 0.31533 0.11200
H 	H 	0.05980 0.30390 0.32780 -0.05700
C 	C 	0.10095 0.31492 0.32251 -0.13600
C 	C 	0.11239 0.30514 0.34996 0.41100
C 	C 	0.13205 0.32821 0.35030 -0.18900
C 	C 	0.13296 0.34857 0.33157 0.08900
C 	C 	0.10943 0.33854 0.31481 0.01400
C 	C 	0.10104 0.35604 0.28944 -0.12500
H 	H 	0.10950 0.37070 0.28210 0.03500
C 	C 	0.12268 0.28189 0.34134 -0.85300
H 	H 	0.10920 0.26850 0.34170 0.26000
H 	H 	0.12910 0.28400 0.32360 0.27000
H 	H 	0.13710 0.27670 0.35270 0.25700
C 	C 	0.09136 0.31062 0.37215 -0.65200
H 	H 	0.08830 0.32930 0.37350 0.19000
H 	H 	0.07510 0.30180 0.36780 0.17400
H 	H 	0.09780 0.30410 0.38880 0.18800
C 	C 	0.07387 0.34121 0.27992 0.02800
H 	H 	0.06430 0.34820 0.26580 -0.01400
O 	O 	0.47004 0.18384 0.26428 -0.72500
O 	O 	0.47160 0.20990 0.29760 -0.89600
C 	C 	0.46374 0.19247 0.28725 0.67800
C 	C 	0.43604 0.18343 0.29329 -0.24700
C 	C 	0.42845 0.18921 0.31533 0.11200
H 	H 	0.44020 0.19610 0.32780 -0.05700
C 	C 	0.39905 0.18508 0.32251 -0.13600
C 	C 	0.38761 0.19486 0.34996 0.41100
C 	C 	0.36795 0.17179 0.35030 -0.18900
C 	C 	0.36704 0.15143 0.33157 0.08900
C 	C 	0.39057 0.16146 0.31481 0.01400
C 	C 	0.39896 0.14396 0.28944 -0.12500
H 	H 	0.39050 0.12930 0.28210 0.03500
C 	C 	0.37732 0.21811 0.34134 -0.85300
H 	H 	0.39080 0.23150 0.34170 0.26000
H 	H 	0.37090 0.21600 0.32360 0.27000
H 	H 	0.36290 0.22330 0.35270 0.25700
C 	C 	0.40864 0.18938 0.37215 -0.65200
H 	H 	0.41170 0.17070 0.37350 0.19000
H 	H 	0.42490 0.19820 0.36780 0.17500
H 	H 	0.40220 0.19590 0.38880 0.18800
C 	C 	0.42613 0.15879 0.27992 0.02800
H 	H 	0.43570 0.15180 0.26580 -0.01400
O 	O 	0.47004 0.68384 0.76428 -0.72500
O 	O 	0.47160 0.70990 0.79760 -0.89600
C 	C 	0.46374 0.69247 0.78725 0.67800
C 	C 	0.43604 0.68343 0.79329 -0.24700
C 	C 	0.42845 0.68921 0.81533 0.11200
H 	H 	0.44020 0.69610 0.82780 -0.05700
C 	C 	0.39905 0.68508 0.82251 -0.13600
C 	C 	0.38761 0.69486 0.84996 0.41100
C 	C 	0.36795 0.67179 0.85030 -0.18900
C 	C 	0.36704 0.65143 0.83157 0.08900
C 	C 	0.39057 0.66146 0.81481 0.01400
C 	C 	0.39896 0.64396 0.78944 -0.12500
H 	H 	0.39050 0.62930 0.78210 0.03500
C 	C 	0.37732 0.71811 0.84134 -0.85300
H 	H 	0.39080 0.73150 0.84170 0.26000
H 	H 	0.37090 0.71600 0.82360 0.27000
H 	H 	0.36290 0.72330 0.85270 0.25700
C 	C 	0.40864 0.68938 0.87215 -0.65300
H 	H 	0.41170 0.67070 0.87350 0.19100
H 	H 	0.42490 0.69820 0.86780 0.17500
H 	H 	0.40220 0.69590 0.88880 0.18900
C 	C 	0.42613 0.65879 0.77992 0.02800
H 	H 	0.43570 0.65180 0.76580 -0.01400
O 	O 	0.97004 0.18384 0.76428 -0.72500
O 	O 	0.97160 0.20990 0.79760 -0.89500
C 	C 	0.96374 0.19247 0.78725 0.67800
C 	C 	0.93604 0.18343 0.79329 -0.24700
C 	C 	0.92845 0.18921 0.81533 0.11200
H 	H 	0.94020 0.19610 0.82780 -0.05600
C 	C 	0.89905 0.18508 0.82251 -0.13600
C 	C 	0.88761 0.19486 0.84996 0.41100
C 	C 	0.86795 0.17179 0.85030 -0.18900
C 	C 	0.86704 0.15143 0.83157 0.08900
C 	C 	0.89057 0.16146 0.81481 0.01400
C 	C 	0.89896 0.14396 0.78944 -0.12500
H 	H 	0.89050 0.12930 0.78210 0.03500
C 	C 	0.87732 0.21811 0.84134 -0.85300
H 	H 	0.89080 0.23150 0.84170 0.26000
H 	H 	0.87090 0.21600 0.82360 0.27000
H 	H 	0.86290 0.22330 0.85270 0.25700
C 	C 	0.90864 0.18938 0.87215 -0.65300
H 	H 	0.91170 0.17070 0.87350 0.19100
H 	H 	0.92490 0.19820 0.86780 0.17500
H 	H 	0.90220 0.19590 0.88880 0.18900
C 	C 	0.92613 0.15879 0.77992 0.02800
H 	H 	0.93570 0.15180 0.76580 -0.01400
O 	O 	0.97004 0.68384 0.26428 -0.72500
O 	O 	0.97160 0.70990 0.29760 -0.89500
C 	C 	0.96374 0.69247 0.28725 0.67800
C 	C 	0.93604 0.68343 0.29329 -0.24700
C 	C 	0.92845 0.68921 0.31533 0.11200
H 	H 	0.94020 0.69610 0.32780 -0.05700
C 	C 	0.89905 0.68508 0.32251 -0.13600
C 	C 	0.88761 0.69486 0.34996 0.41100
C 	C 	0.86795 0.67179 0.35030 -0.18900
C 	C 	0.86704 0.65143 0.33157 0.08900
C 	C 	0.89057 0.66146 0.31481 0.01400
C 	C 	0.89896 0.64396 0.28944 -0.12500
H 	H 	0.89050 0.62930 0.28210 0.03500
C 	C 	0.87732 0.71811 0.34134 -0.85300
H 	H 	0.89080 0.73150 0.34170 0.26000
H 	H 	0.87090 0.71600 0.32360 0.27000
H 	H 	0.86290 0.72330 0.35270 0.25700
C 	C 	0.90864 0.68938 0.37215 -0.65300
H 	H 	0.91170 0.67070 0.37350 0.19100
H 	H 	0.92490 0.69820 0.36780 0.17500
H 	H 	0.90220 0.69590 0.38880 0.18900
C 	C 	0.92613 0.65879 0.27992 0.02900
H 	H 	0.93570 0.65180 0.26580 -0.01400
O 	O 	0.52996 0.18384 0.73572 -0.72500
O 	O 	0.52840 0.20990 0.70240 -0.89600
C 	C 	0.53626 0.19247 0.71275 0.67800
C 	C 	0.56396 0.18343 0.70671 -0.24700
C 	C 	0.57155 0.18921 0.68467 0.11200
H 	H 	0.55980 0.19610 0.67220 -0.05700
C 	C 	0.60095 0.18508 0.67749 -0.13600
C 	C 	0.61239 0.19486 0.65004 0.41100
C 	C 	0.63205 0.17179 0.64970 -0.18900
C 	C 	0.63296 0.15143 0.66843 0.08900
C 	C 	0.60943 0.16146 0.68519 0.01400
C 	C 	0.60104 0.14396 0.71056 -0.12500
H 	H 	0.60950 0.12930 0.71790 0.03500
C 	C 	0.62268 0.21811 0.65866 -0.85300
H 	H 	0.60920 0.23150 0.65830 0.26000
H 	H 	0.62910 0.21600 0.67640 0.27000
H 	H 	0.63710 0.22330 0.64730 0.25700
C 	C 	0.59136 0.18938 0.62785 -0.65200
H 	H 	0.58830 0.17070 0.62650 0.19000
H 	H 	0.57510 0.19820 0.63220 0.17500
H 	H 	0.59780 0.19590 0.61120 0.18800
C 	C 	0.57387 0.15879 0.72008 0.02800
H 	H 	0.56430 0.15180 0.73420 -0.01400
O 	O 	0.52996 0.68384 0.23572 -0.72500
O 	O 	0.52840 0.70990 0.20240 -0.89600
C 	C 	0.53626 0.69247 0.21275 0.67800
C 	C 	0.56396 0.68343 0.20671 -0.24700
C 	C 	0.57155 0.68921 0.18467 0.11200
H 	H 	0.55980 0.69610 0.17220 -0.05700
C 	C 	0.60095 0.68508 0.17749 -0.13600
C 	C 	0.61239 0.69486 0.15004 0.41100
C 	C 	0.63205 0.67179 0.14970 -0.18900
C 	C 	0.63296 0.65143 0.16843 0.08900
C 	C 	0.60943 0.66146 0.18519 0.01400
C 	C 	0.60104 0.64396 0.21056 -0.12500
H 	H 	0.60950 0.62930 0.21790 0.03500
C 	C 	0.62268 0.71811 0.15866 -0.85300
H 	H 	0.60920 0.73150 0.15830 0.26000
H 	H 	0.62910 0.71600 0.17640 0.27000
H 	H 	0.63710 0.72330 0.14730 0.25700
C 	C 	0.59136 0.68938 0.12785 -0.65200
H 	H 	0.58830 0.67070 0.12650 0.19000
H 	H 	0.57510 0.69820 0.13220 0.17500
H 	H 	0.59780 0.69590 0.11120 0.18800
C 	C 	0.57387 0.65879 0.22008 0.02800
H 	H 	0.56430 0.65180 0.23420 -0.01400
O 	O 	0.02996 0.18384 0.23572 -0.72600
O 	O 	0.02840 0.20990 0.20240 -0.89700
C 	C 	0.03626 0.19247 0.21275 0.67800
C 	C 	0.06396 0.18343 0.20671 -0.24700
C 	C 	0.07155 0.18921 0.18467 0.11200
H 	H 	0.05980 0.19610 0.17220 -0.05700
C 	C 	0.10095 0.18508 0.17749 -0.13600
C 	C 	0.11239 0.19486 0.15004 0.41000
C 	C 	0.13205 0.17179 0.14970 -0.18800
C 	C 	0.13296 0.15143 0.16843 0.08800
C 	C 	0.10943 0.16146 0.18519 0.01400
C 	C 	0.10104 0.14396 0.21056 -0.12500
H 	H 	0.10950 0.12930 0.21790 0.03500
C 	C 	0.12268 0.21811 0.15866 -0.85200
H 	H 	0.10920 0.23150 0.15830 0.25900
H 	H 	0.12910 0.21600 0.17640 0.27000
H 	H 	0.13710 0.22330 0.14730 0.25700
C 	C 	0.09136 0.18938 0.12785 -0.65100
H 	H 	0.08830 0.17070 0.12650 0.19000
H 	H 	0.07510 0.19820 0.13220 0.17400
H 	H 	0.09780 0.19590 0.11120 0.18800
C 	C 	0.07387 0.15879 0.22008 0.02800
H 	H 	0.06430 0.15180 0.23420 -0.01400
O 	O 	0.02996 0.68384 0.73572 -0.72600
O 	O 	0.02840 0.70990 0.70240 -0.89700
C 	C 	0.03626 0.69247 0.71275 0.67800
C 	C 	0.06396 0.68343 0.70671 -0.24700
C 	C 	0.07155 0.68921 0.68467 0.11200
H 	H 	0.05980 0.69610 0.67220 -0.05700
C 	C 	0.10095 0.68508 0.67749 -0.13600
C 	C 	0.11239 0.69486 0.65004 0.41100
C 	C 	0.13205 0.67179 0.64970 -0.18900
C 	C 	0.13296 0.65143 0.66843 0.08900
C 	C 	0.10943 0.66146 0.68519 0.01400
C 	C 	0.10104 0.64396 0.71056 -0.12500
H 	H 	0.10950 0.62930 0.71790 0.03500
C 	C 	0.12268 0.71811 0.65866 -0.85300
H 	H 	0.10920 0.73150 0.65830 0.25900
H 	H 	0.12910 0.71600 0.67640 0.27000
H 	H 	0.13710 0.72330 0.64730 0.25700
C 	C 	0.09136 0.68938 0.62785 -0.65200
H 	H 	0.08830 0.67070 0.62650 0.19000
H 	H 	0.07510 0.69820 0.63220 0.17400
H 	H 	0.09780 0.69590 0.61120 0.18800
C 	C 	0.07387 0.65879 0.72008 0.02800
H 	H 	0.06430 0.65180 0.73420 -0.01400
O 	O 	0.97004 0.23572 0.68384 -0.72500
O 	O 	0.97160 0.20240 0.70990 -0.89500
C 	C 	0.96374 0.21275 0.69247 0.67800
C 	C 	0.93604 0.20671 0.68343 -0.24700
C 	C 	0.92845 0.18467 0.68921 0.11200
H 	H 	0.94020 0.17220 0.69610 -0.05700
C 	C 	0.89905 0.17749 0.68508 -0.13600
C 	C 	0.88761 0.15004 0.69486 0.41100
C 	C 	0.86795 0.14970 0.67179 -0.18900
C 	C 	0.86704 0.16843 0.65143 0.08900
C 	C 	0.89057 0.18519 0.66146 0.01400
C 	C 	0.89896 0.21056 0.64396 -0.12500
H 	H 	0.89050 0.21790 0.62930 0.03500
C 	C 	0.87732 0.15866 0.71811 -0.85300
H 	H 	0.89080 0.15830 0.73150 0.26000
H 	H 	0.87090 0.17640 0.71600 0.27000
H 	H 	0.86290 0.14730 0.72330 0.25700
C 	C 	0.90864 0.12785 0.68938 -0.65300
H 	H 	0.91170 0.12650 0.67070 0.19100
H 	H 	0.92490 0.13220 0.69820 0.17500
H 	H 	0.90220 0.11120 0.69590 0.18900
C 	C 	0.92613 0.22008 0.65879 0.02800
H 	H 	0.93570 0.23420 0.65180 -0.01400
O 	O 	0.97004 0.73572 0.18384 -0.72500
O 	O 	0.97160 0.70240 0.20990 -0.89500
C 	C 	0.96374 0.71275 0.19247 0.67800
C 	C 	0.93604 0.70671 0.18343 -0.24700
C 	C 	0.92845 0.68467 0.18921 0.11200
H 	H 	0.94020 0.67220 0.19610 -0.05700
C 	C 	0.89905 0.67749 0.18508 -0.13600
C 	C 	0.88761 0.65004 0.19486 0.41100
C 	C 	0.86795 0.64970 0.17179 -0.18900
C 	C 	0.86704 0.66843 0.15143 0.08900
C 	C 	0.89057 0.68519 0.16146 0.01400
C 	C 	0.89896 0.71056 0.14396 -0.12500
H 	H 	0.89050 0.71790 0.12930 0.03500
C 	C 	0.87732 0.65866 0.21811 -0.85300
H 	H 	0.89080 0.65830 0.23150 0.26000
H 	H 	0.87090 0.67640 0.21600 0.27000
H 	H 	0.86290 0.64730 0.22330 0.25700
C 	C 	0.90864 0.62785 0.18938 -0.65300
H 	H 	0.91170 0.62650 0.17070 0.19100
H 	H 	0.92490 0.63220 0.19820 0.17500
H 	H 	0.90220 0.61120 0.19590 0.18900
C 	C 	0.92613 0.72008 0.15879 0.02800
H 	H 	0.93570 0.73420 0.15180 -0.01400
O 	O 	0.47004 0.23572 0.18384 -0.72500
O 	O 	0.47160 0.20240 0.20990 -0.89600
C 	C 	0.46374 0.21275 0.19247 0.67800
C 	C 	0.43604 0.20671 0.18343 -0.24700
C 	C 	0.42845 0.18467 0.18921 0.11200
H 	H 	0.44020 0.17220 0.19610 -0.05700
C 	C 	0.39905 0.17749 0.18508 -0.13600
C 	C 	0.38761 0.15004 0.19486 0.41100
C 	C 	0.36795 0.14970 0.17179 -0.18900
C 	C 	0.36704 0.16843 0.15143 0.08900
C 	C 	0.39057 0.18519 0.16146 0.01400
C 	C 	0.39896 0.21056 0.14396 -0.12500
H 	H 	0.39050 0.21790 0.12930 0.03500
C 	C 	0.37732 0.15866 0.21811 -0.85300
H 	H 	0.39080 0.15830 0.23150 0.26000
H 	H 	0.37090 0.17640 0.21600 0.27000
H 	H 	0.36290 0.14730 0.22330 0.25700
C 	C 	0.40864 0.12785 0.18938 -0.65200
H 	H 	0.41170 0.12650 0.17070 0.19000
H 	H 	0.42490 0.13220 0.19820 0.17400
H 	H 	0.40220 0.11120 0.19590 0.18800
C 	C 	0.42613 0.22008 0.15879 0.02800
H 	H 	0.43570 0.23420 0.15180 -0.01400
O 	O 	0.47004 0.73572 0.68384 -0.72500
O 	O 	0.47160 0.70240 0.70990 -0.89600
C 	C 	0.46374 0.71275 0.69247 0.67800
C 	C 	0.43604 0.70671 0.68343 -0.24700
C 	C 	0.42845 0.68467 0.68921 0.11200
H 	H 	0.44020 0.67220 0.69610 -0.05700
C 	C 	0.39905 0.67749 0.68508 -0.13600
C 	C 	0.38761 0.65004 0.69486 0.41100
C 	C 	0.36795 0.64970 0.67179 -0.18900
C 	C 	0.36704 0.66843 0.65143 0.08900
C 	C 	0.39057 0.68519 0.66146 0.01400
C 	C 	0.39896 0.71056 0.64396 -0.12500
H 	H 	0.39050 0.71790 0.62930 0.03500
C 	C 	0.37732 0.65866 0.71811 -0.85300
H 	H 	0.39080 0.65830 0.73150 0.26000
H 	H 	0.37090 0.67640 0.71600 0.27000
H 	H 	0.36290 0.64730 0.72330 0.25700
C 	C 	0.40864 0.62785 0.68938 -0.65200
H 	H 	0.41170 0.62650 0.67070 0.19100
H 	H 	0.42490 0.63220 0.69820 0.17500
H 	H 	0.40220 0.61120 0.69590 0.18800
C 	C 	0.42613 0.72008 0.65879 0.02800
H 	H 	0.43570 0.73420 0.65180 -0.01400
O 	O 	0.02996 0.76428 0.68384 -0.72600
O 	O 	0.02840 0.79760 0.70990 -0.89700
C 	C 	0.03626 0.78725 0.69247 0.67800
C 	C 	0.06396 0.79329 0.68343 -0.24700
C 	C 	0.07155 0.81533 0.68921 0.11200
H 	H 	0.05980 0.82780 0.69610 -0.05700
C 	C 	0.10095 0.82251 0.68508 -0.13600
C 	C 	0.11239 0.84996 0.69486 0.41100
C 	C 	0.13205 0.85030 0.67179 -0.18900
C 	C 	0.13296 0.83157 0.65143 0.08900
C 	C 	0.10943 0.81481 0.66146 0.01400
C 	C 	0.10104 0.78944 0.64396 -0.12500
H 	H 	0.10950 0.78210 0.62930 0.03500
C 	C 	0.12268 0.84134 0.71811 -0.85300
H 	H 	0.10920 0.84170 0.73150 0.26000
H 	H 	0.12910 0.82360 0.71600 0.27000
H 	H 	0.13710 0.85270 0.72330 0.25700
C 	C 	0.09136 0.87215 0.68938 -0.65200
H 	H 	0.08830 0.87350 0.67070 0.19000
H 	H 	0.07510 0.86780 0.69820 0.17500
H 	H 	0.09780 0.88880 0.69590 0.18800
C 	C 	0.07387 0.77992 0.65879 0.02800
H 	H 	0.06430 0.76580 0.65180 -0.01400
O 	O 	0.02996 0.26428 0.18384 -0.72600
O 	O 	0.02840 0.29760 0.20990 -0.89700
C 	C 	0.03626 0.28725 0.19247 0.67800
C 	C 	0.06396 0.29329 0.18343 -0.24700
C 	C 	0.07155 0.31533 0.18921 0.11200
H 	H 	0.05980 0.32780 0.19610 -0.05700
C 	C 	0.10095 0.32251 0.18508 -0.13600
C 	C 	0.11239 0.34996 0.19486 0.41100
C 	C 	0.13205 0.35030 0.17179 -0.18900
C 	C 	0.13296 0.33157 0.15143 0.08900
C 	C 	0.10943 0.31481 0.16146 0.01400
C 	C 	0.10104 0.28944 0.14396 -0.12500
H 	H 	0.10950 0.28210 0.12930 0.03500
C 	C 	0.12268 0.34134 0.21811 -0.85300
H 	H 	0.10920 0.34170 0.23150 0.25900
H 	H 	0.12910 0.32360 0.21600 0.27000
H 	H 	0.13710 0.35270 0.22330 0.25700
C 	C 	0.09136 0.37215 0.18938 -0.65200
H 	H 	0.08830 0.37350 0.17070 0.19000
H 	H 	0.07510 0.36780 0.19820 0.17400
H 	H 	0.09780 0.38880 0.19590 0.18800
C 	C 	0.07387 0.27992 0.15879 0.02800
H 	H 	0.06430 0.26580 0.15180 -0.01400
O 	O 	0.52996 0.76428 0.18384 -0.72500
O 	O 	0.52840 0.79760 0.20990 -0.89600
C 	C 	0.53626 0.78725 0.19247 0.67800
C 	C 	0.56396 0.79329 0.18343 -0.24700
C 	C 	0.57155 0.81533 0.18921 0.11200
H 	H 	0.55980 0.82780 0.19610 -0.05700
C 	C 	0.60095 0.82251 0.18508 -0.13600
C 	C 	0.61239 0.84996 0.19486 0.41100
C 	C 	0.63205 0.85030 0.17179 -0.18900
C 	C 	0.63296 0.83157 0.15143 0.08900
C 	C 	0.60943 0.81481 0.16146 0.01400
C 	C 	0.60104 0.78944 0.14396 -0.12500
H 	H 	0.60950 0.78210 0.12930 0.03500
C 	C 	0.62268 0.84134 0.21811 -0.85300
H 	H 	0.60920 0.84170 0.23150 0.26000
H 	H 	0.62910 0.82360 0.21600 0.27000
H 	H 	0.63710 0.85270 0.22330 0.25700
C 	C 	0.59136 0.87215 0.18938 -0.65300
H 	H 	0.58830 0.87350 0.17070 0.19100
H 	H 	0.57510 0.86780 0.19820 0.17500
H 	H 	0.59780 0.88880 0.19590 0.18900
C 	C 	0.57387 0.77992 0.15879 0.02800
H 	H 	0.56430 0.76580 0.15180 -0.01400
O 	O 	0.52996 0.26428 0.68384 -0.72500
O 	O 	0.52840 0.29760 0.70990 -0.89600
C 	C 	0.53626 0.28725 0.69247 0.67800
C 	C 	0.56396 0.29329 0.68343 -0.24700
C 	C 	0.57155 0.31533 0.68921 0.11200
H 	H 	0.55980 0.32780 0.69610 -0.05700
C 	C 	0.60095 0.32251 0.68508 -0.13600
C 	C 	0.61239 0.34996 0.69486 0.41100
C 	C 	0.63205 0.35030 0.67179 -0.18900
C 	C 	0.63296 0.33157 0.65143 0.08900
C 	C 	0.60943 0.31481 0.66146 0.01400
C 	C 	0.60104 0.28944 0.64396 -0.12500
H 	H 	0.60950 0.28210 0.62930 0.03500
C 	C 	0.62268 0.34134 0.71811 -0.85300
H 	H 	0.60920 0.34170 0.73150 0.26000
H 	H 	0.62910 0.32360 0.71600 0.27000
H 	H 	0.63710 0.35270 0.72330 0.25700
C 	C 	0.59136 0.37215 0.68938 -0.65200
H 	H 	0.58830 0.37350 0.67070 0.19100
H 	H 	0.57510 0.36780 0.69820 0.17500
H 	H 	0.59780 0.38880 0.69590 0.18800
C 	C 	0.57387 0.27992 0.65879 0.02800
H 	H 	0.56430 0.26580 0.65180 -0.01400
O 	O 	0.97004 0.76428 0.31616 -0.72500
O 	O 	0.97160 0.79760 0.29010 -0.89500
C 	C 	0.96374 0.78725 0.30753 0.67800
C 	C 	0.93604 0.79329 0.31657 -0.24700
C 	C 	0.92845 0.81533 0.31079 0.11200
H 	H 	0.94020 0.82780 0.30390 -0.05600
C 	C 	0.89905 0.82251 0.31492 -0.13600
C 	C 	0.88761 0.84996 0.30514 0.41100
C 	C 	0.86795 0.85030 0.32821 -0.18900
C 	C 	0.86704 0.83157 0.34857 0.08900
C 	C 	0.89057 0.81481 0.33854 0.01400
C 	C 	0.89896 0.78944 0.35604 -0.12500
H 	H 	0.89050 0.78210 0.37070 0.03500
C 	C 	0.87732 0.84134 0.28189 -0.85300
H 	H 	0.89080 0.84170 0.26850 0.26000
H 	H 	0.87090 0.82360 0.28400 0.27000
H 	H 	0.86290 0.85270 0.27670 0.25700
C 	C 	0.90864 0.87215 0.31062 -0.65300
H 	H 	0.91170 0.87350 0.32930 0.19100
H 	H 	0.92490 0.86780 0.30180 0.17500
H 	H 	0.90220 0.88880 0.30410 0.18900
C 	C 	0.92613 0.77992 0.34121 0.02900
H 	H 	0.93570 0.76580 0.34820 -0.01400
O 	O 	0.97004 0.26428 0.81616 -0.72500
O 	O 	0.97160 0.29760 0.79010 -0.89500
C 	C 	0.96374 0.28725 0.80753 0.67800
C 	C 	0.93604 0.29329 0.81657 -0.24700
C 	C 	0.92845 0.31533 0.81079 0.11200
H 	H 	0.94020 0.32780 0.80390 -0.05600
C 	C 	0.89905 0.32251 0.81492 -0.13600
C 	C 	0.88761 0.34996 0.80514 0.41100
C 	C 	0.86795 0.35030 0.82821 -0.18900
C 	C 	0.86704 0.33157 0.84857 0.08900
C 	C 	0.89057 0.31481 0.83854 0.01400
C 	C 	0.89896 0.28944 0.85604 -0.12500
H 	H 	0.89050 0.28210 0.87070 0.03500
C 	C 	0.87732 0.34134 0.78189 -0.85300
H 	H 	0.89080 0.34170 0.76850 0.26000
H 	H 	0.87090 0.32360 0.78400 0.27000
H 	H 	0.86290 0.35270 0.77670 0.25700
C 	C 	0.90864 0.37215 0.81062 -0.65300
H 	H 	0.91170 0.37350 0.82930 0.19100
H 	H 	0.92490 0.36780 0.80180 0.17500
H 	H 	0.90220 0.38880 0.80410 0.18900
C 	C 	0.92613 0.27992 0.84121 0.02900
H 	H 	0.93570 0.26580 0.84820 -0.01400
O 	O 	0.47004 0.76428 0.81616 -0.72500
O 	O 	0.47160 0.79760 0.79010 -0.89600
C 	C 	0.46374 0.78725 0.80753 0.67800
C 	C 	0.43604 0.79329 0.81657 -0.24700
C 	C 	0.42845 0.81533 0.81079 0.11200
H 	H 	0.44020 0.82780 0.80390 -0.05700
C 	C 	0.39905 0.82251 0.81492 -0.13600
C 	C 	0.38761 0.84996 0.80514 0.41100
C 	C 	0.36795 0.85030 0.82821 -0.18900
C 	C 	0.36704 0.83157 0.84857 0.08900
C 	C 	0.39057 0.81481 0.83854 0.01400
C 	C 	0.39896 0.78944 0.85604 -0.12500
H 	H 	0.39050 0.78210 0.87070 0.03500
C 	C 	0.37732 0.84134 0.78189 -0.85300
H 	H 	0.39080 0.84170 0.76850 0.26000
H 	H 	0.37090 0.82360 0.78400 0.27000
H 	H 	0.36290 0.85270 0.77670 0.25700
C 	C 	0.40864 0.87215 0.81062 -0.65300
H 	H 	0.41170 0.87350 0.82930 0.19100
H 	H 	0.42490 0.86780 0.80180 0.17500
H 	H 	0.40220 0.88880 0.80410 0.18900
C 	C 	0.42613 0.77992 0.84121 0.02900
H 	H 	0.43570 0.76580 0.84820 -0.01400
O 	O 	0.47004 0.26428 0.31616 -0.72500
O 	O 	0.47160 0.29760 0.29010 -0.89600
C 	C 	0.46374 0.28725 0.30753 0.67800
C 	C 	0.43604 0.29329 0.31657 -0.24700
C 	C 	0.42845 0.31533 0.31079 0.11200
H 	H 	0.44020 0.32780 0.30390 -0.05700
C 	C 	0.39905 0.32251 0.31492 -0.13600
C 	C 	0.38761 0.34996 0.30514 0.41100
C 	C 	0.36795 0.35030 0.32821 -0.18900
C 	C 	0.36704 0.33157 0.34857 0.08900
C 	C 	0.39057 0.31481 0.33854 0.01400
C 	C 	0.39896 0.28944 0.35604 -0.12500
H 	H 	0.39050 0.28210 0.37070 0.03500
C 	C 	0.37732 0.34134 0.28189 -0.85300
H 	H 	0.39080 0.34170 0.26850 0.26000
H 	H 	0.37090 0.32360 0.28400 0.27000
H 	H 	0.36290 0.35270 0.27670 0.25700
C 	C 	0.40864 0.37215 0.31062 -0.65200
H 	H 	0.41170 0.37350 0.32930 0.19100
H 	H 	0.42490 0.36780 0.30180 0.17500
H 	H 	0.40220 0.38880 0.30410 0.18800
C 	C 	0.42613 0.27992 0.34121 0.02800
H 	H 	0.43570 0.26580 0.34820 -0.01400
O 	O 	0.02996 0.23572 0.31616 -0.72600
O 	O 	0.02840 0.20240 0.29010 -0.89700
C 	C 	0.03626 0.21275 0.30753 0.67800
C 	C 	0.06396 0.20671 0.31657 -0.24700
C 	C 	0.07155 0.18467 0.31079 0.11200
H 	H 	0.05980 0.17220 0.30390 -0.05700
C 	C 	0.10095 0.17749 0.31492 -0.13600
C 	C 	0.11239 0.15004 0.30514 0.41000
C 	C 	0.13205 0.14970 0.32821 -0.18900
C 	C 	0.13296 0.16843 0.34857 0.08900
C 	C 	0.10943 0.18519 0.33854 0.01400
C 	C 	0.10104 0.21056 0.35604 -0.12500
H 	H 	0.10950 0.21790 0.37070 0.03500
C 	C 	0.12268 0.15866 0.28189 -0.85300
H 	H 	0.10920 0.15830 0.26850 0.25900
H 	H 	0.12910 0.17640 0.28400 0.27000
H 	H 	0.13710 0.14730 0.27670 0.25700
C 	C 	0.09136 0.12785 0.31062 -0.65100
H 	H 	0.08830 0.12650 0.32930 0.19000
H 	H 	0.07510 0.13220 0.30180 0.17400
H 	H 	0.09780 0.11120 0.30410 0.18800
C 	C 	0.07387 0.22008 0.34121 0.02800
H 	H 	0.06430 0.23420 0.34820 -0.01400
O 	O 	0.02996 0.73572 0.81616 -0.72600
O 	O 	0.02840 0.70240 0.79010 -0.89700
C 	C 	0.03626 0.71275 0.80753 0.67800
C 	C 	0.06396 0.70671 0.81657 -0.24700
C 	C 	0.07155 0.68467 0.81079 0.11200
H 	H 	0.05980 0.67220 0.80390 -0.05700
C 	C 	0.10095 0.67749 0.81492 -0.13600
C 	C 	0.11239 0.65004 0.80514 0.41100
C 	C 	0.13205 0.64970 0.82821 -0.18900
C 	C 	0.13296 0.66843 0.84857 0.08900
C 	C 	0.10943 0.68519 0.83854 0.01400
C 	C 	0.10104 0.71056 0.85604 -0.12500
H 	H 	0.10950 0.71790 0.87070 0.03500
C 	C 	0.12268 0.65866 0.78189 -0.85300
H 	H 	0.10920 0.65830 0.76850 0.25900
H 	H 	0.12910 0.67640 0.78400 0.27000
H 	H 	0.13710 0.64730 0.77670 0.25700
C 	C 	0.09136 0.62785 0.81062 -0.65200
H 	H 	0.08830 0.62650 0.82930 0.19000
H 	H 	0.07510 0.63220 0.80180 0.17400
H 	H 	0.09780 0.61120 0.80410 0.18800
C 	C 	0.07387 0.72008 0.84121 0.02800
H 	H 	0.06430 0.73420 0.84820 -0.01400
O 	O 	0.52996 0.23572 0.81616 -0.72500
O 	O 	0.52840 0.20240 0.79010 -0.89600
C 	C 	0.53626 0.21275 0.80753 0.67800
C 	C 	0.56396 0.20671 0.81657 -0.24700
C 	C 	0.57155 0.18467 0.81079 0.11200
H 	H 	0.55980 0.17220 0.80390 -0.05700
C 	C 	0.60095 0.17749 0.81492 -0.13600
C 	C 	0.61239 0.15004 0.80514 0.41100
C 	C 	0.63205 0.14970 0.82821 -0.18900
C 	C 	0.63296 0.16843 0.84857 0.08900
C 	C 	0.60943 0.18519 0.83854 0.01400
C 	C 	0.60104 0.21056 0.85604 -0.12500
H 	H 	0.60950 0.21790 0.87070 0.03500
C 	C 	0.62268 0.15866 0.78189 -0.85300
H 	H 	0.60920 0.15830 0.76850 0.26000
H 	H 	0.62910 0.17640 0.78400 0.27000
H 	H 	0.63710 0.14730 0.77670 0.25700
C 	C 	0.59136 0.12785 0.81062 -0.65200
H 	H 	0.58830 0.12650 0.82930 0.19000
H 	H 	0.57510 0.13220 0.80180 0.17500
H 	H 	0.59780 0.11120 0.80410 0.18800
C 	C 	0.57387 0.22008 0.84121 0.02800
H 	H 	0.56430 0.23420 0.84820 -0.01400
O 	O 	0.52996 0.73572 0.31616 -0.72500
O 	O 	0.52840 0.70240 0.29010 -0.89600
C 	C 	0.53626 0.71275 0.30753 0.67800
C 	C 	0.56396 0.70671 0.31657 -0.24700
C 	C 	0.57155 0.68467 0.31079 0.11200
H 	H 	0.55980 0.67220 0.30390 -0.05700
C 	C 	0.60095 0.67749 0.31492 -0.13600
C 	C 	0.61239 0.65004 0.30514 0.41100
C 	C 	0.63205 0.64970 0.32821 -0.18900
C 	C 	0.63296 0.66843 0.34857 0.08900
C 	C 	0.60943 0.68519 0.33854 0.01400
C 	C 	0.60104 0.71056 0.35604 -0.12500
H 	H 	0.60950 0.71790 0.37070 0.03500
C 	C 	0.62268 0.65866 0.28189 -0.85300
H 	H 	0.60920 0.65830 0.26850 0.26000
H 	H 	0.62910 0.67640 0.28400 0.27000
H 	H 	0.63710 0.64730 0.27670 0.25700
C 	C 	0.59136 0.62785 0.31062 -0.65200
H 	H 	0.58830 0.62650 0.32930 0.19100
H 	H 	0.57510 0.63220 0.30180 0.17500
H 	H 	0.59780 0.61120 0.30410 0.18800
C 	C 	0.57387 0.72008 0.34121 0.02800
H 	H 	0.56430 0.73420 0.34820 -0.01400
O 	O 	0.23572 0.31616 0.02996 -0.72600
O 	O 	0.20240 0.29010 0.02840 -0.89700
C 	C 	0.21275 0.30753 0.03626 0.67800
C 	C 	0.20671 0.31657 0.06396 -0.24700
C 	C 	0.18467 0.31079 0.07155 0.11200
H 	H 	0.17220 0.30390 0.05980 -0.05700
C 	C 	0.17749 0.31492 0.10095 -0.13600
C 	C 	0.15004 0.30514 0.11239 0.41000
C 	C 	0.14970 0.32821 0.13205 -0.18900
C 	C 	0.16843 0.34857 0.13296 0.08900
C 	C 	0.18519 0.33854 0.10943 0.01400
C 	C 	0.21056 0.35604 0.10104 -0.12500
H 	H 	0.21790 0.37070 0.10950 0.03500
C 	C 	0.15866 0.28189 0.12268 -0.85300
H 	H 	0.15830 0.26850 0.10920 0.25900
H 	H 	0.17640 0.28400 0.12910 0.27000
H 	H 	0.14730 0.27670 0.13710 0.25700
C 	C 	0.12785 0.31062 0.09136 -0.65100
H 	H 	0.12650 0.32930 0.08830 0.19000
H 	H 	0.13220 0.30180 0.07510 0.17400
H 	H 	0.11120 0.30410 0.09780 0.18800
C 	C 	0.22008 0.34121 0.07387 0.02800
H 	H 	0.23420 0.34820 0.06430 -0.01400
O 	O 	0.23572 0.81616 0.52996 -0.72500
O 	O 	0.20240 0.79010 0.52840 -0.89600
C 	C 	0.21275 0.80753 0.53626 0.67800
C 	C 	0.20671 0.81657 0.56396 -0.24700
C 	C 	0.18467 0.81079 0.57155 0.11200
H 	H 	0.17220 0.80390 0.55980 -0.05700
C 	C 	0.17749 0.81492 0.60095 -0.13600
C 	C 	0.15004 0.80514 0.61239 0.41100
C 	C 	0.14970 0.82821 0.63205 -0.18900
C 	C 	0.16843 0.84857 0.63296 0.08900
C 	C 	0.18519 0.83854 0.60943 0.01400
C 	C 	0.21056 0.85604 0.60104 -0.12500
H 	H 	0.21790 0.87070 0.60950 0.03500
C 	C 	0.15866 0.78189 0.62268 -0.85300
H 	H 	0.15830 0.76850 0.60920 0.26000
H 	H 	0.17640 0.78400 0.62910 0.27000
H 	H 	0.14730 0.77670 0.63710 0.25700
C 	C 	0.12785 0.81062 0.59136 -0.65200
H 	H 	0.12650 0.82930 0.58830 0.19000
H 	H 	0.13220 0.80180 0.57510 0.17500
H 	H 	0.11120 0.80410 0.59780 0.18800
C 	C 	0.22008 0.84121 0.57387 0.02800
H 	H 	0.23420 0.84820 0.56430 -0.01400
O 	O 	0.73572 0.31616 0.52996 -0.72500
O 	O 	0.70240 0.29010 0.52840 -0.89600
C 	C 	0.71275 0.30753 0.53626 0.67800
C 	C 	0.70671 0.31657 0.56396 -0.24700
C 	C 	0.68467 0.31079 0.57155 0.11200
H 	H 	0.67220 0.30390 0.55980 -0.05700
C 	C 	0.67749 0.31492 0.60095 -0.13600
C 	C 	0.65004 0.30514 0.61239 0.41100
C 	C 	0.64970 0.32821 0.63205 -0.18900
C 	C 	0.66843 0.34857 0.63296 0.08900
C 	C 	0.68519 0.33854 0.60943 0.01400
C 	C 	0.71056 0.35604 0.60104 -0.12500
H 	H 	0.71790 0.37070 0.60950 0.03500
C 	C 	0.65866 0.28189 0.62268 -0.85300
H 	H 	0.65830 0.26850 0.60920 0.26000
H 	H 	0.67640 0.28400 0.62910 0.27000
H 	H 	0.64730 0.27670 0.63710 0.25700
C 	C 	0.62785 0.31062 0.59136 -0.65200
H 	H 	0.62650 0.32930 0.58830 0.19100
H 	H 	0.63220 0.30180 0.57510 0.17500
H 	H 	0.61120 0.30410 0.59780 0.18800
C 	C 	0.72008 0.34121 0.57387 0.02800
H 	H 	0.73420 0.34820 0.56430 -0.01400
O 	O 	0.73572 0.81616 0.02996 -0.72600
O 	O 	0.70240 0.79010 0.02840 -0.89700
C 	C 	0.71275 0.80753 0.03626 0.67800
C 	C 	0.70671 0.81657 0.06396 -0.24700
C 	C 	0.68467 0.81079 0.07155 0.11200
H 	H 	0.67220 0.80390 0.05980 -0.05700
C 	C 	0.67749 0.81492 0.10095 -0.13600
C 	C 	0.65004 0.80514 0.11239 0.41100
C 	C 	0.64970 0.82821 0.13205 -0.18900
C 	C 	0.66843 0.84857 0.13296 0.08900
C 	C 	0.68519 0.83854 0.10943 0.01400
C 	C 	0.71056 0.85604 0.10104 -0.12500
H 	H 	0.71790 0.87070 0.10950 0.03500
C 	C 	0.65866 0.78189 0.12268 -0.85300
H 	H 	0.65830 0.76850 0.10920 0.25900
H 	H 	0.67640 0.78400 0.12910 0.27000
H 	H 	0.64730 0.77670 0.13710 0.25700
C 	C 	0.62785 0.81062 0.09136 -0.65200
H 	H 	0.62650 0.82930 0.08830 0.19000
H 	H 	0.63220 0.80180 0.07510 0.17400
H 	H 	0.61120 0.80410 0.09780 0.18800
C 	C 	0.72008 0.84121 0.07387 0.02800
H 	H 	0.73420 0.84820 0.06430 -0.01400
O 	O 	0.76428 0.31616 0.97004 -0.72500
O 	O 	0.79760 0.29010 0.97160 -0.89500
C 	C 	0.78725 0.30753 0.96374 0.67800
C 	C 	0.79329 0.31657 0.93604 -0.24700
C 	C 	0.81533 0.31079 0.92845 0.11200
H 	H 	0.82780 0.30390 0.94020 -0.05600
C 	C 	0.82251 0.31492 0.89905 -0.13600
C 	C 	0.84996 0.30514 0.88761 0.41100
C 	C 	0.85030 0.32821 0.86795 -0.18900
C 	C 	0.83157 0.34857 0.86704 0.08900
C 	C 	0.81481 0.33854 0.89057 0.01400
C 	C 	0.78944 0.35604 0.89896 -0.12500
H 	H 	0.78210 0.37070 0.89050 0.03500
C 	C 	0.84134 0.28189 0.87732 -0.85300
H 	H 	0.84170 0.26850 0.89080 0.26000
H 	H 	0.82360 0.28400 0.87090 0.27000
H 	H 	0.85270 0.27670 0.86290 0.25700
C 	C 	0.87215 0.31062 0.90864 -0.65300
H 	H 	0.87350 0.32930 0.91170 0.19100
H 	H 	0.86780 0.30180 0.92490 0.17500
H 	H 	0.88880 0.30410 0.90220 0.18900
C 	C 	0.77992 0.34121 0.92613 0.02900
H 	H 	0.76580 0.34820 0.93570 -0.01400
O 	O 	0.76428 0.81616 0.47004 -0.72500
O 	O 	0.79760 0.79010 0.47160 -0.89600
C 	C 	0.78725 0.80753 0.46374 0.67800
C 	C 	0.79329 0.81657 0.43604 -0.24700
C 	C 	0.81533 0.81079 0.42845 0.11200
H 	H 	0.82780 0.80390 0.44020 -0.05700
C 	C 	0.82251 0.81492 0.39905 -0.13600
C 	C 	0.84996 0.80514 0.38761 0.41100
C 	C 	0.85030 0.82821 0.36795 -0.18900
C 	C 	0.83157 0.84857 0.36704 0.08900
C 	C 	0.81481 0.83854 0.39057 0.01400
C 	C 	0.78944 0.85604 0.39896 -0.12500
H 	H 	0.78210 0.87070 0.39050 0.03500
C 	C 	0.84134 0.78189 0.37732 -0.85300
H 	H 	0.84170 0.76850 0.39080 0.26000
H 	H 	0.82360 0.78400 0.37090 0.27000
H 	H 	0.85270 0.77670 0.36290 0.25700
C 	C 	0.87215 0.81062 0.40864 -0.65300
H 	H 	0.87350 0.82930 0.41170 0.19100
H 	H 	0.86780 0.80180 0.42490 0.17500
H 	H 	0.88880 0.80410 0.40220 0.18900
C 	C 	0.77992 0.84121 0.42613 0.02900
H 	H 	0.76580 0.84820 0.43570 -0.01400
O 	O 	0.26428 0.31616 0.47004 -0.72500
O 	O 	0.29760 0.29010 0.47160 -0.89600
C 	C 	0.28725 0.30753 0.46374 0.67800
C 	C 	0.29329 0.31657 0.43604 -0.24700
C 	C 	0.31533 0.31079 0.42845 0.11200
H 	H 	0.32780 0.30390 0.44020 -0.05700
C 	C 	0.32251 0.31492 0.39905 -0.13600
C 	C 	0.34996 0.30514 0.38761 0.41100
C 	C 	0.35030 0.32821 0.36795 -0.18900
C 	C 	0.33157 0.34857 0.36704 0.08900
C 	C 	0.31481 0.33854 0.39057 0.01400
C 	C 	0.28944 0.35604 0.39896 -0.12500
H 	H 	0.28210 0.37070 0.39050 0.03500
C 	C 	0.34134 0.28189 0.37732 -0.85300
H 	H 	0.34170 0.26850 0.39080 0.26000
H 	H 	0.32360 0.28400 0.37090 0.27000
H 	H 	0.35270 0.27670 0.36290 0.25700
C 	C 	0.37215 0.31062 0.40864 -0.65200
H 	H 	0.37350 0.32930 0.41170 0.19100
H 	H 	0.36780 0.30180 0.42490 0.17500
H 	H 	0.38880 0.30410 0.40220 0.18800
C 	C 	0.27992 0.34121 0.42613 0.02800
H 	H 	0.26580 0.34820 0.43570 -0.01400
O 	O 	0.26428 0.81616 0.97004 -0.72500
O 	O 	0.29760 0.79010 0.97160 -0.89500
C 	C 	0.28725 0.80753 0.96374 0.67800
C 	C 	0.29329 0.81657 0.93604 -0.24700
C 	C 	0.31533 0.81079 0.92845 0.11200
H 	H 	0.32780 0.80390 0.94020 -0.05600
C 	C 	0.32251 0.81492 0.89905 -0.13600
C 	C 	0.34996 0.80514 0.88761 0.41100
C 	C 	0.35030 0.82821 0.86795 -0.18900
C 	C 	0.33157 0.84857 0.86704 0.08900
C 	C 	0.31481 0.83854 0.89057 0.01400
C 	C 	0.28944 0.85604 0.89896 -0.12500
H 	H 	0.28210 0.87070 0.89050 0.03500
C 	C 	0.34134 0.78189 0.87732 -0.85300
H 	H 	0.34170 0.76850 0.89080 0.26000
H 	H 	0.32360 0.78400 0.87090 0.27000
H 	H 	0.35270 0.77670 0.86290 0.25700
C 	C 	0.37215 0.81062 0.90864 -0.65300
H 	H 	0.37350 0.82930 0.91170 0.19100
H 	H 	0.36780 0.80180 0.92490 0.17500
H 	H 	0.38880 0.80410 0.90220 0.18900
C 	C 	0.27992 0.84121 0.92613 0.02900
H 	H 	0.26580 0.84820 0.93570 -0.01400
O 	O 	0.76428 0.68384 0.02996 -0.72600
O 	O 	0.79760 0.70990 0.02840 -0.89700
C 	C 	0.78725 0.69247 0.03626 0.67800
C 	C 	0.79329 0.68343 0.06396 -0.24700
C 	C 	0.81533 0.68921 0.07155 0.11200
H 	H 	0.82780 0.69610 0.05980 -0.05700
C 	C 	0.82251 0.68508 0.10095 -0.13600
C 	C 	0.84996 0.69486 0.11239 0.41100
C 	C 	0.85030 0.67179 0.13205 -0.18900
C 	C 	0.83157 0.65143 0.13296 0.08900
C 	C 	0.81481 0.66146 0.10943 0.01400
C 	C 	0.78944 0.64396 0.10104 -0.12500
H 	H 	0.78210 0.62930 0.10950 0.03500
C 	C 	0.84134 0.71811 0.12268 -0.85300
H 	H 	0.84170 0.73150 0.10920 0.26000
H 	H 	0.82360 0.71600 0.12910 0.27000
H 	H 	0.85270 0.72330 0.13710 0.25700
C 	C 	0.87215 0.68938 0.09136 -0.65200
H 	H 	0.87350 0.67070 0.08830 0.19000
H 	H 	0.86780 0.69820 0.07510 0.17500
H 	H 	0.88880 0.69590 0.09780 0.18800
C 	C 	0.77992 0.65879 0.07387 0.02800
H 	H 	0.76580 0.65180 0.06430 -0.01400
O 	O 	0.76428 0.18384 0.52996 -0.72500
O 	O 	0.79760 0.20990 0.52840 -0.89600
C 	C 	0.78725 0.19247 0.53626 0.67800
C 	C 	0.79329 0.18343 0.56396 -0.24700
C 	C 	0.81533 0.18921 0.57155 0.11200
H 	H 	0.82780 0.19610 0.55980 -0.05700
C 	C 	0.82251 0.18508 0.60095 -0.13600
C 	C 	0.84996 0.19486 0.61239 0.41100
C 	C 	0.85030 0.17179 0.63205 -0.18900
C 	C 	0.83157 0.15143 0.63296 0.08900
C 	C 	0.81481 0.16146 0.60943 0.01400
C 	C 	0.78944 0.14396 0.60104 -0.12500
H 	H 	0.78210 0.12930 0.60950 0.03500
C 	C 	0.84134 0.21811 0.62268 -0.85300
H 	H 	0.84170 0.23150 0.60920 0.26000
H 	H 	0.82360 0.21600 0.62910 0.27000
H 	H 	0.85270 0.22330 0.63710 0.25700
C 	C 	0.87215 0.18938 0.59136 -0.65300
H 	H 	0.87350 0.17070 0.58830 0.19100
H 	H 	0.86780 0.19820 0.57510 0.17500
H 	H 	0.88880 0.19590 0.59780 0.18900
C 	C 	0.77992 0.15879 0.57387 0.02800
H 	H 	0.76580 0.15180 0.56430 -0.01400
O 	O 	0.26428 0.68384 0.52996 -0.72500
O 	O 	0.29760 0.70990 0.52840 -0.89600
C 	C 	0.28725 0.69247 0.53626 0.67800
C 	C 	0.29329 0.68343 0.56396 -0.24700
C 	C 	0.31533 0.68921 0.57155 0.11200
H 	H 	0.32780 0.69610 0.55980 -0.05700
C 	C 	0.32251 0.68508 0.60095 -0.13600
C 	C 	0.34996 0.69486 0.61239 0.41100
C 	C 	0.35030 0.67179 0.63205 -0.18900
C 	C 	0.33157 0.65143 0.63296 0.08900
C 	C 	0.31481 0.66146 0.60943 0.01400
C 	C 	0.28944 0.64396 0.60104 -0.12500
H 	H 	0.28210 0.62930 0.60950 0.03500
C 	C 	0.34134 0.71811 0.62268 -0.85300
H 	H 	0.34170 0.73150 0.60920 0.26000
H 	H 	0.32360 0.71600 0.62910 0.27000
H 	H 	0.35270 0.72330 0.63710 0.25700
C 	C 	0.37215 0.68938 0.59136 -0.65200
H 	H 	0.37350 0.67070 0.58830 0.19100
H 	H 	0.36780 0.69820 0.57510 0.17500
H 	H 	0.38880 0.69590 0.59780 0.18800
C 	C 	0.27992 0.65879 0.57387 0.02800
H 	H 	0.26580 0.65180 0.56430 -0.01400
O 	O 	0.26428 0.18384 0.02996 -0.72600
O 	O 	0.29760 0.20990 0.02840 -0.89700
C 	C 	0.28725 0.19247 0.03626 0.67800
C 	C 	0.29329 0.18343 0.06396 -0.24700
C 	C 	0.31533 0.18921 0.07155 0.11200
H 	H 	0.32780 0.19610 0.05980 -0.05700
C 	C 	0.32251 0.18508 0.10095 -0.13600
C 	C 	0.34996 0.19486 0.11239 0.41100
C 	C 	0.35030 0.17179 0.13205 -0.18900
C 	C 	0.33157 0.15143 0.13296 0.08900
C 	C 	0.31481 0.16146 0.10943 0.01400
C 	C 	0.28944 0.14396 0.10104 -0.12500
H 	H 	0.28210 0.12930 0.10950 0.03500
C 	C 	0.34134 0.21811 0.12268 -0.85300
H 	H 	0.34170 0.23150 0.10920 0.25900
H 	H 	0.32360 0.21600 0.12910 0.27000
H 	H 	0.35270 0.22330 0.13710 0.25700
C 	C 	0.37215 0.18938 0.09136 -0.65200
H 	H 	0.37350 0.17070 0.08830 0.19000
H 	H 	0.36780 0.19820 0.07510 0.17400
H 	H 	0.38880 0.19590 0.09780 0.18800
C 	C 	0.27992 0.15879 0.07387 0.02800
H 	H 	0.26580 0.15180 0.06430 -0.01400
O 	O 	0.23572 0.68384 0.97004 -0.72500
O 	O 	0.20240 0.70990 0.97160 -0.89500
C 	C 	0.21275 0.69247 0.96374 0.67800
C 	C 	0.20671 0.68343 0.93604 -0.24700
C 	C 	0.18467 0.68921 0.92845 0.11200
H 	H 	0.17220 0.69610 0.94020 -0.05700
C 	C 	0.17749 0.68508 0.89905 -0.13600
C 	C 	0.15004 0.69486 0.88761 0.41100
C 	C 	0.14970 0.67179 0.86795 -0.18900
C 	C 	0.16843 0.65143 0.86704 0.08900
C 	C 	0.18519 0.66146 0.89057 0.01400
C 	C 	0.21056 0.64396 0.89896 -0.12500
H 	H 	0.21790 0.62930 0.89050 0.03500
C 	C 	0.15866 0.71811 0.87732 -0.85300
H 	H 	0.15830 0.73150 0.89080 0.26000
H 	H 	0.17640 0.71600 0.87090 0.27000
H 	H 	0.14730 0.72330 0.86290 0.25700
C 	C 	0.12785 0.68938 0.90864 -0.65300
H 	H 	0.12650 0.67070 0.91170 0.19100
H 	H 	0.13220 0.69820 0.92490 0.17500
H 	H 	0.11120 0.69590 0.90220 0.18900
C 	C 	0.22008 0.65879 0.92613 0.02800
H 	H 	0.23420 0.65180 0.93570 -0.01400
O 	O 	0.23572 0.18384 0.47004 -0.72500
O 	O 	0.20240 0.20990 0.47160 -0.89600
C 	C 	0.21275 0.19247 0.46374 0.67800
C 	C 	0.20671 0.18343 0.43604 -0.24700
C 	C 	0.18467 0.18921 0.42845 0.11200
H 	H 	0.17220 0.19610 0.44020 -0.05700
C 	C 	0.17749 0.18508 0.39905 -0.13600
C 	C 	0.15004 0.19486 0.38761 0.41100
C 	C 	0.14970 0.17179 0.36795 -0.18900
C 	C 	0.16843 0.15143 0.36704 0.08900
C 	C 	0.18519 0.16146 0.39057 0.01400
C 	C 	0.21056 0.14396 0.39896 -0.12500
H 	H 	0.21790 0.12930 0.39050 0.03500
C 	C 	0.15866 0.21811 0.37732 -0.85300
H 	H 	0.15830 0.23150 0.39080 0.26000
H 	H 	0.17640 0.21600 0.37090 0.27000
H 	H 	0.14730 0.22330 0.36290 0.25700
C 	C 	0.12785 0.18938 0.40864 -0.65200
H 	H 	0.12650 0.17070 0.41170 0.19000
H 	H 	0.13220 0.19820 0.42490 0.17400
H 	H 	0.11120 0.19590 0.40220 0.18800
C 	C 	0.22008 0.15879 0.42613 0.02800
H 	H 	0.23420 0.15180 0.43570 -0.01400
O 	O 	0.73572 0.68384 0.47004 -0.72500
O 	O 	0.70240 0.70990 0.47160 -0.89600
C 	C 	0.71275 0.69247 0.46374 0.67800
C 	C 	0.70671 0.68343 0.43604 -0.24700
C 	C 	0.68467 0.68921 0.42845 0.11200
H 	H 	0.67220 0.69610 0.44020 -0.05700
C 	C 	0.67749 0.68508 0.39905 -0.13600
C 	C 	0.65004 0.69486 0.38761 0.41100
C 	C 	0.64970 0.67179 0.36795 -0.18900
C 	C 	0.66843 0.65143 0.36704 0.08900
C 	C 	0.68519 0.66146 0.39057 0.01400
C 	C 	0.71056 0.64396 0.39896 -0.12500
H 	H 	0.71790 0.62930 0.39050 0.03500
C 	C 	0.65866 0.71811 0.37732 -0.85300
H 	H 	0.65830 0.73150 0.39080 0.26000
H 	H 	0.67640 0.71600 0.37090 0.27000
H 	H 	0.64730 0.72330 0.36290 0.25700
C 	C 	0.62785 0.68938 0.40864 -0.65200
H 	H 	0.62650 0.67070 0.41170 0.19100
H 	H 	0.63220 0.69820 0.42490 0.17500
H 	H 	0.61120 0.69590 0.40220 0.18800
C 	C 	0.72008 0.65879 0.42613 0.02800
H 	H 	0.73420 0.65180 0.43570 -0.01400
O 	O 	0.73572 0.18384 0.97004 -0.72500
O 	O 	0.70240 0.20990 0.97160 -0.89500
C 	C 	0.71275 0.19247 0.96374 0.67800
C 	C 	0.70671 0.18343 0.93604 -0.24700
C 	C 	0.68467 0.18921 0.92845 0.11200
H 	H 	0.67220 0.19610 0.94020 -0.05700
C 	C 	0.67749 0.18508 0.89905 -0.13600
C 	C 	0.65004 0.19486 0.88761 0.41100
C 	C 	0.64970 0.17179 0.86795 -0.18900
C 	C 	0.66843 0.15143 0.86704 0.08900
C 	C 	0.68519 0.16146 0.89057 0.01400
C 	C 	0.71056 0.14396 0.89896 -0.12500
H 	H 	0.71790 0.12930 0.89050 0.03500
C 	C 	0.65866 0.21811 0.87732 -0.85300
H 	H 	0.65830 0.23150 0.89080 0.26000
H 	H 	0.67640 0.21600 0.87090 0.27000
H 	H 	0.64730 0.22330 0.86290 0.25700
C 	C 	0.62785 0.18938 0.90864 -0.65300
H 	H 	0.62650 0.17070 0.91170 0.19100
H 	H 	0.63220 0.19820 0.92490 0.17500
H 	H 	0.61120 0.19590 0.90220 0.18900
C 	C 	0.72008 0.15879 0.92613 0.02800
H 	H 	0.73420 0.15180 0.93570 -0.01400
O 	O 	0.31616 0.97004 0.76428 -0.72500
O 	O 	0.29010 0.97160 0.79760 -0.89500
C 	C 	0.30753 0.96374 0.78725 0.67800
C 	C 	0.31657 0.93604 0.79329 -0.24700
C 	C 	0.31079 0.92845 0.81533 0.11200
H 	H 	0.30390 0.94020 0.82780 -0.05600
C 	C 	0.31492 0.89905 0.82251 -0.13600
C 	C 	0.30514 0.88761 0.84996 0.41100
C 	C 	0.32821 0.86795 0.85030 -0.18900
C 	C 	0.34857 0.86704 0.83157 0.08900
C 	C 	0.33854 0.89057 0.81481 0.01400
C 	C 	0.35604 0.89896 0.78944 -0.12500
H 	H 	0.37070 0.89050 0.78210 0.03500
C 	C 	0.28189 0.87732 0.84134 -0.85300
H 	H 	0.26850 0.89080 0.84170 0.26000
H 	H 	0.28400 0.87090 0.82360 0.27000
H 	H 	0.27670 0.86290 0.85270 0.25700
C 	C 	0.31062 0.90864 0.87215 -0.65300
H 	H 	0.32930 0.91170 0.87350 0.19100
H 	H 	0.30180 0.92490 0.86780 0.17500
H 	H 	0.30410 0.90220 0.88880 0.18900
C 	C 	0.34121 0.92613 0.77992 0.02900
H 	H 	0.34820 0.93570 0.76580 -0.01400
O 	O 	0.31616 0.47004 0.26428 -0.72500
O 	O 	0.29010 0.47160 0.29760 -0.89600
C 	C 	0.30753 0.46374 0.28725 0.67800
C 	C 	0.31657 0.43604 0.29329 -0.24700
C 	C 	0.31079 0.42845 0.31533 0.11200
H 	H 	0.30390 0.44020 0.32780 -0.05700
C 	C 	0.31492 0.39905 0.32251 -0.13600
C 	C 	0.30514 0.38761 0.34996 0.41100
C 	C 	0.32821 0.36795 0.35030 -0.18900
C 	C 	0.34857 0.36704 0.33157 0.08900
C 	C 	0.33854 0.39057 0.31481 0.01400
C 	C 	0.35604 0.39896 0.28944 -0.12500
H 	H 	0.37070 0.39050 0.28210 0.03500
C 	C 	0.28189 0.37732 0.34134 -0.85300
H 	H 	0.26850 0.39080 0.34170 0.26000
H 	H 	0.28400 0.37090 0.32360 0.27000
H 	H 	0.27670 0.36290 0.35270 0.25700
C 	C 	0.31062 0.40864 0.37215 -0.65200
H 	H 	0.32930 0.41170 0.37350 0.19100
H 	H 	0.30180 0.42490 0.36780 0.17500
H 	H 	0.30410 0.40220 0.38880 0.18800
C 	C 	0.34121 0.42613 0.27992 0.02800
H 	H 	0.34820 0.43570 0.26580 -0.01400
O 	O 	0.81616 0.97004 0.26428 -0.72500
O 	O 	0.79010 0.97160 0.29760 -0.89500
C 	C 	0.80753 0.96374 0.28725 0.67800
C 	C 	0.81657 0.93604 0.29329 -0.24700
C 	C 	0.81079 0.92845 0.31533 0.11200
H 	H 	0.80390 0.94020 0.32780 -0.05600
C 	C 	0.81492 0.89905 0.32251 -0.13600
C 	C 	0.80514 0.88761 0.34996 0.41100
C 	C 	0.82821 0.86795 0.35030 -0.18900
C 	C 	0.84857 0.86704 0.33157 0.08900
C 	C 	0.83854 0.89057 0.31481 0.01400
C 	C 	0.85604 0.89896 0.28944 -0.12500
H 	H 	0.87070 0.89050 0.28210 0.03500
C 	C 	0.78189 0.87732 0.34134 -0.85300
H 	H 	0.76850 0.89080 0.34170 0.26000
H 	H 	0.78400 0.87090 0.32360 0.27000
H 	H 	0.77670 0.86290 0.35270 0.25700
C 	C 	0.81062 0.90864 0.37215 -0.65300
H 	H 	0.82930 0.91170 0.37350 0.19100
H 	H 	0.80180 0.92490 0.36780 0.17500
H 	H 	0.80410 0.90220 0.38880 0.18900
C 	C 	0.84121 0.92613 0.27992 0.02900
H 	H 	0.84820 0.93570 0.26580 -0.01400
O 	O 	0.81616 0.47004 0.76428 -0.72500
O 	O 	0.79010 0.47160 0.79760 -0.89600
C 	C 	0.80753 0.46374 0.78725 0.67800
C 	C 	0.81657 0.43604 0.79329 -0.24700
C 	C 	0.81079 0.42845 0.81533 0.11200
H 	H 	0.80390 0.44020 0.82780 -0.05700
C 	C 	0.81492 0.39905 0.82251 -0.13600
C 	C 	0.80514 0.38761 0.84996 0.41100
C 	C 	0.82821 0.36795 0.85030 -0.18900
C 	C 	0.84857 0.36704 0.83157 0.08900
C 	C 	0.83854 0.39057 0.81481 0.01400
C 	C 	0.85604 0.39896 0.78944 -0.12500
H 	H 	0.87070 0.39050 0.78210 0.03500
C 	C 	0.78189 0.37732 0.84134 -0.85300
H 	H 	0.76850 0.39080 0.84170 0.26000
H 	H 	0.78400 0.37090 0.82360 0.27000
H 	H 	0.77670 0.36290 0.85270 0.25700
C 	C 	0.81062 0.40864 0.87215 -0.65300
H 	H 	0.82930 0.41170 0.87350 0.19100
H 	H 	0.80180 0.42490 0.86780 0.17500
H 	H 	0.80410 0.40220 0.88880 0.18900
C 	C 	0.84121 0.42613 0.77992 0.02900
H 	H 	0.84820 0.43570 0.76580 -0.01400
O 	O 	0.31616 0.02996 0.23572 -0.72600
O 	O 	0.29010 0.02840 0.20240 -0.89700
C 	C 	0.30753 0.03626 0.21275 0.67800
C 	C 	0.31657 0.06396 0.20671 -0.24700
C 	C 	0.31079 0.07155 0.18467 0.11200
H 	H 	0.30390 0.05980 0.17220 -0.05700
C 	C 	0.31492 0.10095 0.17749 -0.13600
C 	C 	0.30514 0.11239 0.15004 0.41000
C 	C 	0.32821 0.13205 0.14970 -0.18900
C 	C 	0.34857 0.13296 0.16843 0.08900
C 	C 	0.33854 0.10943 0.18519 0.01400
C 	C 	0.35604 0.10104 0.21056 -0.12500
H 	H 	0.37070 0.10950 0.21790 0.03500
C 	C 	0.28189 0.12268 0.15866 -0.85300
H 	H 	0.26850 0.10920 0.15830 0.25900
H 	H 	0.28400 0.12910 0.17640 0.27000
H 	H 	0.27670 0.13710 0.14730 0.25700
C 	C 	0.31062 0.09136 0.12785 -0.65100
H 	H 	0.32930 0.08830 0.12650 0.19000
H 	H 	0.30180 0.07510 0.13220 0.17400
H 	H 	0.30410 0.09780 0.11120 0.18800
C 	C 	0.34121 0.07387 0.22008 0.02800
H 	H 	0.34820 0.06430 0.23420 -0.01400
O 	O 	0.31616 0.52996 0.73572 -0.72500
O 	O 	0.29010 0.52840 0.70240 -0.89600
C 	C 	0.30753 0.53626 0.71275 0.67800
C 	C 	0.31657 0.56396 0.70671 -0.24700
C 	C 	0.31079 0.57155 0.68467 0.11200
H 	H 	0.30390 0.55980 0.67220 -0.05700
C 	C 	0.31492 0.60095 0.67749 -0.13600
C 	C 	0.30514 0.61239 0.65004 0.41100
C 	C 	0.32821 0.63205 0.64970 -0.18900
C 	C 	0.34857 0.63296 0.66843 0.08900
C 	C 	0.33854 0.60943 0.68519 0.01400
C 	C 	0.35604 0.60104 0.71056 -0.12500
H 	H 	0.37070 0.60950 0.71790 0.03500
C 	C 	0.28189 0.62268 0.65866 -0.85300
H 	H 	0.26850 0.60920 0.65830 0.26000
H 	H 	0.28400 0.62910 0.67640 0.27000
H 	H 	0.27670 0.63710 0.64730 0.25700
C 	C 	0.31062 0.59136 0.62785 -0.65200
H 	H 	0.32930 0.58830 0.62650 0.19100
H 	H 	0.30180 0.57510 0.63220 0.17500
H 	H 	0.30410 0.59780 0.61120 0.18800
C 	C 	0.34121 0.57387 0.72008 0.02800
H 	H 	0.34820 0.56430 0.73420 -0.01400
O 	O 	0.81616 0.02996 0.73572 -0.72600
O 	O 	0.79010 0.02840 0.70240 -0.89700
C 	C 	0.80753 0.03626 0.71275 0.67800
C 	C 	0.81657 0.06396 0.70671 -0.24700
C 	C 	0.81079 0.07155 0.68467 0.11200
H 	H 	0.80390 0.05980 0.67220 -0.05700
C 	C 	0.81492 0.10095 0.67749 -0.13600
C 	C 	0.80514 0.11239 0.65004 0.41100
C 	C 	0.82821 0.13205 0.64970 -0.18900
C 	C 	0.84857 0.13296 0.66843 0.08900
C 	C 	0.83854 0.10943 0.68519 0.01400
C 	C 	0.85604 0.10104 0.71056 -0.12500
H 	H 	0.87070 0.10950 0.71790 0.03500
C 	C 	0.78189 0.12268 0.65866 -0.85300
H 	H 	0.76850 0.10920 0.65830 0.25900
H 	H 	0.78400 0.12910 0.67640 0.27000
H 	H 	0.77670 0.13710 0.64730 0.25700
C 	C 	0.81062 0.09136 0.62785 -0.65200
H 	H 	0.82930 0.08830 0.62650 0.19000
H 	H 	0.80180 0.07510 0.63220 0.17400
H 	H 	0.80410 0.09780 0.61120 0.18800
C 	C 	0.84121 0.07387 0.72008 0.02800
H 	H 	0.84820 0.06430 0.73420 -0.01400
O 	O 	0.81616 0.52996 0.23572 -0.72500
O 	O 	0.79010 0.52840 0.20240 -0.89600
C 	C 	0.80753 0.53626 0.21275 0.67800
C 	C 	0.81657 0.56396 0.20671 -0.24700
C 	C 	0.81079 0.57155 0.18467 0.11200
H 	H 	0.80390 0.55980 0.17220 -0.05700
C 	C 	0.81492 0.60095 0.17749 -0.13600
C 	C 	0.80514 0.61239 0.15004 0.41100
C 	C 	0.82821 0.63205 0.14970 -0.18900
C 	C 	0.84857 0.63296 0.16843 0.08900
C 	C 	0.83854 0.60943 0.18519 0.01400
C 	C 	0.85604 0.60104 0.21056 -0.12500
H 	H 	0.87070 0.60950 0.21790 0.03500
C 	C 	0.78189 0.62268 0.15866 -0.85300
H 	H 	0.76850 0.60920 0.15830 0.26000
H 	H 	0.78400 0.62910 0.17640 0.27000
H 	H 	0.77670 0.63710 0.14730 0.25700
C 	C 	0.81062 0.59136 0.12785 -0.65200
H 	H 	0.82930 0.58830 0.12650 0.19000
H 	H 	0.80180 0.57510 0.13220 0.17500
H 	H 	0.80410 0.59780 0.11120 0.18800
C 	C 	0.84121 0.57387 0.22008 0.02800
H 	H 	0.84820 0.56430 0.23420 -0.01400
O 	O 	0.68384 0.97004 0.23572 -0.72500
O 	O 	0.70990 0.97160 0.20240 -0.89500
C 	C 	0.69247 0.96374 0.21275 0.67800
C 	C 	0.68343 0.93604 0.20671 -0.24700
C 	C 	0.68921 0.92845 0.18467 0.11200
H 	H 	0.69610 0.94020 0.17220 -0.05700
C 	C 	0.68508 0.89905 0.17749 -0.13600
C 	C 	0.69486 0.88761 0.15004 0.41100
C 	C 	0.67179 0.86795 0.14970 -0.18900
C 	C 	0.65143 0.86704 0.16843 0.08900
C 	C 	0.66146 0.89057 0.18519 0.01400
C 	C 	0.64396 0.89896 0.21056 -0.12500
H 	H 	0.62930 0.89050 0.21790 0.03500
C 	C 	0.71811 0.87732 0.15866 -0.85300
H 	H 	0.73150 0.89080 0.15830 0.26000
H 	H 	0.71600 0.87090 0.17640 0.27000
H 	H 	0.72330 0.86290 0.14730 0.25700
C 	C 	0.68938 0.90864 0.12785 -0.65300
H 	H 	0.67070 0.91170 0.12650 0.19100
H 	H 	0.69820 0.92490 0.13220 0.17500
H 	H 	0.69590 0.90220 0.11120 0.18900
C 	C 	0.65879 0.92613 0.22008 0.02800
H 	H 	0.65180 0.93570 0.23420 -0.01400
O 	O 	0.68384 0.47004 0.73572 -0.72500
O 	O 	0.70990 0.47160 0.70240 -0.89600
C 	C 	0.69247 0.46374 0.71275 0.67800
C 	C 	0.68343 0.43604 0.70671 -0.24700
C 	C 	0.68921 0.42845 0.68467 0.11200
H 	H 	0.69610 0.44020 0.67220 -0.05700
C 	C 	0.68508 0.39905 0.67749 -0.13600
C 	C 	0.69486 0.38761 0.65004 0.41100
C 	C 	0.67179 0.36795 0.64970 -0.18900
C 	C 	0.65143 0.36704 0.66843 0.08900
C 	C 	0.66146 0.39057 0.68519 0.01400
C 	C 	0.64396 0.39896 0.71056 -0.12500
H 	H 	0.62930 0.39050 0.71790 0.03500
C 	C 	0.71811 0.37732 0.65866 -0.85300
H 	H 	0.73150 0.39080 0.65830 0.26000
H 	H 	0.71600 0.37090 0.67640 0.27000
H 	H 	0.72330 0.36290 0.64730 0.25700
C 	C 	0.68938 0.40864 0.62785 -0.65200
H 	H 	0.67070 0.41170 0.62650 0.19100
H 	H 	0.69820 0.42490 0.63220 0.17500
H 	H 	0.69590 0.40220 0.61120 0.18800
C 	C 	0.65879 0.42613 0.72008 0.02800
H 	H 	0.65180 0.43570 0.73420 -0.01400
O 	O 	0.18384 0.97004 0.73572 -0.72500
O 	O 	0.20990 0.97160 0.70240 -0.89500
C 	C 	0.19247 0.96374 0.71275 0.67800
C 	C 	0.18343 0.93604 0.70671 -0.24700
C 	C 	0.18921 0.92845 0.68467 0.11200
H 	H 	0.19610 0.94020 0.67220 -0.05700
C 	C 	0.18508 0.89905 0.67749 -0.13600
C 	C 	0.19486 0.88761 0.65004 0.41100
C 	C 	0.17179 0.86795 0.64970 -0.18900
C 	C 	0.15143 0.86704 0.66843 0.08900
C 	C 	0.16146 0.89057 0.68519 0.01400
C 	C 	0.14396 0.89896 0.71056 -0.12500
H 	H 	0.12930 0.89050 0.71790 0.03500
C 	C 	0.21811 0.87732 0.65866 -0.85300
H 	H 	0.23150 0.89080 0.65830 0.26000
H 	H 	0.21600 0.87090 0.67640 0.27000
H 	H 	0.22330 0.86290 0.64730 0.25700
C 	C 	0.18938 0.90864 0.62785 -0.65300
H 	H 	0.17070 0.91170 0.62650 0.19100
H 	H 	0.19820 0.92490 0.63220 0.17500
H 	H 	0.19590 0.90220 0.61120 0.18900
C 	C 	0.15879 0.92613 0.72008 0.02800
H 	H 	0.15180 0.93570 0.73420 -0.01400
O 	O 	0.18384 0.47004 0.23572 -0.72500
O 	O 	0.20990 0.47160 0.20240 -0.89600
C 	C 	0.19247 0.46374 0.21275 0.67800
C 	C 	0.18343 0.43604 0.20671 -0.24700
C 	C 	0.18921 0.42845 0.18467 0.11200
H 	H 	0.19610 0.44020 0.17220 -0.05700
C 	C 	0.18508 0.39905 0.17749 -0.13600
C 	C 	0.19486 0.38761 0.15004 0.41100
C 	C 	0.17179 0.36795 0.14970 -0.18900
C 	C 	0.15143 0.36704 0.16843 0.08900
C 	C 	0.16146 0.39057 0.18519 0.01400
C 	C 	0.14396 0.39896 0.21056 -0.12500
H 	H 	0.12930 0.39050 0.21790 0.03500
C 	C 	0.21811 0.37732 0.15866 -0.85300
H 	H 	0.23150 0.39080 0.15830 0.26000
H 	H 	0.21600 0.37090 0.17640 0.27000
H 	H 	0.22330 0.36290 0.14730 0.25700
C 	C 	0.18938 0.40864 0.12785 -0.65200
H 	H 	0.17070 0.41170 0.12650 0.19000
H 	H 	0.19820 0.42490 0.13220 0.17400
H 	H 	0.19590 0.40220 0.11120 0.18800
C 	C 	0.15879 0.42613 0.22008 0.02800
H 	H 	0.15180 0.43570 0.23420 -0.01400
O 	O 	0.68384 0.02996 0.76428 -0.72600
O 	O 	0.70990 0.02840 0.79760 -0.89700
C 	C 	0.69247 0.03626 0.78725 0.67800
C 	C 	0.68343 0.06396 0.79329 -0.24700
C 	C 	0.68921 0.07155 0.81533 0.11200
H 	H 	0.69610 0.05980 0.82780 -0.05700
C 	C 	0.68508 0.10095 0.82251 -0.13600
C 	C 	0.69486 0.11239 0.84996 0.41100
C 	C 	0.67179 0.13205 0.85030 -0.18900
C 	C 	0.65143 0.13296 0.83157 0.08900
C 	C 	0.66146 0.10943 0.81481 0.01400
C 	C 	0.64396 0.10104 0.78944 -0.12500
H 	H 	0.62930 0.10950 0.78210 0.03500
C 	C 	0.71811 0.12268 0.84134 -0.85300
H 	H 	0.73150 0.10920 0.84170 0.26000
H 	H 	0.71600 0.12910 0.82360 0.27000
H 	H 	0.72330 0.13710 0.85270 0.25700
C 	C 	0.68938 0.09136 0.87215 -0.65200
H 	H 	0.67070 0.08830 0.87350 0.19000
H 	H 	0.69820 0.07510 0.86780 0.17500
H 	H 	0.69590 0.09780 0.88880 0.18800
C 	C 	0.65879 0.07387 0.77992 0.02800
H 	H 	0.65180 0.06430 0.76580 -0.01400
O 	O 	0.68384 0.52996 0.26428 -0.72500
O 	O 	0.70990 0.52840 0.29760 -0.89600
C 	C 	0.69247 0.53626 0.28725 0.67800
C 	C 	0.68343 0.56396 0.29329 -0.24700
C 	C 	0.68921 0.57155 0.31533 0.11200
H 	H 	0.69610 0.55980 0.32780 -0.05700
C 	C 	0.68508 0.60095 0.32251 -0.13600
C 	C 	0.69486 0.61239 0.34996 0.41100
C 	C 	0.67179 0.63205 0.35030 -0.18900
C 	C 	0.65143 0.63296 0.33157 0.08900
C 	C 	0.66146 0.60943 0.31481 0.01400
C 	C 	0.64396 0.60104 0.28944 -0.12500
H 	H 	0.62930 0.60950 0.28210 0.03500
C 	C 	0.71811 0.62268 0.34134 -0.85300
H 	H 	0.73150 0.60920 0.34170 0.26000
H 	H 	0.71600 0.62910 0.32360 0.27000
H 	H 	0.72330 0.63710 0.35270 0.25700
C 	C 	0.68938 0.59136 0.37215 -0.65200
H 	H 	0.67070 0.58830 0.37350 0.19100
H 	H 	0.69820 0.57510 0.36780 0.17500
H 	H 	0.69590 0.59780 0.38880 0.18800
C 	C 	0.65879 0.57387 0.27992 0.02800
H 	H 	0.65180 0.56430 0.26580 -0.01400
O 	O 	0.18384 0.02996 0.26428 -0.72600
O 	O 	0.20990 0.02840 0.29760 -0.89700
C 	C 	0.19247 0.03626 0.28725 0.67800
C 	C 	0.18343 0.06396 0.29329 -0.24700
C 	C 	0.18921 0.07155 0.31533 0.11200
H 	H 	0.19610 0.05980 0.32780 -0.05700
C 	C 	0.18508 0.10095 0.32251 -0.13600
C 	C 	0.19486 0.11239 0.34996 0.41100
C 	C 	0.17179 0.13205 0.35030 -0.18900
C 	C 	0.15143 0.13296 0.33157 0.08900
C 	C 	0.16146 0.10943 0.31481 0.01400
C 	C 	0.14396 0.10104 0.28944 -0.12500
H 	H 	0.12930 0.10950 0.28210 0.03500
C 	C 	0.21811 0.12268 0.34134 -0.85300
H 	H 	0.23150 0.10920 0.34170 0.25900
H 	H 	0.21600 0.12910 0.32360 0.27000
H 	H 	0.22330 0.13710 0.35270 0.25700
C 	C 	0.18938 0.09136 0.37215 -0.65200
H 	H 	0.17070 0.08830 0.37350 0.19000
H 	H 	0.19820 0.07510 0.36780 0.17400
H 	H 	0.19590 0.09780 0.38880 0.18800
C 	C 	0.15879 0.07387 0.27992 0.02800
H 	H 	0.15180 0.06430 0.26580 -0.01400
O 	O 	0.18384 0.52996 0.76428 -0.72500
O 	O 	0.20990 0.52840 0.79760 -0.89600
C 	C 	0.19247 0.53626 0.78725 0.67800
C 	C 	0.18343 0.56396 0.79329 -0.24700
C 	C 	0.18921 0.57155 0.81533 0.11200
H 	H 	0.19610 0.55980 0.82780 -0.05700
C 	C 	0.18508 0.60095 0.82251 -0.13600
C 	C 	0.19486 0.61239 0.84996 0.41100
C 	C 	0.17179 0.63205 0.85030 -0.18900
C 	C 	0.15143 0.63296 0.83157 0.08900
C 	C 	0.16146 0.60943 0.81481 0.01400
C 	C 	0.14396 0.60104 0.78944 -0.12500
H 	H 	0.12930 0.60950 0.78210 0.03500
C 	C 	0.21811 0.62268 0.84134 -0.85300
H 	H 	0.23150 0.60920 0.84170 0.26000
H 	H 	0.21600 0.62910 0.82360 0.27000
H 	H 	0.22330 0.63710 0.85270 0.25700
C 	C 	0.18938 0.59136 0.87215 -0.65300
H 	H 	0.17070 0.58830 0.87350 0.19100
H 	H 	0.19820 0.57510 0.86780 0.17500
H 	H 	0.19590 0.59780 0.88880 0.18900
C 	C 	0.15879 0.57387 0.77992 0.02800
H 	H 	0.15180 0.56430 0.76580 -0.01400
Y 	Y 	0.23311 0.50000 0.18654 2.37400
Y 	Y 	0.23311 0.00000 0.68654 2.37300
Y 	Y 	0.73311 0.50000 0.68654 2.37400
Y 	Y 	0.73311 0.00000 0.18654 2.37300
Y 	Y 	0.76689 0.50000 0.18654 2.37400
Y 	Y 	0.76689 0.00000 0.68654 2.37300
Y 	Y 	0.26689 0.50000 0.68654 2.37400
Y 	Y 	0.26689 0.00000 0.18654 2.37300
Y 	Y 	0.76689 0.50000 0.81346 2.37400
Y 	Y 	0.76689 0.00000 0.31346 2.37300
Y 	Y 	0.26689 0.50000 0.31346 2.37400
Y 	Y 	0.26689 0.00000 0.81346 2.37300
Y 	Y 	0.23311 0.50000 0.81346 2.37400
Y 	Y 	0.23311 0.00000 0.31346 2.37300
Y 	Y 	0.73311 0.50000 0.31346 2.37400
Y 	Y 	0.73311 0.00000 0.81346 2.37300
Y 	Y 	0.18654 0.23311 0.50000 2.37400
Y 	Y 	0.18654 0.73311 -0.00000 2.37300
Y 	Y 	0.68654 0.23311 -0.00000 2.37300
Y 	Y 	0.68654 0.73311 0.50000 2.37400
Y 	Y 	0.18654 0.76689 0.50000 2.37400
Y 	Y 	0.18654 0.26689 -0.00000 2.37300
Y 	Y 	0.68654 0.76689 -0.00000 2.37300
Y 	Y 	0.68654 0.26689 0.50000 2.37400
Y 	Y 	0.81346 0.76689 0.50000 2.37400
Y 	Y 	0.81346 0.26689 -0.00000 2.37300
Y 	Y 	0.31346 0.76689 -0.00000 2.37300
Y 	Y 	0.31346 0.26689 0.50000 2.37400
Y 	Y 	0.81346 0.23311 0.50000 2.37400
Y 	Y 	0.81346 0.73311 -0.00000 2.37300
Y 	Y 	0.31346 0.23311 -0.00000 2.37300
Y 	Y 	0.31346 0.73311 0.50000 2.37400
Y 	Y 	0.50000 0.18654 0.23311 2.37400
Y 	Y 	0.50000 0.68654 0.73311 2.37400
Y 	Y 	0.00000 0.18654 0.73311 2.37300
Y 	Y 	-0.00000 0.68654 0.23311 2.37300
Y 	Y 	0.50000 0.18654 0.76689 2.37400
Y 	Y 	0.50000 0.68654 0.26689 2.37400
Y 	Y 	0.00000 0.18654 0.26689 2.37300
Y 	Y 	0.00000 0.68654 0.76689 2.37300
Y 	Y 	0.50000 0.81346 0.76689 2.37400
Y 	Y 	0.50000 0.31346 0.26689 2.37400
Y 	Y 	0.00000 0.81346 0.26689 2.37300
Y 	Y 	-0.00000 0.31346 0.76689 2.37300
Y 	Y 	0.50000 0.81346 0.23311 2.37400
Y 	Y 	0.50000 0.31346 0.73311 2.37400
Y 	Y 	0.00000 0.81346 0.73311 2.37300
Y 	Y 	-0.00000 0.31346 0.23311 2.37300
Y 	Y 	0.00000 0.73311 0.31346 2.37300
Y 	Y 	0.00000 0.23311 0.81346 2.37300
Y 	Y 	0.50000 0.73311 0.81346 2.37400
Y 	Y 	0.50000 0.23311 0.31346 2.37400
Y 	Y 	0.00000 0.26689 0.31346 2.37300
Y 	Y 	0.00000 0.76689 0.81346 2.37300
Y 	Y 	0.50000 0.26689 0.81346 2.37400
Y 	Y 	0.50000 0.76689 0.31346 2.37400
Y 	Y 	-0.00000 0.26689 0.68654 2.37300
Y 	Y 	-0.00000 0.76689 0.18654 2.37300
Y 	Y 	0.50000 0.26689 0.18654 2.37400
Y 	Y 	0.50000 0.76689 0.68654 2.37400
Y 	Y 	0.00000 0.73311 0.68654 2.37300
Y 	Y 	-0.00000 0.23311 0.18654 2.37300
Y 	Y 	0.50000 0.73311 0.18654 2.37400
Y 	Y 	0.50000 0.23311 0.68654 2.37400
Y 	Y 	0.73311 0.68654 -0.00000 2.37300
Y 	Y 	0.73311 0.18654 0.50000 2.37400
Y 	Y 	0.23311 0.68654 0.50000 2.37400
Y 	Y 	0.23311 0.18654 -0.00000 2.37300
Y 	Y 	0.26689 0.68654 -0.00000 2.37300
Y 	Y 	0.26689 0.18654 0.50000 2.37400
Y 	Y 	0.76689 0.68654 0.50000 2.37400
Y 	Y 	0.76689 0.18654 -0.00000 2.37300
Y 	Y 	0.26689 0.31346 -0.00000 2.37300
Y 	Y 	0.26689 0.81346 0.50000 2.37400
Y 	Y 	0.76689 0.31346 0.50000 2.37400
Y 	Y 	0.76689 0.81346 -0.00000 2.37300
Y 	Y 	0.73311 0.31346 -0.00000 2.37300
Y 	Y 	0.73311 0.81346 0.50000 2.37400
Y 	Y 	0.23311 0.31346 0.50000 2.37400
Y 	Y 	0.23311 0.81346 -0.00000 2.37300
Y 	Y 	0.68654 0.00000 0.26689 2.37300
Y 	Y 	0.68654 0.50000 0.76689 2.37400
Y 	Y 	0.18654 0.00000 0.76689 2.37300
Y 	Y 	0.18654 0.50000 0.26689 2.37400
Y 	Y 	0.68654 0.00000 0.73311 2.37300
Y 	Y 	0.68654 0.50000 0.23311 2.37400
Y 	Y 	0.18654 0.00000 0.23311 2.37300
Y 	Y 	0.18654 0.50000 0.73311 2.37400
Y 	Y 	0.31346 0.00000 0.73311 2.37300
Y 	Y 	0.31346 0.50000 0.23311 2.37400
Y 	Y 	0.81346 0.00000 0.23311 2.37300
Y 	Y 	0.81346 0.50000 0.73311 2.37400
Y 	Y 	0.31346 0.00000 0.26689 2.37300
Y 	Y 	0.31346 0.50000 0.76689 2.37400
Y 	Y 	0.81346 0.00000 0.76689 2.37300
Y 	Y 	0.81346 0.50000 0.26689 2.37400
