data_crystal

_cell_length_a 18.68500
_cell_length_b 11.72200
_cell_length_c 9.24400
_cell_angle_alpha 90.00000
_cell_angle_beta  91.77100
_cell_angle_gamma 90.00000

_symmetry_space_group_name_	'P 1'
_symmetry_space_group_name_H-M	'P 1'

loop_
_symmetry_equiv_pos_as_xyz
  x,y,z

loop_
_atom_site_label
_atom_site_type_symbol
_atom_site_fract_x
_atom_site_fract_y
_atom_site_fract_z
_atom_site_charge
Ba	Ba	0.47790 0.69163 0.50773 1.66600
O 	O 	0.32620 0.78370 0.51070 -0.51100
O 	O 	0.57370 0.66390 0.28140 -0.56200
C 	C 	0.63400 0.67060 0.34230 0.33600
C 	C 	0.68510 0.49430 0.21710 -0.04700
O 	O 	0.64950 0.74370 0.44150 -0.49400
N 	N 	0.75820 0.62390 0.35530 -0.19900
C 	C 	0.69280 0.59200 0.30020 -0.05500
N 	N 	0.74430 0.42960 0.18470 -0.13700
C 	C 	0.80920 0.46570 0.23460 -0.01900
H 	H 	0.85040 0.42770 0.20760 -0.03400
C 	C 	0.61350 0.45010 0.16440 0.37800
O 	O 	0.58760 0.48970 0.04290 -0.54200
O 	O 	0.58440 0.37560 0.23660 -0.55600
H 	H 	0.33420 0.76070 0.42010 0.16500
H 	H 	0.35810 0.81490 0.55970 0.13900
C 	C 	0.81440 0.56110 0.32780 0.02900
H 	H 	0.85860 0.57980 0.37060 -0.06500
Ba	Ba	0.97790 0.19163 0.50773 1.68800
O 	O 	0.82620 0.28370 0.51070 -0.51200
O 	O 	0.07370 0.16390 0.28140 -0.56300
C 	C 	0.13400 0.17060 0.34230 0.33500
C 	C 	0.18510 0.99430 0.21710 -0.04500
O 	O 	0.14950 0.24370 0.44150 -0.49500
N 	N 	0.25820 0.12390 0.35530 -0.19800
C 	C 	0.19280 0.09200 0.30020 -0.05800
N 	N 	0.24430 0.92960 0.18470 -0.13800
C 	C 	0.30920 0.96570 0.23460 -0.01600
H 	H 	0.35040 0.92770 0.20760 -0.03600
C 	C 	0.11350 0.95010 0.16440 0.37700
O 	O 	0.08760 0.98970 0.04290 -0.53800
O 	O 	0.08440 0.87560 0.23660 -0.55600
H 	H 	0.83420 0.26070 0.42010 0.16400
H 	H 	0.85810 0.31490 0.55970 0.13900
C 	C 	0.31440 0.06110 0.32780 0.02500
H 	H 	0.35860 0.07980 0.37060 -0.06600
Ba	Ba	0.52210 0.69163 0.99227 1.79700
O 	O 	0.67380 0.78370 0.98930 -0.42600
O 	O 	0.42630 0.66390 0.21860 -0.56400
C 	C 	0.36600 0.67060 0.15770 0.33000
C 	C 	0.31490 0.49430 0.28290 -0.04100
O 	O 	0.35050 0.74370 0.05850 -0.51500
N 	N 	0.24180 0.62390 0.14470 -0.20300
C 	C 	0.30720 0.59200 0.19980 -0.06000
N 	N 	0.25570 0.42960 0.31530 -0.13400
C 	C 	0.19080 0.46570 0.26540 -0.02000
H 	H 	0.14960 0.42770 0.29240 -0.03200
C 	C 	0.38650 0.45010 0.33560 0.37100
O 	O 	0.41240 0.48970 0.45710 -0.51200
O 	O 	0.41560 0.37560 0.26340 -0.55200
H 	H 	0.66580 0.76070 0.07990 0.10600
H 	H 	0.64190 0.81490 0.94030 0.11100
C 	C 	0.18560 0.56110 0.17220 0.02600
H 	H 	0.14140 0.57980 0.12940 -0.07400
Ba	Ba	0.02210 0.19163 0.99227 1.76800
O 	O 	0.17380 0.28370 0.98930 -0.43600
O 	O 	0.92630 0.16390 0.21860 -0.56300
C 	C 	0.86600 0.17060 0.15770 0.33100
C 	C 	0.81490 0.99430 0.28290 -0.04000
O 	O 	0.85050 0.24370 0.05850 -0.51500
N 	N 	0.74180 0.12390 0.14470 -0.20300
C 	C 	0.80720 0.09200 0.19980 -0.06300
N 	N 	0.75570 0.92960 0.31530 -0.13500
C 	C 	0.69080 0.96570 0.26540 -0.01700
H 	H 	0.64960 0.92770 0.29240 -0.03300
C 	C 	0.88650 0.95010 0.33560 0.37100
O 	O 	0.91240 0.98970 0.45710 -0.51100
O 	O 	0.91560 0.87560 0.26340 -0.55100
H 	H 	0.16580 0.26070 0.07990 0.11300
H 	H 	0.14190 0.31490 0.94030 0.11400
C 	C 	0.68560 0.06110 0.17220 0.02100
H 	H 	0.64140 0.07980 0.12940 -0.07400
Ba	Ba	0.52210 0.30837 0.49227 1.67400
O 	O 	0.67380 0.21630 0.48930 -0.51200
O 	O 	0.42630 0.33610 0.71860 -0.53300
C 	C 	0.36600 0.32940 0.65770 0.32700
C 	C 	0.31490 0.50570 0.78290 -0.03300
O 	O 	0.35050 0.25630 0.55850 -0.49000
N 	N 	0.24180 0.37610 0.64470 -0.19900
C 	C 	0.30720 0.40800 0.69980 -0.05200
N 	N 	0.25570 0.57040 0.81530 -0.12700
C 	C 	0.19080 0.53430 0.76540 -0.01600
H 	H 	0.14960 0.57230 0.79240 -0.02500
C 	C 	0.38650 0.54990 0.83560 0.37300
O 	O 	0.41240 0.51030 0.95710 -0.48500
O 	O 	0.41560 0.62440 0.76340 -0.55700
H 	H 	0.66580 0.23930 0.57990 0.16400
H 	H 	0.64190 0.18510 0.44030 0.13800
C 	C 	0.18560 0.43890 0.67220 0.03300
H 	H 	0.14140 0.42020 0.62940 -0.06800
Ba	Ba	0.02210 0.80837 0.49227 1.66600
O 	O 	0.17380 0.71630 0.48930 -0.51200
O 	O 	0.92630 0.83610 0.71860 -0.52800
C 	C 	0.86600 0.82940 0.65770 0.32500
C 	C 	0.81490 0.00570 0.78290 -0.03900
O 	O 	0.85050 0.75630 0.55850 -0.48800
N 	N 	0.74180 0.87610 0.64470 -0.20100
C 	C 	0.80720 0.90800 0.69980 -0.04800
N 	N 	0.75570 0.07040 0.81530 -0.12500
C 	C 	0.69080 0.03430 0.76540 -0.02200
H 	H 	0.64960 0.07230 0.79240 -0.02300
C 	C 	0.88650 0.04990 0.83560 0.37500
O 	O 	0.91240 0.01030 0.95710 -0.48200
O 	O 	0.91560 0.12440 0.76340 -0.55400
H 	H 	0.16580 0.73930 0.57990 0.16500
H 	H 	0.14190 0.68510 0.44030 0.13900
C 	C 	0.68560 0.93890 0.67220 0.03700
H 	H 	0.64140 0.92020 0.62940 -0.06800
Ba	Ba	0.47790 0.30837 0.00773 1.55000
O 	O 	0.32620 0.21630 0.01070 -0.58900
O 	O 	0.57370 0.33610 0.78140 -0.53100
C 	C 	0.63400 0.32940 0.84230 0.33100
C 	C 	0.68510 0.50570 0.71710 -0.04000
O 	O 	0.64950 0.25630 0.94150 -0.45900
N 	N 	0.75820 0.37610 0.85530 -0.18900
C 	C 	0.69280 0.40800 0.80020 -0.04500
N 	N 	0.74430 0.57040 0.68470 -0.13200
C 	C 	0.80920 0.53430 0.73460 -0.01400
H 	H 	0.85040 0.57230 0.70760 -0.02600
C 	C 	0.61350 0.54990 0.66440 0.38000
O 	O 	0.58760 0.51030 0.54290 -0.51500
O 	O 	0.58440 0.62440 0.73660 -0.56100
H 	H 	0.33420 0.23930 0.92010 0.21800
H 	H 	0.35810 0.18510 0.05970 0.16500
C 	C 	0.81440 0.43890 0.82780 0.03600
H 	H 	0.85860 0.42020 0.87060 -0.05500
Ba	Ba	0.97790 0.80837 0.00773 1.56400
O 	O 	0.82620 0.71630 0.01070 -0.59800
O 	O 	0.07370 0.83610 0.78140 -0.53400
C 	C 	0.13400 0.82940 0.84230 0.33000
C 	C 	0.18510 0.00570 0.71710 -0.04600
O 	O 	0.14950 0.75630 0.94150 -0.46300
N 	N 	0.25820 0.87610 0.85530 -0.19200
C 	C 	0.19280 0.90800 0.80020 -0.04200
N 	N 	0.24430 0.07040 0.68470 -0.13100
C 	C 	0.30920 0.03430 0.73460 -0.02100
H 	H 	0.35040 0.07230 0.70760 -0.02600
C 	C 	0.11350 0.04990 0.66440 0.38000
O 	O 	0.08760 0.01030 0.54290 -0.51900
O 	O 	0.08440 0.12440 0.73660 -0.56300
H 	H 	0.83420 0.73930 0.92010 0.22400
H 	H 	0.85810 0.68510 0.05970 0.16800
C 	C 	0.31440 0.93890 0.82780 0.04000
H 	H 	0.35860 0.92020 0.87060 -0.05900
Cu	Cu	0.75000 0.75000 0.50000 0.89700
Cu	Cu	0.25000 0.75000 -0.00000 0.88000
Cu	Cu	0.25000 0.25000 0.50000 0.89700
Cu	Cu	0.75000 0.25000 -0.00000 0.87700
