data_crystal

_cell_length_a 19.86900
_cell_length_b 28.25900
_cell_length_c 48.02700
_cell_angle_alpha 90.00000
_cell_angle_beta  90.00000
_cell_angle_gamma 90.00000

_symmetry_space_group_name_	'P 1'
_symmetry_space_group_name_H-M	'P 1'

loop_
_symmetry_equiv_pos_as_xyz
  x,y,z

loop_
_atom_site_label
_atom_site_type_symbol
_atom_site_fract_x
_atom_site_fract_y
_atom_site_fract_z
_atom_site_charge
C 	C 	0.62490 0.95840 0.28792 0.09500
H 	H 	0.62600 0.94370 0.30520 -0.05700
N 	N 	0.62340 0.93670 0.26322 -0.30100
C 	C 	0.62200 0.96990 0.24345 0.06800
H 	H 	0.62080 0.96460 0.22430 -0.04000
N 	N 	0.62260 0.01220 0.25590 -0.12100
N 	N 	0.62440 0.00510 0.28340 -0.26300
N 	N 	0.79440 0.89660 0.20130 -0.26500
N 	N 	0.80060 0.84950 0.20340 -0.24500
C 	C 	0.74710 0.83310 0.21750 0.08000
H 	H 	0.73860 0.80160 0.22190 -0.03500
N 	N 	0.70790 0.87020 0.22400 -0.28600
C 	C 	0.73720 0.90940 0.21400 0.07200
H 	H 	0.72070 0.94010 0.21560 -0.05100
N 	N 	0.79490 0.89720 0.05140 -0.26500
N 	N 	0.80020 0.84960 0.04980 -0.24300
C 	C 	0.74670 0.83330 0.03550 0.08300
H 	H 	0.73780 0.80170 0.03130 -0.01800
N 	N 	0.70830 0.87070 0.02820 -0.28300
C 	C 	0.73810 0.91020 0.03800 0.07300
H 	H 	0.72230 0.94100 0.03600 -0.04700
N 	N 	0.88220 0.95220 0.15030 -0.06700
C 	C 	0.85050 0.93360 0.12770 0.06400
H 	H 	0.81410 0.91290 0.12800 -0.03700
N 	N 	0.88130 0.95060 0.10440 -0.12400
C 	C 	0.93220 0.97960 0.11270 0.05200
H 	H 	0.96140 0.99600 0.10100 -0.01100
N 	N 	0.93270 0.98060 0.14100 -0.09800
Zn	Zn	0.86915 0.94025 0.06422 1.16500
Zn	Zn	0.86849 0.94104 0.18972 1.15900
Zn	Zn	0.62236 0.87174 0.24758 1.17300
C 	C 	0.85740 0.02970 0.02880 0.13900
H 	H 	0.81620 0.02140 0.02100 -0.03500
N 	N 	0.89220 0.00420 0.04670 -0.14800
N 	N 	0.94750 0.02770 0.05290 -0.11900
C 	C 	0.94690 0.06780 0.03880 0.02000
H 	H 	0.97990 0.09110 0.03920 -0.01000
N 	N 	0.89120 0.06900 0.02390 -0.19000
N 	N 	0.89080 0.94380 0.14940 -0.17000
C 	C 	0.85150 0.94420 0.12670 -0.00600
H 	H 	0.80470 0.94510 0.12660 -0.03400
N 	N 	0.89150 0.94300 0.10420 -0.14900
C 	C 	0.95550 0.94190 0.11300 -0.00400
H 	H 	0.99350 0.94100 0.10170 0.00200
N 	N 	0.95510 0.94240 0.14090 -0.08700
C 	C 	0.87570 0.02210 0.99520 -0.00700
H 	H 	0.87620 0.02600 0.97600 0.00200
N 	N 	0.87450 0.98020 0.00890 -0.11100
N 	N 	0.87420 0.98950 0.03660 -0.18900
C 	C 	0.87530 0.03710 0.04000 0.11500
H 	H 	0.87540 0.05310 0.05690 -0.03000
N 	N 	0.87630 0.05720 0.01440 -0.16700
C 	C 	0.62490 0.45840 0.78792 0.09600
H 	H 	0.62600 0.44370 0.80520 -0.05700
N 	N 	0.62340 0.43670 0.76322 -0.30100
C 	C 	0.62200 0.46990 0.74345 0.06800
H 	H 	0.62080 0.46460 0.72430 -0.04000
N 	N 	0.62260 0.51220 0.75590 -0.12100
N 	N 	0.62440 0.50510 0.78340 -0.26300
N 	N 	0.79440 0.39660 0.70130 -0.26500
N 	N 	0.80060 0.34950 0.70340 -0.24500
C 	C 	0.74710 0.33310 0.71750 0.08000
H 	H 	0.73860 0.30160 0.72190 -0.03500
N 	N 	0.70790 0.37020 0.72400 -0.28600
C 	C 	0.73720 0.40940 0.71400 0.07200
H 	H 	0.72070 0.44010 0.71560 -0.05100
N 	N 	0.79490 0.39720 0.55140 -0.26500
N 	N 	0.80020 0.34960 0.54980 -0.24300
C 	C 	0.74670 0.33330 0.53550 0.08200
H 	H 	0.73780 0.30170 0.53130 -0.01900
N 	N 	0.70830 0.37070 0.52820 -0.28400
C 	C 	0.73810 0.41020 0.53800 0.07200
H 	H 	0.72230 0.44100 0.53600 -0.04800
N 	N 	0.88220 0.45220 0.65030 -0.06800
C 	C 	0.85050 0.43360 0.62770 0.06300
H 	H 	0.81410 0.41290 0.62800 -0.03800
N 	N 	0.88130 0.45060 0.60440 -0.12500
C 	C 	0.93220 0.47960 0.61270 0.05100
H 	H 	0.96140 0.49600 0.60100 -0.01200
N 	N 	0.93270 0.48060 0.64100 -0.09900
Zn	Zn	0.86915 0.44025 0.56422 1.16500
Zn	Zn	0.86849 0.44104 0.68972 1.15800
Zn	Zn	0.62236 0.37174 0.74758 1.17200
C 	C 	0.85740 0.52970 0.52880 0.13800
H 	H 	0.81620 0.52140 0.52100 -0.03600
N 	N 	0.89220 0.50420 0.54670 -0.14900
N 	N 	0.94750 0.52770 0.55290 -0.12000
C 	C 	0.94690 0.56780 0.53880 0.01900
H 	H 	0.97990 0.59110 0.53920 -0.01100
N 	N 	0.89120 0.56900 0.52390 -0.19100
N 	N 	0.89080 0.44380 0.64940 -0.17100
C 	C 	0.85150 0.44420 0.62670 -0.00700
H 	H 	0.80470 0.44510 0.62660 -0.03500
N 	N 	0.89150 0.44300 0.60420 -0.15000
C 	C 	0.95550 0.44190 0.61300 -0.00500
H 	H 	0.99350 0.44100 0.60170 0.00100
N 	N 	0.95510 0.44240 0.64090 -0.08800
C 	C 	0.87570 0.52210 0.49520 -0.00800
H 	H 	0.87620 0.52600 0.47600 0.00100
N 	N 	0.87450 0.48020 0.50890 -0.11200
N 	N 	0.87420 0.48950 0.53660 -0.19000
C 	C 	0.87530 0.53710 0.54000 0.11400
H 	H 	0.87540 0.55310 0.55690 -0.03100
N 	N 	0.87630 0.55720 0.51440 -0.16800
C 	C 	0.12490 0.95840 0.78792 0.09400
H 	H 	0.12600 0.94370 0.80520 -0.05800
N 	N 	0.12340 0.93670 0.76322 -0.30200
C 	C 	0.12200 0.96990 0.74345 0.06700
H 	H 	0.12080 0.96460 0.72430 -0.04100
N 	N 	0.12260 0.01220 0.75590 -0.12200
N 	N 	0.12440 0.00510 0.78340 -0.26400
N 	N 	0.29440 0.89660 0.70130 -0.26600
N 	N 	0.30060 0.84950 0.70340 -0.24600
C 	C 	0.24710 0.83310 0.71750 0.07900
H 	H 	0.23860 0.80160 0.72190 -0.03600
N 	N 	0.20790 0.87020 0.72400 -0.28700
C 	C 	0.23720 0.90940 0.71400 0.07100
H 	H 	0.22070 0.94010 0.71560 -0.05200
N 	N 	0.29490 0.89720 0.55140 -0.26600
N 	N 	0.30020 0.84960 0.54980 -0.24400
C 	C 	0.24670 0.83330 0.53550 0.08200
H 	H 	0.23780 0.80170 0.53130 -0.01900
N 	N 	0.20830 0.87070 0.52820 -0.28400
C 	C 	0.23810 0.91020 0.53800 0.07200
H 	H 	0.22230 0.94100 0.53600 -0.04800
N 	N 	0.38220 0.95220 0.65030 -0.06800
C 	C 	0.35050 0.93360 0.62770 0.06300
H 	H 	0.31410 0.91290 0.62800 -0.03800
N 	N 	0.38130 0.95060 0.60440 -0.12500
C 	C 	0.43220 0.97960 0.61270 0.05100
H 	H 	0.46140 0.99600 0.60100 -0.01200
N 	N 	0.43270 0.98060 0.64100 -0.09900
Zn	Zn	0.36915 0.94025 0.56422 1.16400
Zn	Zn	0.36849 0.94104 0.68972 1.15800
Zn	Zn	0.12236 0.87174 0.74758 1.17100
C 	C 	0.35740 0.02970 0.52880 0.13800
H 	H 	0.31620 0.02140 0.52100 -0.03600
N 	N 	0.39220 0.00420 0.54670 -0.14900
N 	N 	0.44750 0.02770 0.55290 -0.12000
C 	C 	0.44690 0.06780 0.53880 0.01900
H 	H 	0.47990 0.09110 0.53920 -0.01100
N 	N 	0.39120 0.06900 0.52390 -0.19100
N 	N 	0.39080 0.94380 0.64940 -0.17100
C 	C 	0.35150 0.94420 0.62670 -0.00700
H 	H 	0.30470 0.94510 0.62660 -0.03500
N 	N 	0.39150 0.94300 0.60420 -0.15000
C 	C 	0.45550 0.94190 0.61300 -0.00500
H 	H 	0.49350 0.94100 0.60170 0.00100
N 	N 	0.45510 0.94240 0.64090 -0.08800
C 	C 	0.37570 0.02210 0.49520 -0.00800
H 	H 	0.37620 0.02600 0.47600 0.00100
N 	N 	0.37450 0.98020 0.50890 -0.11200
N 	N 	0.37420 0.98950 0.53660 -0.19000
C 	C 	0.37530 0.03710 0.54000 0.11400
H 	H 	0.37540 0.05310 0.55690 -0.03100
N 	N 	0.37630 0.05720 0.51440 -0.16800
C 	C 	0.12490 0.45840 0.28792 0.09500
H 	H 	0.12600 0.44370 0.30520 -0.05800
N 	N 	0.12340 0.43670 0.26322 -0.30200
C 	C 	0.12200 0.46990 0.24345 0.06700
H 	H 	0.12080 0.46460 0.22430 -0.04100
N 	N 	0.12260 0.51220 0.25590 -0.12200
N 	N 	0.12440 0.50510 0.28340 -0.26400
N 	N 	0.29440 0.39660 0.20130 -0.26600
N 	N 	0.30060 0.34950 0.20340 -0.24600
C 	C 	0.24710 0.33310 0.21750 0.07900
H 	H 	0.23860 0.30160 0.22190 -0.03600
N 	N 	0.20790 0.37020 0.22400 -0.28700
C 	C 	0.23720 0.40940 0.21400 0.07100
H 	H 	0.22070 0.44010 0.21560 -0.05200
N 	N 	0.29490 0.39720 0.05140 -0.26600
N 	N 	0.30020 0.34960 0.04980 -0.24400
C 	C 	0.24670 0.33330 0.03550 0.08200
H 	H 	0.23780 0.30170 0.03130 -0.01900
N 	N 	0.20830 0.37070 0.02820 -0.28400
C 	C 	0.23810 0.41020 0.03800 0.07200
H 	H 	0.22230 0.44100 0.03600 -0.04800
N 	N 	0.38220 0.45220 0.15030 -0.06800
C 	C 	0.35050 0.43360 0.12770 0.06300
H 	H 	0.31410 0.41290 0.12800 -0.03800
N 	N 	0.38130 0.45060 0.10440 -0.12500
C 	C 	0.43220 0.47960 0.11270 0.05100
H 	H 	0.46140 0.49600 0.10100 -0.01200
N 	N 	0.43270 0.48060 0.14100 -0.09900
Zn	Zn	0.36915 0.44025 0.06422 1.16500
Zn	Zn	0.36849 0.44104 0.18972 1.15800
Zn	Zn	0.12236 0.37174 0.24758 1.17100
C 	C 	0.35740 0.52970 0.02880 0.13800
H 	H 	0.31620 0.52140 0.02100 -0.03600
N 	N 	0.39220 0.50420 0.04670 -0.14900
N 	N 	0.44750 0.52770 0.05290 -0.12000
C 	C 	0.44690 0.56780 0.03880 0.01900
H 	H 	0.47990 0.59110 0.03920 -0.01100
N 	N 	0.39120 0.56900 0.02390 -0.19100
N 	N 	0.39080 0.44380 0.14940 -0.17100
C 	C 	0.35150 0.44420 0.12670 -0.00700
H 	H 	0.30470 0.44510 0.12660 -0.03500
N 	N 	0.39150 0.44300 0.10420 -0.15000
C 	C 	0.45550 0.44190 0.11300 -0.00500
H 	H 	0.49350 0.44100 0.10170 0.00100
N 	N 	0.45510 0.44240 0.14090 -0.08800
C 	C 	0.37570 0.52210 0.99520 -0.00700
H 	H 	0.37620 0.52600 0.97600 0.00100
N 	N 	0.37450 0.48020 0.00890 -0.11200
N 	N 	0.37420 0.48950 0.03660 -0.19000
C 	C 	0.37530 0.53710 0.04000 0.11400
H 	H 	0.37540 0.55310 0.05690 -0.03100
N 	N 	0.37630 0.55720 0.01440 -0.16800
C 	C 	0.12510 0.79160 0.28792 0.09400
H 	H 	0.12400 0.80630 0.30520 -0.05800
N 	N 	0.12660 0.81330 0.26322 -0.30200
C 	C 	0.12800 0.78010 0.24345 0.06700
H 	H 	0.12920 0.78540 0.22430 -0.04100
N 	N 	0.12740 0.73780 0.25590 -0.12200
N 	N 	0.12560 0.74490 0.28340 -0.26400
N 	N 	0.95560 0.85340 0.20130 -0.26600
N 	N 	0.94940 0.90050 0.20340 -0.24600
C 	C 	0.00290 0.91690 0.21750 0.07900
H 	H 	0.01140 0.94840 0.22190 -0.03600
N 	N 	0.04210 0.87980 0.22400 -0.28700
C 	C 	0.01280 0.84060 0.21400 0.07100
H 	H 	0.02930 0.80990 0.21560 -0.05200
N 	N 	0.95510 0.85280 0.05140 -0.26600
N 	N 	0.94980 0.90040 0.04980 -0.24400
C 	C 	0.00330 0.91670 0.03550 0.08200
H 	H 	0.01220 0.94830 0.03130 -0.01900
N 	N 	0.04170 0.87930 0.02820 -0.28400
C 	C 	0.01190 0.83980 0.03800 0.07200
H 	H 	0.02770 0.80900 0.03600 -0.04800
N 	N 	0.86780 0.79780 0.15030 -0.06800
C 	C 	0.89950 0.81640 0.12770 0.06300
H 	H 	0.93590 0.83710 0.12800 -0.03800
N 	N 	0.86870 0.79940 0.10440 -0.12500
C 	C 	0.81780 0.77040 0.11270 0.05100
H 	H 	0.78860 0.75400 0.10100 -0.01200
N 	N 	0.81730 0.76940 0.14100 -0.09900
Zn	Zn	0.88085 0.80975 0.06422 1.16400
Zn	Zn	0.88151 0.80896 0.18972 1.15800
Zn	Zn	0.12764 0.87826 0.24758 1.17100
C 	C 	0.89260 0.72030 0.02880 0.13800
H 	H 	0.93380 0.72860 0.02100 -0.03600
N 	N 	0.85780 0.74580 0.04670 -0.14900
N 	N 	0.80250 0.72230 0.05290 -0.12000
C 	C 	0.80310 0.68220 0.03880 0.01900
H 	H 	0.77010 0.65890 0.03920 -0.01100
N 	N 	0.85880 0.68100 0.02390 -0.19100
N 	N 	0.85920 0.80620 0.14940 -0.17100
C 	C 	0.89850 0.80580 0.12670 -0.00700
H 	H 	0.94530 0.80490 0.12660 -0.03500
N 	N 	0.85850 0.80700 0.10420 -0.15000
C 	C 	0.79450 0.80810 0.11300 -0.00500
H 	H 	0.75650 0.80900 0.10170 0.00100
N 	N 	0.79490 0.80760 0.14090 -0.08800
C 	C 	0.87430 0.72790 0.99520 -0.00800
H 	H 	0.87380 0.72400 0.97600 0.00100
N 	N 	0.87550 0.76980 0.00890 -0.11200
N 	N 	0.87580 0.76050 0.03660 -0.19000
C 	C 	0.87470 0.71290 0.04000 0.11400
H 	H 	0.87460 0.69690 0.05690 -0.03100
N 	N 	0.87370 0.69280 0.01440 -0.16800
C 	C 	0.12510 0.29160 0.78792 0.09500
H 	H 	0.12400 0.30630 0.80520 -0.05800
N 	N 	0.12660 0.31330 0.76322 -0.30200
C 	C 	0.12800 0.28010 0.74345 0.06700
H 	H 	0.12920 0.28540 0.72430 -0.04100
N 	N 	0.12740 0.23780 0.75590 -0.12200
N 	N 	0.12560 0.24490 0.78340 -0.26400
N 	N 	0.95560 0.35340 0.70130 -0.26600
N 	N 	0.94940 0.40050 0.70340 -0.24600
C 	C 	0.00290 0.41690 0.71750 0.07900
H 	H 	0.01140 0.44840 0.72190 -0.03600
N 	N 	0.04210 0.37980 0.72400 -0.28700
C 	C 	0.01280 0.34060 0.71400 0.07100
H 	H 	0.02930 0.30990 0.71560 -0.05200
N 	N 	0.95510 0.35280 0.55140 -0.26600
N 	N 	0.94980 0.40040 0.54980 -0.24400
C 	C 	0.00330 0.41670 0.53550 0.08200
H 	H 	0.01220 0.44830 0.53130 -0.01900
N 	N 	0.04170 0.37930 0.52820 -0.28400
C 	C 	0.01190 0.33980 0.53800 0.07200
H 	H 	0.02770 0.30900 0.53600 -0.04800
N 	N 	0.86780 0.29780 0.65030 -0.06800
C 	C 	0.89950 0.31640 0.62770 0.06300
H 	H 	0.93590 0.33710 0.62800 -0.03800
N 	N 	0.86870 0.29940 0.60440 -0.12500
C 	C 	0.81780 0.27040 0.61270 0.05100
H 	H 	0.78860 0.25400 0.60100 -0.01200
N 	N 	0.81730 0.26940 0.64100 -0.09900
Zn	Zn	0.88085 0.30975 0.56422 1.16400
Zn	Zn	0.88151 0.30896 0.68972 1.15800
Zn	Zn	0.12764 0.37826 0.74758 1.17100
C 	C 	0.89260 0.22030 0.52880 0.13800
H 	H 	0.93380 0.22860 0.52100 -0.03600
N 	N 	0.85780 0.24580 0.54670 -0.14900
N 	N 	0.80250 0.22230 0.55290 -0.12000
C 	C 	0.80310 0.18220 0.53880 0.01900
H 	H 	0.77010 0.15890 0.53920 -0.01100
N 	N 	0.85880 0.18100 0.52390 -0.19100
N 	N 	0.85920 0.30620 0.64940 -0.17100
C 	C 	0.89850 0.30580 0.62670 -0.00700
H 	H 	0.94530 0.30490 0.62660 -0.03500
N 	N 	0.85850 0.30700 0.60420 -0.15000
C 	C 	0.79450 0.30810 0.61300 -0.00500
H 	H 	0.75650 0.30900 0.60170 0.00100
N 	N 	0.79490 0.30760 0.64090 -0.08800
C 	C 	0.87430 0.22790 0.49520 -0.00800
H 	H 	0.87380 0.22400 0.47600 0.00100
N 	N 	0.87550 0.26980 0.50890 -0.11200
N 	N 	0.87580 0.26050 0.53660 -0.19000
C 	C 	0.87470 0.21290 0.54000 0.11400
H 	H 	0.87460 0.19690 0.55690 -0.03100
N 	N 	0.87370 0.19280 0.51440 -0.16800
C 	C 	0.62510 0.79160 0.78792 0.09500
H 	H 	0.62400 0.80630 0.80520 -0.05800
N 	N 	0.62660 0.81330 0.76322 -0.30200
C 	C 	0.62800 0.78010 0.74345 0.06700
H 	H 	0.62920 0.78540 0.72430 -0.04100
N 	N 	0.62740 0.73780 0.75590 -0.12200
N 	N 	0.62560 0.74490 0.78340 -0.26400
N 	N 	0.45560 0.85340 0.70130 -0.26600
N 	N 	0.44940 0.90050 0.70340 -0.24600
C 	C 	0.50290 0.91690 0.71750 0.07900
H 	H 	0.51140 0.94840 0.72190 -0.03600
N 	N 	0.54210 0.87980 0.72400 -0.28700
C 	C 	0.51280 0.84060 0.71400 0.07100
H 	H 	0.52930 0.80990 0.71560 -0.05200
N 	N 	0.45510 0.85280 0.55140 -0.26600
N 	N 	0.44980 0.90040 0.54980 -0.24400
C 	C 	0.50330 0.91670 0.53550 0.08200
H 	H 	0.51220 0.94830 0.53130 -0.01900
N 	N 	0.54170 0.87930 0.52820 -0.28400
C 	C 	0.51190 0.83980 0.53800 0.07200
H 	H 	0.52770 0.80900 0.53600 -0.04800
N 	N 	0.36780 0.79780 0.65030 -0.06800
C 	C 	0.39950 0.81640 0.62770 0.06300
H 	H 	0.43590 0.83710 0.62800 -0.03800
N 	N 	0.36870 0.79940 0.60440 -0.12500
C 	C 	0.31780 0.77040 0.61270 0.05100
H 	H 	0.28860 0.75400 0.60100 -0.01200
N 	N 	0.31730 0.76940 0.64100 -0.09900
Zn	Zn	0.38085 0.80975 0.56422 1.16500
Zn	Zn	0.38151 0.80896 0.68972 1.15800
Zn	Zn	0.62764 0.87826 0.74758 1.17200
C 	C 	0.39260 0.72030 0.52880 0.13800
H 	H 	0.43380 0.72860 0.52100 -0.03600
N 	N 	0.35780 0.74580 0.54670 -0.14900
N 	N 	0.30250 0.72230 0.55290 -0.12000
C 	C 	0.30310 0.68220 0.53880 0.01900
H 	H 	0.27010 0.65890 0.53920 -0.01100
N 	N 	0.35880 0.68100 0.52390 -0.19100
N 	N 	0.35920 0.80620 0.64940 -0.17100
C 	C 	0.39850 0.80580 0.62670 -0.00700
H 	H 	0.44530 0.80490 0.62660 -0.03500
N 	N 	0.35850 0.80700 0.60420 -0.15000
C 	C 	0.29450 0.80810 0.61300 -0.00500
H 	H 	0.25650 0.80900 0.60170 0.00100
N 	N 	0.29490 0.80760 0.64090 -0.08800
C 	C 	0.37430 0.72790 0.49520 -0.00800
H 	H 	0.37380 0.72400 0.47600 0.00100
N 	N 	0.37550 0.76980 0.50890 -0.11200
N 	N 	0.37580 0.76050 0.53660 -0.19000
C 	C 	0.37470 0.71290 0.54000 0.11400
H 	H 	0.37460 0.69690 0.55690 -0.03100
N 	N 	0.37370 0.69280 0.51440 -0.16800
C 	C 	0.62510 0.29160 0.28792 0.09500
H 	H 	0.62400 0.30630 0.30520 -0.05800
N 	N 	0.62660 0.31330 0.26322 -0.30200
C 	C 	0.62800 0.28010 0.24345 0.06700
H 	H 	0.62920 0.28540 0.22430 -0.04100
N 	N 	0.62740 0.23780 0.25590 -0.12200
N 	N 	0.62560 0.24490 0.28340 -0.26400
N 	N 	0.45560 0.35340 0.20130 -0.26600
N 	N 	0.44940 0.40050 0.20340 -0.24600
C 	C 	0.50290 0.41690 0.21750 0.07900
H 	H 	0.51140 0.44840 0.22190 -0.03600
N 	N 	0.54210 0.37980 0.22400 -0.28700
C 	C 	0.51280 0.34060 0.21400 0.07100
H 	H 	0.52930 0.30990 0.21560 -0.05200
N 	N 	0.45510 0.35280 0.05140 -0.26600
N 	N 	0.44980 0.40040 0.04980 -0.24400
C 	C 	0.50330 0.41670 0.03550 0.08200
H 	H 	0.51220 0.44830 0.03130 -0.01900
N 	N 	0.54170 0.37930 0.02820 -0.28400
C 	C 	0.51190 0.33980 0.03800 0.07200
H 	H 	0.52770 0.30900 0.03600 -0.04800
N 	N 	0.36780 0.29780 0.15030 -0.06800
C 	C 	0.39950 0.31640 0.12770 0.06300
H 	H 	0.43590 0.33710 0.12800 -0.03800
N 	N 	0.36870 0.29940 0.10440 -0.12500
C 	C 	0.31780 0.27040 0.11270 0.05100
H 	H 	0.28860 0.25400 0.10100 -0.01200
N 	N 	0.31730 0.26940 0.14100 -0.09900
Zn	Zn	0.38085 0.30975 0.06422 1.16500
Zn	Zn	0.38151 0.30896 0.18972 1.15800
Zn	Zn	0.62764 0.37826 0.24758 1.17200
C 	C 	0.39260 0.22030 0.02880 0.13800
H 	H 	0.43380 0.22860 0.02100 -0.03600
N 	N 	0.35780 0.24580 0.04670 -0.14900
N 	N 	0.30250 0.22230 0.05290 -0.12000
C 	C 	0.30310 0.18220 0.03880 0.01900
H 	H 	0.27010 0.15890 0.03920 -0.01100
N 	N 	0.35880 0.18100 0.02390 -0.19100
N 	N 	0.35920 0.30620 0.14940 -0.17100
C 	C 	0.39850 0.30580 0.12670 -0.00700
H 	H 	0.44530 0.30490 0.12660 -0.03500
N 	N 	0.35850 0.30700 0.10420 -0.15000
C 	C 	0.29450 0.30810 0.11300 -0.00500
H 	H 	0.25650 0.30900 0.10170 0.00100
N 	N 	0.29490 0.30760 0.14090 -0.08800
C 	C 	0.37430 0.22790 0.99520 -0.00800
H 	H 	0.37380 0.22400 0.97600 0.00100
N 	N 	0.37550 0.26980 0.00890 -0.11200
N 	N 	0.37580 0.26050 0.03660 -0.19000
C 	C 	0.37470 0.21290 0.04000 0.11400
H 	H 	0.37460 0.19690 0.05690 -0.03100
N 	N 	0.37370 0.19280 0.01440 -0.16800
C 	C 	0.12510 0.95840 0.46208 0.09400
H 	H 	0.12400 0.94370 0.44480 -0.05800
N 	N 	0.12660 0.93670 0.48678 -0.30200
C 	C 	0.12800 0.96990 0.50655 0.06700
H 	H 	0.12920 0.96460 0.52570 -0.04100
N 	N 	0.12740 0.01220 0.49410 -0.12200
N 	N 	0.12560 0.00510 0.46660 -0.26400
N 	N 	0.95560 0.89660 0.54870 -0.26600
N 	N 	0.94940 0.84950 0.54660 -0.24600
C 	C 	0.00290 0.83310 0.53250 0.07900
H 	H 	0.01140 0.80160 0.52810 -0.03600
N 	N 	0.04210 0.87020 0.52600 -0.28700
C 	C 	0.01280 0.90940 0.53600 0.07100
H 	H 	0.02930 0.94010 0.53440 -0.05200
N 	N 	0.95510 0.89720 0.69860 -0.26600
N 	N 	0.94980 0.84960 0.70020 -0.24400
C 	C 	0.00330 0.83330 0.71450 0.08200
H 	H 	0.01220 0.80170 0.71870 -0.01900
N 	N 	0.04170 0.87070 0.72180 -0.28400
C 	C 	0.01190 0.91020 0.71200 0.07200
H 	H 	0.02770 0.94100 0.71400 -0.04800
N 	N 	0.86780 0.95220 0.59970 -0.06800
C 	C 	0.89950 0.93360 0.62230 0.06300
H 	H 	0.93590 0.91290 0.62200 -0.03800
N 	N 	0.86870 0.95060 0.64560 -0.12500
C 	C 	0.81780 0.97960 0.63730 0.05100
H 	H 	0.78860 0.99600 0.64900 -0.01200
N 	N 	0.81730 0.98060 0.60900 -0.09900
Zn	Zn	0.88085 0.94025 0.68578 1.16400
Zn	Zn	0.88151 0.94104 0.56028 1.15800
Zn	Zn	0.12764 0.87174 0.50242 1.17100
C 	C 	0.89260 0.02970 0.72120 0.13800
H 	H 	0.93380 0.02140 0.72900 -0.03600
N 	N 	0.85780 0.00420 0.70330 -0.14900
N 	N 	0.80250 0.02770 0.69710 -0.12000
C 	C 	0.80310 0.06780 0.71120 0.01900
H 	H 	0.77010 0.09110 0.71080 -0.01100
N 	N 	0.85880 0.06900 0.72610 -0.19100
N 	N 	0.85920 0.94380 0.60060 -0.17100
C 	C 	0.89850 0.94420 0.62330 -0.00700
H 	H 	0.94530 0.94510 0.62340 -0.03500
N 	N 	0.85850 0.94300 0.64580 -0.15000
C 	C 	0.79450 0.94190 0.63700 -0.00500
H 	H 	0.75650 0.94100 0.64830 0.00100
N 	N 	0.79490 0.94240 0.60910 -0.08800
C 	C 	0.87430 0.02210 0.75480 -0.00800
H 	H 	0.87380 0.02600 0.77400 0.00100
N 	N 	0.87550 0.98020 0.74110 -0.11200
N 	N 	0.87580 0.98950 0.71340 -0.19000
C 	C 	0.87470 0.03710 0.71000 0.11400
H 	H 	0.87460 0.05310 0.69310 -0.03100
N 	N 	0.87370 0.05720 0.73560 -0.16800
C 	C 	0.12510 0.45840 0.96208 0.09500
H 	H 	0.12400 0.44370 0.94480 -0.05800
N 	N 	0.12660 0.43670 0.98678 -0.30200
C 	C 	0.12800 0.46990 0.00655 0.06700
H 	H 	0.12920 0.46460 0.02570 -0.04100
N 	N 	0.12740 0.51220 0.99410 -0.12200
N 	N 	0.12560 0.50510 0.96660 -0.26400
N 	N 	0.95560 0.39660 0.04870 -0.26600
N 	N 	0.94940 0.34950 0.04660 -0.24600
C 	C 	0.00290 0.33310 0.03250 0.07900
H 	H 	0.01140 0.30160 0.02810 -0.03600
N 	N 	0.04210 0.37020 0.02600 -0.28700
C 	C 	0.01280 0.40940 0.03600 0.07100
H 	H 	0.02930 0.44010 0.03440 -0.05200
N 	N 	0.95510 0.39720 0.19860 -0.26600
N 	N 	0.94980 0.34960 0.20020 -0.24400
C 	C 	0.00330 0.33330 0.21450 0.08200
H 	H 	0.01220 0.30170 0.21870 -0.01900
N 	N 	0.04170 0.37070 0.22180 -0.28400
C 	C 	0.01190 0.41020 0.21200 0.07200
H 	H 	0.02770 0.44100 0.21400 -0.04800
N 	N 	0.86780 0.45220 0.09970 -0.06800
C 	C 	0.89950 0.43360 0.12230 0.06300
H 	H 	0.93590 0.41290 0.12200 -0.03800
N 	N 	0.86870 0.45060 0.14560 -0.12500
C 	C 	0.81780 0.47960 0.13730 0.05100
H 	H 	0.78860 0.49600 0.14900 -0.01200
N 	N 	0.81730 0.48060 0.10900 -0.09900
Zn	Zn	0.88085 0.44025 0.18578 1.16400
Zn	Zn	0.88151 0.44104 0.06028 1.15800
Zn	Zn	0.12764 0.37174 0.00242 1.17100
C 	C 	0.89260 0.52970 0.22120 0.13800
H 	H 	0.93380 0.52140 0.22900 -0.03600
N 	N 	0.85780 0.50420 0.20330 -0.14900
N 	N 	0.80250 0.52770 0.19710 -0.12000
C 	C 	0.80310 0.56780 0.21120 0.01900
H 	H 	0.77010 0.59110 0.21080 -0.01100
N 	N 	0.85880 0.56900 0.22610 -0.19100
N 	N 	0.85920 0.44380 0.10060 -0.17100
C 	C 	0.89850 0.44420 0.12330 -0.00700
H 	H 	0.94530 0.44510 0.12340 -0.03500
N 	N 	0.85850 0.44300 0.14580 -0.15000
C 	C 	0.79450 0.44190 0.13700 -0.00500
H 	H 	0.75650 0.44100 0.14830 0.00100
N 	N 	0.79490 0.44240 0.10910 -0.08800
C 	C 	0.87430 0.52210 0.25480 -0.00800
H 	H 	0.87380 0.52600 0.27400 0.00100
N 	N 	0.87550 0.48020 0.24110 -0.11200
N 	N 	0.87580 0.48950 0.21340 -0.19000
C 	C 	0.87470 0.53710 0.21000 0.11400
H 	H 	0.87460 0.55310 0.19310 -0.03100
N 	N 	0.87370 0.55720 0.23560 -0.16800
C 	C 	0.62510 0.95840 0.96208 0.09500
H 	H 	0.62400 0.94370 0.94480 -0.05800
N 	N 	0.62660 0.93670 0.98678 -0.30200
C 	C 	0.62800 0.96990 0.00655 0.06700
H 	H 	0.62920 0.96460 0.02570 -0.04100
N 	N 	0.62740 0.01220 0.99410 -0.12200
N 	N 	0.62560 0.00510 0.96660 -0.26400
N 	N 	0.45560 0.89660 0.04870 -0.26600
N 	N 	0.44940 0.84950 0.04660 -0.24600
C 	C 	0.50290 0.83310 0.03250 0.07900
H 	H 	0.51140 0.80160 0.02810 -0.03600
N 	N 	0.54210 0.87020 0.02600 -0.28700
C 	C 	0.51280 0.90940 0.03600 0.07100
H 	H 	0.52930 0.94010 0.03440 -0.05200
N 	N 	0.45510 0.89720 0.19860 -0.26600
N 	N 	0.44980 0.84960 0.20020 -0.24400
C 	C 	0.50330 0.83330 0.21450 0.08200
H 	H 	0.51220 0.80170 0.21870 -0.01900
N 	N 	0.54170 0.87070 0.22180 -0.28400
C 	C 	0.51190 0.91020 0.21200 0.07200
H 	H 	0.52770 0.94100 0.21400 -0.04800
N 	N 	0.36780 0.95220 0.09970 -0.06800
C 	C 	0.39950 0.93360 0.12230 0.06300
H 	H 	0.43590 0.91290 0.12200 -0.03800
N 	N 	0.36870 0.95060 0.14560 -0.12500
C 	C 	0.31780 0.97960 0.13730 0.05100
H 	H 	0.28860 0.99600 0.14900 -0.01200
N 	N 	0.31730 0.98060 0.10900 -0.09900
Zn	Zn	0.38085 0.94025 0.18578 1.16400
Zn	Zn	0.38151 0.94104 0.06028 1.15800
Zn	Zn	0.62764 0.87174 0.00242 1.17200
C 	C 	0.39260 0.02970 0.22120 0.13800
H 	H 	0.43380 0.02140 0.22900 -0.03600
N 	N 	0.35780 0.00420 0.20330 -0.14900
N 	N 	0.30250 0.02770 0.19710 -0.12000
C 	C 	0.30310 0.06780 0.21120 0.01900
H 	H 	0.27010 0.09110 0.21080 -0.01100
N 	N 	0.35880 0.06900 0.22610 -0.19100
N 	N 	0.35920 0.94380 0.10060 -0.17100
C 	C 	0.39850 0.94420 0.12330 -0.00700
H 	H 	0.44530 0.94510 0.12340 -0.03500
N 	N 	0.35850 0.94300 0.14580 -0.15000
C 	C 	0.29450 0.94190 0.13700 -0.00500
H 	H 	0.25650 0.94100 0.14830 0.00100
N 	N 	0.29490 0.94240 0.10910 -0.08800
C 	C 	0.37430 0.02210 0.25480 -0.00800
H 	H 	0.37380 0.02600 0.27400 0.00100
N 	N 	0.37550 0.98020 0.24110 -0.11200
N 	N 	0.37580 0.98950 0.21340 -0.19000
C 	C 	0.37470 0.03710 0.21000 0.11400
H 	H 	0.37460 0.05310 0.19310 -0.03100
N 	N 	0.37370 0.05720 0.23560 -0.16800
C 	C 	0.62510 0.45840 0.46208 0.09500
H 	H 	0.62400 0.44370 0.44480 -0.05800
N 	N 	0.62660 0.43670 0.48678 -0.30200
C 	C 	0.62800 0.46990 0.50655 0.06700
H 	H 	0.62920 0.46460 0.52570 -0.04100
N 	N 	0.62740 0.51220 0.49410 -0.12200
N 	N 	0.62560 0.50510 0.46660 -0.26400
N 	N 	0.45560 0.39660 0.54870 -0.26600
N 	N 	0.44940 0.34950 0.54660 -0.24600
C 	C 	0.50290 0.33310 0.53250 0.07900
H 	H 	0.51140 0.30160 0.52810 -0.03600
N 	N 	0.54210 0.37020 0.52600 -0.28700
C 	C 	0.51280 0.40940 0.53600 0.07100
H 	H 	0.52930 0.44010 0.53440 -0.05200
N 	N 	0.45510 0.39720 0.69860 -0.26600
N 	N 	0.44980 0.34960 0.70020 -0.24400
C 	C 	0.50330 0.33330 0.71450 0.08200
H 	H 	0.51220 0.30170 0.71870 -0.01900
N 	N 	0.54170 0.37070 0.72180 -0.28400
C 	C 	0.51190 0.41020 0.71200 0.07200
H 	H 	0.52770 0.44100 0.71400 -0.04800
N 	N 	0.36780 0.45220 0.59970 -0.06800
C 	C 	0.39950 0.43360 0.62230 0.06300
H 	H 	0.43590 0.41290 0.62200 -0.03800
N 	N 	0.36870 0.45060 0.64560 -0.12500
C 	C 	0.31780 0.47960 0.63730 0.05100
H 	H 	0.28860 0.49600 0.64900 -0.01200
N 	N 	0.31730 0.48060 0.60900 -0.09900
Zn	Zn	0.38085 0.44025 0.68578 1.16500
Zn	Zn	0.38151 0.44104 0.56028 1.15800
Zn	Zn	0.62764 0.37174 0.50242 1.17200
C 	C 	0.39260 0.52970 0.72120 0.13800
H 	H 	0.43380 0.52140 0.72900 -0.03600
N 	N 	0.35780 0.50420 0.70330 -0.14900
N 	N 	0.30250 0.52770 0.69710 -0.12000
C 	C 	0.30310 0.56780 0.71120 0.01900
H 	H 	0.27010 0.59110 0.71080 -0.01100
N 	N 	0.35880 0.56900 0.72610 -0.19100
N 	N 	0.35920 0.44380 0.60060 -0.17100
C 	C 	0.39850 0.44420 0.62330 -0.00700
H 	H 	0.44530 0.44510 0.62340 -0.03500
N 	N 	0.35850 0.44300 0.64580 -0.15000
C 	C 	0.29450 0.44190 0.63700 -0.00500
H 	H 	0.25650 0.44100 0.64830 0.00100
N 	N 	0.29490 0.44240 0.60910 -0.08800
C 	C 	0.37430 0.52210 0.75480 -0.00800
H 	H 	0.37380 0.52600 0.77400 0.00100
N 	N 	0.37550 0.48020 0.74110 -0.11200
N 	N 	0.37580 0.48950 0.71340 -0.19000
C 	C 	0.37470 0.53710 0.71000 0.11400
H 	H 	0.37460 0.55310 0.69310 -0.03100
N 	N 	0.37370 0.55720 0.73560 -0.16800
C 	C 	0.62490 0.79160 0.46208 0.09500
H 	H 	0.62600 0.80630 0.44480 -0.05800
N 	N 	0.62340 0.81330 0.48678 -0.30200
C 	C 	0.62200 0.78010 0.50655 0.06700
H 	H 	0.62080 0.78540 0.52570 -0.04100
N 	N 	0.62260 0.73780 0.49410 -0.12200
N 	N 	0.62440 0.74490 0.46660 -0.26400
N 	N 	0.79440 0.85340 0.54870 -0.26600
N 	N 	0.80060 0.90050 0.54660 -0.24600
C 	C 	0.74710 0.91690 0.53250 0.07900
H 	H 	0.73860 0.94840 0.52810 -0.03600
N 	N 	0.70790 0.87980 0.52600 -0.28700
C 	C 	0.73720 0.84060 0.53600 0.07100
H 	H 	0.72070 0.80990 0.53440 -0.05200
N 	N 	0.79490 0.85280 0.69860 -0.26600
N 	N 	0.80020 0.90040 0.70020 -0.24400
C 	C 	0.74670 0.91670 0.71450 0.08200
H 	H 	0.73780 0.94830 0.71870 -0.01900
N 	N 	0.70830 0.87930 0.72180 -0.28400
C 	C 	0.73810 0.83980 0.71200 0.07200
H 	H 	0.72230 0.80900 0.71400 -0.04800
N 	N 	0.88220 0.79780 0.59970 -0.06800
C 	C 	0.85050 0.81640 0.62230 0.06300
H 	H 	0.81410 0.83710 0.62200 -0.03800
N 	N 	0.88130 0.79940 0.64560 -0.12500
C 	C 	0.93220 0.77040 0.63730 0.05100
H 	H 	0.96140 0.75400 0.64900 -0.01200
N 	N 	0.93270 0.76940 0.60900 -0.09900
Zn	Zn	0.86915 0.80975 0.68578 1.16500
Zn	Zn	0.86849 0.80896 0.56028 1.15800
Zn	Zn	0.62236 0.87826 0.50242 1.17200
C 	C 	0.85740 0.72030 0.72120 0.13800
H 	H 	0.81620 0.72860 0.72900 -0.03600
N 	N 	0.89220 0.74580 0.70330 -0.14900
N 	N 	0.94750 0.72230 0.69710 -0.12000
C 	C 	0.94690 0.68220 0.71120 0.01900
H 	H 	0.97990 0.65890 0.71080 -0.01100
N 	N 	0.89120 0.68100 0.72610 -0.19100
N 	N 	0.89080 0.80620 0.60060 -0.17100
C 	C 	0.85150 0.80580 0.62330 -0.00700
H 	H 	0.80470 0.80490 0.62340 -0.03500
N 	N 	0.89150 0.80700 0.64580 -0.15000
C 	C 	0.95550 0.80810 0.63700 -0.00500
H 	H 	0.99350 0.80900 0.64830 0.00100
N 	N 	0.95510 0.80760 0.60910 -0.08800
C 	C 	0.87570 0.72790 0.75480 -0.00800
H 	H 	0.87620 0.72400 0.77400 0.00100
N 	N 	0.87450 0.76980 0.74110 -0.11200
N 	N 	0.87420 0.76050 0.71340 -0.19000
C 	C 	0.87530 0.71290 0.71000 0.11400
H 	H 	0.87540 0.69690 0.69310 -0.03100
N 	N 	0.87630 0.69280 0.73560 -0.16800
C 	C 	0.62490 0.29160 0.96208 0.09500
H 	H 	0.62600 0.30630 0.94480 -0.05800
N 	N 	0.62340 0.31330 0.98678 -0.30200
C 	C 	0.62200 0.28010 0.00655 0.06700
H 	H 	0.62080 0.28540 0.02570 -0.04100
N 	N 	0.62260 0.23780 0.99410 -0.12200
N 	N 	0.62440 0.24490 0.96660 -0.26400
N 	N 	0.79440 0.35340 0.04870 -0.26600
N 	N 	0.80060 0.40050 0.04660 -0.24600
C 	C 	0.74710 0.41690 0.03250 0.07900
H 	H 	0.73860 0.44840 0.02810 -0.03600
N 	N 	0.70790 0.37980 0.02600 -0.28700
C 	C 	0.73720 0.34060 0.03600 0.07100
H 	H 	0.72070 0.30990 0.03440 -0.05200
N 	N 	0.79490 0.35280 0.19860 -0.26600
N 	N 	0.80020 0.40040 0.20020 -0.24400
C 	C 	0.74670 0.41670 0.21450 0.08200
H 	H 	0.73780 0.44830 0.21870 -0.01900
N 	N 	0.70830 0.37930 0.22180 -0.28400
C 	C 	0.73810 0.33980 0.21200 0.07200
H 	H 	0.72230 0.30900 0.21400 -0.04800
N 	N 	0.88220 0.29780 0.09970 -0.06800
C 	C 	0.85050 0.31640 0.12230 0.06300
H 	H 	0.81410 0.33710 0.12200 -0.03800
N 	N 	0.88130 0.29940 0.14560 -0.12500
C 	C 	0.93220 0.27040 0.13730 0.05100
H 	H 	0.96140 0.25400 0.14900 -0.01200
N 	N 	0.93270 0.26940 0.10900 -0.09900
Zn	Zn	0.86915 0.30975 0.18578 1.16500
Zn	Zn	0.86849 0.30896 0.06028 1.15800
Zn	Zn	0.62236 0.37826 0.00242 1.17200
C 	C 	0.85740 0.22030 0.22120 0.13800
H 	H 	0.81620 0.22860 0.22900 -0.03600
N 	N 	0.89220 0.24580 0.20330 -0.14900
N 	N 	0.94750 0.22230 0.19710 -0.12000
C 	C 	0.94690 0.18220 0.21120 0.01900
H 	H 	0.97990 0.15890 0.21080 -0.01100
N 	N 	0.89120 0.18100 0.22610 -0.19100
N 	N 	0.89080 0.30620 0.10060 -0.17100
C 	C 	0.85150 0.30580 0.12330 -0.00700
H 	H 	0.80470 0.30490 0.12340 -0.03500
N 	N 	0.89150 0.30700 0.14580 -0.15000
C 	C 	0.95550 0.30810 0.13700 -0.00500
H 	H 	0.99350 0.30900 0.14830 0.00100
N 	N 	0.95510 0.30760 0.10910 -0.08800
C 	C 	0.87570 0.22790 0.25480 -0.00800
H 	H 	0.87620 0.22400 0.27400 0.00100
N 	N 	0.87450 0.26980 0.24110 -0.11200
N 	N 	0.87420 0.26050 0.21340 -0.19000
C 	C 	0.87530 0.21290 0.21000 0.11400
H 	H 	0.87540 0.19690 0.19310 -0.03100
N 	N 	0.87630 0.19280 0.23560 -0.16800
C 	C 	0.12490 0.79160 0.96208 0.09500
H 	H 	0.12600 0.80630 0.94480 -0.05800
N 	N 	0.12340 0.81330 0.98678 -0.30200
C 	C 	0.12200 0.78010 0.00655 0.06700
H 	H 	0.12080 0.78540 0.02570 -0.04100
N 	N 	0.12260 0.73780 0.99410 -0.12200
N 	N 	0.12440 0.74490 0.96660 -0.26400
N 	N 	0.29440 0.85340 0.04870 -0.26600
N 	N 	0.30060 0.90050 0.04660 -0.24600
C 	C 	0.24710 0.91690 0.03250 0.07900
H 	H 	0.23860 0.94840 0.02810 -0.03600
N 	N 	0.20790 0.87980 0.02600 -0.28700
C 	C 	0.23720 0.84060 0.03600 0.07100
H 	H 	0.22070 0.80990 0.03440 -0.05200
N 	N 	0.29490 0.85280 0.19860 -0.26600
N 	N 	0.30020 0.90040 0.20020 -0.24400
C 	C 	0.24670 0.91670 0.21450 0.08200
H 	H 	0.23780 0.94830 0.21870 -0.01900
N 	N 	0.20830 0.87930 0.22180 -0.28400
C 	C 	0.23810 0.83980 0.21200 0.07200
H 	H 	0.22230 0.80900 0.21400 -0.04800
N 	N 	0.38220 0.79780 0.09970 -0.06800
C 	C 	0.35050 0.81640 0.12230 0.06300
H 	H 	0.31410 0.83710 0.12200 -0.03800
N 	N 	0.38130 0.79940 0.14560 -0.12500
C 	C 	0.43220 0.77040 0.13730 0.05100
H 	H 	0.46140 0.75400 0.14900 -0.01200
N 	N 	0.43270 0.76940 0.10900 -0.09900
Zn	Zn	0.36915 0.80975 0.18578 1.16500
Zn	Zn	0.36849 0.80896 0.06028 1.15800
Zn	Zn	0.12236 0.87826 0.00242 1.17100
C 	C 	0.35740 0.72030 0.22120 0.13800
H 	H 	0.31620 0.72860 0.22900 -0.03600
N 	N 	0.39220 0.74580 0.20330 -0.14900
N 	N 	0.44750 0.72230 0.19710 -0.12000
C 	C 	0.44690 0.68220 0.21120 0.01900
H 	H 	0.47990 0.65890 0.21080 -0.01100
N 	N 	0.39120 0.68100 0.22610 -0.19100
N 	N 	0.39080 0.80620 0.10060 -0.17100
C 	C 	0.35150 0.80580 0.12330 -0.00700
H 	H 	0.30470 0.80490 0.12340 -0.03500
N 	N 	0.39150 0.80700 0.14580 -0.15000
C 	C 	0.45550 0.80810 0.13700 -0.00500
H 	H 	0.49350 0.80900 0.14830 0.00100
N 	N 	0.45510 0.80760 0.10910 -0.08800
C 	C 	0.37570 0.72790 0.25480 -0.00800
H 	H 	0.37620 0.72400 0.27400 0.00100
N 	N 	0.37450 0.76980 0.24110 -0.11200
N 	N 	0.37420 0.76050 0.21340 -0.19000
C 	C 	0.37530 0.71290 0.21000 0.11400
H 	H 	0.37540 0.69690 0.19310 -0.03100
N 	N 	0.37630 0.69280 0.23560 -0.16800
C 	C 	0.12490 0.29160 0.46208 0.09500
H 	H 	0.12600 0.30630 0.44480 -0.05800
N 	N 	0.12340 0.31330 0.48678 -0.30200
C 	C 	0.12200 0.28010 0.50655 0.06700
H 	H 	0.12080 0.28540 0.52570 -0.04100
N 	N 	0.12260 0.23780 0.49410 -0.12200
N 	N 	0.12440 0.24490 0.46660 -0.26400
N 	N 	0.29440 0.35340 0.54870 -0.26600
N 	N 	0.30060 0.40050 0.54660 -0.24600
C 	C 	0.24710 0.41690 0.53250 0.07900
H 	H 	0.23860 0.44840 0.52810 -0.03600
N 	N 	0.20790 0.37980 0.52600 -0.28700
C 	C 	0.23720 0.34060 0.53600 0.07100
H 	H 	0.22070 0.30990 0.53440 -0.05200
N 	N 	0.29490 0.35280 0.69860 -0.26600
N 	N 	0.30020 0.40040 0.70020 -0.24400
C 	C 	0.24670 0.41670 0.71450 0.08200
H 	H 	0.23780 0.44830 0.71870 -0.01900
N 	N 	0.20830 0.37930 0.72180 -0.28400
C 	C 	0.23810 0.33980 0.71200 0.07200
H 	H 	0.22230 0.30900 0.71400 -0.04800
N 	N 	0.38220 0.29780 0.59970 -0.06800
C 	C 	0.35050 0.31640 0.62230 0.06300
H 	H 	0.31410 0.33710 0.62200 -0.03800
N 	N 	0.38130 0.29940 0.64560 -0.12500
C 	C 	0.43220 0.27040 0.63730 0.05100
H 	H 	0.46140 0.25400 0.64900 -0.01200
N 	N 	0.43270 0.26940 0.60900 -0.09900
Zn	Zn	0.36915 0.30975 0.68578 1.16500
Zn	Zn	0.36849 0.30896 0.56028 1.15800
Zn	Zn	0.12236 0.37826 0.50242 1.17100
C 	C 	0.35740 0.22030 0.72120 0.13800
H 	H 	0.31620 0.22860 0.72900 -0.03600
N 	N 	0.39220 0.24580 0.70330 -0.14900
N 	N 	0.44750 0.22230 0.69710 -0.12000
C 	C 	0.44690 0.18220 0.71120 0.01900
H 	H 	0.47990 0.15890 0.71080 -0.01100
N 	N 	0.39120 0.18100 0.72610 -0.19100
N 	N 	0.39080 0.30620 0.60060 -0.17100
C 	C 	0.35150 0.30580 0.62330 -0.00700
H 	H 	0.30470 0.30490 0.62340 -0.03500
N 	N 	0.39150 0.30700 0.64580 -0.15000
C 	C 	0.45550 0.30810 0.63700 -0.00500
H 	H 	0.49350 0.30900 0.64830 0.00100
N 	N 	0.45510 0.30760 0.60910 -0.08800
C 	C 	0.37570 0.22790 0.75480 -0.00800
H 	H 	0.37620 0.22400 0.77400 0.00100
N 	N 	0.37450 0.26980 0.74110 -0.11200
N 	N 	0.37420 0.26050 0.71340 -0.19000
C 	C 	0.37530 0.21290 0.71000 0.11400
H 	H 	0.37540 0.19690 0.69310 -0.03100
N 	N 	0.37630 0.19280 0.73560 -0.16800
C 	C 	0.37510 0.04160 0.71208 0.09400
H 	H 	0.37400 0.05630 0.69480 -0.05800
N 	N 	0.37660 0.06330 0.73678 -0.30200
C 	C 	0.37800 0.03010 0.75655 0.06700
H 	H 	0.37920 0.03540 0.77570 -0.04100
N 	N 	0.37740 0.98780 0.74410 -0.12200
N 	N 	0.37560 0.99490 0.71660 -0.26400
N 	N 	0.20560 0.10340 0.79870 -0.26600
N 	N 	0.19940 0.15050 0.79660 -0.24600
C 	C 	0.25290 0.16690 0.78250 0.07900
H 	H 	0.26140 0.19840 0.77810 -0.03600
N 	N 	0.29210 0.12980 0.77600 -0.28700
C 	C 	0.26280 0.09060 0.78600 0.07100
H 	H 	0.27930 0.05990 0.78440 -0.05200
N 	N 	0.20510 0.10280 0.94860 -0.26600
N 	N 	0.19980 0.15040 0.95020 -0.24400
C 	C 	0.25330 0.16670 0.96450 0.08200
H 	H 	0.26220 0.19830 0.96870 -0.01900
N 	N 	0.29170 0.12930 0.97180 -0.28400
C 	C 	0.26190 0.08980 0.96200 0.07200
H 	H 	0.27770 0.05900 0.96400 -0.04800
N 	N 	0.11780 0.04780 0.84970 -0.06800
C 	C 	0.14950 0.06640 0.87230 0.06300
H 	H 	0.18590 0.08710 0.87200 -0.03800
N 	N 	0.11870 0.04940 0.89560 -0.12500
C 	C 	0.06780 0.02040 0.88730 0.05100
H 	H 	0.03860 0.00400 0.89900 -0.01200
N 	N 	0.06730 0.01940 0.85900 -0.09900
Zn	Zn	0.13085 0.05975 0.93578 1.16400
Zn	Zn	0.13151 0.05896 0.81028 1.15800
Zn	Zn	0.37764 0.12826 0.75242 1.17200
C 	C 	0.14260 0.97030 0.97120 0.13800
H 	H 	0.18380 0.97860 0.97900 -0.03600
N 	N 	0.10780 0.99580 0.95330 -0.14900
N 	N 	0.05250 0.97230 0.94710 -0.12000
C 	C 	0.05310 0.93220 0.96120 0.01900
H 	H 	0.02010 0.90890 0.96080 -0.01100
N 	N 	0.10880 0.93100 0.97610 -0.19100
N 	N 	0.10920 0.05620 0.85060 -0.17100
C 	C 	0.14850 0.05580 0.87330 -0.00700
H 	H 	0.19530 0.05490 0.87340 -0.03500
N 	N 	0.10850 0.05700 0.89580 -0.15000
C 	C 	0.04450 0.05810 0.88700 -0.00500
H 	H 	0.00650 0.05900 0.89830 0.00100
N 	N 	0.04490 0.05760 0.85910 -0.08800
C 	C 	0.12430 0.97790 0.00480 -0.00800
H 	H 	0.12380 0.97400 0.02400 0.00100
N 	N 	0.12550 0.01980 0.99110 -0.11200
N 	N 	0.12580 0.01050 0.96340 -0.19000
C 	C 	0.12470 0.96290 0.96000 0.11400
H 	H 	0.12460 0.94690 0.94310 -0.03100
N 	N 	0.12370 0.94280 0.98560 -0.16800
C 	C 	0.37510 0.54160 0.21208 0.09500
H 	H 	0.37400 0.55630 0.19480 -0.05800
N 	N 	0.37660 0.56330 0.23678 -0.30200
C 	C 	0.37800 0.53010 0.25655 0.06700
H 	H 	0.37920 0.53540 0.27570 -0.04100
N 	N 	0.37740 0.48780 0.24410 -0.12200
N 	N 	0.37560 0.49490 0.21660 -0.26400
N 	N 	0.20560 0.60340 0.29870 -0.26600
N 	N 	0.19940 0.65050 0.29660 -0.24600
C 	C 	0.25290 0.66690 0.28250 0.07900
H 	H 	0.26140 0.69840 0.27810 -0.03600
N 	N 	0.29210 0.62980 0.27600 -0.28700
C 	C 	0.26280 0.59060 0.28600 0.07100
H 	H 	0.27930 0.55990 0.28440 -0.05200
N 	N 	0.20510 0.60280 0.44860 -0.26600
N 	N 	0.19980 0.65040 0.45020 -0.24400
C 	C 	0.25330 0.66670 0.46450 0.08200
H 	H 	0.26220 0.69830 0.46870 -0.01900
N 	N 	0.29170 0.62930 0.47180 -0.28400
C 	C 	0.26190 0.58980 0.46200 0.07200
H 	H 	0.27770 0.55900 0.46400 -0.04800
N 	N 	0.11780 0.54780 0.34970 -0.06800
C 	C 	0.14950 0.56640 0.37230 0.06300
H 	H 	0.18590 0.58710 0.37200 -0.03800
N 	N 	0.11870 0.54940 0.39560 -0.12500
C 	C 	0.06780 0.52040 0.38730 0.05100
H 	H 	0.03860 0.50400 0.39900 -0.01200
N 	N 	0.06730 0.51940 0.35900 -0.09900
Zn	Zn	0.13085 0.55975 0.43578 1.16500
Zn	Zn	0.13151 0.55896 0.31028 1.15800
Zn	Zn	0.37764 0.62826 0.25242 1.17200
C 	C 	0.14260 0.47030 0.47120 0.13800
H 	H 	0.18380 0.47860 0.47900 -0.03600
N 	N 	0.10780 0.49580 0.45330 -0.14900
N 	N 	0.05250 0.47230 0.44710 -0.12000
C 	C 	0.05310 0.43220 0.46120 0.01900
H 	H 	0.02010 0.40890 0.46080 -0.01100
N 	N 	0.10880 0.43100 0.47610 -0.19100
N 	N 	0.10920 0.55620 0.35060 -0.17100
C 	C 	0.14850 0.55580 0.37330 -0.00700
H 	H 	0.19530 0.55490 0.37340 -0.03500
N 	N 	0.10850 0.55700 0.39580 -0.15000
C 	C 	0.04450 0.55810 0.38700 -0.00500
H 	H 	0.00650 0.55900 0.39830 0.00100
N 	N 	0.04490 0.55760 0.35910 -0.08800
C 	C 	0.12430 0.47790 0.50480 -0.00800
H 	H 	0.12380 0.47400 0.52400 0.00100
N 	N 	0.12550 0.51980 0.49110 -0.11200
N 	N 	0.12580 0.51050 0.46340 -0.19000
C 	C 	0.12470 0.46290 0.46000 0.11400
H 	H 	0.12460 0.44690 0.44310 -0.03100
N 	N 	0.12370 0.44280 0.48560 -0.16800
C 	C 	0.87510 0.04160 0.21208 0.09400
H 	H 	0.87400 0.05630 0.19480 -0.05800
N 	N 	0.87660 0.06330 0.23678 -0.30200
C 	C 	0.87800 0.03010 0.25655 0.06700
H 	H 	0.87920 0.03540 0.27570 -0.04100
N 	N 	0.87740 0.98780 0.24410 -0.12200
N 	N 	0.87560 0.99490 0.21660 -0.26400
N 	N 	0.70560 0.10340 0.29870 -0.26600
N 	N 	0.69940 0.15050 0.29660 -0.24600
C 	C 	0.75290 0.16690 0.28250 0.07900
H 	H 	0.76140 0.19840 0.27810 -0.03600
N 	N 	0.79210 0.12980 0.27600 -0.28700
C 	C 	0.76280 0.09060 0.28600 0.07100
H 	H 	0.77930 0.05990 0.28440 -0.05200
N 	N 	0.70510 0.10280 0.44860 -0.26600
N 	N 	0.69980 0.15040 0.45020 -0.24400
C 	C 	0.75330 0.16670 0.46450 0.08200
H 	H 	0.76220 0.19830 0.46870 -0.01900
N 	N 	0.79170 0.12930 0.47180 -0.28400
C 	C 	0.76190 0.08980 0.46200 0.07200
H 	H 	0.77770 0.05900 0.46400 -0.04800
N 	N 	0.61780 0.04780 0.34970 -0.06800
C 	C 	0.64950 0.06640 0.37230 0.06300
H 	H 	0.68590 0.08710 0.37200 -0.03800
N 	N 	0.61870 0.04940 0.39560 -0.12500
C 	C 	0.56780 0.02040 0.38730 0.05100
H 	H 	0.53860 0.00400 0.39900 -0.01200
N 	N 	0.56730 0.01940 0.35900 -0.09900
Zn	Zn	0.63085 0.05975 0.43578 1.16400
Zn	Zn	0.63151 0.05896 0.31028 1.15800
Zn	Zn	0.87764 0.12826 0.25242 1.17100
C 	C 	0.64260 0.97030 0.47120 0.13800
H 	H 	0.68380 0.97860 0.47900 -0.03600
N 	N 	0.60780 0.99580 0.45330 -0.14900
N 	N 	0.55250 0.97230 0.44710 -0.12000
C 	C 	0.55310 0.93220 0.46120 0.01900
H 	H 	0.52010 0.90890 0.46080 -0.01100
N 	N 	0.60880 0.93100 0.47610 -0.19100
N 	N 	0.60920 0.05620 0.35060 -0.17100
C 	C 	0.64850 0.05580 0.37330 -0.00700
H 	H 	0.69530 0.05490 0.37340 -0.03500
N 	N 	0.60850 0.05700 0.39580 -0.15000
C 	C 	0.54450 0.05810 0.38700 -0.00500
H 	H 	0.50650 0.05900 0.39830 0.00100
N 	N 	0.54490 0.05760 0.35910 -0.08800
C 	C 	0.62430 0.97790 0.50480 -0.00800
H 	H 	0.62380 0.97400 0.52400 0.00100
N 	N 	0.62550 0.01980 0.49110 -0.11200
N 	N 	0.62580 0.01050 0.46340 -0.19000
C 	C 	0.62470 0.96290 0.46000 0.11400
H 	H 	0.62460 0.94690 0.44310 -0.03100
N 	N 	0.62370 0.94280 0.48560 -0.16800
C 	C 	0.87510 0.54160 0.71208 0.09500
H 	H 	0.87400 0.55630 0.69480 -0.05800
N 	N 	0.87660 0.56330 0.73678 -0.30200
C 	C 	0.87800 0.53010 0.75655 0.06700
H 	H 	0.87920 0.53540 0.77570 -0.04100
N 	N 	0.87740 0.48780 0.74410 -0.12200
N 	N 	0.87560 0.49490 0.71660 -0.26400
N 	N 	0.70560 0.60340 0.79870 -0.26600
N 	N 	0.69940 0.65050 0.79660 -0.24600
C 	C 	0.75290 0.66690 0.78250 0.07900
H 	H 	0.76140 0.69840 0.77810 -0.03600
N 	N 	0.79210 0.62980 0.77600 -0.28700
C 	C 	0.76280 0.59060 0.78600 0.07100
H 	H 	0.77930 0.55990 0.78440 -0.05200
N 	N 	0.70510 0.60280 0.94860 -0.26600
N 	N 	0.69980 0.65040 0.95020 -0.24400
C 	C 	0.75330 0.66670 0.96450 0.08200
H 	H 	0.76220 0.69830 0.96870 -0.01900
N 	N 	0.79170 0.62930 0.97180 -0.28400
C 	C 	0.76190 0.58980 0.96200 0.07200
H 	H 	0.77770 0.55900 0.96400 -0.04800
N 	N 	0.61780 0.54780 0.84970 -0.06800
C 	C 	0.64950 0.56640 0.87230 0.06300
H 	H 	0.68590 0.58710 0.87200 -0.03800
N 	N 	0.61870 0.54940 0.89560 -0.12500
C 	C 	0.56780 0.52040 0.88730 0.05100
H 	H 	0.53860 0.50400 0.89900 -0.01200
N 	N 	0.56730 0.51940 0.85900 -0.09900
Zn	Zn	0.63085 0.55975 0.93578 1.16500
Zn	Zn	0.63151 0.55896 0.81028 1.15800
Zn	Zn	0.87764 0.62826 0.75242 1.17100
C 	C 	0.64260 0.47030 0.97120 0.13800
H 	H 	0.68380 0.47860 0.97900 -0.03600
N 	N 	0.60780 0.49580 0.95330 -0.14900
N 	N 	0.55250 0.47230 0.94710 -0.12000
C 	C 	0.55310 0.43220 0.96120 0.01900
H 	H 	0.52010 0.40890 0.96080 -0.01100
N 	N 	0.60880 0.43100 0.97610 -0.19100
N 	N 	0.60920 0.55620 0.85060 -0.17100
C 	C 	0.64850 0.55580 0.87330 -0.00700
H 	H 	0.69530 0.55490 0.87340 -0.03500
N 	N 	0.60850 0.55700 0.89580 -0.15000
C 	C 	0.54450 0.55810 0.88700 -0.00500
H 	H 	0.50650 0.55900 0.89830 0.00100
N 	N 	0.54490 0.55760 0.85910 -0.08800
C 	C 	0.62430 0.47790 0.00480 -0.00700
H 	H 	0.62380 0.47400 0.02400 0.00100
N 	N 	0.62550 0.51980 0.99110 -0.11200
N 	N 	0.62580 0.51050 0.96340 -0.19000
C 	C 	0.62470 0.46290 0.96000 0.11400
H 	H 	0.62460 0.44690 0.94310 -0.03100
N 	N 	0.62370 0.44280 0.98560 -0.16800
C 	C 	0.87490 0.20840 0.71208 0.09400
H 	H 	0.87600 0.19370 0.69480 -0.05800
N 	N 	0.87340 0.18670 0.73678 -0.30200
C 	C 	0.87200 0.21990 0.75655 0.06700
H 	H 	0.87080 0.21460 0.77570 -0.04100
N 	N 	0.87260 0.26220 0.74410 -0.12200
N 	N 	0.87440 0.25510 0.71660 -0.26400
N 	N 	0.04440 0.14660 0.79870 -0.26600
N 	N 	0.05060 0.09950 0.79660 -0.24600
C 	C 	0.99710 0.08310 0.78250 0.07900
H 	H 	0.98860 0.05160 0.77810 -0.03600
N 	N 	0.95790 0.12020 0.77600 -0.28700
C 	C 	0.98720 0.15940 0.78600 0.07100
H 	H 	0.97070 0.19010 0.78440 -0.05200
N 	N 	0.04490 0.14720 0.94860 -0.26600
N 	N 	0.05020 0.09960 0.95020 -0.24400
C 	C 	0.99670 0.08330 0.96450 0.08200
H 	H 	0.98780 0.05170 0.96870 -0.01900
N 	N 	0.95830 0.12070 0.97180 -0.28400
C 	C 	0.98810 0.16020 0.96200 0.07200
H 	H 	0.97230 0.19100 0.96400 -0.04800
N 	N 	0.13220 0.20220 0.84970 -0.06800
C 	C 	0.10050 0.18360 0.87230 0.06300
H 	H 	0.06410 0.16290 0.87200 -0.03800
N 	N 	0.13130 0.20060 0.89560 -0.12500
C 	C 	0.18220 0.22960 0.88730 0.05100
H 	H 	0.21140 0.24600 0.89900 -0.01200
N 	N 	0.18270 0.23060 0.85900 -0.09900
Zn	Zn	0.11915 0.19025 0.93578 1.16400
Zn	Zn	0.11849 0.19104 0.81028 1.15800
Zn	Zn	0.87236 0.12174 0.75242 1.17100
C 	C 	0.10740 0.27970 0.97120 0.13800
H 	H 	0.06620 0.27140 0.97900 -0.03600
N 	N 	0.14220 0.25420 0.95330 -0.14900
N 	N 	0.19750 0.27770 0.94710 -0.12000
C 	C 	0.19690 0.31780 0.96120 0.01900
H 	H 	0.22990 0.34110 0.96080 -0.01100
N 	N 	0.14120 0.31900 0.97610 -0.19100
N 	N 	0.14080 0.19380 0.85060 -0.17100
C 	C 	0.10150 0.19420 0.87330 -0.00700
H 	H 	0.05470 0.19510 0.87340 -0.03500
N 	N 	0.14150 0.19300 0.89580 -0.15000
C 	C 	0.20550 0.19190 0.88700 -0.00500
H 	H 	0.24350 0.19100 0.89830 0.00100
N 	N 	0.20510 0.19240 0.85910 -0.08800
C 	C 	0.12570 0.27210 0.00480 -0.00800
H 	H 	0.12620 0.27600 0.02400 0.00100
N 	N 	0.12450 0.23020 0.99110 -0.11200
N 	N 	0.12420 0.23950 0.96340 -0.19000
C 	C 	0.12530 0.28710 0.96000 0.11400
H 	H 	0.12540 0.30310 0.94310 -0.03100
N 	N 	0.12630 0.30720 0.98560 -0.16800
C 	C 	0.87490 0.70840 0.21208 0.09500
H 	H 	0.87600 0.69370 0.19480 -0.05800
N 	N 	0.87340 0.68670 0.23678 -0.30200
C 	C 	0.87200 0.71990 0.25655 0.06700
H 	H 	0.87080 0.71460 0.27570 -0.04100
N 	N 	0.87260 0.76220 0.24410 -0.12200
N 	N 	0.87440 0.75510 0.21660 -0.26400
N 	N 	0.04440 0.64660 0.29870 -0.26600
N 	N 	0.05060 0.59950 0.29660 -0.24600
C 	C 	0.99710 0.58310 0.28250 0.07900
H 	H 	0.98860 0.55160 0.27810 -0.03600
N 	N 	0.95790 0.62020 0.27600 -0.28700
C 	C 	0.98720 0.65940 0.28600 0.07100
H 	H 	0.97070 0.69010 0.28440 -0.05200
N 	N 	0.04490 0.64720 0.44860 -0.26600
N 	N 	0.05020 0.59960 0.45020 -0.24400
C 	C 	0.99670 0.58330 0.46450 0.08200
H 	H 	0.98780 0.55170 0.46870 -0.01900
N 	N 	0.95830 0.62070 0.47180 -0.28400
C 	C 	0.98810 0.66020 0.46200 0.07200
H 	H 	0.97230 0.69100 0.46400 -0.04800
N 	N 	0.13220 0.70220 0.34970 -0.06800
C 	C 	0.10050 0.68360 0.37230 0.06300
H 	H 	0.06410 0.66290 0.37200 -0.03800
N 	N 	0.13130 0.70060 0.39560 -0.12500
C 	C 	0.18220 0.72960 0.38730 0.05100
H 	H 	0.21140 0.74600 0.39900 -0.01200
N 	N 	0.18270 0.73060 0.35900 -0.09900
Zn	Zn	0.11915 0.69025 0.43578 1.16400
Zn	Zn	0.11849 0.69104 0.31028 1.15800
Zn	Zn	0.87236 0.62174 0.25242 1.17100
C 	C 	0.10740 0.77970 0.47120 0.13800
H 	H 	0.06620 0.77140 0.47900 -0.03600
N 	N 	0.14220 0.75420 0.45330 -0.14900
N 	N 	0.19750 0.77770 0.44710 -0.12000
C 	C 	0.19690 0.81780 0.46120 0.01900
H 	H 	0.22990 0.84110 0.46080 -0.01100
N 	N 	0.14120 0.81900 0.47610 -0.19100
N 	N 	0.14080 0.69380 0.35060 -0.17100
C 	C 	0.10150 0.69420 0.37330 -0.00700
H 	H 	0.05470 0.69510 0.37340 -0.03500
N 	N 	0.14150 0.69300 0.39580 -0.15000
C 	C 	0.20550 0.69190 0.38700 -0.00500
H 	H 	0.24350 0.69100 0.39830 0.00100
N 	N 	0.20510 0.69240 0.35910 -0.08800
C 	C 	0.12570 0.77210 0.50480 -0.00800
H 	H 	0.12620 0.77600 0.52400 0.00100
N 	N 	0.12450 0.73020 0.49110 -0.11200
N 	N 	0.12420 0.73950 0.46340 -0.19000
C 	C 	0.12530 0.78710 0.46000 0.11400
H 	H 	0.12540 0.80310 0.44310 -0.03100
N 	N 	0.12630 0.80720 0.48560 -0.16800
C 	C 	0.37490 0.20840 0.21208 0.09500
H 	H 	0.37600 0.19370 0.19480 -0.05800
N 	N 	0.37340 0.18670 0.23678 -0.30200
C 	C 	0.37200 0.21990 0.25655 0.06700
H 	H 	0.37080 0.21460 0.27570 -0.04100
N 	N 	0.37260 0.26220 0.24410 -0.12200
N 	N 	0.37440 0.25510 0.21660 -0.26400
N 	N 	0.54440 0.14660 0.29870 -0.26600
N 	N 	0.55060 0.09950 0.29660 -0.24600
C 	C 	0.49710 0.08310 0.28250 0.07900
H 	H 	0.48860 0.05160 0.27810 -0.03600
N 	N 	0.45790 0.12020 0.27600 -0.28700
C 	C 	0.48720 0.15940 0.28600 0.07100
H 	H 	0.47070 0.19010 0.28440 -0.05200
N 	N 	0.54490 0.14720 0.44860 -0.26600
N 	N 	0.55020 0.09960 0.45020 -0.24400
C 	C 	0.49670 0.08330 0.46450 0.08200
H 	H 	0.48780 0.05170 0.46870 -0.01900
N 	N 	0.45830 0.12070 0.47180 -0.28400
C 	C 	0.48810 0.16020 0.46200 0.07200
H 	H 	0.47230 0.19100 0.46400 -0.04800
N 	N 	0.63220 0.20220 0.34970 -0.06800
C 	C 	0.60050 0.18360 0.37230 0.06300
H 	H 	0.56410 0.16290 0.37200 -0.03800
N 	N 	0.63130 0.20060 0.39560 -0.12500
C 	C 	0.68220 0.22960 0.38730 0.05100
H 	H 	0.71140 0.24600 0.39900 -0.01200
N 	N 	0.68270 0.23060 0.35900 -0.09900
Zn	Zn	0.61915 0.19025 0.43578 1.16500
Zn	Zn	0.61849 0.19104 0.31028 1.15800
Zn	Zn	0.37236 0.12174 0.25242 1.17200
C 	C 	0.60740 0.27970 0.47120 0.13800
H 	H 	0.56620 0.27140 0.47900 -0.03600
N 	N 	0.64220 0.25420 0.45330 -0.14900
N 	N 	0.69750 0.27770 0.44710 -0.12000
C 	C 	0.69690 0.31780 0.46120 0.01900
H 	H 	0.72990 0.34110 0.46080 -0.01100
N 	N 	0.64120 0.31900 0.47610 -0.19100
N 	N 	0.64080 0.19380 0.35060 -0.17100
C 	C 	0.60150 0.19420 0.37330 -0.00700
H 	H 	0.55470 0.19510 0.37340 -0.03500
N 	N 	0.64150 0.19300 0.39580 -0.15000
C 	C 	0.70550 0.19190 0.38700 -0.00500
H 	H 	0.74350 0.19100 0.39830 0.00100
N 	N 	0.70510 0.19240 0.35910 -0.08800
C 	C 	0.62570 0.27210 0.50480 -0.00800
H 	H 	0.62620 0.27600 0.52400 0.00100
N 	N 	0.62450 0.23020 0.49110 -0.11200
N 	N 	0.62420 0.23950 0.46340 -0.19000
C 	C 	0.62530 0.28710 0.46000 0.11400
H 	H 	0.62540 0.30310 0.44310 -0.03100
N 	N 	0.62630 0.30720 0.48560 -0.16800
C 	C 	0.37490 0.70840 0.71208 0.09500
H 	H 	0.37600 0.69370 0.69480 -0.05800
N 	N 	0.37340 0.68670 0.73678 -0.30200
C 	C 	0.37200 0.71990 0.75655 0.06700
H 	H 	0.37080 0.71460 0.77570 -0.04100
N 	N 	0.37260 0.76220 0.74410 -0.12200
N 	N 	0.37440 0.75510 0.71660 -0.26400
N 	N 	0.54440 0.64660 0.79870 -0.26600
N 	N 	0.55060 0.59950 0.79660 -0.24600
C 	C 	0.49710 0.58310 0.78250 0.07900
H 	H 	0.48860 0.55160 0.77810 -0.03600
N 	N 	0.45790 0.62020 0.77600 -0.28700
C 	C 	0.48720 0.65940 0.78600 0.07100
H 	H 	0.47070 0.69010 0.78440 -0.05200
N 	N 	0.54490 0.64720 0.94860 -0.26600
N 	N 	0.55020 0.59960 0.95020 -0.24400
C 	C 	0.49670 0.58330 0.96450 0.08200
H 	H 	0.48780 0.55170 0.96870 -0.01900
N 	N 	0.45830 0.62070 0.97180 -0.28400
C 	C 	0.48810 0.66020 0.96200 0.07200
H 	H 	0.47230 0.69100 0.96400 -0.04800
N 	N 	0.63220 0.70220 0.84970 -0.06800
C 	C 	0.60050 0.68360 0.87230 0.06300
H 	H 	0.56410 0.66290 0.87200 -0.03800
N 	N 	0.63130 0.70060 0.89560 -0.12500
C 	C 	0.68220 0.72960 0.88730 0.05100
H 	H 	0.71140 0.74600 0.89900 -0.01200
N 	N 	0.68270 0.73060 0.85900 -0.09900
Zn	Zn	0.61915 0.69025 0.93578 1.16500
Zn	Zn	0.61849 0.69104 0.81028 1.15800
Zn	Zn	0.37236 0.62174 0.75242 1.17200
C 	C 	0.60740 0.77970 0.97120 0.13800
H 	H 	0.56620 0.77140 0.97900 -0.03600
N 	N 	0.64220 0.75420 0.95330 -0.14900
N 	N 	0.69750 0.77770 0.94710 -0.12000
C 	C 	0.69690 0.81780 0.96120 0.01900
H 	H 	0.72990 0.84110 0.96080 -0.01100
N 	N 	0.64120 0.81900 0.97610 -0.19100
N 	N 	0.64080 0.69380 0.85060 -0.17100
C 	C 	0.60150 0.69420 0.87330 -0.00700
H 	H 	0.55470 0.69510 0.87340 -0.03500
N 	N 	0.64150 0.69300 0.89580 -0.15000
C 	C 	0.70550 0.69190 0.88700 -0.00500
H 	H 	0.74350 0.69100 0.89830 0.00100
N 	N 	0.70510 0.69240 0.85910 -0.08800
C 	C 	0.62570 0.77210 0.00480 -0.00800
H 	H 	0.62620 0.77600 0.02400 0.00100
N 	N 	0.62450 0.73020 0.99110 -0.11200
N 	N 	0.62420 0.73950 0.96340 -0.19000
C 	C 	0.62530 0.78710 0.96000 0.11400
H 	H 	0.62540 0.80310 0.94310 -0.03100
N 	N 	0.62630 0.80720 0.98560 -0.16800
C 	C 	0.87490 0.04160 0.53792 0.09400
H 	H 	0.87600 0.05630 0.55520 -0.05800
N 	N 	0.87340 0.06330 0.51322 -0.30200
C 	C 	0.87200 0.03010 0.49345 0.06700
H 	H 	0.87080 0.03540 0.47430 -0.04100
N 	N 	0.87260 0.98780 0.50590 -0.12200
N 	N 	0.87440 0.99490 0.53340 -0.26400
N 	N 	0.04440 0.10340 0.45130 -0.26600
N 	N 	0.05060 0.15050 0.45340 -0.24600
C 	C 	0.99710 0.16690 0.46750 0.07900
H 	H 	0.98860 0.19840 0.47190 -0.03600
N 	N 	0.95790 0.12980 0.47400 -0.28700
C 	C 	0.98720 0.09060 0.46400 0.07100
H 	H 	0.97070 0.05990 0.46560 -0.05200
N 	N 	0.04490 0.10280 0.30140 -0.26600
N 	N 	0.05020 0.15040 0.29980 -0.24400
C 	C 	0.99670 0.16670 0.28550 0.08200
H 	H 	0.98780 0.19830 0.28130 -0.01900
N 	N 	0.95830 0.12930 0.27820 -0.28400
C 	C 	0.98810 0.08980 0.28800 0.07200
H 	H 	0.97230 0.05900 0.28600 -0.04800
N 	N 	0.13220 0.04780 0.40030 -0.06800
C 	C 	0.10050 0.06640 0.37770 0.06300
H 	H 	0.06410 0.08710 0.37800 -0.03800
N 	N 	0.13130 0.04940 0.35440 -0.12500
C 	C 	0.18220 0.02040 0.36270 0.05100
H 	H 	0.21140 0.00400 0.35100 -0.01200
N 	N 	0.18270 0.01940 0.39100 -0.09900
Zn	Zn	0.11915 0.05975 0.31422 1.16400
Zn	Zn	0.11849 0.05896 0.43972 1.15800
Zn	Zn	0.87236 0.12826 0.49758 1.17100
C 	C 	0.10740 0.97030 0.27880 0.13800
H 	H 	0.06620 0.97860 0.27100 -0.03600
N 	N 	0.14220 0.99580 0.29670 -0.14900
N 	N 	0.19750 0.97230 0.30290 -0.12000
C 	C 	0.19690 0.93220 0.28880 0.01900
H 	H 	0.22990 0.90890 0.28920 -0.01100
N 	N 	0.14120 0.93100 0.27390 -0.19100
N 	N 	0.14080 0.05620 0.39940 -0.17100
C 	C 	0.10150 0.05580 0.37670 -0.00700
H 	H 	0.05470 0.05490 0.37660 -0.03500
N 	N 	0.14150 0.05700 0.35420 -0.15000
C 	C 	0.20550 0.05810 0.36300 -0.00500
H 	H 	0.24350 0.05900 0.35170 0.00100
N 	N 	0.20510 0.05760 0.39090 -0.08800
C 	C 	0.12570 0.97790 0.24520 -0.00800
H 	H 	0.12620 0.97400 0.22600 0.00100
N 	N 	0.12450 0.01980 0.25890 -0.11200
N 	N 	0.12420 0.01050 0.28660 -0.19000
C 	C 	0.12530 0.96290 0.29000 0.11400
H 	H 	0.12540 0.94690 0.30690 -0.03100
N 	N 	0.12630 0.94280 0.26440 -0.16800
C 	C 	0.87490 0.54160 0.03792 0.09500
H 	H 	0.87600 0.55630 0.05520 -0.05800
N 	N 	0.87340 0.56330 0.01322 -0.30200
C 	C 	0.87200 0.53010 0.99345 0.06700
H 	H 	0.87080 0.53540 0.97430 -0.04100
N 	N 	0.87260 0.48780 0.00590 -0.12200
N 	N 	0.87440 0.49490 0.03340 -0.26400
N 	N 	0.04440 0.60340 0.95130 -0.26600
N 	N 	0.05060 0.65050 0.95340 -0.24600
C 	C 	0.99710 0.66690 0.96750 0.07900
H 	H 	0.98860 0.69840 0.97190 -0.03600
N 	N 	0.95790 0.62980 0.97400 -0.28700
C 	C 	0.98720 0.59060 0.96400 0.07100
H 	H 	0.97070 0.55990 0.96560 -0.05200
N 	N 	0.04490 0.60280 0.80140 -0.26600
N 	N 	0.05020 0.65040 0.79980 -0.24400
C 	C 	0.99670 0.66670 0.78550 0.08200
H 	H 	0.98780 0.69830 0.78130 -0.01900
N 	N 	0.95830 0.62930 0.77820 -0.28400
C 	C 	0.98810 0.58980 0.78800 0.07200
H 	H 	0.97230 0.55900 0.78600 -0.04800
N 	N 	0.13220 0.54780 0.90030 -0.06800
C 	C 	0.10050 0.56640 0.87770 0.06300
H 	H 	0.06410 0.58710 0.87800 -0.03800
N 	N 	0.13130 0.54940 0.85440 -0.12500
C 	C 	0.18220 0.52040 0.86270 0.05100
H 	H 	0.21140 0.50400 0.85100 -0.01200
N 	N 	0.18270 0.51940 0.89100 -0.09900
Zn	Zn	0.11915 0.55975 0.81422 1.16400
Zn	Zn	0.11849 0.55896 0.93972 1.15800
Zn	Zn	0.87236 0.62826 0.99758 1.17100
C 	C 	0.10740 0.47030 0.77880 0.13800
H 	H 	0.06620 0.47860 0.77100 -0.03600
N 	N 	0.14220 0.49580 0.79670 -0.14900
N 	N 	0.19750 0.47230 0.80290 -0.12000
C 	C 	0.19690 0.43220 0.78880 0.01900
H 	H 	0.22990 0.40890 0.78920 -0.01100
N 	N 	0.14120 0.43100 0.77390 -0.19100
N 	N 	0.14080 0.55620 0.89940 -0.17100
C 	C 	0.10150 0.55580 0.87670 -0.00700
H 	H 	0.05470 0.55490 0.87660 -0.03500
N 	N 	0.14150 0.55700 0.85420 -0.15000
C 	C 	0.20550 0.55810 0.86300 -0.00500
H 	H 	0.24350 0.55900 0.85170 0.00100
N 	N 	0.20510 0.55760 0.89090 -0.08800
C 	C 	0.12570 0.47790 0.74520 -0.00800
H 	H 	0.12620 0.47400 0.72600 0.00100
N 	N 	0.12450 0.51980 0.75890 -0.11200
N 	N 	0.12420 0.51050 0.78660 -0.19000
C 	C 	0.12530 0.46290 0.79000 0.11400
H 	H 	0.12540 0.44690 0.80690 -0.03100
N 	N 	0.12630 0.44280 0.76440 -0.16800
C 	C 	0.37490 0.04160 0.03792 0.09500
H 	H 	0.37600 0.05630 0.05520 -0.05800
N 	N 	0.37340 0.06330 0.01322 -0.30200
C 	C 	0.37200 0.03010 0.99345 0.06700
H 	H 	0.37080 0.03540 0.97430 -0.04100
N 	N 	0.37260 0.98780 0.00590 -0.12200
N 	N 	0.37440 0.99490 0.03340 -0.26400
N 	N 	0.54440 0.10340 0.95130 -0.26600
N 	N 	0.55060 0.15050 0.95340 -0.24600
C 	C 	0.49710 0.16690 0.96750 0.07900
H 	H 	0.48860 0.19840 0.97190 -0.03600
N 	N 	0.45790 0.12980 0.97400 -0.28700
C 	C 	0.48720 0.09060 0.96400 0.07100
H 	H 	0.47070 0.05990 0.96560 -0.05200
N 	N 	0.54490 0.10280 0.80140 -0.26600
N 	N 	0.55020 0.15040 0.79980 -0.24400
C 	C 	0.49670 0.16670 0.78550 0.08200
H 	H 	0.48780 0.19830 0.78130 -0.01900
N 	N 	0.45830 0.12930 0.77820 -0.28400
C 	C 	0.48810 0.08980 0.78800 0.07200
H 	H 	0.47230 0.05900 0.78600 -0.04800
N 	N 	0.63220 0.04780 0.90030 -0.06800
C 	C 	0.60050 0.06640 0.87770 0.06300
H 	H 	0.56410 0.08710 0.87800 -0.03800
N 	N 	0.63130 0.04940 0.85440 -0.12500
C 	C 	0.68220 0.02040 0.86270 0.05100
H 	H 	0.71140 0.00400 0.85100 -0.01200
N 	N 	0.68270 0.01940 0.89100 -0.09900
Zn	Zn	0.61915 0.05975 0.81422 1.16400
Zn	Zn	0.61849 0.05896 0.93972 1.15800
Zn	Zn	0.37236 0.12826 0.99758 1.17200
C 	C 	0.60740 0.97030 0.77880 0.13800
H 	H 	0.56620 0.97860 0.77100 -0.03600
N 	N 	0.64220 0.99580 0.79670 -0.14900
N 	N 	0.69750 0.97230 0.80290 -0.12000
C 	C 	0.69690 0.93220 0.78880 0.01900
H 	H 	0.72990 0.90890 0.78920 -0.01100
N 	N 	0.64120 0.93100 0.77390 -0.19100
N 	N 	0.64080 0.05620 0.89940 -0.17100
C 	C 	0.60150 0.05580 0.87670 -0.00700
H 	H 	0.55470 0.05490 0.87660 -0.03500
N 	N 	0.64150 0.05700 0.85420 -0.15000
C 	C 	0.70550 0.05810 0.86300 -0.00500
H 	H 	0.74350 0.05900 0.85170 0.00100
N 	N 	0.70510 0.05760 0.89090 -0.08800
C 	C 	0.62570 0.97790 0.74520 -0.00800
H 	H 	0.62620 0.97400 0.72600 0.00100
N 	N 	0.62450 0.01980 0.75890 -0.11200
N 	N 	0.62420 0.01050 0.78660 -0.19000
C 	C 	0.62530 0.96290 0.79000 0.11400
H 	H 	0.62540 0.94690 0.80690 -0.03100
N 	N 	0.62630 0.94280 0.76440 -0.16800
C 	C 	0.37490 0.54160 0.53792 0.09500
H 	H 	0.37600 0.55630 0.55520 -0.05800
N 	N 	0.37340 0.56330 0.51322 -0.30200
C 	C 	0.37200 0.53010 0.49345 0.06700
H 	H 	0.37080 0.53540 0.47430 -0.04100
N 	N 	0.37260 0.48780 0.50590 -0.12200
N 	N 	0.37440 0.49490 0.53340 -0.26400
N 	N 	0.54440 0.60340 0.45130 -0.26600
N 	N 	0.55060 0.65050 0.45340 -0.24600
C 	C 	0.49710 0.66690 0.46750 0.07900
H 	H 	0.48860 0.69840 0.47190 -0.03600
N 	N 	0.45790 0.62980 0.47400 -0.28700
C 	C 	0.48720 0.59060 0.46400 0.07100
H 	H 	0.47070 0.55990 0.46560 -0.05200
N 	N 	0.54490 0.60280 0.30140 -0.26600
N 	N 	0.55020 0.65040 0.29980 -0.24400
C 	C 	0.49670 0.66670 0.28550 0.08200
H 	H 	0.48780 0.69830 0.28130 -0.01900
N 	N 	0.45830 0.62930 0.27820 -0.28400
C 	C 	0.48810 0.58980 0.28800 0.07200
H 	H 	0.47230 0.55900 0.28600 -0.04800
N 	N 	0.63220 0.54780 0.40030 -0.06800
C 	C 	0.60050 0.56640 0.37770 0.06300
H 	H 	0.56410 0.58710 0.37800 -0.03800
N 	N 	0.63130 0.54940 0.35440 -0.12500
C 	C 	0.68220 0.52040 0.36270 0.05100
H 	H 	0.71140 0.50400 0.35100 -0.01200
N 	N 	0.68270 0.51940 0.39100 -0.09900
Zn	Zn	0.61915 0.55975 0.31422 1.16500
Zn	Zn	0.61849 0.55896 0.43972 1.15800
Zn	Zn	0.37236 0.62826 0.49758 1.17200
C 	C 	0.60740 0.47030 0.27880 0.13800
H 	H 	0.56620 0.47860 0.27100 -0.03600
N 	N 	0.64220 0.49580 0.29670 -0.14900
N 	N 	0.69750 0.47230 0.30290 -0.12000
C 	C 	0.69690 0.43220 0.28880 0.01900
H 	H 	0.72990 0.40890 0.28920 -0.01100
N 	N 	0.64120 0.43100 0.27390 -0.19100
N 	N 	0.64080 0.55620 0.39940 -0.17100
C 	C 	0.60150 0.55580 0.37670 -0.00700
H 	H 	0.55470 0.55490 0.37660 -0.03500
N 	N 	0.64150 0.55700 0.35420 -0.15000
C 	C 	0.70550 0.55810 0.36300 -0.00500
H 	H 	0.74350 0.55900 0.35170 0.00100
N 	N 	0.70510 0.55760 0.39090 -0.08800
C 	C 	0.62570 0.47790 0.24520 -0.00800
H 	H 	0.62620 0.47400 0.22600 0.00100
N 	N 	0.62450 0.51980 0.25890 -0.11200
N 	N 	0.62420 0.51050 0.28660 -0.19000
C 	C 	0.62530 0.46290 0.29000 0.11400
H 	H 	0.62540 0.44690 0.30690 -0.03100
N 	N 	0.62630 0.44280 0.26440 -0.16800
C 	C 	0.37510 0.20840 0.53792 0.09500
H 	H 	0.37400 0.19370 0.55520 -0.05800
N 	N 	0.37660 0.18670 0.51322 -0.30200
C 	C 	0.37800 0.21990 0.49345 0.06700
H 	H 	0.37920 0.21460 0.47430 -0.04100
N 	N 	0.37740 0.26220 0.50590 -0.12200
N 	N 	0.37560 0.25510 0.53340 -0.26400
N 	N 	0.20560 0.14660 0.45130 -0.26600
N 	N 	0.19940 0.09950 0.45340 -0.24600
C 	C 	0.25290 0.08310 0.46750 0.07900
H 	H 	0.26140 0.05160 0.47190 -0.03600
N 	N 	0.29210 0.12020 0.47400 -0.28700
C 	C 	0.26280 0.15940 0.46400 0.07100
H 	H 	0.27930 0.19010 0.46560 -0.05200
N 	N 	0.20510 0.14720 0.30140 -0.26600
N 	N 	0.19980 0.09960 0.29980 -0.24400
C 	C 	0.25330 0.08330 0.28550 0.08200
H 	H 	0.26220 0.05170 0.28130 -0.01900
N 	N 	0.29170 0.12070 0.27820 -0.28400
C 	C 	0.26190 0.16020 0.28800 0.07200
H 	H 	0.27770 0.19100 0.28600 -0.04800
N 	N 	0.11780 0.20220 0.40030 -0.06800
C 	C 	0.14950 0.18360 0.37770 0.06300
H 	H 	0.18590 0.16290 0.37800 -0.03800
N 	N 	0.11870 0.20060 0.35440 -0.12500
C 	C 	0.06780 0.22960 0.36270 0.05100
H 	H 	0.03860 0.24600 0.35100 -0.01200
N 	N 	0.06730 0.23060 0.39100 -0.09900
Zn	Zn	0.13085 0.19025 0.31422 1.16500
Zn	Zn	0.13151 0.19104 0.43972 1.15800
Zn	Zn	0.37764 0.12174 0.49758 1.17200
C 	C 	0.14260 0.27970 0.27880 0.13800
H 	H 	0.18380 0.27140 0.27100 -0.03600
N 	N 	0.10780 0.25420 0.29670 -0.14900
N 	N 	0.05250 0.27770 0.30290 -0.12000
C 	C 	0.05310 0.31780 0.28880 0.01900
H 	H 	0.02010 0.34110 0.28920 -0.01100
N 	N 	0.10880 0.31900 0.27390 -0.19100
N 	N 	0.10920 0.19380 0.39940 -0.17100
C 	C 	0.14850 0.19420 0.37670 -0.00700
H 	H 	0.19530 0.19510 0.37660 -0.03500
N 	N 	0.10850 0.19300 0.35420 -0.15000
C 	C 	0.04450 0.19190 0.36300 -0.00500
H 	H 	0.00650 0.19100 0.35170 0.00100
N 	N 	0.04490 0.19240 0.39090 -0.08800
C 	C 	0.12430 0.27210 0.24520 -0.00800
H 	H 	0.12380 0.27600 0.22600 0.00100
N 	N 	0.12550 0.23020 0.25890 -0.11200
N 	N 	0.12580 0.23950 0.28660 -0.19000
C 	C 	0.12470 0.28710 0.29000 0.11400
H 	H 	0.12460 0.30310 0.30690 -0.03100
N 	N 	0.12370 0.30720 0.26440 -0.16800
C 	C 	0.37510 0.70840 0.03792 0.09500
H 	H 	0.37400 0.69370 0.05520 -0.05800
N 	N 	0.37660 0.68670 0.01322 -0.30200
C 	C 	0.37800 0.71990 0.99345 0.06700
H 	H 	0.37920 0.71460 0.97430 -0.04100
N 	N 	0.37740 0.76220 0.00590 -0.12200
N 	N 	0.37560 0.75510 0.03340 -0.26400
N 	N 	0.20560 0.64660 0.95130 -0.26600
N 	N 	0.19940 0.59950 0.95340 -0.24600
C 	C 	0.25290 0.58310 0.96750 0.07900
H 	H 	0.26140 0.55160 0.97190 -0.03600
N 	N 	0.29210 0.62020 0.97400 -0.28700
C 	C 	0.26280 0.65940 0.96400 0.07100
H 	H 	0.27930 0.69010 0.96560 -0.05200
N 	N 	0.20510 0.64720 0.80140 -0.26600
N 	N 	0.19980 0.59960 0.79980 -0.24400
C 	C 	0.25330 0.58330 0.78550 0.08200
H 	H 	0.26220 0.55170 0.78130 -0.01900
N 	N 	0.29170 0.62070 0.77820 -0.28400
C 	C 	0.26190 0.66020 0.78800 0.07200
H 	H 	0.27770 0.69100 0.78600 -0.04800
N 	N 	0.11780 0.70220 0.90030 -0.06800
C 	C 	0.14950 0.68360 0.87770 0.06300
H 	H 	0.18590 0.66290 0.87800 -0.03800
N 	N 	0.11870 0.70060 0.85440 -0.12500
C 	C 	0.06780 0.72960 0.86270 0.05100
H 	H 	0.03860 0.74600 0.85100 -0.01200
N 	N 	0.06730 0.73060 0.89100 -0.09900
Zn	Zn	0.13085 0.69025 0.81422 1.16500
Zn	Zn	0.13151 0.69104 0.93972 1.15800
Zn	Zn	0.37764 0.62174 0.99758 1.17200
C 	C 	0.14260 0.77970 0.77880 0.13800
H 	H 	0.18380 0.77140 0.77100 -0.03600
N 	N 	0.10780 0.75420 0.79670 -0.14900
N 	N 	0.05250 0.77770 0.80290 -0.12000
C 	C 	0.05310 0.81780 0.78880 0.01900
H 	H 	0.02010 0.84110 0.78920 -0.01100
N 	N 	0.10880 0.81900 0.77390 -0.19100
N 	N 	0.10920 0.69380 0.89940 -0.17100
C 	C 	0.14850 0.69420 0.87670 -0.00700
H 	H 	0.19530 0.69510 0.87660 -0.03500
N 	N 	0.10850 0.69300 0.85420 -0.15000
C 	C 	0.04450 0.69190 0.86300 -0.00500
H 	H 	0.00650 0.69100 0.85170 0.00100
N 	N 	0.04490 0.69240 0.89090 -0.08800
C 	C 	0.12430 0.77210 0.74520 -0.00800
H 	H 	0.12380 0.77600 0.72600 0.00100
N 	N 	0.12550 0.73020 0.75890 -0.11200
N 	N 	0.12580 0.73950 0.78660 -0.19000
C 	C 	0.12470 0.78710 0.79000 0.11400
H 	H 	0.12460 0.80310 0.80690 -0.03100
N 	N 	0.12370 0.80720 0.76440 -0.16800
C 	C 	0.87510 0.20840 0.03792 0.09500
H 	H 	0.87400 0.19370 0.05520 -0.05800
N 	N 	0.87660 0.18670 0.01322 -0.30200
C 	C 	0.87800 0.21990 0.99345 0.06700
H 	H 	0.87920 0.21460 0.97430 -0.04100
N 	N 	0.87740 0.26220 0.00590 -0.12200
N 	N 	0.87560 0.25510 0.03340 -0.26400
N 	N 	0.70560 0.14660 0.95130 -0.26600
N 	N 	0.69940 0.09950 0.95340 -0.24600
C 	C 	0.75290 0.08310 0.96750 0.07900
H 	H 	0.76140 0.05160 0.97190 -0.03600
N 	N 	0.79210 0.12020 0.97400 -0.28700
C 	C 	0.76280 0.15940 0.96400 0.07100
H 	H 	0.77930 0.19010 0.96560 -0.05200
N 	N 	0.70510 0.14720 0.80140 -0.26600
N 	N 	0.69980 0.09960 0.79980 -0.24400
C 	C 	0.75330 0.08330 0.78550 0.08200
H 	H 	0.76220 0.05170 0.78130 -0.01900
N 	N 	0.79170 0.12070 0.77820 -0.28400
C 	C 	0.76190 0.16020 0.78800 0.07200
H 	H 	0.77770 0.19100 0.78600 -0.04800
N 	N 	0.61780 0.20220 0.90030 -0.06800
C 	C 	0.64950 0.18360 0.87770 0.06300
H 	H 	0.68590 0.16290 0.87800 -0.03800
N 	N 	0.61870 0.20060 0.85440 -0.12500
C 	C 	0.56780 0.22960 0.86270 0.05100
H 	H 	0.53860 0.24600 0.85100 -0.01200
N 	N 	0.56730 0.23060 0.89100 -0.09900
Zn	Zn	0.63085 0.19025 0.81422 1.16500
Zn	Zn	0.63151 0.19104 0.93972 1.15800
Zn	Zn	0.87764 0.12174 0.99758 1.17100
C 	C 	0.64260 0.27970 0.77880 0.13800
H 	H 	0.68380 0.27140 0.77100 -0.03600
N 	N 	0.60780 0.25420 0.79670 -0.14900
N 	N 	0.55250 0.27770 0.80290 -0.12000
C 	C 	0.55310 0.31780 0.78880 0.01900
H 	H 	0.52010 0.34110 0.78920 -0.01100
N 	N 	0.60880 0.31900 0.77390 -0.19100
N 	N 	0.60920 0.19380 0.89940 -0.17100
C 	C 	0.64850 0.19420 0.87670 -0.00700
H 	H 	0.69530 0.19510 0.87660 -0.03500
N 	N 	0.60850 0.19300 0.85420 -0.15000
C 	C 	0.54450 0.19190 0.86300 -0.00500
H 	H 	0.50650 0.19100 0.85170 0.00100
N 	N 	0.54490 0.19240 0.89090 -0.08800
C 	C 	0.62430 0.27210 0.74520 -0.00800
H 	H 	0.62380 0.27600 0.72600 0.00100
N 	N 	0.62550 0.23020 0.75890 -0.11200
N 	N 	0.62580 0.23950 0.78660 -0.19000
C 	C 	0.62470 0.28710 0.79000 0.11400
H 	H 	0.62460 0.30310 0.80690 -0.03100
N 	N 	0.62370 0.30720 0.76440 -0.16800
C 	C 	0.87510 0.70840 0.53792 0.09500
H 	H 	0.87400 0.69370 0.55520 -0.05800
N 	N 	0.87660 0.68670 0.51322 -0.30200
C 	C 	0.87800 0.71990 0.49345 0.06700
H 	H 	0.87920 0.71460 0.47430 -0.04100
N 	N 	0.87740 0.76220 0.50590 -0.12200
N 	N 	0.87560 0.75510 0.53340 -0.26400
N 	N 	0.70560 0.64660 0.45130 -0.26600
N 	N 	0.69940 0.59950 0.45340 -0.24600
C 	C 	0.75290 0.58310 0.46750 0.07900
H 	H 	0.76140 0.55160 0.47190 -0.03600
N 	N 	0.79210 0.62020 0.47400 -0.28700
C 	C 	0.76280 0.65940 0.46400 0.07100
H 	H 	0.77930 0.69010 0.46560 -0.05200
N 	N 	0.70510 0.64720 0.30140 -0.26600
N 	N 	0.69980 0.59960 0.29980 -0.24400
C 	C 	0.75330 0.58330 0.28550 0.08200
H 	H 	0.76220 0.55170 0.28130 -0.01900
N 	N 	0.79170 0.62070 0.27820 -0.28400
C 	C 	0.76190 0.66020 0.28800 0.07200
H 	H 	0.77770 0.69100 0.28600 -0.04800
N 	N 	0.61780 0.70220 0.40030 -0.06800
C 	C 	0.64950 0.68360 0.37770 0.06300
H 	H 	0.68590 0.66290 0.37800 -0.03800
N 	N 	0.61870 0.70060 0.35440 -0.12500
C 	C 	0.56780 0.72960 0.36270 0.05100
H 	H 	0.53860 0.74600 0.35100 -0.01200
N 	N 	0.56730 0.73060 0.39100 -0.09900
Zn	Zn	0.63085 0.69025 0.31422 1.16500
Zn	Zn	0.63151 0.69104 0.43972 1.15800
Zn	Zn	0.87764 0.62174 0.49758 1.17100
C 	C 	0.64260 0.77970 0.27880 0.13800
H 	H 	0.68380 0.77140 0.27100 -0.03600
N 	N 	0.60780 0.75420 0.29670 -0.14900
N 	N 	0.55250 0.77770 0.30290 -0.12000
C 	C 	0.55310 0.81780 0.28880 0.01900
H 	H 	0.52010 0.84110 0.28920 -0.01100
N 	N 	0.60880 0.81900 0.27390 -0.19100
N 	N 	0.60920 0.69380 0.39940 -0.17100
C 	C 	0.64850 0.69420 0.37670 -0.00700
H 	H 	0.69530 0.69510 0.37660 -0.03500
N 	N 	0.60850 0.69300 0.35420 -0.15000
C 	C 	0.54450 0.69190 0.36300 -0.00500
H 	H 	0.50650 0.69100 0.35170 0.00100
N 	N 	0.54490 0.69240 0.39090 -0.08800
C 	C 	0.62430 0.77210 0.24520 -0.00800
H 	H 	0.62380 0.77600 0.22600 0.00100
N 	N 	0.62550 0.73020 0.25890 -0.11200
N 	N 	0.62580 0.73950 0.28660 -0.19000
C 	C 	0.62470 0.78710 0.29000 0.11400
H 	H 	0.62460 0.80310 0.30690 -0.03100
N 	N 	0.62370 0.80720 0.26440 -0.16800
