data_crystal

_cell_length_a 6.96000
_cell_length_b 7.71800
_cell_length_c 9.69300
_cell_angle_alpha 90.61000
_cell_angle_beta  91.72000
_cell_angle_gamma 90.17000

_symmetry_space_group_name_	'P 1'
_symmetry_space_group_name_H-M	'P 1'

loop_
_symmetry_equiv_pos_as_xyz
  x,y,z

loop_
_atom_site_label
_atom_site_type_symbol
_atom_site_fract_x
_atom_site_fract_y
_atom_site_fract_z
_atom_site_charge
Cd	Cd	-0.00000 0.00000 -0.00000 1.05900
Ni	Ni	0.50000 0.50000 -0.00000 0.95900
H 	H 	0.95900 0.91055 0.28026 0.09200
H 	H 	0.66301 0.80924 0.20662 -0.03000
H 	H 	0.59519 0.02472 0.15713 -0.08400
H 	H 	0.81172 0.84808 0.48980 0.07300
H 	H 	0.34669 0.11192 0.28713 0.01800
H 	H 	0.04100 0.08945 0.71974 0.03300
H 	H 	0.33699 0.19076 0.79338 0.05100
H 	H 	0.40481 0.97528 0.84287 0.11600
H 	H 	0.18828 0.15192 0.51020 -0.01200
H 	H 	0.65331 0.88808 0.71287 0.03100
C 	C 	0.68960 0.66030 0.95820 -0.06700
C 	C 	0.33560 0.68270 0.03260 -0.36400
C 	C 	0.67710 0.94770 0.23330 0.00400
C 	C 	0.58880 0.97650 0.37340 0.11200
C 	C 	0.67550 0.91430 0.49350 -0.09900
C 	C 	0.41420 0.06240 0.38040 -0.17600
C 	C 	0.31040 0.33970 0.04180 -0.37200
C 	C 	0.66440 0.31730 0.96740 -0.07500
C 	C 	0.32290 0.05230 0.76670 -0.10700
C 	C 	0.41120 0.02350 0.62660 -0.07500
C 	C 	0.32450 0.08570 0.50650 -0.00200
C 	C 	0.58580 0.93760 0.61960 0.06400
N 	N 	0.80170 0.76340 0.93700 -0.10700
N 	N 	0.23690 0.79800 0.05130 -0.20900
N 	N 	0.88160 0.99580 0.22530 -0.23300
N 	N 	0.19830 0.23660 0.06300 -0.23500
N 	N 	0.76310 0.20200 0.94870 -0.13100
N 	N 	0.11840 0.00420 0.77470 -0.23400
