data_crystal

_cell_length_a 9.31280
_cell_length_b 9.32270
_cell_length_c 9.34970
_cell_angle_alpha 103.17000
_cell_angle_beta  93.60000
_cell_angle_gamma 90.14000

_symmetry_space_group_name_	'P 1'
_symmetry_space_group_name_H-M	'P 1'

loop_
_symmetry_equiv_pos_as_xyz
  x,y,z

loop_
_atom_site_label
_atom_site_type_symbol
_atom_site_fract_x
_atom_site_fract_y
_atom_site_fract_z
_atom_site_charge
Ga	Ga	0.43464 0.13698 0.58999 2.10200
Ga	Ga	0.84181 0.37514 0.57661 2.08100
Ga	Ga	0.61302 0.39625 0.16493 2.08000
P 	P 	0.35546 0.83302 0.64834 0.63500
P 	P 	0.18078 0.37569 0.59385 0.72300
P 	P 	0.62255 0.37697 0.82798 0.70900
O 	O 	0.38770 0.78460 0.79470 -0.60700
O 	O 	0.46330 0.76470 0.53690 -0.62200
O 	O 	0.20370 0.76980 0.58620 -0.63700
O 	O 	0.34960 0.99960 0.68840 -0.49600
O 	O 	0.25950 0.23310 0.56380 -0.56200
O 	O 	0.17520 0.44090 0.45640 -0.69600
O 	O 	0.02730 0.34340 0.62890 -0.62600
O 	O 	0.24590 0.48820 0.72700 -0.71000
O 	O 	0.50340 0.26550 0.77070 -0.61800
O 	O 	0.75450 0.35360 0.73740 -0.63600
O 	O 	0.56700 0.53260 0.83550 -0.70300
O 	O 	0.67870 0.36410 0.98140 -0.61300
F 	F 	0.39000 0.98300 0.40930 -0.80300
Ga	Ga	0.56536 0.86302 0.41001 2.10100
Ga	Ga	0.15819 0.62486 0.42339 2.08000
Ga	Ga	0.38698 0.60375 0.83507 2.08000
P 	P 	0.64454 0.16698 0.35166 0.63500
P 	P 	0.81922 0.62431 0.40615 0.72300
P 	P 	0.37745 0.62303 0.17202 0.70900
O 	O 	0.61230 0.21540 0.20530 -0.60700
O 	O 	0.53670 0.23530 0.46310 -0.62200
O 	O 	0.79630 0.23020 0.41380 -0.63700
O 	O 	0.65040 0.00040 0.31160 -0.49600
O 	O 	0.74050 0.76690 0.43620 -0.56200
O 	O 	0.82480 0.55910 0.54360 -0.69600
O 	O 	0.97270 0.65660 0.37110 -0.62600
O 	O 	0.75410 0.51180 0.27300 -0.71000
O 	O 	0.49660 0.73450 0.22930 -0.61800
O 	O 	0.24550 0.64640 0.26260 -0.63600
O 	O 	0.43300 0.46740 0.16450 -0.70300
O 	O 	0.32130 0.63590 0.01860 -0.61300
F 	F 	0.61000 0.01700 0.59070 -0.80300
