data_crystal

_cell_length_a 29.31100
_cell_length_b 29.31100
_cell_length_c 29.31100
_cell_angle_alpha 90.00000
_cell_angle_beta  90.00000
_cell_angle_gamma 90.00000

_symmetry_space_group_name_	'P 1'
_symmetry_space_group_name_H-M	'P 1'

loop_
_symmetry_equiv_pos_as_xyz
  x,y,z

loop_
_atom_site_label
_atom_site_type_symbol
_atom_site_fract_x
_atom_site_fract_y
_atom_site_fract_z
_atom_site_charge
Yb	Yb	0.14433 0.24537 0.18293 1.52200
N 	N 	0.10760 0.24980 0.81320 -0.14800
O 	O 	0.81940 0.25010 0.78020 -0.46800
O 	O 	0.81521 0.29250 0.84260 -0.45200
O 	O 	0.14366 0.24390 0.10805 -0.49900
O 	O 	0.20330 0.20330 0.08211 -0.48300
O 	O 	0.22326 0.24900 0.17526 -0.77100
H 	H 	0.23210 0.27210 0.16000 0.27300
C 	C 	0.84070 0.26280 0.81620 0.38100
C 	C 	0.88720 0.26640 0.81950 -0.21500
C 	C 	0.91410 0.24260 0.78800 0.10900
H 	H 	0.90080 0.23110 0.76160 -0.00500
C 	C 	0.96180 0.23580 0.79580 -0.18400
H 	H 	0.97910 0.21890 0.77530 0.09100
C 	C 	0.98140 0.25420 0.83330 0.13100
C 	C 	0.95410 0.27690 0.86400 -0.19600
H 	H 	0.96720 0.28850 0.89040 0.09600
C 	C 	0.90760 0.28310 0.85700 0.13400
H 	H 	0.89050 0.29900 0.87850 -0.01400
C 	C 	0.06220 0.25290 0.80920 0.03200
H 	H 	0.05080 0.25800 0.78000 0.01800
C 	C 	0.03030 0.24940 0.84420 -0.06000
C 	C 	0.04780 0.24500 0.88730 -0.01700
H 	H 	0.02820 0.24430 0.91220 0.03300
C 	C 	0.09390 0.24170 0.89430 -0.04800
C 	C 	0.12280 0.24460 0.85750 0.02000
H 	H 	0.15400 0.24280 0.86270 0.02100
C 	C 	0.16640 0.22430 0.07810 0.42400
C 	C 	0.14870 0.22820 0.02920 -0.16800
C 	C 	0.17200 0.21050 0.99130 0.09500
H 	H 	0.19990 0.19590 0.99550 0.00000
C 	C 	0.15440 0.21460 0.94840 -0.17300
H 	H 	0.17040 0.20250 0.92380 0.08700
C 	C 	0.11360 0.23630 0.94080 0.11200
C 	C 	0.09050 0.25510 0.97660 -0.16900
H 	H 	0.06410 0.27200 0.97170 0.08500
C 	C 	0.10760 0.24850 0.02120 0.08900
H 	H 	0.09020 0.25820 0.04590 0.00300
Yb	Yb	0.35567 0.75463 0.68293 1.52100
N 	N 	0.39240 0.75020 0.31320 -0.14900
O 	O 	0.68060 0.74990 0.28020 -0.46900
O 	O 	0.68479 0.70750 0.34260 -0.45300
O 	O 	0.35634 0.75610 0.60805 -0.50000
O 	O 	0.29670 0.79670 0.58211 -0.48400
O 	O 	0.27674 0.75100 0.67526 -0.77200
H 	H 	0.26790 0.72790 0.66000 0.27200
C 	C 	0.65930 0.73720 0.31620 0.38000
C 	C 	0.61280 0.73360 0.31950 -0.21600
C 	C 	0.58590 0.75740 0.28800 0.10800
H 	H 	0.59920 0.76890 0.26160 -0.00600
C 	C 	0.53820 0.76420 0.29580 -0.18600
H 	H 	0.52090 0.78110 0.27530 0.09000
C 	C 	0.51860 0.74580 0.33330 0.13000
C 	C 	0.54590 0.72310 0.36400 -0.19700
H 	H 	0.53280 0.71150 0.39040 0.09500
C 	C 	0.59240 0.71690 0.35700 0.13300
H 	H 	0.60950 0.70100 0.37850 -0.01500
C 	C 	0.43780 0.74710 0.30920 0.03100
H 	H 	0.44920 0.74200 0.28000 0.01700
C 	C 	0.46970 0.75060 0.34420 -0.06100
C 	C 	0.45220 0.75500 0.38730 -0.01800
H 	H 	0.47180 0.75570 0.41220 0.03200
C 	C 	0.40610 0.75830 0.39430 -0.04900
C 	C 	0.37720 0.75540 0.35750 0.01900
H 	H 	0.34600 0.75720 0.36270 0.02000
C 	C 	0.33360 0.77570 0.57810 0.42300
C 	C 	0.35130 0.77180 0.52920 -0.16800
C 	C 	0.32800 0.78950 0.49130 0.09500
H 	H 	0.30010 0.80410 0.49550 0.00000
C 	C 	0.34560 0.78540 0.44840 -0.17300
H 	H 	0.32960 0.79750 0.42380 0.08700
C 	C 	0.38640 0.76370 0.44080 0.11200
C 	C 	0.40950 0.74490 0.47660 -0.16900
H 	H 	0.43590 0.72800 0.47170 0.08500
C 	C 	0.39240 0.75150 0.52120 0.08900
H 	H 	0.40980 0.74180 0.54590 0.00300
Yb	Yb	0.85567 0.74537 0.31707 1.52100
N 	N 	0.89240 0.74980 0.68680 -0.14900
O 	O 	0.18060 0.75010 0.71980 -0.46900
O 	O 	0.18479 0.79250 0.65740 -0.45300
O 	O 	0.85634 0.74390 0.39195 -0.50000
O 	O 	0.79670 0.70330 0.41789 -0.48400
O 	O 	0.77674 0.74900 0.32474 -0.77200
H 	H 	0.76790 0.77210 0.34000 0.27200
C 	C 	0.15930 0.76280 0.68380 0.38000
C 	C 	0.11280 0.76640 0.68050 -0.21600
C 	C 	0.08590 0.74260 0.71200 0.10800
H 	H 	0.09920 0.73110 0.73840 -0.00600
C 	C 	0.03820 0.73580 0.70420 -0.18500
H 	H 	0.02090 0.71890 0.72470 0.09000
C 	C 	0.01860 0.75420 0.66670 0.13000
C 	C 	0.04590 0.77690 0.63600 -0.19700
H 	H 	0.03280 0.78850 0.60960 0.09500
C 	C 	0.09240 0.78310 0.64300 0.13300
H 	H 	0.10950 0.79900 0.62150 -0.01500
C 	C 	0.93780 0.75290 0.69080 0.03100
H 	H 	0.94920 0.75800 0.72000 0.01700
C 	C 	0.96970 0.74940 0.65580 -0.06100
C 	C 	0.95220 0.74500 0.61270 -0.01800
H 	H 	0.97180 0.74430 0.58780 0.03200
C 	C 	0.90610 0.74170 0.60570 -0.04900
C 	C 	0.87720 0.74460 0.64250 0.01900
H 	H 	0.84600 0.74280 0.63730 0.02000
C 	C 	0.83360 0.72430 0.42190 0.42300
C 	C 	0.85130 0.72820 0.47080 -0.16800
C 	C 	0.82800 0.71050 0.50870 0.09500
H 	H 	0.80010 0.69590 0.50450 0.00000
C 	C 	0.84560 0.71460 0.55160 -0.17300
H 	H 	0.82960 0.70250 0.57620 0.08700
C 	C 	0.88640 0.73630 0.55920 0.11200
C 	C 	0.90950 0.75510 0.52340 -0.16900
H 	H 	0.93590 0.77200 0.52830 0.08500
C 	C 	0.89240 0.74850 0.47880 0.08900
H 	H 	0.90980 0.75820 0.45410 0.00300
Yb	Yb	0.64433 0.25463 0.81707 1.52100
N 	N 	0.60760 0.25020 0.18680 -0.14900
O 	O 	0.31940 0.24990 0.21980 -0.46900
O 	O 	0.31521 0.20750 0.15740 -0.45300
O 	O 	0.64366 0.25610 0.89195 -0.50000
O 	O 	0.70330 0.29670 0.91789 -0.48400
O 	O 	0.72326 0.25100 0.82474 -0.77200
H 	H 	0.73210 0.22790 0.84000 0.27200
C 	C 	0.34070 0.23720 0.18380 0.38000
C 	C 	0.38720 0.23360 0.18050 -0.21600
C 	C 	0.41410 0.25740 0.21200 0.10800
H 	H 	0.40080 0.26890 0.23840 -0.00600
C 	C 	0.46180 0.26420 0.20420 -0.18600
H 	H 	0.47910 0.28110 0.22470 0.09000
C 	C 	0.48140 0.24580 0.16670 0.13000
C 	C 	0.45410 0.22310 0.13600 -0.19700
H 	H 	0.46720 0.21150 0.10960 0.09500
C 	C 	0.40760 0.21690 0.14300 0.13300
H 	H 	0.39050 0.20100 0.12150 -0.01500
C 	C 	0.56220 0.24710 0.19080 0.03100
H 	H 	0.55080 0.24200 0.22000 0.01700
C 	C 	0.53030 0.25060 0.15580 -0.06100
C 	C 	0.54780 0.25500 0.11270 -0.01800
H 	H 	0.52820 0.25570 0.08780 0.03200
C 	C 	0.59390 0.25830 0.10570 -0.04900
C 	C 	0.62280 0.25540 0.14250 0.01900
H 	H 	0.65400 0.25720 0.13730 0.02000
C 	C 	0.66640 0.27570 0.92190 0.42300
C 	C 	0.64870 0.27180 0.97080 -0.16800
C 	C 	0.67200 0.28950 0.00870 0.09500
H 	H 	0.69990 0.30410 0.00450 0.00000
C 	C 	0.65440 0.28540 0.05160 -0.17300
H 	H 	0.67040 0.29750 0.07620 0.08700
C 	C 	0.61360 0.26370 0.05920 0.11200
C 	C 	0.59050 0.24490 0.02340 -0.16900
H 	H 	0.56410 0.22800 0.02830 0.08500
C 	C 	0.60760 0.25150 0.97880 0.08900
H 	H 	0.59020 0.24180 0.95410 0.00300
Yb	Yb	0.18293 0.14433 0.24537 1.52100
N 	N 	0.81320 0.10760 0.24980 -0.14900
O 	O 	0.78020 0.81940 0.25010 -0.46900
O 	O 	0.84260 0.81521 0.29250 -0.45300
O 	O 	0.10805 0.14366 0.24390 -0.50000
O 	O 	0.08211 0.20330 0.20330 -0.48400
O 	O 	0.17526 0.22326 0.24900 -0.77200
H 	H 	0.16000 0.23210 0.27210 0.27200
C 	C 	0.81620 0.84070 0.26280 0.38000
C 	C 	0.81950 0.88720 0.26640 -0.21600
C 	C 	0.78800 0.91410 0.24260 0.10800
H 	H 	0.76160 0.90080 0.23110 -0.00600
C 	C 	0.79580 0.96180 0.23580 -0.18500
H 	H 	0.77530 0.97910 0.21890 0.09000
C 	C 	0.83330 0.98140 0.25420 0.13000
C 	C 	0.86400 0.95410 0.27690 -0.19700
H 	H 	0.89040 0.96720 0.28850 0.09500
C 	C 	0.85700 0.90760 0.28310 0.13300
H 	H 	0.87850 0.89050 0.29900 -0.01500
C 	C 	0.80920 0.06220 0.25290 0.03100
H 	H 	0.78000 0.05080 0.25800 0.01700
C 	C 	0.84420 0.03030 0.24940 -0.06100
C 	C 	0.88730 0.04780 0.24500 -0.01800
H 	H 	0.91220 0.02820 0.24430 0.03200
C 	C 	0.89430 0.09390 0.24170 -0.04900
C 	C 	0.85750 0.12280 0.24460 0.01900
H 	H 	0.86270 0.15400 0.24280 0.02000
C 	C 	0.07810 0.16640 0.22430 0.42300
C 	C 	0.02920 0.14870 0.22820 -0.16800
C 	C 	0.99130 0.17200 0.21050 0.09500
H 	H 	0.99550 0.19990 0.19590 0.00000
C 	C 	0.94840 0.15440 0.21460 -0.17300
H 	H 	0.92380 0.17040 0.20250 0.08700
C 	C 	0.94080 0.11360 0.23630 0.11200
C 	C 	0.97660 0.09050 0.25510 -0.16900
H 	H 	0.97170 0.06410 0.27200 0.08500
C 	C 	0.02120 0.10760 0.24850 0.08900
H 	H 	0.04590 0.09020 0.25820 0.00300
Yb	Yb	0.68293 0.35567 0.75463 1.52100
N 	N 	0.31320 0.39240 0.75020 -0.14900
O 	O 	0.28020 0.68060 0.74990 -0.46900
O 	O 	0.34260 0.68479 0.70750 -0.45300
O 	O 	0.60805 0.35634 0.75610 -0.50000
O 	O 	0.58211 0.29670 0.79670 -0.48400
O 	O 	0.67526 0.27674 0.75100 -0.77200
H 	H 	0.66000 0.26790 0.72790 0.27200
C 	C 	0.31620 0.65930 0.73720 0.38000
C 	C 	0.31950 0.61280 0.73360 -0.21600
C 	C 	0.28800 0.58590 0.75740 0.10800
H 	H 	0.26160 0.59920 0.76890 -0.00600
C 	C 	0.29580 0.53820 0.76420 -0.18600
H 	H 	0.27530 0.52090 0.78110 0.09000
C 	C 	0.33330 0.51860 0.74580 0.13000
C 	C 	0.36400 0.54590 0.72310 -0.19700
H 	H 	0.39040 0.53280 0.71150 0.09500
C 	C 	0.35700 0.59240 0.71690 0.13300
H 	H 	0.37850 0.60950 0.70100 -0.01500
C 	C 	0.30920 0.43780 0.74710 0.03100
H 	H 	0.28000 0.44920 0.74200 0.01700
C 	C 	0.34420 0.46970 0.75060 -0.06100
C 	C 	0.38730 0.45220 0.75500 -0.01800
H 	H 	0.41220 0.47180 0.75570 0.03200
C 	C 	0.39430 0.40610 0.75830 -0.04900
C 	C 	0.35750 0.37720 0.75540 0.01900
H 	H 	0.36270 0.34600 0.75720 0.02000
C 	C 	0.57810 0.33360 0.77570 0.42300
C 	C 	0.52920 0.35130 0.77180 -0.16800
C 	C 	0.49130 0.32800 0.78950 0.09500
H 	H 	0.49550 0.30010 0.80410 0.00000
C 	C 	0.44840 0.34560 0.78540 -0.17300
H 	H 	0.42380 0.32960 0.79750 0.08700
C 	C 	0.44080 0.38640 0.76370 0.11200
C 	C 	0.47660 0.40950 0.74490 -0.16900
H 	H 	0.47170 0.43590 0.72800 0.08500
C 	C 	0.52120 0.39240 0.75150 0.08900
H 	H 	0.54590 0.40980 0.74180 0.00300
Yb	Yb	0.31707 0.85567 0.74537 1.52100
N 	N 	0.68680 0.89240 0.74980 -0.14900
O 	O 	0.71980 0.18060 0.75010 -0.46900
O 	O 	0.65740 0.18479 0.79250 -0.45300
O 	O 	0.39195 0.85634 0.74390 -0.50000
O 	O 	0.41789 0.79670 0.70330 -0.48400
O 	O 	0.32474 0.77674 0.74900 -0.77200
H 	H 	0.34000 0.76790 0.77210 0.27200
C 	C 	0.68380 0.15930 0.76280 0.38000
C 	C 	0.68050 0.11280 0.76640 -0.21600
C 	C 	0.71200 0.08590 0.74260 0.10800
H 	H 	0.73840 0.09920 0.73110 -0.00600
C 	C 	0.70420 0.03820 0.73580 -0.18500
H 	H 	0.72470 0.02090 0.71890 0.09000
C 	C 	0.66670 0.01860 0.75420 0.13000
C 	C 	0.63600 0.04590 0.77690 -0.19700
H 	H 	0.60960 0.03280 0.78850 0.09500
C 	C 	0.64300 0.09240 0.78310 0.13300
H 	H 	0.62150 0.10950 0.79900 -0.01500
C 	C 	0.69080 0.93780 0.75290 0.03100
H 	H 	0.72000 0.94920 0.75800 0.01700
C 	C 	0.65580 0.96970 0.74940 -0.06100
C 	C 	0.61270 0.95220 0.74500 -0.01800
H 	H 	0.58780 0.97180 0.74430 0.03200
C 	C 	0.60570 0.90610 0.74170 -0.04900
C 	C 	0.64250 0.87720 0.74460 0.01900
H 	H 	0.63730 0.84600 0.74280 0.02000
C 	C 	0.42190 0.83360 0.72430 0.42300
C 	C 	0.47080 0.85130 0.72820 -0.16800
C 	C 	0.50870 0.82800 0.71050 0.09500
H 	H 	0.50450 0.80010 0.69590 0.00000
C 	C 	0.55160 0.84560 0.71460 -0.17300
H 	H 	0.57620 0.82960 0.70250 0.08700
C 	C 	0.55920 0.88640 0.73630 0.11200
C 	C 	0.52340 0.90950 0.75510 -0.16900
H 	H 	0.52830 0.93590 0.77200 0.08500
C 	C 	0.47880 0.89240 0.74850 0.08900
H 	H 	0.45410 0.90980 0.75820 0.00300
Yb	Yb	0.81707 0.64433 0.25463 1.52100
N 	N 	0.18680 0.60760 0.25020 -0.14900
O 	O 	0.21980 0.31940 0.24990 -0.46900
O 	O 	0.15740 0.31521 0.20750 -0.45300
O 	O 	0.89195 0.64366 0.25610 -0.50000
O 	O 	0.91789 0.70330 0.29670 -0.48400
O 	O 	0.82474 0.72326 0.25100 -0.77200
H 	H 	0.84000 0.73210 0.22790 0.27200
C 	C 	0.18380 0.34070 0.23720 0.38000
C 	C 	0.18050 0.38720 0.23360 -0.21600
C 	C 	0.21200 0.41410 0.25740 0.10800
H 	H 	0.23840 0.40080 0.26890 -0.00600
C 	C 	0.20420 0.46180 0.26420 -0.18600
H 	H 	0.22470 0.47910 0.28110 0.09000
C 	C 	0.16670 0.48140 0.24580 0.13000
C 	C 	0.13600 0.45410 0.22310 -0.19700
H 	H 	0.10960 0.46720 0.21150 0.09500
C 	C 	0.14300 0.40760 0.21690 0.13300
H 	H 	0.12150 0.39050 0.20100 -0.01500
C 	C 	0.19080 0.56220 0.24710 0.03100
H 	H 	0.22000 0.55080 0.24200 0.01700
C 	C 	0.15580 0.53030 0.25060 -0.06100
C 	C 	0.11270 0.54780 0.25500 -0.01800
H 	H 	0.08780 0.52820 0.25570 0.03200
C 	C 	0.10570 0.59390 0.25830 -0.04900
C 	C 	0.14250 0.62280 0.25540 0.01900
H 	H 	0.13730 0.65400 0.25720 0.02000
C 	C 	0.92190 0.66640 0.27570 0.42300
C 	C 	0.97080 0.64870 0.27180 -0.16800
C 	C 	0.00870 0.67200 0.28950 0.09500
H 	H 	0.00450 0.69990 0.30410 0.00000
C 	C 	0.05160 0.65440 0.28540 -0.17300
H 	H 	0.07620 0.67040 0.29750 0.08700
C 	C 	0.05920 0.61360 0.26370 0.11200
C 	C 	0.02340 0.59050 0.24490 -0.16900
H 	H 	0.02830 0.56410 0.22800 0.08500
C 	C 	0.97880 0.60760 0.25150 0.08900
H 	H 	0.95410 0.59020 0.24180 0.00300
Yb	Yb	0.24537 0.18293 0.14433 1.52100
N 	N 	0.24980 0.81320 0.10760 -0.14900
O 	O 	0.25010 0.78020 0.81940 -0.46900
O 	O 	0.29250 0.84260 0.81521 -0.45300
O 	O 	0.24390 0.10805 0.14366 -0.50000
O 	O 	0.20330 0.08211 0.20330 -0.48400
O 	O 	0.24900 0.17526 0.22326 -0.77200
H 	H 	0.27210 0.16000 0.23210 0.27200
C 	C 	0.26280 0.81620 0.84070 0.38000
C 	C 	0.26640 0.81950 0.88720 -0.21600
C 	C 	0.24260 0.78800 0.91410 0.10800
H 	H 	0.23110 0.76160 0.90080 -0.00600
C 	C 	0.23580 0.79580 0.96180 -0.18500
H 	H 	0.21890 0.77530 0.97910 0.09000
C 	C 	0.25420 0.83330 0.98140 0.13000
C 	C 	0.27690 0.86400 0.95410 -0.19700
H 	H 	0.28850 0.89040 0.96720 0.09500
C 	C 	0.28310 0.85700 0.90760 0.13300
H 	H 	0.29900 0.87850 0.89050 -0.01500
C 	C 	0.25290 0.80920 0.06220 0.03100
H 	H 	0.25800 0.78000 0.05080 0.01700
C 	C 	0.24940 0.84420 0.03030 -0.06100
C 	C 	0.24500 0.88730 0.04780 -0.01800
H 	H 	0.24430 0.91220 0.02820 0.03200
C 	C 	0.24170 0.89430 0.09390 -0.04900
C 	C 	0.24460 0.85750 0.12280 0.01900
H 	H 	0.24280 0.86270 0.15400 0.02000
C 	C 	0.22430 0.07810 0.16640 0.42300
C 	C 	0.22820 0.02920 0.14870 -0.16800
C 	C 	0.21050 0.99130 0.17200 0.09500
H 	H 	0.19590 0.99550 0.19990 0.00000
C 	C 	0.21460 0.94840 0.15440 -0.17300
H 	H 	0.20250 0.92380 0.17040 0.08700
C 	C 	0.23630 0.94080 0.11360 0.11200
C 	C 	0.25510 0.97660 0.09050 -0.16900
H 	H 	0.27200 0.97170 0.06410 0.08500
C 	C 	0.24850 0.02120 0.10760 0.08900
H 	H 	0.25820 0.04590 0.09020 0.00300
Yb	Yb	0.75463 0.68293 0.35567 1.52100
N 	N 	0.75020 0.31320 0.39240 -0.14900
O 	O 	0.74990 0.28020 0.68060 -0.46900
O 	O 	0.70750 0.34260 0.68479 -0.45300
O 	O 	0.75610 0.60805 0.35634 -0.50000
O 	O 	0.79670 0.58211 0.29670 -0.48400
O 	O 	0.75100 0.67526 0.27674 -0.77200
H 	H 	0.72790 0.66000 0.26790 0.27200
C 	C 	0.73720 0.31620 0.65930 0.38000
C 	C 	0.73360 0.31950 0.61280 -0.21600
C 	C 	0.75740 0.28800 0.58590 0.10800
H 	H 	0.76890 0.26160 0.59920 -0.00600
C 	C 	0.76420 0.29580 0.53820 -0.18600
H 	H 	0.78110 0.27530 0.52090 0.09000
C 	C 	0.74580 0.33330 0.51860 0.13000
C 	C 	0.72310 0.36400 0.54590 -0.19700
H 	H 	0.71150 0.39040 0.53280 0.09500
C 	C 	0.71690 0.35700 0.59240 0.13300
H 	H 	0.70100 0.37850 0.60950 -0.01500
C 	C 	0.74710 0.30920 0.43780 0.03100
H 	H 	0.74200 0.28000 0.44920 0.01700
C 	C 	0.75060 0.34420 0.46970 -0.06100
C 	C 	0.75500 0.38730 0.45220 -0.01800
H 	H 	0.75570 0.41220 0.47180 0.03200
C 	C 	0.75830 0.39430 0.40610 -0.04900
C 	C 	0.75540 0.35750 0.37720 0.01900
H 	H 	0.75720 0.36270 0.34600 0.02000
C 	C 	0.77570 0.57810 0.33360 0.42300
C 	C 	0.77180 0.52920 0.35130 -0.16800
C 	C 	0.78950 0.49130 0.32800 0.09500
H 	H 	0.80410 0.49550 0.30010 0.00000
C 	C 	0.78540 0.44840 0.34560 -0.17300
H 	H 	0.79750 0.42380 0.32960 0.08700
C 	C 	0.76370 0.44080 0.38640 0.11200
C 	C 	0.74490 0.47660 0.40950 -0.16900
H 	H 	0.72800 0.47170 0.43590 0.08500
C 	C 	0.75150 0.52120 0.39240 0.08900
H 	H 	0.74180 0.54590 0.40980 0.00300
Yb	Yb	0.74537 0.31707 0.85567 1.52100
N 	N 	0.74980 0.68680 0.89240 -0.14900
O 	O 	0.75010 0.71980 0.18060 -0.46900
O 	O 	0.79250 0.65740 0.18479 -0.45300
O 	O 	0.74390 0.39195 0.85634 -0.50000
O 	O 	0.70330 0.41789 0.79670 -0.48400
O 	O 	0.74900 0.32474 0.77674 -0.77200
H 	H 	0.77210 0.34000 0.76790 0.27200
C 	C 	0.76280 0.68380 0.15930 0.38000
C 	C 	0.76640 0.68050 0.11280 -0.21600
C 	C 	0.74260 0.71200 0.08590 0.10800
H 	H 	0.73110 0.73840 0.09920 -0.00600
C 	C 	0.73580 0.70420 0.03820 -0.18500
H 	H 	0.71890 0.72470 0.02090 0.09000
C 	C 	0.75420 0.66670 0.01860 0.13000
C 	C 	0.77690 0.63600 0.04590 -0.19700
H 	H 	0.78850 0.60960 0.03280 0.09500
C 	C 	0.78310 0.64300 0.09240 0.13300
H 	H 	0.79900 0.62150 0.10950 -0.01500
C 	C 	0.75290 0.69080 0.93780 0.03100
H 	H 	0.75800 0.72000 0.94920 0.01700
C 	C 	0.74940 0.65580 0.96970 -0.06100
C 	C 	0.74500 0.61270 0.95220 -0.01800
H 	H 	0.74430 0.58780 0.97180 0.03200
C 	C 	0.74170 0.60570 0.90610 -0.04900
C 	C 	0.74460 0.64250 0.87720 0.01900
H 	H 	0.74280 0.63730 0.84600 0.02000
C 	C 	0.72430 0.42190 0.83360 0.42300
C 	C 	0.72820 0.47080 0.85130 -0.16800
C 	C 	0.71050 0.50870 0.82800 0.09500
H 	H 	0.69590 0.50450 0.80010 0.00000
C 	C 	0.71460 0.55160 0.84560 -0.17300
H 	H 	0.70250 0.57620 0.82960 0.08700
C 	C 	0.73630 0.55920 0.88640 0.11200
C 	C 	0.75510 0.52340 0.90950 -0.16900
H 	H 	0.77200 0.52830 0.93590 0.08500
C 	C 	0.74850 0.47880 0.89240 0.08900
H 	H 	0.75820 0.45410 0.90980 0.00300
Yb	Yb	0.25463 0.81707 0.64433 1.52100
N 	N 	0.25020 0.18680 0.60760 -0.14900
O 	O 	0.24990 0.21980 0.31940 -0.46900
O 	O 	0.20750 0.15740 0.31521 -0.45300
O 	O 	0.25610 0.89195 0.64366 -0.50000
O 	O 	0.29670 0.91789 0.70330 -0.48400
O 	O 	0.25100 0.82474 0.72326 -0.77200
H 	H 	0.22790 0.84000 0.73210 0.27200
C 	C 	0.23720 0.18380 0.34070 0.38000
C 	C 	0.23360 0.18050 0.38720 -0.21600
C 	C 	0.25740 0.21200 0.41410 0.10800
H 	H 	0.26890 0.23840 0.40080 -0.00600
C 	C 	0.26420 0.20420 0.46180 -0.18600
H 	H 	0.28110 0.22470 0.47910 0.09000
C 	C 	0.24580 0.16670 0.48140 0.13000
C 	C 	0.22310 0.13600 0.45410 -0.19700
H 	H 	0.21150 0.10960 0.46720 0.09500
C 	C 	0.21690 0.14300 0.40760 0.13300
H 	H 	0.20100 0.12150 0.39050 -0.01500
C 	C 	0.24710 0.19080 0.56220 0.03100
H 	H 	0.24200 0.22000 0.55080 0.01700
C 	C 	0.25060 0.15580 0.53030 -0.06100
C 	C 	0.25500 0.11270 0.54780 -0.01800
H 	H 	0.25570 0.08780 0.52820 0.03200
C 	C 	0.25830 0.10570 0.59390 -0.04900
C 	C 	0.25540 0.14250 0.62280 0.01900
H 	H 	0.25720 0.13730 0.65400 0.02000
C 	C 	0.27570 0.92190 0.66640 0.42300
C 	C 	0.27180 0.97080 0.64870 -0.16800
C 	C 	0.28950 0.00870 0.67200 0.09500
H 	H 	0.30410 0.00450 0.69990 0.00000
C 	C 	0.28540 0.05160 0.65440 -0.17300
H 	H 	0.29750 0.07620 0.67040 0.08700
C 	C 	0.26370 0.05920 0.61360 0.11200
C 	C 	0.24490 0.02340 0.59050 -0.16900
H 	H 	0.22800 0.02830 0.56410 0.08500
C 	C 	0.25150 0.97880 0.60760 0.08900
H 	H 	0.24180 0.95410 0.59020 0.00300
Yb	Yb	0.74954 0.25046 0.75046 1.51900
Yb	Yb	0.75046 0.74954 0.25046 1.51900
Yb	Yb	0.25046 0.75046 0.74954 1.51900
Yb	Yb	0.24954 0.24954 0.24954 1.51900
O 	O 	0.17257 0.17257 0.17257 -0.75600
H 	H 	0.15587 0.15587 0.15587 0.26100
O 	O 	0.32743 0.82743 0.67257 -0.75600
H 	H 	0.34413 0.84413 0.65587 0.26100
O 	O 	0.82743 0.67257 0.32743 -0.75600
H 	H 	0.84413 0.65587 0.34413 0.26100
O 	O 	0.67257 0.32743 0.82743 -0.75600
H 	H 	0.65587 0.34413 0.84413 0.26100
Yb	Yb	0.85567 0.75463 0.81707 1.52100
N 	N 	0.89240 0.75020 0.18680 -0.14900
O 	O 	0.18060 0.74990 0.21980 -0.46900
O 	O 	0.18479 0.70750 0.15740 -0.45300
O 	O 	0.85634 0.75610 0.89195 -0.50000
O 	O 	0.79670 0.79670 0.91789 -0.48400
O 	O 	0.77674 0.75100 0.82474 -0.77200
H 	H 	0.76790 0.72790 0.84000 0.27200
C 	C 	0.15930 0.73720 0.18380 0.38000
C 	C 	0.11280 0.73360 0.18050 -0.21600
C 	C 	0.08590 0.75740 0.21200 0.10800
H 	H 	0.09920 0.76890 0.23840 -0.00600
C 	C 	0.03820 0.76420 0.20420 -0.18500
H 	H 	0.02090 0.78110 0.22470 0.09000
C 	C 	0.01860 0.74580 0.16670 0.13000
C 	C 	0.04590 0.72310 0.13600 -0.19700
H 	H 	0.03280 0.71150 0.10960 0.09500
C 	C 	0.09240 0.71690 0.14300 0.13300
H 	H 	0.10950 0.70100 0.12150 -0.01500
C 	C 	0.93780 0.74710 0.19080 0.03100
H 	H 	0.94920 0.74200 0.22000 0.01700
C 	C 	0.96970 0.75060 0.15580 -0.06100
C 	C 	0.95220 0.75500 0.11270 -0.01800
H 	H 	0.97180 0.75570 0.08780 0.03200
C 	C 	0.90610 0.75830 0.10570 -0.04900
C 	C 	0.87720 0.75540 0.14250 0.01900
H 	H 	0.84600 0.75720 0.13730 0.02000
C 	C 	0.83360 0.77570 0.92190 0.42300
C 	C 	0.85130 0.77180 0.97080 -0.16800
C 	C 	0.82800 0.78950 0.00870 0.09500
H 	H 	0.80010 0.80410 0.00450 0.00000
C 	C 	0.84560 0.78540 0.05160 -0.17300
H 	H 	0.82960 0.79750 0.07620 0.08700
C 	C 	0.88640 0.76370 0.05920 0.11200
C 	C 	0.90950 0.74490 0.02340 -0.16900
H 	H 	0.93590 0.72800 0.02830 0.08500
C 	C 	0.89240 0.75150 0.97880 0.08900
H 	H 	0.90980 0.74180 0.95410 0.00300
Yb	Yb	0.64433 0.24537 0.31707 1.52100
N 	N 	0.60760 0.24980 0.68680 -0.14900
O 	O 	0.31940 0.25010 0.71980 -0.46900
O 	O 	0.31521 0.29250 0.65740 -0.45300
O 	O 	0.64366 0.24390 0.39195 -0.50000
O 	O 	0.70330 0.20330 0.41789 -0.48400
O 	O 	0.72326 0.24900 0.32474 -0.77200
H 	H 	0.73210 0.27210 0.34000 0.27200
C 	C 	0.34070 0.26280 0.68380 0.38000
C 	C 	0.38720 0.26640 0.68050 -0.21600
C 	C 	0.41410 0.24260 0.71200 0.10800
H 	H 	0.40080 0.23110 0.73840 -0.00600
C 	C 	0.46180 0.23580 0.70420 -0.18600
H 	H 	0.47910 0.21890 0.72470 0.09000
C 	C 	0.48140 0.25420 0.66670 0.13000
C 	C 	0.45410 0.27690 0.63600 -0.19700
H 	H 	0.46720 0.28850 0.60960 0.09500
C 	C 	0.40760 0.28310 0.64300 0.13300
H 	H 	0.39050 0.29900 0.62150 -0.01500
C 	C 	0.56220 0.25290 0.69080 0.03100
H 	H 	0.55080 0.25800 0.72000 0.01700
C 	C 	0.53030 0.24940 0.65580 -0.06100
C 	C 	0.54780 0.24500 0.61270 -0.01800
H 	H 	0.52820 0.24430 0.58780 0.03200
C 	C 	0.59390 0.24170 0.60570 -0.04900
C 	C 	0.62280 0.24460 0.64250 0.01900
H 	H 	0.65400 0.24280 0.63730 0.02000
C 	C 	0.66640 0.22430 0.42190 0.42300
C 	C 	0.64870 0.22820 0.47080 -0.16800
C 	C 	0.67200 0.21050 0.50870 0.09500
H 	H 	0.69990 0.19590 0.50450 0.00000
C 	C 	0.65440 0.21460 0.55160 -0.17300
H 	H 	0.67040 0.20250 0.57620 0.08700
C 	C 	0.61360 0.23630 0.55920 0.11200
C 	C 	0.59050 0.25510 0.52340 -0.16900
H 	H 	0.56410 0.27200 0.52830 0.08500
C 	C 	0.60760 0.24850 0.47880 0.08900
H 	H 	0.59020 0.25820 0.45410 0.00300
Yb	Yb	0.14433 0.25463 0.68293 1.52100
N 	N 	0.10760 0.25020 0.31320 -0.14900
O 	O 	0.81940 0.24990 0.28020 -0.46900
O 	O 	0.81521 0.20750 0.34260 -0.45300
O 	O 	0.14366 0.25610 0.60805 -0.50000
O 	O 	0.20330 0.29670 0.58211 -0.48400
O 	O 	0.22326 0.25100 0.67526 -0.77200
H 	H 	0.23210 0.22790 0.66000 0.27200
C 	C 	0.84070 0.23720 0.31620 0.38000
C 	C 	0.88720 0.23360 0.31950 -0.21600
C 	C 	0.91410 0.25740 0.28800 0.10800
H 	H 	0.90080 0.26890 0.26160 -0.00600
C 	C 	0.96180 0.26420 0.29580 -0.18500
H 	H 	0.97910 0.28110 0.27530 0.09000
C 	C 	0.98140 0.24580 0.33330 0.13000
C 	C 	0.95410 0.22310 0.36400 -0.19700
H 	H 	0.96720 0.21150 0.39040 0.09500
C 	C 	0.90760 0.21690 0.35700 0.13300
H 	H 	0.89050 0.20100 0.37850 -0.01500
C 	C 	0.06220 0.24710 0.30920 0.03100
H 	H 	0.05080 0.24200 0.28000 0.01700
C 	C 	0.03030 0.25060 0.34420 -0.06100
C 	C 	0.04780 0.25500 0.38730 -0.01800
H 	H 	0.02820 0.25570 0.41220 0.03200
C 	C 	0.09390 0.25830 0.39430 -0.04900
C 	C 	0.12280 0.25540 0.35750 0.01900
H 	H 	0.15400 0.25720 0.36270 0.02000
C 	C 	0.16640 0.27570 0.57810 0.42300
C 	C 	0.14870 0.27180 0.52920 -0.16800
C 	C 	0.17200 0.28950 0.49130 0.09500
H 	H 	0.19990 0.30410 0.49550 0.00000
C 	C 	0.15440 0.28540 0.44840 -0.17300
H 	H 	0.17040 0.29750 0.42380 0.08700
C 	C 	0.11360 0.26370 0.44080 0.11200
C 	C 	0.09050 0.24490 0.47660 -0.16900
H 	H 	0.06410 0.22800 0.47170 0.08500
C 	C 	0.10760 0.25150 0.52120 0.08900
H 	H 	0.09020 0.24180 0.54590 0.00300
Yb	Yb	0.35567 0.74537 0.18293 1.52100
N 	N 	0.39240 0.74980 0.81320 -0.14900
O 	O 	0.68060 0.75010 0.78020 -0.46900
O 	O 	0.68479 0.79250 0.84260 -0.45300
O 	O 	0.35634 0.74390 0.10805 -0.50000
O 	O 	0.29670 0.70330 0.08211 -0.48400
O 	O 	0.27674 0.74900 0.17526 -0.77200
H 	H 	0.26790 0.77210 0.16000 0.27200
C 	C 	0.65930 0.76280 0.81620 0.38000
C 	C 	0.61280 0.76640 0.81950 -0.21600
C 	C 	0.58590 0.74260 0.78800 0.10800
H 	H 	0.59920 0.73110 0.76160 -0.00600
C 	C 	0.53820 0.73580 0.79580 -0.18600
H 	H 	0.52090 0.71890 0.77530 0.09000
C 	C 	0.51860 0.75420 0.83330 0.13000
C 	C 	0.54590 0.77690 0.86400 -0.19700
H 	H 	0.53280 0.78850 0.89040 0.09500
C 	C 	0.59240 0.78310 0.85700 0.13300
H 	H 	0.60950 0.79900 0.87850 -0.01500
C 	C 	0.43780 0.75290 0.80920 0.03100
H 	H 	0.44920 0.75800 0.78000 0.01700
C 	C 	0.46970 0.74940 0.84420 -0.06100
C 	C 	0.45220 0.74500 0.88730 -0.01800
H 	H 	0.47180 0.74430 0.91220 0.03200
C 	C 	0.40610 0.74170 0.89430 -0.04900
C 	C 	0.37720 0.74460 0.85750 0.01900
H 	H 	0.34600 0.74280 0.86270 0.02000
C 	C 	0.33360 0.72430 0.07810 0.42300
C 	C 	0.35130 0.72820 0.02920 -0.16800
C 	C 	0.32800 0.71050 0.99130 0.09500
H 	H 	0.30010 0.69590 0.99550 0.00000
C 	C 	0.34560 0.71460 0.94840 -0.17300
H 	H 	0.32960 0.70250 0.92380 0.08700
C 	C 	0.38640 0.73630 0.94080 0.11200
C 	C 	0.40950 0.75510 0.97660 -0.16900
H 	H 	0.43590 0.77200 0.97170 0.08500
C 	C 	0.39240 0.74850 0.02120 0.08900
H 	H 	0.40980 0.75820 0.04590 0.00300
Yb	Yb	0.81707 0.85567 0.75463 1.52100
N 	N 	0.18680 0.89240 0.75020 -0.14900
O 	O 	0.21980 0.18060 0.74990 -0.46900
O 	O 	0.15740 0.18479 0.70750 -0.45300
O 	O 	0.89195 0.85634 0.75610 -0.50000
O 	O 	0.91789 0.79670 0.79670 -0.48400
O 	O 	0.82474 0.77674 0.75100 -0.77200
H 	H 	0.84000 0.76790 0.72790 0.27200
C 	C 	0.18380 0.15930 0.73720 0.38000
C 	C 	0.18050 0.11280 0.73360 -0.21600
C 	C 	0.21200 0.08590 0.75740 0.10800
H 	H 	0.23840 0.09920 0.76890 -0.00600
C 	C 	0.20420 0.03820 0.76420 -0.18500
H 	H 	0.22470 0.02090 0.78110 0.09000
C 	C 	0.16670 0.01860 0.74580 0.13000
C 	C 	0.13600 0.04590 0.72310 -0.19700
H 	H 	0.10960 0.03280 0.71150 0.09500
C 	C 	0.14300 0.09240 0.71690 0.13300
H 	H 	0.12150 0.10950 0.70100 -0.01500
C 	C 	0.19080 0.93780 0.74710 0.03100
H 	H 	0.22000 0.94920 0.74200 0.01700
C 	C 	0.15580 0.96970 0.75060 -0.06100
C 	C 	0.11270 0.95220 0.75500 -0.01800
H 	H 	0.08780 0.97180 0.75570 0.03200
C 	C 	0.10570 0.90610 0.75830 -0.04900
C 	C 	0.14250 0.87720 0.75540 0.01900
H 	H 	0.13730 0.84600 0.75720 0.02000
C 	C 	0.92190 0.83360 0.77570 0.42300
C 	C 	0.97080 0.85130 0.77180 -0.16800
C 	C 	0.00870 0.82800 0.78950 0.09500
H 	H 	0.00450 0.80010 0.80410 0.00000
C 	C 	0.05160 0.84560 0.78540 -0.17300
H 	H 	0.07620 0.82960 0.79750 0.08700
C 	C 	0.05920 0.88640 0.76370 0.11200
C 	C 	0.02340 0.90950 0.74490 -0.16900
H 	H 	0.02830 0.93590 0.72800 0.08500
C 	C 	0.97880 0.89240 0.75150 0.08900
H 	H 	0.95410 0.90980 0.74180 0.00300
Yb	Yb	0.31707 0.64433 0.24537 1.52100
N 	N 	0.68680 0.60760 0.24980 -0.14900
O 	O 	0.71980 0.31940 0.25010 -0.46900
O 	O 	0.65740 0.31521 0.29250 -0.45300
O 	O 	0.39195 0.64366 0.24390 -0.50000
O 	O 	0.41789 0.70330 0.20330 -0.48400
O 	O 	0.32474 0.72326 0.24900 -0.77200
H 	H 	0.34000 0.73210 0.27210 0.27200
C 	C 	0.68380 0.34070 0.26280 0.38000
C 	C 	0.68050 0.38720 0.26640 -0.21600
C 	C 	0.71200 0.41410 0.24260 0.10800
H 	H 	0.73840 0.40080 0.23110 -0.00600
C 	C 	0.70420 0.46180 0.23580 -0.18600
H 	H 	0.72470 0.47910 0.21890 0.09000
C 	C 	0.66670 0.48140 0.25420 0.13000
C 	C 	0.63600 0.45410 0.27690 -0.19700
H 	H 	0.60960 0.46720 0.28850 0.09500
C 	C 	0.64300 0.40760 0.28310 0.13300
H 	H 	0.62150 0.39050 0.29900 -0.01500
C 	C 	0.69080 0.56220 0.25290 0.03100
H 	H 	0.72000 0.55080 0.25800 0.01700
C 	C 	0.65580 0.53030 0.24940 -0.06100
C 	C 	0.61270 0.54780 0.24500 -0.01800
H 	H 	0.58780 0.52820 0.24430 0.03200
C 	C 	0.60570 0.59390 0.24170 -0.04900
C 	C 	0.64250 0.62280 0.24460 0.01900
H 	H 	0.63730 0.65400 0.24280 0.02000
C 	C 	0.42190 0.66640 0.22430 0.42300
C 	C 	0.47080 0.64870 0.22820 -0.16800
C 	C 	0.50870 0.67200 0.21050 0.09500
H 	H 	0.50450 0.69990 0.19590 0.00000
C 	C 	0.55160 0.65440 0.21460 -0.17300
H 	H 	0.57620 0.67040 0.20250 0.08700
C 	C 	0.55920 0.61360 0.23630 0.11200
C 	C 	0.52340 0.59050 0.25510 -0.16900
H 	H 	0.52830 0.56410 0.27200 0.08500
C 	C 	0.47880 0.60760 0.24850 0.08900
H 	H 	0.45410 0.59020 0.25820 0.00300
Yb	Yb	0.68293 0.14433 0.25463 1.52100
N 	N 	0.31320 0.10760 0.25020 -0.14900
O 	O 	0.28020 0.81940 0.24990 -0.46900
O 	O 	0.34260 0.81521 0.20750 -0.45300
O 	O 	0.60805 0.14366 0.25610 -0.50000
O 	O 	0.58211 0.20330 0.29670 -0.48400
O 	O 	0.67526 0.22326 0.25100 -0.77200
H 	H 	0.66000 0.23210 0.22790 0.27200
C 	C 	0.31620 0.84070 0.23720 0.38000
C 	C 	0.31950 0.88720 0.23360 -0.21600
C 	C 	0.28800 0.91410 0.25740 0.10800
H 	H 	0.26160 0.90080 0.26890 -0.00600
C 	C 	0.29580 0.96180 0.26420 -0.18500
H 	H 	0.27530 0.97910 0.28110 0.09000
C 	C 	0.33330 0.98140 0.24580 0.13000
C 	C 	0.36400 0.95410 0.22310 -0.19700
H 	H 	0.39040 0.96720 0.21150 0.09500
C 	C 	0.35700 0.90760 0.21690 0.13300
H 	H 	0.37850 0.89050 0.20100 -0.01500
C 	C 	0.30920 0.06220 0.24710 0.03100
H 	H 	0.28000 0.05080 0.24200 0.01700
C 	C 	0.34420 0.03030 0.25060 -0.06100
C 	C 	0.38730 0.04780 0.25500 -0.01800
H 	H 	0.41220 0.02820 0.25570 0.03200
C 	C 	0.39430 0.09390 0.25830 -0.04900
C 	C 	0.35750 0.12280 0.25540 0.01900
H 	H 	0.36270 0.15400 0.25720 0.02000
C 	C 	0.57810 0.16640 0.27570 0.42300
C 	C 	0.52920 0.14870 0.27180 -0.16800
C 	C 	0.49130 0.17200 0.28950 0.09500
H 	H 	0.49550 0.19990 0.30410 0.00000
C 	C 	0.44840 0.15440 0.28540 -0.17300
H 	H 	0.42380 0.17040 0.29750 0.08700
C 	C 	0.44080 0.11360 0.26370 0.11200
C 	C 	0.47660 0.09050 0.24490 -0.16900
H 	H 	0.47170 0.06410 0.22800 0.08500
C 	C 	0.52120 0.10760 0.25150 0.08900
H 	H 	0.54590 0.09020 0.24180 0.00300
Yb	Yb	0.18293 0.35567 0.74537 1.52100
N 	N 	0.81320 0.39240 0.74980 -0.14900
O 	O 	0.78020 0.68060 0.75010 -0.46900
O 	O 	0.84260 0.68479 0.79250 -0.45300
O 	O 	0.10805 0.35634 0.74390 -0.50000
O 	O 	0.08211 0.29670 0.70330 -0.48400
O 	O 	0.17526 0.27674 0.74900 -0.77200
H 	H 	0.16000 0.26790 0.77210 0.27200
C 	C 	0.81620 0.65930 0.76280 0.38000
C 	C 	0.81950 0.61280 0.76640 -0.21600
C 	C 	0.78800 0.58590 0.74260 0.10800
H 	H 	0.76160 0.59920 0.73110 -0.00600
C 	C 	0.79580 0.53820 0.73580 -0.18600
H 	H 	0.77530 0.52090 0.71890 0.09000
C 	C 	0.83330 0.51860 0.75420 0.13000
C 	C 	0.86400 0.54590 0.77690 -0.19700
H 	H 	0.89040 0.53280 0.78850 0.09500
C 	C 	0.85700 0.59240 0.78310 0.13300
H 	H 	0.87850 0.60950 0.79900 -0.01500
C 	C 	0.80920 0.43780 0.75290 0.03100
H 	H 	0.78000 0.44920 0.75800 0.01700
C 	C 	0.84420 0.46970 0.74940 -0.06100
C 	C 	0.88730 0.45220 0.74500 -0.01800
H 	H 	0.91220 0.47180 0.74430 0.03200
C 	C 	0.89430 0.40610 0.74170 -0.04900
C 	C 	0.85750 0.37720 0.74460 0.01900
H 	H 	0.86270 0.34600 0.74280 0.02000
C 	C 	0.07810 0.33360 0.72430 0.42300
C 	C 	0.02920 0.35130 0.72820 -0.16800
C 	C 	0.99130 0.32800 0.71050 0.09500
H 	H 	0.99550 0.30010 0.69590 0.00000
C 	C 	0.94840 0.34560 0.71460 -0.17300
H 	H 	0.92380 0.32960 0.70250 0.08700
C 	C 	0.94080 0.38640 0.73630 0.11200
C 	C 	0.97660 0.40950 0.75510 -0.16900
H 	H 	0.97170 0.43590 0.77200 0.08500
C 	C 	0.02120 0.39240 0.74850 0.08900
H 	H 	0.04590 0.40980 0.75820 0.00300
Yb	Yb	0.75463 0.81707 0.85567 1.52100
N 	N 	0.75020 0.18680 0.89240 -0.14900
O 	O 	0.74990 0.21980 0.18060 -0.46900
O 	O 	0.70750 0.15740 0.18479 -0.45300
O 	O 	0.75610 0.89195 0.85634 -0.50000
O 	O 	0.79670 0.91789 0.79670 -0.48400
O 	O 	0.75100 0.82474 0.77674 -0.77200
H 	H 	0.72790 0.84000 0.76790 0.27200
C 	C 	0.73720 0.18380 0.15930 0.38000
C 	C 	0.73360 0.18050 0.11280 -0.21600
C 	C 	0.75740 0.21200 0.08590 0.10800
H 	H 	0.76890 0.23840 0.09920 -0.00600
C 	C 	0.76420 0.20420 0.03820 -0.18500
H 	H 	0.78110 0.22470 0.02090 0.09000
C 	C 	0.74580 0.16670 0.01860 0.13000
C 	C 	0.72310 0.13600 0.04590 -0.19700
H 	H 	0.71150 0.10960 0.03280 0.09500
C 	C 	0.71690 0.14300 0.09240 0.13300
H 	H 	0.70100 0.12150 0.10950 -0.01500
C 	C 	0.74710 0.19080 0.93780 0.03100
H 	H 	0.74200 0.22000 0.94920 0.01700
C 	C 	0.75060 0.15580 0.96970 -0.06100
C 	C 	0.75500 0.11270 0.95220 -0.01800
H 	H 	0.75570 0.08780 0.97180 0.03200
C 	C 	0.75830 0.10570 0.90610 -0.04900
C 	C 	0.75540 0.14250 0.87720 0.01900
H 	H 	0.75720 0.13730 0.84600 0.02000
C 	C 	0.77570 0.92190 0.83360 0.42300
C 	C 	0.77180 0.97080 0.85130 -0.16800
C 	C 	0.78950 0.00870 0.82800 0.09500
H 	H 	0.80410 0.00450 0.80010 0.00000
C 	C 	0.78540 0.05160 0.84560 -0.17300
H 	H 	0.79750 0.07620 0.82960 0.08700
C 	C 	0.76370 0.05920 0.88640 0.11200
C 	C 	0.74490 0.02340 0.90950 -0.16900
H 	H 	0.72800 0.02830 0.93590 0.08500
C 	C 	0.75150 0.97880 0.89240 0.08900
H 	H 	0.74180 0.95410 0.90980 0.00300
Yb	Yb	0.24537 0.31707 0.64433 1.52100
N 	N 	0.24980 0.68680 0.60760 -0.14900
O 	O 	0.25010 0.71980 0.31940 -0.46900
O 	O 	0.29250 0.65740 0.31521 -0.45300
O 	O 	0.24390 0.39195 0.64366 -0.50000
O 	O 	0.20330 0.41789 0.70330 -0.48400
O 	O 	0.24900 0.32474 0.72326 -0.77200
H 	H 	0.27210 0.34000 0.73210 0.27200
C 	C 	0.26280 0.68380 0.34070 0.38000
C 	C 	0.26640 0.68050 0.38720 -0.21600
C 	C 	0.24260 0.71200 0.41410 0.10800
H 	H 	0.23110 0.73840 0.40080 -0.00600
C 	C 	0.23580 0.70420 0.46180 -0.18600
H 	H 	0.21890 0.72470 0.47910 0.09000
C 	C 	0.25420 0.66670 0.48140 0.13000
C 	C 	0.27690 0.63600 0.45410 -0.19700
H 	H 	0.28850 0.60960 0.46720 0.09500
C 	C 	0.28310 0.64300 0.40760 0.13300
H 	H 	0.29900 0.62150 0.39050 -0.01500
C 	C 	0.25290 0.69080 0.56220 0.03100
H 	H 	0.25800 0.72000 0.55080 0.01700
C 	C 	0.24940 0.65580 0.53030 -0.06100
C 	C 	0.24500 0.61270 0.54780 -0.01800
H 	H 	0.24430 0.58780 0.52820 0.03200
C 	C 	0.24170 0.60570 0.59390 -0.04900
C 	C 	0.24460 0.64250 0.62280 0.01900
H 	H 	0.24280 0.63730 0.65400 0.02000
C 	C 	0.22430 0.42190 0.66640 0.42300
C 	C 	0.22820 0.47080 0.64870 -0.16800
C 	C 	0.21050 0.50870 0.67200 0.09500
H 	H 	0.19590 0.50450 0.69990 0.00000
C 	C 	0.21460 0.55160 0.65440 -0.17300
H 	H 	0.20250 0.57620 0.67040 0.08700
C 	C 	0.23630 0.55920 0.61360 0.11200
C 	C 	0.25510 0.52340 0.59050 -0.16900
H 	H 	0.27200 0.52830 0.56410 0.08500
C 	C 	0.24850 0.47880 0.60760 0.08900
H 	H 	0.25820 0.45410 0.59020 0.00300
Yb	Yb	0.25463 0.68293 0.14433 1.52100
N 	N 	0.25020 0.31320 0.10760 -0.14900
O 	O 	0.24990 0.28020 0.81940 -0.46900
O 	O 	0.20750 0.34260 0.81521 -0.45300
O 	O 	0.25610 0.60805 0.14366 -0.50000
O 	O 	0.29670 0.58211 0.20330 -0.48400
O 	O 	0.25100 0.67526 0.22326 -0.77200
H 	H 	0.22790 0.66000 0.23210 0.27200
C 	C 	0.23720 0.31620 0.84070 0.38000
C 	C 	0.23360 0.31950 0.88720 -0.21600
C 	C 	0.25740 0.28800 0.91410 0.10800
H 	H 	0.26890 0.26160 0.90080 -0.00600
C 	C 	0.26420 0.29580 0.96180 -0.18500
H 	H 	0.28110 0.27530 0.97910 0.09000
C 	C 	0.24580 0.33330 0.98140 0.13000
C 	C 	0.22310 0.36400 0.95410 -0.19700
H 	H 	0.21150 0.39040 0.96720 0.09500
C 	C 	0.21690 0.35700 0.90760 0.13300
H 	H 	0.20100 0.37850 0.89050 -0.01500
C 	C 	0.24710 0.30920 0.06220 0.03100
H 	H 	0.24200 0.28000 0.05080 0.01700
C 	C 	0.25060 0.34420 0.03030 -0.06100
C 	C 	0.25500 0.38730 0.04780 -0.01800
H 	H 	0.25570 0.41220 0.02820 0.03200
C 	C 	0.25830 0.39430 0.09390 -0.04900
C 	C 	0.25540 0.35750 0.12280 0.01900
H 	H 	0.25720 0.36270 0.15400 0.02000
C 	C 	0.27570 0.57810 0.16640 0.42300
C 	C 	0.27180 0.52920 0.14870 -0.16800
C 	C 	0.28950 0.49130 0.17200 0.09500
H 	H 	0.30410 0.49550 0.19990 0.00000
C 	C 	0.28540 0.44840 0.15440 -0.17300
H 	H 	0.29750 0.42380 0.17040 0.08700
C 	C 	0.26370 0.44080 0.11360 0.11200
C 	C 	0.24490 0.47660 0.09050 -0.16900
H 	H 	0.22800 0.47170 0.06410 0.08500
C 	C 	0.25150 0.52120 0.10760 0.08900
H 	H 	0.24180 0.54590 0.09020 0.00300
Yb	Yb	0.74537 0.18293 0.35567 1.52100
N 	N 	0.74980 0.81320 0.39240 -0.14900
O 	O 	0.75010 0.78020 0.68060 -0.46900
O 	O 	0.79250 0.84260 0.68479 -0.45300
O 	O 	0.74390 0.10805 0.35634 -0.50000
O 	O 	0.70330 0.08211 0.29670 -0.48400
O 	O 	0.74900 0.17526 0.27674 -0.77200
H 	H 	0.77210 0.16000 0.26790 0.27200
C 	C 	0.76280 0.81620 0.65930 0.38000
C 	C 	0.76640 0.81950 0.61280 -0.21600
C 	C 	0.74260 0.78800 0.58590 0.10800
H 	H 	0.73110 0.76160 0.59920 -0.00600
C 	C 	0.73580 0.79580 0.53820 -0.18600
H 	H 	0.71890 0.77530 0.52090 0.09000
C 	C 	0.75420 0.83330 0.51860 0.13000
C 	C 	0.77690 0.86400 0.54590 -0.19700
H 	H 	0.78850 0.89040 0.53280 0.09500
C 	C 	0.78310 0.85700 0.59240 0.13300
H 	H 	0.79900 0.87850 0.60950 -0.01500
C 	C 	0.75290 0.80920 0.43780 0.03100
H 	H 	0.75800 0.78000 0.44920 0.01700
C 	C 	0.74940 0.84420 0.46970 -0.06100
C 	C 	0.74500 0.88730 0.45220 -0.01800
H 	H 	0.74430 0.91220 0.47180 0.03200
C 	C 	0.74170 0.89430 0.40610 -0.04900
C 	C 	0.74460 0.85750 0.37720 0.01900
H 	H 	0.74280 0.86270 0.34600 0.02000
C 	C 	0.72430 0.07810 0.33360 0.42300
C 	C 	0.72820 0.02920 0.35130 -0.16800
C 	C 	0.71050 0.99130 0.32800 0.09500
H 	H 	0.69590 0.99550 0.30010 0.00000
C 	C 	0.71460 0.94840 0.34560 -0.17300
H 	H 	0.70250 0.92380 0.32960 0.08700
C 	C 	0.73630 0.94080 0.38640 0.11200
C 	C 	0.75510 0.97660 0.40950 -0.16900
H 	H 	0.77200 0.97170 0.43590 0.08500
C 	C 	0.74850 0.02120 0.39240 0.08900
H 	H 	0.75820 0.04590 0.40980 0.00300
Yb	Yb	0.25046 0.74954 0.24954 1.51900
Yb	Yb	0.24954 0.25046 0.74954 1.51900
Yb	Yb	0.74954 0.24954 0.25046 1.51900
Yb	Yb	0.75046 0.75046 0.75046 1.51900
O 	O 	0.82743 0.82743 0.82743 -0.75600
H 	H 	0.84413 0.84413 0.84413 0.26100
O 	O 	0.67257 0.17257 0.32743 -0.75600
H 	H 	0.65587 0.15587 0.34413 0.26100
O 	O 	0.17257 0.32743 0.67257 -0.75600
H 	H 	0.15587 0.34413 0.65587 0.26100
O 	O 	0.32743 0.67257 0.17257 -0.75600
H 	H 	0.34413 0.65587 0.15587 0.26100
