data_image0
_cell_length_a       58.0104291215
_cell_length_b       40.3678905779
_cell_length_c       30.7076296033
_cell_angle_alpha    90.2280035785
_cell_angle_beta     90.1911228833
_cell_angle_gamma    90.0340592670

_symmetry_space_group_name_H-M    P-1
_symmetry_int_tables_number       1

loop_
  _symmetry_equiv_pos_as_xyz
  'x, y, z'

loop_
  _atom_site_label
  _atom_site_type_symbol
  _atom_site_fract_x
  _atom_site_fract_y
  _atom_site_fract_z
  N1       N 0.6572190607  0.5089365493  0.0353107303
  N2       N 0.6374103005  0.5202805499  0.0203006611
  C1       C 0.6232267736  0.4947740457  0.0121505303
  C2       C 0.6346278332  0.4656946642  0.0223862362
  C3       C 0.6562266445  0.4756845739  0.0369403616
  H1       H 0.6060175671  0.4974533795  0.9990161918
  H2       H 0.6702290091  0.4601035295  0.0479052165
  Cu1      Cu 0.6302706030  0.5696353303  0.0110435284
  Cu2      Cu 0.6846286016  0.5396611199  0.0506654275
  Cu3      Cu 0.6734115162  0.6289812840  0.0382970415
  N3       N 0.6248609391  0.6198996384  0.0080832944
  N4       N 0.6403529860  0.6422405515  0.0196641853
  C4       C 0.6309381498  0.6726057316  0.0161511825
  C5       C 0.6084946972  0.6689656865  0.0011755472
  C6       C 0.6053040203  0.6351957037  0.9965163025
  H3       H 0.6397930449  0.6955117288  0.0237434518
  H4       H 0.5896808236  0.6224861294  0.9867832609
  N5       N 0.7056287642  0.6080590163  0.0479630285
  N6       N 0.7096912080  0.5760869869  0.0534011625
  C7       C 0.7326000343  0.5710132648  0.0539276214
  C8       C 0.7434444957  0.6011317639  0.0478601593
  C9       C 0.7258197241  0.6240460450  0.0444095927
  H5       H 0.7406656934  0.5468663300  0.0548978625
  H6       H 0.7274620456  0.6501897183  0.0374493979
  N7       N 0.6524522192  0.4967148655  0.4999190249
  N8       N 0.6313798319  0.5091228077  0.4993846353
  C10      C 0.6160492966  0.4840981215  0.4987451662
  C11      C 0.6279316067  0.4542572407  0.4985591467
  C12      C 0.6510515284  0.4633426629  0.4991639382
  H7       H 0.5975588230  0.4874857914  0.4979909467
  H8       H 0.6657821132  0.4469332432  0.4997731030
  Cu4      Cu 0.6244239142  0.5597254730  0.4990638665
  Cu5      Cu 0.6817751305  0.5267486408  0.5024454973
  Cu6      Cu 0.6719678231  0.6174826940  0.5019202173
  N9       N 0.6201525991  0.6109493985  0.4992497395
  N10      N 0.6372576442  0.6325749647  0.5016201787
  C13      C 0.6282611983  0.6635120274  0.5013810028
  C14      C 0.6043940470  0.6610990807  0.4980112370
  C15      C 0.6000376471  0.6273572499  0.4967235790
  H9       H 0.6383502073  0.6860566434  0.5019465609
  H10      H 0.5833612769  0.6155036629  0.4939529174
  N11      N 0.7045930422  0.5946821739  0.5007984520
  N12      N 0.7080153356  0.5622569184  0.5025462575
  C16      C 0.7308715318  0.5562018770  0.5019942567
  C17      C 0.7425288154  0.5860754855  0.4990776492
  C18      C 0.7252566179  0.6098960825  0.4982672751
  H11      H 0.7384330945  0.5317108557  0.5022465974
  H12      H 0.7275529687  0.6364365565  0.4961324789
  O1       O 0.5799713747  0.2113456694  0.9936642931
  O2       O 0.5507190995  0.1217835989  0.9911567554
  O3       O 0.5675993745  0.1658301196  0.9267460716
  O4       O 0.5632020055  0.1671804151  0.0572100961
  O5       O 0.5289219760  0.1912710745  0.0534374576
  O6       O 0.5328355150  0.1880753686  0.9232046173
  O7       O 0.5160731733  0.1450242066  0.9878144221
  O8       O 0.5455782916  0.2345261718  0.9885927268
  Cu7      Cu 0.5663232111  0.1658844254  0.9922791476
  Cu8      Cu 0.5298976176  0.1904120340  0.9880183940
  C19      C 0.5674214723  0.2371931072  0.9917490718
  C20      C 0.5287712076  0.1191863898  0.9894664901
  C21      C 0.5506911659  0.1766866863  0.9042256184
  C22      C 0.5455197758  0.1794247056  0.0760376530
  O9       O 0.5848348080  0.1846185655  0.4867386277
  O10      O 0.5231842600  0.2258111162  0.4937156983
  O11      O 0.5556749864  0.2033713858  0.5558353843
  O12      O 0.5522303683  0.2070469083  0.4252246154
  O13      O 0.5352491619  0.1577344712  0.4246867132
  O14      O 0.5395153110  0.1535435852  0.5547083266
  O15      O 0.5057657821  0.1768356274  0.4950480641
  O16      O 0.5687701815  0.1346834865  0.4845162364
  Cu9      Cu 0.5544809425  0.2068852852  0.4905459170
  Cu10     Cu 0.5367833770  0.1539693896  0.4896992751
  C23      C 0.5867074304  0.1531757106  0.4837500637
  C24      C 0.5048429738  0.2085115364  0.4955615529
  C25      C 0.5482030398  0.1778410850  0.5759512271
  C26      C 0.5431731210  0.1828284181  0.4042687982
  N13      N 0.3271620154  0.5019565085  0.9699013070
  N14      N 0.3477776074  0.4903642978  0.9602113601
  C27      C 0.3625781395  0.5157000862  0.9563328243
  C28      C 0.3507662044  0.5449504592  0.9640979939
  C29      C 0.3282494556  0.5351737730  0.9724352500
  H13      H 0.3807207256  0.5126754437  0.9494867161
  H14      H 0.3138648863  0.5507752761  0.9813637493
  Cu11     Cu 0.3555548765  0.4406973052  0.9577975358
  Cu12     Cu 0.2994258950  0.4712555858  0.9825438562
  Cu13     Cu 0.3140020519  0.3833099806  0.9991028477
  N15      N 0.3621794045  0.3911254925  0.9666288953
  N16      N 0.3474558582  0.3698721047  0.9836155216
  C30      C 0.3577973712  0.3401119666  0.9870920030
  C31      C 0.3800180946  0.3429611831  0.9710352936
  C32      C 0.3821246092  0.3756622073  0.9584889320
  H15      H 0.3496741605  0.3180813697  0.9998612745
  H16      H 0.3972593178  0.3876991465  0.9454590564
  N17      N 0.2810636584  0.4029756711  0.0029597926
  N18      N 0.2757033671  0.4343340044  0.9957417754
  C33      C 0.2526720763  0.4377748697  0.9973646043
  C34      C 0.2430711150  0.4071636033  0.0062651084
  C35      C 0.2616058499  0.3857462353  0.0097007363
  H17      H 0.2436421859  0.4608609199  0.9921159217
  H18      H 0.2610097275  0.3592778342  0.0149479888
  N19      N 0.3340491323  0.5240454625  0.5838576231
  N20      N 0.3550949864  0.5131004098  0.5917212880
  C36      C 0.3702701205  0.5374744963  0.5842625410
  C37      C 0.3582984461  0.5653207777  0.5708074706
  C38      C 0.3352844111  0.5558750315  0.5712049035
  H19      H 0.3887284142  0.5345817689  0.5873200790
  H20      H 0.3205740520  0.5704618259  0.5612090606
  Cu14     Cu 0.3630402798  0.4645798348  0.6062180744
  Cu15     Cu 0.3051920986  0.4938283995  0.5864237436
  Cu16     Cu 0.3175421331  0.4060973610  0.6089365200
  N21      N 0.3685141293  0.4141161007  0.6065456632
  N22      N 0.3517154830  0.3920882927  0.6078717077
  C39      C 0.3604355137  0.3618113982  0.5996710541
  C40      C 0.3838353959  0.3651734574  0.5922159051
  C41      C 0.3883382529  0.3986469351  0.5972027161
  H21      H 0.3501658016  0.3396988564  0.5949343829
  H22      H 0.4044588314  0.4112478709  0.5910421943
  N23      N 0.2853370090  0.4250426362  0.5949374773
  N24      N 0.2807004842  0.4564101859  0.5863009320
  C42      C 0.2584869950  0.4588980346  0.5740034264
  C43      C 0.2487883131  0.4275219148  0.5745239951
  C44      C 0.2663343008  0.4068081344  0.5882632017
  H23      H 0.2504103857  0.4816169701  0.5633309581
  H24      H 0.2657102208  0.3801910462  0.5918876590
  O17      O 0.4087674539  0.7979051046  0.9854305149
  O18      O 0.4365517611  0.8882332543  0.9914330494
  O19      O 0.4222096159  0.8456146237  0.9231483366
  O20      O 0.4232449645  0.8405795020  0.0535597519
  O21      O 0.4584586198  0.8195379565  0.0520299072
  O22      O 0.4565863639  0.8217483113  0.9214719078
  O23      O 0.4714194573  0.8657942565  0.9874265197
  O24      O 0.4433761913  0.7751044954  0.9855714245
  Cu17     Cu 0.4217285497  0.8435871610  0.9885643684
  Cu18     Cu 0.4584260068  0.8199262893  0.9865528493
  C45      C 0.4214765324  0.7721997217  0.9846610140
  C46      C 0.4584643514  0.8913356758  0.9897616727
  C47      C 0.4393535841  0.8343773924  0.9016083598
  C48      C 0.4410182533  0.8297738719  0.0735089587
  O25      O 0.4122617506  0.8117998811  0.4893316395
  O26      O 0.4403491815  0.9029491886  0.4850647224
  O27      O 0.4263412467  0.8553803810  0.4214839731
  O28      O 0.4260711545  0.8588528270  0.5520313958
  O29      O 0.4613803109  0.8373457362  0.5538430653
  O30      O 0.4611239784  0.8327974533  0.4232786082
  O31      O 0.4755345887  0.8807735511  0.4859205680
  O32      O 0.4471705682  0.7900652322  0.4914929106
  Cu19     Cu 0.4250397786  0.8579770311  0.4868146254
  Cu20     Cu 0.4625244682  0.8343561597  0.4885127155
  C49      C 0.4253484043  0.7865357070  0.4920050808
  C50      C 0.4623815709  0.9063774564  0.4850964813
  C51      C 0.4437376449  0.8431547414  0.4017055222
  C52      C 0.4434950231  0.8483240080  0.5735979126
  N25      N 0.8283784947  0.9981933462  0.0157813411
  N26      N 0.8486840270  0.0097031207  0.0038063427
  C53      C 0.8632113612  0.9842814852  0.9978139773
  C54      C 0.8515420352  0.9550845039  0.0063631304
  C55      C 0.8294117997  0.9649509362  0.0175987323
  H25      H 0.8809421399  0.9871333475  0.9877741483
  H26      H 0.8151216865  0.9493122291  0.0268625539
  Cu21     Cu 0.8562737162  0.0592640386  0.9972144039
  Cu22     Cu 0.8004599984  0.0286395033  0.0284808521
  Cu23     Cu 0.8127733597  0.1178955178  0.0248450518
  N27      N 0.8619239966  0.1096185776  0.9985377610
  N28      N 0.8462556344  0.1315166745  0.0104695367
  C56      C 0.8557859533  0.1619348106  0.0102306698
  C57      C 0.8785003004  0.1588535009  0.9970032725
  C58      C 0.8817400469  0.1253297529  0.9899344382
  H27      H 0.8468041353  0.1845249308  0.0186971298
  H28      H 0.8975300317  0.1130468598  0.9804707552
  N29      N 0.7801997752  0.0974639313  0.0304596220
  N30      N 0.7756531708  0.0653925471  0.0325364664
  C59      C 0.7526597705  0.0610367088  0.0325634670
  C60      C 0.7422901527  0.0918101279  0.0297506396
  C61      C 0.7602804183  0.1142791928  0.0286424931
  H29      H 0.7441905460  0.0371543868  0.0318740682
  H30      H 0.7590645242  0.1408863574  0.0252653457
  N31      N 0.8318327583  0.9745871211  0.4198829132
  N32      N 0.8531503578  0.9857276924  0.4164867864
  C62      C 0.8679449924  0.9608057860  0.4235707852
  C63      C 0.8554264811  0.9323237040  0.4320380145
  C64      C 0.8325066389  0.9420782293  0.4292346542
  H31      H 0.8864689086  0.9636582285  0.4231748559
  H32      H 0.8173753938  0.9270371117  0.4347342219
  Cu24     Cu 0.8617166532  0.0346290927  0.4066008400
  Cu25     Cu 0.8031104023  0.0048771043  0.4143609707
  Cu26     Cu 0.8163334650  0.0927237293  0.3956731864
  N33      N 0.8670075534  0.0850658211  0.4070639322
  N34      N 0.8502866844  0.1069462364  0.4026345225
  C65      C 0.8587687697  0.1374749329  0.4102055759
  C66      C 0.8819345377  0.1344420525  0.4204324965
  C67      C 0.8865514908  0.1008629195  0.4177707022
  H33      H 0.8484721193  0.1597903725  0.4115130922
  H34      H 0.9026277856  0.0885283141  0.4252249899
  N35      N 0.7836221872  0.0736070700  0.4034096809
  N36      N 0.7786076761  0.0421933224  0.4109064056
  C68      C 0.7559258288  0.0396511390  0.4193877004
  C69      C 0.7462996788  0.0710477232  0.4175266842
  C70      C 0.7644149657  0.0918050723  0.4069646088
  H35      H 0.7474087151  0.0168940448  0.4285613044
  H36      H 0.7640265218  0.1184511686  0.4036388501
  O33      O 0.9077024837  0.7007069576  0.9952447072
  O34      O 0.9362130949  0.6106302785  0.9958084406
  O35      O 0.9237937108  0.6573243988  0.0606581241
  O36      O 0.9201352544  0.6537375513  0.9301177072
  O37      O 0.9545457406  0.6771099300  0.9266667069
  O38      O 0.9586959219  0.6796341678  0.0573661679
  O39      O 0.9709813496  0.6336269551  0.9920674936
  O40      O 0.9422128665  0.7236736960  0.9922855803
  Cu27     Cu 0.9209911711  0.6550542450  0.9955665191
  Cu28     Cu 0.9575770580  0.6792172687  0.9918501417
  C71      C 0.9203426717  0.7264879456  0.9938843908
  C72      C 0.9581615287  0.6079037210  0.9942585293
  C73      C 0.9418500989  0.6684495235  0.0797264654
  C74      C 0.9368840586  0.6648763800  0.9076444780
  O41      O 0.9120058976  0.6825962249  0.4900652650
  O42      O 0.9408989338  0.5925505628  0.4928537336
  O43      O 0.9239240740  0.6376942806  0.5568786511
  O44      O 0.9288326580  0.6382012916  0.4262288501
  O45      O 0.9631875475  0.6623597324  0.4305640763
  O46      O 0.9588601483  0.6599685584  0.5608597168
  O47      O 0.9757730253  0.6155812594  0.4963603435
  O48      O 0.9463242725  0.7060849731  0.4948983019
  Cu29     Cu 0.9252257580  0.6370213523  0.4913351160
  Cu30     Cu 0.9622396198  0.6618699675  0.4959537605
  C75      C 0.9244713227  0.7085476686  0.4914535758
  C76      C 0.9629084275  0.5896381610  0.4949161144
  C77      C 0.9408075721  0.6488238369  0.5795437588
  C78      C 0.9464860117  0.6508835098  0.4077270607
  N37      N 0.1559488988  0.9930710878  0.9383804519
  N38      N 0.1351995862  0.9805764171  0.9320573446
  C79      C 0.1197281385  0.0052367618  0.9315622338
  C80      C 0.1312577921  0.0349669022  0.9381652474
  C81      C 0.1543040893  0.0261463157  0.9421294707
  H37      H 0.1013545394  0.0013103365  0.9287825283
  H38      H 0.1687477838  0.0421547367  0.9495302865
  Cu31     Cu 0.1284341617  0.9305182334  0.9318699293
  Cu32     Cu 0.1846392460  0.9637601320  0.9475610729
  Cu33     Cu 0.1729723205  0.8758183067  0.9698674857
  N39      N 0.1233213997  0.8809551123  0.9441306567
  N40      N 0.1392106238  0.8607414474  0.9596556838
  C82      C 0.1295733237  0.8308606427  0.9666870562
  C83      C 0.1065373752  0.8324970692  0.9546195124
  C84      C 0.1032807707  0.8646803565  0.9405978255
  H39      H 0.1386647734  0.8096343373  0.9795434131
  H40      H 0.0873239217  0.8759549779  0.9299791075
  N41      N 0.2053446935  0.8976524206  0.9713592862
  N42      N 0.2095638558  0.9290283830  0.9619896013
  C85      C 0.2323786489  0.9344925919  0.9641929593
  C86      C 0.2430562169  0.9052253226  0.9758052135
  C87      C 0.2253901033  0.8824119645  0.9801304002
  H41      H 0.2404991343  0.9581681700  0.9582345841
  H42      H 0.2269710267  0.8564299538  0.9880895231
  N43      N 0.1526206476  0.9996849148  0.5088405627
  N44      N 0.1314604360  0.9876617189  0.5064962317
  C88      C 0.1163836671  0.0129538227  0.5052063360
  C89      C 0.1285143222  0.0425917139  0.5069723388
  C90      C 0.1515171678  0.0330802056  0.5094329738
  H43      H 0.0978929989  0.0098667131  0.5030950631
  H44      H 0.1664063826  0.0492135495  0.5103184808
  Cu34     Cu 0.1240405614  0.9372233452  0.5039980117
  Cu35     Cu 0.1817071562  0.9691628860  0.5082307189
  Cu36     Cu 0.1710060824  0.8796068200  0.4902676076
  N45      N 0.1194292212  0.8861532833  0.4998350856
  N46      N 0.1362841569  0.8646679257  0.4932817986
  C91      C 0.1271536301  0.8338182645  0.4918053618
  C92      C 0.1034830332  0.8360868273  0.4984186417
  C93      C 0.0993657788  0.8697011949  0.5033601776
  H45      H 0.1370757138  0.8113410371  0.4877556560
  H46      H 0.0828901385  0.8814472841  0.5091159597
  N47      N 0.2038693477  0.9016642314  0.4938249773
  N48      N 0.2076144432  0.9335073965  0.5017695291
  C94      C 0.2305379569  0.9390323646  0.5030706968
  C95      C 0.2419401130  0.9094460002  0.4951408605
  C96      C 0.2243938174  0.8863485975  0.4893688519
  H47      H 0.2383237797  0.9630840476  0.5083028181
  H48      H 0.2263902579  0.8601659153  0.4827775602
  O49      O 0.0779008179  0.2856451253  0.9961737241
  O50      O 0.0519665294  0.3773821300  0.0031403106
  O51      O 0.0643292968  0.3284752374  0.0650320888
  O52      O 0.0656228574  0.3344956091  0.9347536928
  O53      O 0.0303104262  0.3136383665  0.9327024021
  O54      O 0.0288833411  0.3081757991  0.0629520204
  O55      O 0.0165274320  0.3565652993  0.0008523168
  O56      O 0.0425526019  0.2652456327  0.9945197917
  Cu37     Cu 0.0659351927  0.3320792417  0.0000646809
  Cu38     Cu 0.0285975032  0.3103615801  0.9976614856
  C97      C 0.0642995817  0.2608921337  0.9935566291
  C98      C 0.0301132606  0.3814675710  0.0026668962
  C99      C 0.0465358784  0.3175604647  0.0847124581
  C100     C 0.0480926970  0.3245875316  0.9130086494
  O57      O 0.0884671384  0.3133407443  0.4995173217
  O58      O 0.0263931787  0.2726826051  0.5000423296
  O59      O 0.0573321443  0.2921442447  0.4342391726
  O60      O 0.0573193226  0.2937716774  0.5648028151
  O61      O 0.0407118603  0.3433136347  0.5636277244
  O62      O 0.0413952636  0.3420818245  0.4331450125
  O63      O 0.0093512743  0.3218506721  0.4971569719
  O64      O 0.0726125586  0.3634100760  0.4995962972
  Cu39     Cu 0.0578689690  0.2913373523  0.4995838346
  Cu40     Cu 0.0405165741  0.3444019496  0.4983218972
  C101     C 0.0904851940  0.3448463949  0.5004310382
  C102     C 0.0081486555  0.2902167538  0.4983827851
  C103     C 0.0493337764  0.3167917742  0.4129761795
  C104     C 0.0490016662  0.3188510905  0.5849084742
  C105     C 0.0644267889  0.3434944972  0.7959759756
  C106     C 0.0486080575  0.3236951940  0.7729902981
  C107     C 0.0325299908  0.3047174637  0.7961412520
  C108     C 0.0323254873  0.3055594245  0.8415777669
  C109     C 0.0483225542  0.3250091338  0.8648335886
  C110     C 0.0644359817  0.3440669504  0.8415392510
  C111     C 0.0490176878  0.3226288096  0.7249029552
  F1       F 0.0168057225  0.2857140692  0.7747503733
  H49      H 0.0197669292  0.2905846426  0.8585908818
  F2       F 0.0800379414  0.3634699608  0.8626138185
  H50      H 0.0769776329  0.3582025354  0.7785489681
  C112     C 0.0461920768  0.3516625006  0.7004497776
  C113     C 0.0460683007  0.3501891839  0.6549734922
  C114     C 0.0490710511  0.3198236334  0.6330952308
  C115     C 0.0521250660  0.2907882648  0.6577682866
  C116     C 0.0519658408  0.2922763782  0.7032385330
  F3       F 0.0430203321  0.3813085056  0.7205654838
  H51      H 0.0437394316  0.3729202038  0.6368604555
  F4       F 0.0548575480  0.2608648410  0.6381350103
  H52      H 0.0542461726  0.2696784735  0.7216716204
  C117     C 0.0611788764  0.2922219490  0.2956129269
  C118     C 0.0477386715  0.3153220562  0.2728693990
  C119     C 0.0348809305  0.3388093620  0.2962971051
  C120     C 0.0356306457  0.3392471229  0.3417717123
  C121     C 0.0490081022  0.3160642028  0.3647536857
  C122     C 0.0617820579  0.2923965980  0.3411251475
  C123     C 0.0474305351  0.3150941260  0.2247341632
  F5       F 0.0220090580  0.3618044417  0.2751573395
  H53      H 0.0256046605  0.3577085429  0.3590083910
  F6       F 0.0751032077  0.2696833417  0.3617893886
  H54      H 0.0711354474  0.2738748685  0.2780116434
  C124     C 0.0680243634  0.3180720336  0.2011778057
  C125     C 0.0675510912  0.3186909929  0.1557242224
  C126     C 0.0465774059  0.3160116418  0.1328667253
  C127     C 0.0259643459  0.3125455919  0.1565745208
  C128     C 0.0264593821  0.3122697412  0.2021104065
  F7       F 0.0885413265  0.3212960200  0.2221695559
  H55      H 0.0836796697  0.3213203366  0.1383939009
  F8       F 0.0052898277  0.3101411491  0.1359659379
  H56      H 0.0104355629  0.3097792963  0.2198213957
  C129     C 0.0731426366  0.2407087994  0.4998474722
  C130     C 0.0606147544  0.2151085526  0.4804006941
  C131     C 0.0689356567  0.1826297231  0.4804057096
  C132     C 0.0904167776  0.1747786328  0.4997979593
  C133     C 0.1033694371  0.2012134055  0.5186152727
  C134     C 0.0945376263  0.2337885464  0.5187625791
  C135     C 0.1250191721  0.1949312895  0.5370998841
  C136     C 0.1341163038  0.1629900519  0.5373724276
  C137     C 0.1216724906  0.1363302705  0.5197680123
  C138     C 0.0995405121  0.1417900082  0.5010540797
  C139     C 0.0874307798  0.1139073670  0.4848313520
  C140     C 0.0968878316  0.0821151642  0.4869867715
  C141     C 0.1188153178  0.0767654491  0.5049593269
  C142     C 0.1311611254  0.1041588611  0.5211092270
  H57      H 0.0442064348  0.2203983241  0.4651399576
  H58      H 0.0582223284  0.1643238017  0.4646799693
  H59      H 0.1042042631  0.2538789488  0.5335359791
  H60      H 0.1350452698  0.2149120382  0.5513272090
  H61      H 0.1509637982  0.1590689870  0.5518068979
  H62      H 0.0704841775  0.1157470125  0.4706086577
  H63      H 0.0869592961  0.0616300212  0.4739416335
  H64      H 0.1480252770  0.1004074078  0.5355460386
  C143     C 0.0736485155  0.2271688723  0.9880453793
  C144     C 0.0586796242  0.2002166364  0.9828595282
  C145     C 0.0672202146  0.1685619657  0.9747699648
  C146     C 0.0911917020  0.1628018982  0.9714388716
  C147     C 0.1063350395  0.1901256259  0.9777446472
  C148     C 0.0974888996  0.2218685663  0.9859300543
  C149     C 0.1302179141  0.1856861720  0.9754685636
  C150     C 0.1394486493  0.1545969334  0.9669478466
  C151     C 0.1250094790  0.1272593738  0.9601896333
  C152     C 0.1006737465  0.1309761012  0.9620851751
  C153     C 0.0869008169  0.1026925612  0.9542611350
  C154     C 0.0968662562  0.0719655568  0.9458463265
  C155     C 0.1208765733  0.0681709024  0.9448874340
  C156     C 0.1348184416  0.0961437173  0.9516639521
  H65      H 0.0401753783  0.2036128466  0.9844636493
  H66      H 0.0545556261  0.1492303677  0.9711441270
  H67      H 0.1092308320  0.2425694906  0.9900537340
  H68      H 0.1418481703  0.2064109959  0.9803160328
  H69      H 0.1580226737  0.1519389244  0.9655104242
  H70      H 0.0683466674  0.1033685485  0.9543954587
  H71      H 0.0854903261  0.0511174633  0.9405502316
  H72      H 0.1533967421  0.0938908317  0.9505545650
  C157     C 0.9701772244  0.4956211794  0.4942458992
  C158     C 0.9942167459  0.4921202488  0.4973033100
  C159     C 0.0078849108  0.5209276180  0.4994577493
  C160     C 0.9976420016  0.5523889616  0.4986571391
  C161     C 0.9735472531  0.5559628002  0.4956597188
  C162     C 0.9599032295  0.5270147952  0.4934615130
  C163     C 0.0048327876  0.4584477570  0.4978008426
  F9       F 0.0311451472  0.5187009221  0.5033724449
  H73      H 0.0086593181  0.5740152111  0.5005810613
  F10      F 0.9365909204  0.5288135326  0.4903714550
  H74      H 0.9592711710  0.4738940145  0.4919274791
  C164     C 0.9966112061  0.4335763838  0.5259378224
  C165     C 0.0065710675  0.4019290285  0.5256355512
  C166     C 0.0247625603  0.3945382037  0.4974814553
  C167     C 0.0330360200  0.4190681083  0.4694874610
  C168     C 0.0231557655  0.4507526306  0.4695757173
  F11      F 0.9793347977  0.4400763300  0.5544124076
  H75      H 0.0002566367  0.3830589662  0.5474965800
  F12      F 0.0506859509  0.4122041751  0.4421071528
  H76      H 0.0296469876  0.4691921212  0.4472143604
  C169     C 0.0860661731  0.8090693866  0.5019891591
  C170     C 0.0675079322  0.8128201033  0.5306537810
  C171     C 0.0502382985  0.7888023259  0.5334786114
  C172     C 0.0505711575  0.7601438462  0.5068220931
  C173     C 0.0693218663  0.7563709077  0.4774679469
  C174     C 0.0870926571  0.7803843436  0.4759698997
  C175     C 0.0698338915  0.7291290338  0.4490053509
  C176     C 0.0518540496  0.7061061060  0.4481922093
  C177     C 0.0331146404  0.7091472262  0.4766114169
  C178     C 0.0325802890  0.7357440256  0.5072258510
  C179     C 0.0137932541  0.7370805240  0.5364119964
  C180     C 0.9957732185  0.7142492462  0.5336021194
  C181     C 0.9957236622  0.6892527199  0.5021276431
  C182     C 0.0145800641  0.6863409685  0.4740264103
  H77      H 0.0663190002  0.8345822609  0.5512695633
  H78      H 0.0365321678  0.7938941800  0.5561064878
  H79      H 0.1012299563  0.7774109132  0.4532925850
  H80      H 0.0839958126  0.7260225370  0.4264322616
  H81      H 0.0525582120  0.6858515189  0.4249697744
  H82      H 0.0123371726  0.7557016858  0.5614681827
  H83      H 0.9811796934  0.7168041753  0.5551787511
  H84      H 0.0143535355  0.6670835546  0.4493730911
  C183     C 0.9496354249  0.6810153444  0.7884952756
  C184     C 0.9357154098  0.6572297891  0.7676539297
  C185     C 0.9217592416  0.6365002862  0.7932431607
  C186     C 0.9217859389  0.6397050791  0.8386557822
  C187     C 0.9360393308  0.6631101779  0.8594832833
  C188     C 0.9499279898  0.6839008186  0.8338461589
  C189     C 0.9366532636  0.6536783583  0.7194887026
  F13      F 0.9088719038  0.6121851277  0.7745981958
  H85      H 0.9111453931  0.6231322197  0.8576391973
  F14      F 0.9636711101  0.7072562368  0.8524487315
  H86      H 0.9603912279  0.6974409798  0.7695176327
  C190     C 0.9164680283  0.6522631278  0.6939419815
  C191     C 0.9179177616  0.6497784564  0.6485246827
  C192     C 0.9394540388  0.6493494817  0.6276923014
  C193     C 0.9596136128  0.6506482267  0.6533062196
  C194     C 0.9581520808  0.6526335441  0.6986246871
  F15      F 0.8953656006  0.6547201105  0.7126276081
  H87      H 0.9021485564  0.6492238456  0.6295428016
  F16      F 0.9807989205  0.6496989890  0.6346862787
  H88      H 0.9739346858  0.6533823126  0.7175614118
  C195     C 0.9653330037  0.6645307327  0.1952668229
  C196     C 0.9449433913  0.6621534971  0.2196619807
  C197     C 0.9236128247  0.6636648765  0.1977724757
  C198     C 0.9228062430  0.6660257698  0.1524031735
  C199     C 0.9431797706  0.6677162635  0.1278961131
  C200     C 0.9645302057  0.6674055276  0.1498605121
  C201     C 0.9460470967  0.6582721218  0.2677612173
  F17      F 0.9035055484  0.6635322603  0.2202591685
  H89      H 0.9061425903  0.6667258014  0.1364017450
  F18      F 0.9846494609  0.6686631906  0.1274781093
  H90      H 0.9819588152  0.6634886725  0.2113600711
  C202     C 0.9327955100  0.6340359221  0.2890326430
  C203     C 0.9332209020  0.6316268461  0.3344248922
  C204     C 0.9472329958  0.6527465738  0.3595695329
  C205     C 0.9611453786  0.6762004748  0.3382172282
  C206     C 0.9604447720  0.6789349017  0.2928022905
  F19      F 0.9197408240  0.6122238234  0.2659324577
  H91      H 0.9226216043  0.6130198394  0.3499400912
  F20      F 0.9748086217  0.6973188237  0.3611783006
  H92      H 0.9708309200  0.6977434399  0.2772005589
  C207     C 0.9671526095  0.5154052146  0.9839974593
  C208     C 0.9895891625  0.5118764685  0.0006828938
  C209     C 0.0016794045  0.5402299137  0.0146186262
  C210     C 0.9914406890  0.5714250973  0.0117882968
  C211     C 0.9688858964  0.5748630161  0.9957026225
  C212     C 0.9567680634  0.5465290207  0.9818303032
  C213     C 0.0003066961  0.4786589652  0.0028518671
  F21      F 0.0231381127  0.5377173648  0.0320609329
  H93      H 0.0010083178  0.5928729410  0.0230871108
  F22      F 0.9351014554  0.5489222415  0.9652959757
  H94      H 0.9577048597  0.4940154795  0.9721874486
  C214     C 0.9880716279  0.4515224437  0.0197434438
  C215     C 0.9979690939  0.4200395675  0.0198104908
  C216     C 0.0203404001  0.4151176293  0.0037645700
  C217     C 0.0327877126  0.4423435222  0.9877065361
  C218     C 0.0227328732  0.4737476597  0.9869827657
  F23      F 0.9666728920  0.4554938481  0.0367454060
  H95      H 0.9881567299  0.3994763806  0.0327251298
  F24      F 0.0542984345  0.4384610297  0.9711719073
  H96      H 0.0323235163  0.4941527803  0.9731228188
  C219     C 0.9909197936  0.7033894255  0.9855499898
  C220     C 0.0101236836  0.6971180783  0.0115810586
  C221     C 0.0303783927  0.7155905806  0.0060596622
  C222     C 0.0316390716  0.7409024619  0.9741816658
  C223     C 0.0118865649  0.7463239293  0.9475606573
  C224     C 0.9919122284  0.7276419964  0.9536358362
  C225     C 0.0119137879  0.7707865875  0.9155163188
  C226     C 0.0310234911  0.7908436908  0.9098854335
  C227     C 0.0505258307  0.7868960171  0.9361926850
  C228     C 0.0513899851  0.7615927026  0.9682739681
  C229     C 0.0717910459  0.7587250319  0.9934220510
  C230     C 0.0900773355  0.7809942909  0.9880755032
  C231     C 0.0885533516  0.8066610864  0.9576416324
  C232     C 0.0689698687  0.8088269796  0.9311321218
  H97      H 0.0092268805  0.6782491722  0.0364483615
  H98      H 0.0445782941  0.7098499726  0.0274444087
  H99      H 0.9767179354  0.7323486866  0.9340767431
  H100     H 0.9969009336  0.7747676247  0.8950779472
  H101     H 0.0303911522  0.8099788981  0.8852390484
  H102     H 0.0739457002  0.7399444907  0.0179436244
  H103     H 0.1051152428  0.7787430361  0.0088291630
  H104     H 0.0678605747  0.8280748197  0.9067046583
  C233     C 0.8976681741  0.1604013926  0.4368275427
  C234     C 0.8953675688  0.1934021414  0.4237015728
  C235     C 0.9111868809  0.2173999496  0.4376862383
  C236     C 0.9297591267  0.2089254552  0.4655205533
  C237     C 0.9312269885  0.1755995753  0.4801589762
  C238     C 0.9153174347  0.1519183471  0.4658069724
  C239     C 0.9489338921  0.1657168535  0.5081879651
  C240     C 0.9660349505  0.1878375944  0.5203836954
  C241     C 0.9658012415  0.2203078433  0.5047881055
  C242     C 0.9473982366  0.2317774937  0.4781425362
  C243     C 0.9481067235  0.2651364001  0.4639383577
  C244     C 0.9672149988  0.2852654935  0.4730087804
  C245     C 0.9859196125  0.2727176798  0.4965730715
  C246     C 0.9845941773  0.2408163758  0.5139548404
  H105     H 0.8816633828  0.2005175866  0.4016102387
  H106     H 0.9086651540  0.2421635889  0.4256054623
  H107     H 0.9168251092  0.1266217535  0.4771677199
  H108     H 0.9499236983  0.1404316350  0.5198081516
  H109     H 0.9799466135  0.1791772924  0.5410622983
  H110     H 0.9346072419  0.2759471740  0.4444528610
  H111     H 0.9679160204  0.3099923601  0.4594982475
  H112     H 0.9989171386  0.2312230330  0.5329075562
  C247     C 0.8646761022  0.8991523023  0.4431874930
  C248     C 0.8501468501  0.8714517479  0.4445483521
  C249     C 0.8588467086  0.8401467580  0.4545041835
  C250     C 0.8825622951  0.8354376021  0.4633946421
  C251     C 0.8972050421  0.8636379239  0.4622537138
  C252     C 0.8881972068  0.8949602830  0.4524308595
  C253     C 0.9208387263  0.8604429601  0.4705119297
  C254     C 0.9303941336  0.8296268214  0.4791458410
  C255     C 0.9165254797  0.8012901414  0.4799849753
  C256     C 0.8923537587  0.8037861775  0.4726915076
  C257     C 0.8791241262  0.7744123876  0.4744981632
  C258     C 0.8895645668  0.7438275280  0.4817164169
  C259     C 0.9134690390  0.7413976371  0.4875627352
  C260     C 0.9267955159  0.7703391268  0.4873652671
  H113     H 0.8319451850  0.8737297220  0.4374157167
  H114     H 0.8465639075  0.8201336769  0.4545185598
  H115     H 0.8997090224  0.9160581611  0.4520635906
  H116     H 0.9320742895  0.8818972832  0.4697992720
  H117     H 0.9488038417  0.8279122961  0.4848578014
  H118     H 0.8607050749  0.7741114260  0.4700235762
  H119     H 0.8788224235  0.7218646655  0.4819401249
  H120     H 0.9453002488  0.7687564660  0.4920578720
  C261     C 0.8961778465  0.1849292925  0.9929895445
  C262     C 0.8959176518  0.2129376246  0.0199869790
  C263     C 0.9141498798  0.2356129787  0.0192607691
  C264     C 0.9331692184  0.2308729965  0.9911492058
  C265     C 0.9325153231  0.2033707259  0.9620597479
  C266     C 0.9142176410  0.1808063116  0.9633778600
  C267     C 0.9504257295  0.1979213471  0.9325414906
  C268     C 0.9695278107  0.2185414969  0.9322629466
  C269     C 0.9712617117  0.2448189621  0.9618480542
  C270     C 0.9530646180  0.2517483357  0.9914971167
  C271     C 0.9561138067  0.2783920223  0.0212349649
  C272     C 0.9767565098  0.2963501580  0.0223739093
  C273     C 0.9944915894  0.2885384576  0.9936951924
  C274     C 0.9915635350  0.2634602188  0.9630403182
  H121     H 0.8820076383  0.2167020853  0.0429097697
  H122     H 0.9130324934  0.2562809187  0.0414662438
  H123     H 0.9142135356  0.1595805723  0.9416225232
  H124     H 0.9498519124  0.1771856579  0.9100237337
  H125     H 0.9833410335  0.2133442105  0.9095490387
  H126     H 0.9432260773  0.2852210309  0.0448020069
  H127     H 0.9792395498  0.3157695995  0.0463265016
  H128     H 0.0056807904  0.2576650340  0.9413220237
  C275     C 0.8608888471  0.9209582218  0.0042199812
  C276     C 0.8461305856  0.8934975619  0.0049479861
  C277     C 0.8548923188  0.8613459212  0.0027902929
  C278     C 0.8788877236  0.8555553773  0.9998642742
  C279     C 0.8937786796  0.8835086349  0.9991859276
  C280     C 0.8847255553  0.9156514773  0.0013677954
  C281     C 0.9176707379  0.8793028641  0.9964445799
  C282     C 0.9271870709  0.8477997130  0.9944709376
  C283     C 0.9130397839  0.8197479338  0.9951885056
  C284     C 0.8886725553  0.8231427485  0.9977656577
  C285     C 0.8752204516  0.7939265694  0.9982641351
  C286     C 0.8855535456  0.7627730418  0.9966947362
  C287     C 0.9095673828  0.7596101215  0.9945300793
  C288     C 0.9231912283  0.7882492683  0.9935562829
  H129     H 0.8276465263  0.8967131576  0.0068101429
  H130     H 0.8423978816  0.8416153858  0.0034678571
  H131     H 0.8964479093  0.9365235621  0.0012715722
  H132     H 0.9290994124  0.9005497372  0.9958967618
  H133     H 0.9457620140  0.8453611422  0.9924694009
  H134     H 0.8566834341  0.7942258124  0.9999802354
  H135     H 0.8746124488  0.7410224144  0.9973811562
  H136     H 0.9417995800  0.7860811848  0.9917818500
  C289     C 0.3886868041  0.8763334559  0.4840839214
  C290     C 0.3742757144  0.8585735468  0.4560006149
  C291     C 0.3505114840  0.8639362562  0.4554057309
  C292     C 0.3402538990  0.8876291215  0.4832666186
  C293     C 0.3551466200  0.9069175771  0.5103176255
  C294     C 0.3791808272  0.9008388112  0.5108692946
  C295     C 0.3458535723  0.9316832992  0.5370605892
  C296     C 0.3221562461  0.9375576318  0.5377758509
  C297     C 0.3069901545  0.9182421769  0.5126690766
  C298     C 0.3158090053  0.8927010986  0.4854369046
  C299     C 0.2997188162  0.8728360437  0.4623908296
  C300     C 0.2759801584  0.8782331041  0.4660356957
  C301     C 0.2673080076  0.9038876203  0.4920841886
  C302     C 0.2830084194  0.9239674921  0.5151341223
  H137     H 0.3815348801  0.8395908047  0.4352249008
  H138     H 0.3406489327  0.8490274526  0.4329063864
  H139     H 0.3904461124  0.9144333159  0.5327395023
  H140     H 0.3570021884  0.9466613099  0.5575732098
  H141     H 0.3155980604  0.9570090921  0.5587589797
  H142     H 0.3048988361  0.8525039744  0.4418183251
  H143     H 0.2643414059  0.8623970487  0.4477932469
  H144     H 0.2765360245  0.9436060990  0.5359187323
  C303     C 0.4211708042  0.8472566650  0.6895796048
  C304     C 0.4417268012  0.8454726600  0.7137309801
  C305     C 0.4628966325  0.8454531072  0.6914168843
  C306     C 0.4633529821  0.8465996847  0.6459223109
  C307     C 0.4427808555  0.8482655451  0.6217767943
  C308     C 0.4216161903  0.8488585134  0.6441441208
  C309     C 0.4409156516  0.8426814361  0.7619263195
  F25      F 0.4831764694  0.8448098292  0.7135802888
  H145     H 0.4798678202  0.8463673251  0.6295613157
  F26      F 0.4012743076  0.8498181433  0.6221949169
  H146     H 0.4046518583  0.8466802773  0.7058900558
  C310     C 0.4266743524  0.8635422123  0.7869707939
  C311     C 0.4258959128  0.8602524190  0.8322685500
  C312     C 0.4395073735  0.8364768037  0.8535311692
  C313     C 0.4536773424  0.8155336155  0.8284673705
  C314     C 0.4541985225  0.8185260569  0.7831748706
  F27      F 0.4140096808  0.8877508041  0.7678343480
  H147     H 0.4150177047  0.8768800775  0.8508336832
  F28      F 0.4667606302  0.7917547134  0.8475533012
  H148     H 0.4648776322  0.8016552417  0.7645914776
  C315     C 0.4216380084  0.8318056649  0.1912305075
  C316     C 0.4427796279  0.8340153181  0.2134672221
  C317     C 0.4633703665  0.8335002008  0.1893097698
  C318     C 0.4626809799  0.8312010285  0.1438739491
  C319     C 0.4415057276  0.8298795852  0.1216358459
  C320     C 0.4209288219  0.8300056892  0.1458168470
  C321     C 0.4431660008  0.8367279160  0.2617007916
  F29      F 0.4841423536  0.8363988378  0.2094528914
  H149     H 0.4787454073  0.8314364466  0.1259873158
  F30      F 0.4000971789  0.8280032541  0.1257027987
  H150     H 0.4055792646  0.8313481577  0.2091096242
  C322     C 0.4286595966  0.8591943407  0.2836075420
  C323     C 0.4288555107  0.8610104067  0.3290760884
  C324     C 0.4437253890  0.8408829234  0.3535987034
  C325     C 0.4583608883  0.8185876775  0.3316550352
  C326     C 0.4579136539  0.8164510804  0.2862389637
  F31      F 0.4146606965  0.8799586562  0.2610674464
  H151     H 0.4175600301  0.8785621602  0.3451007764
  F32      F 0.4727198594  0.7982084655  0.3539733660
  H152     H 0.4689185824  0.7985242073  0.2702220452
  C327     C 0.3870122353  0.8629789045  0.9920603165
  C328     C 0.3721849612  0.8465338400  0.0201583681
  C329     C 0.3488611628  0.8542637384  0.0211240246
  C330     C 0.3396812081  0.8787788799  0.9932936822
  C331     C 0.3552221352  0.8965793468  0.9661967464
  C332     C 0.3787763320  0.8883647599  0.9656811833
  C333     C 0.3470372818  0.9218114942  0.9391643979
  C334     C 0.3236451907  0.9293144975  0.9377421122
  C335     C 0.3078489424  0.9113191356  0.9626716909
  C336     C 0.3156367933  0.8857462390  0.9907811688
  C337     C 0.2989390567  0.8675139319  0.0141061831
  C338     C 0.2755289256  0.8741072478  0.0092375291
  C339     C 0.2679512084  0.8992996987  0.9815975540
  C340     C 0.2842048655  0.9181732751  0.9588597994
  H153     H 0.3787139629  0.8268795456  0.0405977519
  H154     H 0.3385235259  0.8403305368  0.0436319361
  H155     H 0.3906302365  0.9008472498  0.9440505222
  H156     H 0.3587765035  0.9356366806  0.9187150745
  H157     H 0.3178056071  0.9488481675  0.9162586075
  H158     H 0.3032917287  0.8475048580  0.0356938368
  H159     H 0.2632889399  0.8594113996  0.0274249823
  H160     H 0.2784242638  0.9374905950  0.9369792582
  C341     C 0.2254842021  0.4175245640  0.5599264697
  C342     C 0.2074251843  0.4404799486  0.5581936602
  C343     C 0.1853109508  0.4306606407  0.5453658591
  C344     C 0.1806109928  0.3973596439  0.5337670537
  C345     C 0.1991950385  0.3744305285  0.5347182051
  C346     C 0.2212408551  0.3846561177  0.5475690153
  C347     C 0.1956880838  0.3412192742  0.5234208398
  C348     C 0.1738838966  0.3299204504  0.5123100963
  C349     C 0.1551003169  0.3515917068  0.5121545421
  C350     C 0.1581528403  0.3857426934  0.5221504153
  C351     C 0.1384881232  0.4064662120  0.5209956580
  C352     C 0.1166248874  0.3934393494  0.5123120889
  C353     C 0.1137084845  0.3595166173  0.5043107649
  C354     C 0.1331287414  0.3389590161  0.5031989068
  H161     H 0.2102562401  0.4660526541  0.5675276855
  H162     H 0.1722508442  0.4496192554  0.5453410330
  H163     H 0.2351440519  0.3667643067  0.5477813465
  H164     H 0.2098535108  0.3237195424  0.5238507152
  H165     H 0.1716317292  0.3039085354  0.5044670656
  H166     H 0.1393444106  0.4326822558  0.5274901007
  H167     H 0.1018780873  0.4098781111  0.5130985949
  H168     H 0.1311075043  0.3126926005  0.4966360053
  C355     C 0.3682564265  0.5972186097  0.5562039306
  C356     C 0.3917568504  0.5994127061  0.5462204736
  C357     C 0.4014895487  0.6292150130  0.5328679524
  C358     C 0.3879967560  0.6581923674  0.5291186819
  C359     C 0.3641005433  0.6558725959  0.5388318902
  C360     C 0.3544833109  0.6255784951  0.5520395678
  C361     C 0.3499960090  0.6838961163  0.5358343500
  C362     C 0.3592018750  0.7143957036  0.5241870499
  C363     C 0.3827248865  0.7175987795  0.5151153152
  C364     C 0.3974277496  0.6894597288  0.5168680062
  C365     C 0.4210149218  0.6939947540  0.5070232808
  C366     C 0.4297634500  0.7253063670  0.4976902709
  C367     C 0.4153717897  0.7531324507  0.4974459130
  C368     C 0.3917468045  0.7489773147  0.5052596035
  H169     H 0.4028432665  0.5779484789  0.5483478315
  H170     H 0.4196747265  0.6286790643  0.5260124237
  H171     H 0.3363022969  0.6243336192  0.5598070577
  H172     H 0.3317532259  0.6823028004  0.5430502111
  H173     H 0.3478809644  0.7357174030  0.5227438496
  H174     H 0.4332855674  0.6739967161  0.5068587756
  H175     H 0.4480493937  0.7277662242  0.4913799780
  H176     H 0.3804362775  0.7703576674  0.5050374123
  C369     C 0.1009347637  0.3507184243  0.0043799728
  C370     C 0.1161066894  0.3330708291  0.0306526199
  C371     C 0.1391716580  0.3422346423  0.0336995470
  C372     C 0.1476932625  0.3696680208  0.0101755887
  C373     C 0.1318233017  0.3881467690  0.9844219491
  C374     C 0.1085942873  0.3783668222  0.9816088902
  C375     C 0.1393062485  0.4159693106  0.9614112115
  C376     C 0.1623100513  0.4256626791  0.9629520712
  C377     C 0.1784366647  0.4074952393  0.9870535004
  C378     C 0.1713720148  0.3791902466  0.0109726287
  C379     C 0.1884189046  0.3612264120  0.0339116637
  C380     C 0.2114935806  0.3706759895  0.0325832578
  C381     C 0.2183867009  0.3984678377  0.0089050152
  C382     C 0.2017196973  0.4170755908  0.9866807334
  H177     H 0.1099720114  0.3118136834  0.0485649569
  H178     H 0.1497994274  0.3273030022  0.0546710070
  H179     H 0.0964542612  0.3918392804  0.9615008408
  H180     H 0.1273026673  0.4302521997  0.9419528122
  H181     H 0.1675925831  0.4472531489  0.9446317857
  H182     H 0.1846222534  0.3394109911  0.0526284526
  H183     H 0.2240144596  0.3560876962  0.0503543325
  H184     H 0.2069465966  0.4384364910  0.9678507249
  C383     C 0.4106198214  0.7391532067  0.9823283464
  C384     C 0.3865550669  0.7362297752  0.9824334963
  C385     C 0.3759927481  0.7053068749  0.9793610060
  C386     C 0.3892420264  0.6760445064  0.9760171030
  C387     C 0.4136785898  0.6791345216  0.9762754852
  C388     C 0.4240846777  0.7104522931  0.9793866782
  C389     C 0.4276125225  0.6509593378  0.9733522612
  C390     C 0.4178064307  0.6196521454  0.9702170884
  C391     C 0.3938295125  0.6157775038  0.9697554287
  C392     C 0.3791631365  0.6438715937  0.9725153950
  C393     C 0.3550701634  0.6384692991  0.9716089973
  C394     C 0.3459932176  0.6065351359  0.9685490516
  C395     C 0.3605128204  0.5788849523  0.9662500550
  C396     C 0.3844565937  0.5838283304  0.9666953469
  H185     H 0.3757240867  0.7580142300  0.9848003967
  H186     H 0.3574324251  0.7052369107  0.9797080446
  H187     H 0.4427300010  0.7124484231  0.9792880643
  H188     H 0.4462378055  0.6531432035  0.9735470913
  H189     H 0.4290728714  0.5982988865  0.9680982653
  H190     H 0.3427235098  0.6583433368  0.9731557064
  H191     H 0.3274540498  0.6036639555  0.9678248469
  H192     H 0.3960071786  0.5628161673  0.9652367400
  C397     C 0.4926300010  0.0645856157  0.4605995099
  C398     C 0.5015883952  0.0394477118  0.4874558814
  C399     C 0.5203318874  0.0471368735  0.5150999129
  C400     C 0.5298051711  0.0791033464  0.5155058422
  C401     C 0.5208171691  0.1038732403  0.4886640417
  C402     C 0.5021579737  0.0965284381  0.4612870505
  C403     C 0.4914790562  0.0054060793  0.4863125113
  F33      F 0.5291710326  0.0239859646  0.5423835779
  H193     H 0.5441938700  0.0847538632  0.5367788983
  F34      F 0.4933157962  0.1203247978  0.4351061694
  H194     H 0.4784266579  0.0593647716  0.4386473626
  C404     C 0.4675082975  0.0004329390  0.4891469863
  C405     C 0.4582581273  0.9683422394  0.4883026516
  C406     C 0.4726115326  0.9403437618  0.4847225268
  C407     C 0.4966245147  0.9453941464  0.4815966736
  C408     C 0.5058388764  0.9775196981  0.4823219390
  F35      F 0.4530130794  0.0265576433  0.4940391052
  H195     H 0.4397576149  0.9654577788  0.4910218412
  F36      F 0.5113157075  0.9194049321  0.4776866469
  H196     H 0.5243140726  0.9806225931  0.4793933246
  C409     C 0.6098784915  0.1386593752  0.4782286556
  C410     C 0.6128250381  0.1048952417  0.4691997666
  C411     C 0.6347487433  0.0920509870  0.4607069674
  C412     C 0.6544425387  0.1127962839  0.4608900503
  C413     C 0.6512839298  0.1468487088  0.4712554361
  C414     C 0.6292773729  0.1592876360  0.4798811634
  C415     C 0.6700365963  0.1685940732  0.4722572937
  C416     C 0.6919807029  0.1574060227  0.4624290369
  C417     C 0.6956768334  0.1242218223  0.4513214849
  C418     C 0.6770791573  0.1012712181  0.4506658770
  C419     C 0.6820107790  0.0679997149  0.4393497130
  C420     C 0.7044205133  0.0581730545  0.4287405537
  C421     C 0.7225462401  0.0811087331  0.4289364984
  C422     C 0.7179853963  0.1140137673  0.4406063106
  H197     H 0.5980897284  0.0884245409  0.4678546925
  H198     H 0.6356686036  0.0659323486  0.4535835963
  H199     H 0.6272544271  0.1854442312  0.4871252049
  H200     H 0.6676820936  0.1945468036  0.4802866546
  H201     H 0.7061451886  0.1749317953  0.4631312092
  H202     H 0.6689365723  0.0490493808  0.4381578929
  H203     H 0.7074700533  0.0325813376  0.4198214520
  H204     H 0.7318680511  0.1319359990  0.4418380329
  C423     C 0.3994624218  0.3403497983  0.5730164827
  C424     C 0.4156829589  0.3503914989  0.5421989343
  C425     C 0.4308477273  0.3277556109  0.5237747308
  C426     C 0.4305820261  0.2940943416  0.5362014017
  C427     C 0.4141175663  0.2838982612  0.5676232488
  C428     C 0.3983782948  0.3069162011  0.5850011105
  C429     C 0.4140423057  0.2511276132  0.5824945899
  C430     C 0.4307175900  0.2287073158  0.5684033498
  C431     C 0.4474458838  0.2382732788  0.5381642413
  C432     C 0.4469048143  0.2707105198  0.5202272286
  C433     C 0.4633024398  0.2787947112  0.4881214800
  C434     C 0.4811047624  0.2571461267  0.4781573933
  C435     C 0.4829075266  0.2264956875  0.4989212430
  C436     C 0.4654120076  0.2163114236  0.5272164189
  H205     H 0.4166046060  0.3759871455  0.5319126941
  H206     H 0.4430142877  0.3377324005  0.5008952884
  H207     H 0.3858714303  0.2991097691  0.6090399617
  H208     H 0.4015209440  0.2431122551  0.6063595844
  H209     H 0.4307910489  0.2039265737  0.5818492372
  H210     H 0.4632554488  0.3019715084  0.4708770930
  H211     H 0.4941751287  0.2650339811  0.4552681774
  H212     H 0.4666829355  0.1924150731  0.5430459001
  C437     C 0.5722493299  0.1717883483  0.7875124093
  C438     C 0.5516141719  0.1757454325  0.7641043051
  C439     C 0.5308756895  0.1799201574  0.7868932090
  C440     C 0.5308271949  0.1802561029  0.8323233963
  C441     C 0.5514011536  0.1760819377  0.8560233937
  C442     C 0.5722026175  0.1717458035  0.8331199430
  C443     C 0.5516276147  0.1754761626  0.7159554008
  F37      F 0.5106988098  0.1843492772  0.7651582589
  H213     H 0.5145619690  0.1836599026  0.8489754763
  F38      F 0.5925128153  0.1679897214  0.8546108769
  H214     H 0.5883815481  0.1684515256  0.7703833663
  C444     C 0.5647810836  0.1984714404  0.6924683001
  C445     C 0.5636308985  0.1990603563  0.6469732450
  C446     C 0.5495691755  0.1764840671  0.6241036925
  C447     C 0.5367466154  0.1530353337  0.6478164877
  C448     C 0.5377434467  0.1527395396  0.6932715825
  F39      F 0.5781601064  0.2210238847  0.7135799240
  H215     H 0.5737371779  0.2172877758  0.6296384017
  F40      F 0.5228099582  0.1308486778  0.6273264448
  H216     H 0.5275633802  0.1347599891  0.7109171224
  C449     C 0.5576059343  0.1604147552  0.1948471778
  C450     C 0.5421838927  0.1817781442  0.2159973351
  C451     C 0.5277865003  0.2022872676  0.1910054690
  C452     C 0.5287645987  0.2011691089  0.1454989750
  C453     C 0.5443494190  0.1799598156  0.1242006835
  C454     C 0.5588121032  0.1595273430  0.1494461118
  C455     C 0.5413816780  0.1824826076  0.2641192105
  F41      F 0.5125124591  0.2229366901  0.2106028092
  H217     H 0.5174581300  0.2171610343  0.1269226141
  F42      F 0.5739213148  0.1383153648  0.1304179282
  H218     H 0.5689093102  0.1445576251  0.2136462459
  C456     C 0.5372792866  0.1533153757  0.2876255707
  C457     C 0.5375101020  0.1538278230  0.3330941216
  C458     C 0.5421120894  0.1833291137  0.3560543716
  C459     C 0.5459945215  0.2126497631  0.3323804518
  C460     C 0.5455019573  0.2121445701  0.2868169330
  F43      F 0.5328999983  0.1243468945  0.2665573104
  H219     H 0.5344264888  0.1308979865  0.3503314430
  F44      F 0.5502215662  0.2418132672  0.3530718058
  H220     H 0.5488012828  0.2348268875  0.2691552826
  C461     C 0.4859284588  0.0491725199  0.9749646579
  C462     C 0.4984223162  0.0222603603  0.9916656257
  C463     C 0.5208825280  0.0275049597  0.0076144082
  C464     C 0.5306493176  0.0590600999  0.0064463479
  C465     C 0.5181343993  0.0860248384  0.9899273999
  C466     C 0.4955808226  0.0808523877  0.9743075173
  C467     C 0.4881359897  0.9887369239  0.9915932814
  F45      F 0.5332148201  0.0022774447  0.0252019360
  H221     H 0.5479429194  0.0624785669  0.0191220582
  F46      F 0.4830387001  0.1061515303  0.9574464128
  H222     H 0.4687575516  0.0455652821  0.9618135845
  C468     C 0.4657141893  0.9834099259  0.0073676250
  C469     C 0.4561484861  0.9516796637  0.0064961985
  C470     C 0.4688398695  0.9246821076  0.9904150680
  C471     C 0.4913118588  0.9300190210  0.9747817655
  C472     C 0.5007418381  0.9618082261  0.9751657897
  F47      F 0.4532489543  0.0087097959  0.0245323265
  H223     H 0.4388799932  0.9481657028  0.0189835195
  F48      F 0.5040058898  0.9047569715  0.9581197500
  H224     H 0.5178652648  0.9654714586  0.9620680817
  C473     C 0.6004946839  0.1443828061  0.9965425126
  C474     C 0.6053573057  0.1170238918  0.0224313271
  C475     C 0.6280834706  0.1060517557  0.0272991140
  C476     C 0.6465180114  0.1228626345  0.0066941520
  C477     C 0.6410661969  0.1506356000  0.9801715775
  C478     C 0.6181641729  0.1606712880  0.9748906905
  C479     C 0.6584984932  0.1688436331  0.9600154555
  C480     C 0.6814498811  0.1605933332  0.9663909883
  C481     C 0.6874630304  0.1335675821  0.9923966109
  C482     C 0.6701392145  0.1138008324  0.0122069889
  C483     C 0.6773013814  0.0860160505  0.0367462726
  C484     C 0.7006904813  0.0787106668  0.0420632580
  C485     C 0.7175744570  0.0990439257  0.0236922565
  C486     C 0.7108177429  0.1262792563  0.9987109796
  H225     H 0.5915265121  0.1046839878  0.0394962195
  H226     H 0.6307270705  0.0850408806  0.0482542850
  H227     H 0.6139779690  0.1819340818  0.9549939872
  H228     H 0.6543680774  0.1900245580  0.9398527160
  H229     H 0.6946073699  0.1755303479  0.9509500002
  H230     H 0.6652703815  0.0693944264  0.0520035348
  H231     H 0.7055953673  0.0573690466  0.0612392970
  H232     H 0.7237996899  0.1416470657  0.9834617661
  C487     C 0.4967644793  0.2150400240  0.9815453513
  C488     C 0.4953599910  0.2382857422  0.9483624890
  C489     C 0.4756406579  0.2573007709  0.9428407746
  C490     C 0.4566521952  0.2538229448  0.9711989454
  C491     C 0.4581079345  0.2296498011  0.0047616663
  C492     C 0.4781565777  0.2103168760  0.0094787588
  C493     C 0.4398321295  0.2256499221  0.0339307001
  C494     C 0.4204146729  0.2458355224  0.0313349417
  C495     C 0.4187664985  0.2704068976  0.9993901927
  C496     C 0.4366913163  0.2742829192  0.9683368874
  C497     C 0.4341561600  0.2991243473  0.9363927080
  C498     C 0.4153835321  0.3204727114  0.9368957679
  C499     C 0.3982847761  0.3176093923  0.9686325437
  C500     C 0.3996462956  0.2918580355  0.9990294804
  H233     H 0.5099395784  0.2421981233  0.9271424400
  H234     H 0.4761293763  0.2749648378  0.9167026639
  H235     H 0.4796585303  0.1922843841  0.0353540637
  H236     H 0.4407581143  0.2072270917  0.0594531424
  H237     H 0.4067666994  0.2425866389  0.0549550173
  H238     H 0.4465111563  0.3031870245  0.9108931720
  H239     H 0.4143880881  0.3396198073  0.9123550670
  H240     H 0.3863930073  0.2894466788  0.0236194938
  C501     C 0.7678656112  0.5912904759  0.4954597013
  C502     C 0.7765158074  0.6173433386  0.4703530338
  C503     C 0.8002711476  0.6223093339  0.4660181527
  C504     C 0.8163562701  0.6016918224  0.4876387912
  C505     C 0.8075345573  0.5759044113  0.5142289069
  C506     C 0.7835390292  0.5704597385  0.5170610908
  C507     C 0.8227129254  0.5561594281  0.5384719283
  C508     C 0.8464196840  0.5619740038  0.5377211306
  C509     C 0.8557043525  0.5869174325  0.5114853139
  C510     C 0.8408123618  0.6063950032  0.4849315584
  C511     C 0.8510814911  0.6299098805  0.4570387913
  C512     C 0.8748633356  0.6352403563  0.4575892285
  C513     C 0.8892195378  0.6176961812  0.4858054647
  C514     C 0.8797170779  0.5930887002  0.5121957695
  H241     H 0.7648225920  0.6337797179  0.4533761729
  H242     H 0.8054987180  0.6430021433  0.4463049733
  H243     H 0.7770191674  0.5505421917  0.5371537567
  H244     H 0.8161518119  0.5365410060  0.5589961744
  H245     H 0.8575807847  0.5468029197  0.5577785426
  H246     H 0.8411918289  0.6446804689  0.4345813118
  H247     H 0.8821434243  0.6541795595  0.4369440903
  H248     H 0.8909532191  0.5796284273  0.5341018494
  C515     C 0.5869335342  0.6879184776  0.4933273437
  C516     C 0.5679651598  0.6828341887  0.4658021336
  C517     C 0.5505884426  0.7065469380  0.4619812207
  C518     C 0.5512243804  0.7362938941  0.4864778190
  C519     C 0.5703708982  0.7414493314  0.5147564494
  C520     C 0.5882631351  0.7176533760  0.5172319664
  C521     C 0.5711512258  0.7698784934  0.5411597583
  C522     C 0.5530914316  0.7927972812  0.5409134303
  C523     C 0.5339823597  0.7884372793  0.5134163277
  C524     C 0.5331680100  0.7605090704  0.4849161305
  C525     C 0.5140802220  0.7577347152  0.4564699684
  C526     C 0.4960948452  0.7805360320  0.4579401238
  C527     C 0.4962807281  0.8070260050  0.4872454667
  C528     C 0.5154148015  0.8113064743  0.5146839066
  H249     H 0.5665327326  0.6602199770  0.4468721497
  H250     H 0.5365723429  0.7003434799  0.4403594850
  H251     H 0.6027333836  0.7216495028  0.5390578158
  H252     H 0.5856101295  0.7740535645  0.5629343060
  H253     H 0.5540462912  0.8140386597  0.5625315632
  H254     H 0.5123668644  0.7380609424  0.4328925437
  H255     H 0.4813516797  0.7768390027  0.4368708102
  H256     H 0.5154684442  0.8317566465  0.5376166515
  C529     C 0.5701648256  0.2574077108  0.4927176054
  C530     C 0.5575780374  0.2828789849  0.5121578235
  C531     C 0.5662530588  0.3151472359  0.5140872576
  C532     C 0.5881877388  0.3229248214  0.4968380242
  C533     C 0.6012024899  0.2966258180  0.4780732442
  C534     C 0.5919937666  0.2642791857  0.4758336428
  C535     C 0.6233159104  0.3027989535  0.4618437523
  C536     C 0.6328211680  0.3344881096  0.4638378542
  C537     C 0.6203306489  0.3610283531  0.4814315100
  C538     C 0.5977223927  0.3556974957  0.4977840105
  C539     C 0.5855731224  0.3834999338  0.5139399631
  C540     C 0.5954491200  0.4150897854  0.5139846258
  C541     C 0.6178459148  0.4202795747  0.4984269324
  C542     C 0.6302414282  0.3929681066  0.4823945887
  H257     H 0.5408741721  0.2776880671  0.5260587736
  H258     H 0.5554692802  0.3333261099  0.5297238759
  H259     H 0.6017491871  0.2443195651  0.4611362533
  H260     H 0.6333992743  0.2829157610  0.4476926719
  H261     H 0.6500273888  0.3383191042  0.4511634516
  H262     H 0.5682728819  0.3817700993  0.5263592268
  H263     H 0.5854701475  0.4355500240  0.5268027373
  H264     H 0.6474707485  0.3966453883  0.4697556112
  C543     C 0.7680584029  0.6066795739  0.0386819036
  C544     C 0.7744970470  0.6308090174  0.0085383880
  C545     C 0.7975693072  0.6358248775  0.9983078751
  C546     C 0.8151195455  0.6170748068  0.0185865777
  C547     C 0.8085634721  0.5932130608  0.0501423332
  C548     C 0.7851319567  0.5877180949  0.0591737632
  C549     C 0.8254456477  0.5755430947  0.0730381289
  C550     C 0.8487597077  0.5817953039  0.0661595096
  C551     C 0.8557255038  0.6050041274  0.0351150282
  C552     C 0.8389545627  0.6220563656  0.0097450468
  C553     C 0.8467857927  0.6437739376  0.9769669493
  C554     C 0.8701597391  0.6502136288  0.9720280155
  C555     C 0.8863145495  0.6352277966  0.9990755055
  C556     C 0.8793081918  0.6120600589  0.0298719029
  H265     H 0.7615859507  0.6456079817  0.9921084351
  H266     H 0.8010807443  0.6551075421  0.9751127322
  H267     H 0.7801870842  0.5692631828  0.0829509394
  H268     H 0.8205815761  0.5573882464  0.0972419149
  H269     H 0.8614175465  0.5684640152  0.0853061663
  H270     H 0.8353338934  0.6563913931  0.9548988349
  H271     H 0.8757325932  0.6680259705  0.9480327066
  H272     H 0.8921702015  0.6006364589  0.0505746632
  C557     C 0.4922026474  0.7971523953  0.9840439153
  C558     C 0.5100281052  0.8067455134  0.0118008947
  C559     C 0.5307126315  0.7889868048  0.0124585245
  C560     C 0.5337571299  0.7607589674  0.9854644232
  C561     C 0.5154877381  0.7519758506  0.9565543583
  C562     C 0.4950787940  0.7704176769  0.9559396924
  C563     C 0.5172997833  0.7241552863  0.9295639272
  C564     C 0.5365396937  0.7038748773  0.9318384474
  C565     C 0.5544866370  0.7111458440  0.9608602228
  C566     C 0.5537409169  0.7401490641  0.9872547791
  C567     C 0.5727450851  0.7466012212  0.0150777129
  C568     C 0.5910206312  0.7241668929  0.0182963214
  C569     C 0.5908677518  0.6947457813  0.9940480591
  C570     C 0.5728854369  0.6889124262  0.9645182104
  H273     H 0.5075862109  0.8275061119  0.0336980334
  H274     H 0.5436541479  0.7973299405  0.0352366348
  H275     H 0.4809032878  0.7633411389  0.9348238631
  H276     H 0.5034561172  0.7175324634  0.9073763513
  H277     H 0.5371768292  0.6819626993  0.9113582856
  H278     H 0.5737981624  0.7684230522  0.0353031938
  H279     H 0.6048614643  0.7292860726  0.0410992384
  H280     H 0.5729580769  0.6665708821  0.9448044348
  C571     C 0.5781641668  0.2702819708  0.9940185448
  C572     C 0.6021029941  0.2735554806  0.9982597363
  C573     C 0.6122481194  0.3047408706  0.0024105701
  C574     C 0.5986560721  0.3338149313  0.0025500907
  C575     C 0.5743949943  0.3302872268  0.9974837171
  C576     C 0.5644541948  0.2988048031  0.9932351110
  C577     C 0.5601116979  0.3581699505  0.9970668224
  C578     C 0.5693823753  0.3896569287  0.0018407436
  C579     C 0.5931471191  0.3939883735  0.0072389307
  C580     C 0.6081793762  0.3662071255  0.0077089259
  C581     C 0.6320268479  0.3721379739  0.0136199579
  C582     C 0.6405173534  0.4042876019  0.0186312080
  C583     C 0.6256127521  0.4315511858  0.0178511831
  C584     C 0.6019249013  0.4260968786  0.0122816352
  H281     H 0.6130987331  0.2518742876  0.9987788719
  H282     H 0.6307365167  0.3051813182  0.0056587742
  H283     H 0.5459032392  0.2965471947  0.9898272252
  H284     H 0.5416172901  0.3556049087  0.9931525421
  H285     H 0.5578590463  0.4107836095  0.0014465775
  H286     H 0.6445944948  0.3525254572  0.0145273651
  H287     H 0.6589066218  0.4076985040  0.0226171812
  H288     H 0.5901001115  0.4468380023  0.0122467857
