# generated using pymatgen
data_Zn9H84(C81O37)2
_symmetry_space_group_name_H-M   'P 1'
_cell_length_a   26.01190000
_cell_length_b   26.01190000
_cell_length_c   26.01190000
_cell_angle_alpha   90.00000000
_cell_angle_beta   90.00000000
_cell_angle_gamma   90.00000000
_symmetry_Int_Tables_number   1
_chemical_formula_structural   Zn9H84(C81O37)2
_chemical_formula_sum   'Zn36 H336 C648 O296'
_cell_volume   17600.14424727
_cell_formula_units_Z   4
loop_
 _symmetry_equiv_pos_site_id
 _symmetry_equiv_pos_as_xyz
  1  'x, y, z'
loop_
 _atom_site_type_symbol
 _atom_site_label
 _atom_site_symmetry_multiplicity
 _atom_site_fract_x
 _atom_site_fract_y
 _atom_site_fract_z
 _atom_site_occupancy
  Zn  Zn0  1  0.45548000  0.54749000  0.54579000  1.0
  Zn  Zn1  1  0.04452000  0.45251000  0.04579000  1.0
  Zn  Zn2  1  0.54452000  0.04749000  0.95421000  1.0
  Zn  Zn3  1  0.95548000  0.95251000  0.45421000  1.0
  Zn  Zn4  1  0.54579000  0.45548000  0.54749000  1.0
  Zn  Zn5  1  0.04579000  0.04452000  0.45251000  1.0
  Zn  Zn6  1  0.95421000  0.54452000  0.04749000  1.0
  Zn  Zn7  1  0.45421000  0.95548000  0.95251000  1.0
  Zn  Zn8  1  0.54749000  0.54579000  0.45548000  1.0
  Zn  Zn9  1  0.45251000  0.04579000  0.04452000  1.0
  Zn  Zn10  1  0.04749000  0.95421000  0.54452000  1.0
  Zn  Zn11  1  0.95251000  0.45421000  0.95548000  1.0
  Zn  Zn12  1  0.29749000  0.70548000  0.70421000  1.0
  Zn  Zn13  1  0.20251000  0.29452000  0.20421000  1.0
  Zn  Zn14  1  0.79749000  0.79452000  0.29579000  1.0
  Zn  Zn15  1  0.70251000  0.20548000  0.79579000  1.0
  Zn  Zn16  1  0.20548000  0.79579000  0.70251000  1.0
  Zn  Zn17  1  0.79452000  0.29579000  0.79749000  1.0
  Zn  Zn18  1  0.29452000  0.20421000  0.20251000  1.0
  Zn  Zn19  1  0.70548000  0.70421000  0.29749000  1.0
  Zn  Zn20  1  0.29579000  0.79749000  0.79452000  1.0
  Zn  Zn21  1  0.79579000  0.70251000  0.20548000  1.0
  Zn  Zn22  1  0.70421000  0.29749000  0.70548000  1.0
  Zn  Zn23  1  0.20421000  0.20251000  0.29452000  1.0
  Zn  Zn24  1  0.12428000  0.37428000  0.12500000  1.0
  Zn  Zn25  1  0.37572000  0.62572000  0.62500000  1.0
  Zn  Zn26  1  0.87572000  0.87428000  0.37500000  1.0
  Zn  Zn27  1  0.62428000  0.12572000  0.87500000  1.0
  Zn  Zn28  1  0.12500000  0.12428000  0.37428000  1.0
  Zn  Zn29  1  0.62500000  0.37572000  0.62572000  1.0
  Zn  Zn30  1  0.37500000  0.87572000  0.87428000  1.0
  Zn  Zn31  1  0.87500000  0.62428000  0.12572000  1.0
  Zn  Zn32  1  0.37428000  0.12500000  0.12428000  1.0
  Zn  Zn33  1  0.62572000  0.62500000  0.37572000  1.0
  Zn  Zn34  1  0.87428000  0.37500000  0.87572000  1.0
  Zn  Zn35  1  0.12572000  0.87500000  0.62428000  1.0
  H  H36  1  0.26870000  0.57310000  0.37010000  1.0
  H  H37  1  0.24500000  0.70250000  0.44720000  1.0
  H  H38  1  0.21510000  0.59270000  0.31920000  1.0
  H  H39  1  0.09220000  0.68010000  0.28530000  1.0
  H  H40  1  0.18290000  0.71690000  0.40360000  1.0
  H  H41  1  0.20720000  0.55910000  0.24840000  1.0
  H  H42  1  0.06610000  0.61970000  0.23980000  1.0
  H  H43  1  0.05940000  0.75190000  0.29110000  1.0
  H  H44  1  0.12040000  0.75980000  0.43370000  1.0
  H  H45  1  0.29790000  0.69090000  0.53530000  1.0
  H  H46  1  0.18680000  0.46880000  0.16440000  1.0
  H  H47  1  0.96660000  0.83010000  0.31240000  1.0
  H  H48  1  0.04310000  0.80880000  0.48600000  1.0
  H  H49  1  0.35080000  0.52320000  0.43470000  1.0
  H  H50  1  0.23130000  0.42690000  0.87010000  1.0
  H  H51  1  0.25500000  0.29750000  0.94720000  1.0
  H  H52  1  0.28490000  0.40730000  0.81920000  1.0
  H  H53  1  0.40780000  0.31990000  0.78530000  1.0
  H  H54  1  0.31710000  0.28310000  0.90360000  1.0
  H  H55  1  0.29280000  0.44090000  0.74840000  1.0
  H  H56  1  0.43390000  0.38030000  0.73980000  1.0
  H  H57  1  0.44060000  0.24810000  0.79110000  1.0
  H  H58  1  0.37960000  0.24020000  0.93370000  1.0
  H  H59  1  0.20210000  0.30910000  0.03530000  1.0
  H  H60  1  0.31320000  0.53120000  0.66440000  1.0
  H  H61  1  0.53340000  0.16990000  0.81240000  1.0
  H  H62  1  0.45690000  0.19120000  0.98600000  1.0
  H  H63  1  0.14920000  0.47680000  0.93470000  1.0
  H  H64  1  0.73130000  0.07310000  0.12990000  1.0
  H  H65  1  0.75500000  0.20250000  0.05280000  1.0
  H  H66  1  0.78490000  0.09270000  0.18080000  1.0
  H  H67  1  0.90780000  0.18010000  0.21470000  1.0
  H  H68  1  0.81710000  0.21690000  0.09640000  1.0
  H  H69  1  0.79280000  0.05910000  0.25160000  1.0
  H  H70  1  0.93390000  0.11970000  0.26020000  1.0
  H  H71  1  0.94060000  0.25190000  0.20890000  1.0
  H  H72  1  0.87960000  0.25980000  0.06630000  1.0
  H  H73  1  0.70210000  0.19090000  0.96470000  1.0
  H  H74  1  0.81320000  0.96880000  0.33560000  1.0
  H  H75  1  0.03340000  0.33010000  0.18760000  1.0
  H  H76  1  0.95690000  0.30880000  0.01400000  1.0
  H  H77  1  0.64920000  0.02320000  0.06530000  1.0
  H  H78  1  0.76870000  0.92690000  0.62990000  1.0
  H  H79  1  0.74500000  0.79750000  0.55280000  1.0
  H  H80  1  0.71510000  0.90730000  0.68080000  1.0
  H  H81  1  0.59220000  0.81990000  0.71470000  1.0
  H  H82  1  0.68290000  0.78310000  0.59640000  1.0
  H  H83  1  0.70720000  0.94090000  0.75160000  1.0
  H  H84  1  0.56610000  0.88030000  0.76020000  1.0
  H  H85  1  0.55940000  0.74810000  0.70890000  1.0
  H  H86  1  0.62040000  0.74020000  0.56630000  1.0
  H  H87  1  0.79790000  0.80910000  0.46470000  1.0
  H  H88  1  0.68680000  0.03120000  0.83560000  1.0
  H  H89  1  0.46660000  0.66990000  0.68760000  1.0
  H  H90  1  0.54310000  0.69120000  0.51400000  1.0
  H  H91  1  0.85080000  0.97680000  0.56530000  1.0
  H  H92  1  0.37010000  0.26870000  0.57310000  1.0
  H  H93  1  0.44720000  0.24500000  0.70250000  1.0
  H  H94  1  0.31920000  0.21510000  0.59270000  1.0
  H  H95  1  0.28530000  0.09220000  0.68010000  1.0
  H  H96  1  0.40360000  0.18290000  0.71690000  1.0
  H  H97  1  0.24840000  0.20720000  0.55910000  1.0
  H  H98  1  0.23980000  0.06610000  0.61970000  1.0
  H  H99  1  0.29110000  0.05940000  0.75190000  1.0
  H  H100  1  0.43370000  0.12040000  0.75980000  1.0
  H  H101  1  0.53530000  0.29790000  0.69090000  1.0
  H  H102  1  0.16440000  0.18680000  0.46880000  1.0
  H  H103  1  0.31240000  0.96660000  0.83010000  1.0
  H  H104  1  0.48600000  0.04310000  0.80880000  1.0
  H  H105  1  0.43470000  0.35080000  0.52320000  1.0
  H  H106  1  0.87010000  0.23130000  0.42690000  1.0
  H  H107  1  0.94720000  0.25500000  0.29750000  1.0
  H  H108  1  0.81920000  0.28490000  0.40730000  1.0
  H  H109  1  0.78530000  0.40780000  0.31990000  1.0
  H  H110  1  0.90360000  0.31710000  0.28310000  1.0
  H  H111  1  0.74840000  0.29280000  0.44090000  1.0
  H  H112  1  0.73980000  0.43390000  0.38030000  1.0
  H  H113  1  0.79110000  0.44060000  0.24810000  1.0
  H  H114  1  0.93370000  0.37960000  0.24020000  1.0
  H  H115  1  0.03530000  0.20210000  0.30910000  1.0
  H  H116  1  0.66440000  0.31320000  0.53120000  1.0
  H  H117  1  0.81240000  0.53340000  0.16990000  1.0
  H  H118  1  0.98600000  0.45690000  0.19120000  1.0
  H  H119  1  0.93470000  0.14920000  0.47680000  1.0
  H  H120  1  0.12990000  0.73130000  0.07310000  1.0
  H  H121  1  0.05280000  0.75500000  0.20250000  1.0
  H  H122  1  0.18080000  0.78490000  0.09270000  1.0
  H  H123  1  0.21470000  0.90780000  0.18010000  1.0
  H  H124  1  0.09640000  0.81710000  0.21690000  1.0
  H  H125  1  0.25160000  0.79280000  0.05910000  1.0
  H  H126  1  0.26020000  0.93390000  0.11970000  1.0
  H  H127  1  0.20890000  0.94060000  0.25190000  1.0
  H  H128  1  0.06630000  0.87960000  0.25980000  1.0
  H  H129  1  0.96470000  0.70210000  0.19090000  1.0
  H  H130  1  0.33560000  0.81320000  0.96880000  1.0
  H  H131  1  0.18760000  0.03340000  0.33010000  1.0
  H  H132  1  0.01400000  0.95690000  0.30880000  1.0
  H  H133  1  0.06530000  0.64920000  0.02320000  1.0
  H  H134  1  0.62990000  0.76870000  0.92690000  1.0
  H  H135  1  0.55280000  0.74500000  0.79750000  1.0
  H  H136  1  0.68080000  0.71510000  0.90730000  1.0
  H  H137  1  0.71470000  0.59220000  0.81990000  1.0
  H  H138  1  0.59640000  0.68290000  0.78310000  1.0
  H  H139  1  0.75160000  0.70720000  0.94090000  1.0
  H  H140  1  0.76020000  0.56610000  0.88030000  1.0
  H  H141  1  0.70890000  0.55940000  0.74810000  1.0
  H  H142  1  0.56630000  0.62040000  0.74020000  1.0
  H  H143  1  0.46470000  0.79790000  0.80910000  1.0
  H  H144  1  0.83560000  0.68680000  0.03120000  1.0
  H  H145  1  0.68760000  0.46660000  0.66990000  1.0
  H  H146  1  0.51400000  0.54310000  0.69120000  1.0
  H  H147  1  0.56530000  0.85080000  0.97680000  1.0
  H  H148  1  0.57310000  0.37010000  0.26870000  1.0
  H  H149  1  0.70250000  0.44720000  0.24500000  1.0
  H  H150  1  0.59270000  0.31920000  0.21510000  1.0
  H  H151  1  0.68010000  0.28530000  0.09220000  1.0
  H  H152  1  0.71690000  0.40360000  0.18290000  1.0
  H  H153  1  0.55910000  0.24840000  0.20720000  1.0
  H  H154  1  0.61970000  0.23980000  0.06610000  1.0
  H  H155  1  0.75190000  0.29110000  0.05940000  1.0
  H  H156  1  0.75980000  0.43370000  0.12040000  1.0
  H  H157  1  0.69090000  0.53530000  0.29790000  1.0
  H  H158  1  0.46880000  0.16440000  0.18680000  1.0
  H  H159  1  0.83010000  0.31240000  0.96660000  1.0
  H  H160  1  0.80880000  0.48600000  0.04310000  1.0
  H  H161  1  0.52320000  0.43470000  0.35080000  1.0
  H  H162  1  0.42690000  0.87010000  0.23130000  1.0
  H  H163  1  0.29750000  0.94720000  0.25500000  1.0
  H  H164  1  0.40730000  0.81920000  0.28490000  1.0
  H  H165  1  0.31990000  0.78530000  0.40780000  1.0
  H  H166  1  0.28310000  0.90360000  0.31710000  1.0
  H  H167  1  0.44090000  0.74840000  0.29280000  1.0
  H  H168  1  0.38030000  0.73980000  0.43390000  1.0
  H  H169  1  0.24810000  0.79110000  0.44060000  1.0
  H  H170  1  0.24020000  0.93370000  0.37960000  1.0
  H  H171  1  0.30910000  0.03530000  0.20210000  1.0
  H  H172  1  0.53120000  0.66440000  0.31320000  1.0
  H  H173  1  0.16990000  0.81240000  0.53340000  1.0
  H  H174  1  0.19120000  0.98600000  0.45690000  1.0
  H  H175  1  0.47680000  0.93470000  0.14920000  1.0
  H  H176  1  0.07310000  0.12990000  0.73130000  1.0
  H  H177  1  0.20250000  0.05280000  0.75500000  1.0
  H  H178  1  0.09270000  0.18080000  0.78490000  1.0
  H  H179  1  0.18010000  0.21470000  0.90780000  1.0
  H  H180  1  0.21690000  0.09640000  0.81710000  1.0
  H  H181  1  0.05910000  0.25160000  0.79280000  1.0
  H  H182  1  0.11970000  0.26020000  0.93390000  1.0
  H  H183  1  0.25190000  0.20890000  0.94060000  1.0
  H  H184  1  0.25980000  0.06630000  0.87960000  1.0
  H  H185  1  0.19090000  0.96470000  0.70210000  1.0
  H  H186  1  0.96880000  0.33560000  0.81320000  1.0
  H  H187  1  0.33010000  0.18760000  0.03340000  1.0
  H  H188  1  0.30880000  0.01400000  0.95690000  1.0
  H  H189  1  0.02320000  0.06530000  0.64920000  1.0
  H  H190  1  0.92690000  0.62990000  0.76870000  1.0
  H  H191  1  0.79750000  0.55280000  0.74500000  1.0
  H  H192  1  0.90730000  0.68080000  0.71510000  1.0
  H  H193  1  0.81990000  0.71470000  0.59220000  1.0
  H  H194  1  0.78310000  0.59640000  0.68290000  1.0
  H  H195  1  0.94090000  0.75160000  0.70720000  1.0
  H  H196  1  0.88030000  0.76020000  0.56610000  1.0
  H  H197  1  0.74810000  0.70890000  0.55940000  1.0
  H  H198  1  0.74020000  0.56630000  0.62040000  1.0
  H  H199  1  0.80910000  0.46470000  0.79790000  1.0
  H  H200  1  0.03120000  0.83560000  0.68680000  1.0
  H  H201  1  0.66990000  0.68760000  0.46660000  1.0
  H  H202  1  0.69120000  0.51400000  0.54310000  1.0
  H  H203  1  0.97680000  0.56530000  0.85080000  1.0
  H  H204  1  0.32310000  0.51870000  0.87990000  1.0
  H  H205  1  0.45250000  0.49500000  0.80280000  1.0
  H  H206  1  0.34270000  0.46510000  0.93080000  1.0
  H  H207  1  0.43010000  0.34220000  0.96470000  1.0
  H  H208  1  0.46690000  0.43290000  0.84640000  1.0
  H  H209  1  0.30910000  0.45720000  0.00160000  1.0
  H  H210  1  0.36970000  0.31610000  0.01020000  1.0
  H  H211  1  0.50190000  0.30940000  0.95890000  1.0
  H  H212  1  0.50980000  0.37040000  0.81630000  1.0
  H  H213  1  0.44090000  0.54790000  0.71470000  1.0
  H  H214  1  0.21880000  0.43680000  0.08560000  1.0
  H  H215  1  0.58010000  0.21660000  0.93760000  1.0
  H  H216  1  0.55880000  0.29310000  0.76400000  1.0
  H  H217  1  0.27320000  0.60080000  0.81530000  1.0
  H  H218  1  0.17690000  0.48130000  0.37990000  1.0
  H  H219  1  0.04750000  0.50500000  0.30280000  1.0
  H  H220  1  0.15730000  0.53490000  0.43080000  1.0
  H  H221  1  0.06990000  0.65780000  0.46470000  1.0
  H  H222  1  0.03310000  0.56710000  0.34640000  1.0
  H  H223  1  0.19090000  0.54280000  0.50160000  1.0
  H  H224  1  0.13030000  0.68390000  0.51020000  1.0
  H  H225  1  0.99810000  0.69060000  0.45890000  1.0
  H  H226  1  0.99020000  0.62960000  0.31630000  1.0
  H  H227  1  0.05910000  0.45210000  0.21470000  1.0
  H  H228  1  0.28120000  0.56320000  0.58560000  1.0
  H  H229  1  0.91990000  0.78340000  0.43760000  1.0
  H  H230  1  0.94120000  0.70690000  0.26400000  1.0
  H  H231  1  0.22680000  0.39920000  0.31530000  1.0
  H  H232  1  0.82310000  0.98130000  0.12010000  1.0
  H  H233  1  0.95250000  0.00500000  0.19720000  1.0
  H  H234  1  0.84270000  0.03490000  0.06920000  1.0
  H  H235  1  0.93010000  0.15780000  0.03530000  1.0
  H  H236  1  0.96690000  0.06710000  0.15360000  1.0
  H  H237  1  0.80910000  0.04280000  0.99840000  1.0
  H  H238  1  0.86970000  0.18390000  0.98980000  1.0
  H  H239  1  0.00190000  0.19060000  0.04110000  1.0
  H  H240  1  0.00980000  0.12960000  0.18370000  1.0
  H  H241  1  0.94090000  0.95210000  0.28530000  1.0
  H  H242  1  0.71880000  0.06320000  0.91440000  1.0
  H  H243  1  0.08010000  0.28340000  0.06240000  1.0
  H  H244  1  0.05880000  0.20690000  0.23600000  1.0
  H  H245  1  0.77320000  0.89920000  0.18470000  1.0
  H  H246  1  0.67690000  0.01870000  0.62010000  1.0
  H  H247  1  0.54750000  0.99500000  0.69720000  1.0
  H  H248  1  0.65730000  0.96510000  0.56920000  1.0
  H  H249  1  0.56990000  0.84220000  0.53530000  1.0
  H  H250  1  0.53310000  0.93290000  0.65360000  1.0
  H  H251  1  0.69090000  0.95720000  0.49840000  1.0
  H  H252  1  0.63030000  0.81610000  0.48980000  1.0
  H  H253  1  0.49810000  0.80940000  0.54110000  1.0
  H  H254  1  0.49020000  0.87040000  0.68370000  1.0
  H  H255  1  0.55910000  0.04790000  0.78530000  1.0
  H  H256  1  0.78120000  0.93680000  0.41440000  1.0
  H  H257  1  0.41990000  0.71660000  0.56240000  1.0
  H  H258  1  0.44120000  0.79310000  0.73600000  1.0
  H  H259  1  0.72680000  0.10080000  0.68470000  1.0
  H  H260  1  0.01870000  0.62010000  0.67690000  1.0
  H  H261  1  0.99500000  0.69720000  0.54750000  1.0
  H  H262  1  0.96510000  0.56920000  0.65730000  1.0
  H  H263  1  0.84220000  0.53530000  0.56990000  1.0
  H  H264  1  0.93290000  0.65360000  0.53310000  1.0
  H  H265  1  0.95720000  0.49840000  0.69090000  1.0
  H  H266  1  0.81610000  0.48980000  0.63030000  1.0
  H  H267  1  0.80940000  0.54110000  0.49810000  1.0
  H  H268  1  0.87040000  0.68370000  0.49020000  1.0
  H  H269  1  0.04790000  0.78530000  0.55910000  1.0
  H  H270  1  0.93680000  0.41440000  0.78120000  1.0
  H  H271  1  0.71660000  0.56240000  0.41990000  1.0
  H  H272  1  0.79310000  0.73600000  0.44120000  1.0
  H  H273  1  0.10080000  0.68470000  0.72680000  1.0
  H  H274  1  0.98130000  0.12010000  0.82310000  1.0
  H  H275  1  0.00500000  0.19720000  0.95250000  1.0
  H  H276  1  0.03490000  0.06920000  0.84270000  1.0
  H  H277  1  0.15780000  0.03530000  0.93010000  1.0
  H  H278  1  0.06710000  0.15360000  0.96690000  1.0
  H  H279  1  0.04280000  0.99840000  0.80910000  1.0
  H  H280  1  0.18390000  0.98980000  0.86970000  1.0
  H  H281  1  0.19060000  0.04110000  0.00190000  1.0
  H  H282  1  0.12960000  0.18370000  0.00980000  1.0
  H  H283  1  0.95210000  0.28530000  0.94090000  1.0
  H  H284  1  0.06320000  0.91440000  0.71880000  1.0
  H  H285  1  0.28340000  0.06240000  0.08010000  1.0
  H  H286  1  0.20690000  0.23600000  0.05880000  1.0
  H  H287  1  0.89920000  0.18470000  0.77320000  1.0
  H  H288  1  0.48130000  0.37990000  0.17690000  1.0
  H  H289  1  0.50500000  0.30280000  0.04750000  1.0
  H  H290  1  0.53490000  0.43080000  0.15730000  1.0
  H  H291  1  0.65780000  0.46470000  0.06990000  1.0
  H  H292  1  0.56710000  0.34640000  0.03310000  1.0
  H  H293  1  0.54280000  0.50160000  0.19090000  1.0
  H  H294  1  0.68390000  0.51020000  0.13030000  1.0
  H  H295  1  0.69060000  0.45890000  0.99810000  1.0
  H  H296  1  0.62960000  0.31630000  0.99020000  1.0
  H  H297  1  0.45210000  0.21470000  0.05910000  1.0
  H  H298  1  0.56320000  0.58560000  0.28120000  1.0
  H  H299  1  0.78340000  0.43760000  0.91990000  1.0
  H  H300  1  0.70690000  0.26400000  0.94120000  1.0
  H  H301  1  0.39920000  0.31530000  0.22680000  1.0
  H  H302  1  0.51870000  0.87990000  0.32310000  1.0
  H  H303  1  0.49500000  0.80280000  0.45250000  1.0
  H  H304  1  0.46510000  0.93080000  0.34270000  1.0
  H  H305  1  0.34220000  0.96470000  0.43010000  1.0
  H  H306  1  0.43290000  0.84640000  0.46690000  1.0
  H  H307  1  0.45720000  0.00160000  0.30910000  1.0
  H  H308  1  0.31610000  0.01020000  0.36970000  1.0
  H  H309  1  0.30940000  0.95890000  0.50190000  1.0
  H  H310  1  0.37040000  0.81630000  0.50980000  1.0
  H  H311  1  0.54790000  0.71470000  0.44090000  1.0
  H  H312  1  0.43680000  0.08560000  0.21880000  1.0
  H  H313  1  0.21660000  0.93760000  0.58010000  1.0
  H  H314  1  0.29310000  0.76400000  0.55880000  1.0
  H  H315  1  0.60080000  0.81530000  0.27320000  1.0
  H  H316  1  0.12010000  0.82310000  0.98130000  1.0
  H  H317  1  0.19720000  0.95250000  0.00500000  1.0
  H  H318  1  0.06920000  0.84270000  0.03490000  1.0
  H  H319  1  0.03530000  0.93010000  0.15780000  1.0
  H  H320  1  0.15360000  0.96690000  0.06710000  1.0
  H  H321  1  0.99840000  0.80910000  0.04280000  1.0
  H  H322  1  0.98980000  0.86970000  0.18390000  1.0
  H  H323  1  0.04110000  0.00190000  0.19060000  1.0
  H  H324  1  0.18370000  0.00980000  0.12960000  1.0
  H  H325  1  0.28530000  0.94090000  0.95210000  1.0
  H  H326  1  0.91440000  0.71880000  0.06320000  1.0
  H  H327  1  0.06240000  0.08010000  0.28340000  1.0
  H  H328  1  0.23600000  0.05880000  0.20690000  1.0
  H  H329  1  0.18470000  0.77320000  0.89920000  1.0
  H  H330  1  0.62010000  0.67690000  0.01870000  1.0
  H  H331  1  0.69720000  0.54750000  0.99500000  1.0
  H  H332  1  0.56920000  0.65730000  0.96510000  1.0
  H  H333  1  0.53530000  0.56990000  0.84220000  1.0
  H  H334  1  0.65360000  0.53310000  0.93290000  1.0
  H  H335  1  0.49840000  0.69090000  0.95720000  1.0
  H  H336  1  0.48980000  0.63030000  0.81610000  1.0
  H  H337  1  0.54110000  0.49810000  0.80940000  1.0
  H  H338  1  0.68370000  0.49020000  0.87040000  1.0
  H  H339  1  0.78530000  0.55910000  0.04790000  1.0
  H  H340  1  0.41440000  0.78120000  0.93680000  1.0
  H  H341  1  0.56240000  0.41990000  0.71660000  1.0
  H  H342  1  0.73600000  0.44120000  0.79310000  1.0
  H  H343  1  0.68470000  0.72680000  0.10080000  1.0
  H  H344  1  0.87990000  0.32310000  0.51870000  1.0
  H  H345  1  0.80280000  0.45250000  0.49500000  1.0
  H  H346  1  0.93080000  0.34270000  0.46510000  1.0
  H  H347  1  0.96470000  0.43010000  0.34220000  1.0
  H  H348  1  0.84640000  0.46690000  0.43290000  1.0
  H  H349  1  0.00160000  0.30910000  0.45720000  1.0
  H  H350  1  0.01020000  0.36970000  0.31610000  1.0
  H  H351  1  0.95890000  0.50190000  0.30940000  1.0
  H  H352  1  0.81630000  0.50980000  0.37040000  1.0
  H  H353  1  0.71470000  0.44090000  0.54790000  1.0
  H  H354  1  0.08560000  0.21880000  0.43680000  1.0
  H  H355  1  0.93760000  0.58010000  0.21660000  1.0
  H  H356  1  0.76400000  0.55880000  0.29310000  1.0
  H  H357  1  0.81530000  0.27320000  0.60080000  1.0
  H  H358  1  0.37990000  0.17690000  0.48130000  1.0
  H  H359  1  0.30280000  0.04750000  0.50500000  1.0
  H  H360  1  0.43080000  0.15730000  0.53490000  1.0
  H  H361  1  0.46470000  0.06990000  0.65780000  1.0
  H  H362  1  0.34640000  0.03310000  0.56710000  1.0
  H  H363  1  0.50160000  0.19090000  0.54280000  1.0
  H  H364  1  0.51020000  0.13030000  0.68390000  1.0
  H  H365  1  0.45890000  0.99810000  0.69060000  1.0
  H  H366  1  0.31630000  0.99020000  0.62960000  1.0
  H  H367  1  0.21470000  0.05910000  0.45210000  1.0
  H  H368  1  0.58560000  0.28120000  0.56320000  1.0
  H  H369  1  0.43760000  0.91990000  0.78340000  1.0
  H  H370  1  0.26400000  0.94120000  0.70690000  1.0
  H  H371  1  0.31530000  0.22680000  0.39920000  1.0
  C  C372  1  0.37070000  0.60150000  0.50860000  1.0
  C  C373  1  0.33050000  0.61540000  0.47000000  1.0
  C  C374  1  0.31770000  0.58260000  0.42930000  1.0
  C  C375  1  0.27740000  0.59570000  0.39640000  1.0
  C  C376  1  0.25020000  0.64020000  0.40130000  1.0
  C  C377  1  0.26300000  0.67200000  0.44230000  1.0
  C  C378  1  0.30180000  0.65940000  0.47590000  1.0
  C  C379  1  0.20610000  0.65400000  0.36740000  1.0
  C  C380  1  0.19450000  0.62130000  0.32570000  1.0
  C  C381  1  0.15180000  0.63170000  0.29380000  1.0
  C  C382  1  0.12100000  0.67360000  0.30550000  1.0
  C  C383  1  0.13190000  0.70570000  0.34600000  1.0
  C  C384  1  0.17510000  0.69510000  0.37640000  1.0
  C  C385  1  0.13880000  0.59620000  0.25050000  1.0
  C  C386  1  0.17490000  0.56030000  0.23320000  1.0
  C  C387  1  0.16310000  0.52670000  0.19390000  1.0
  C  C388  1  0.11440000  0.52750000  0.17020000  1.0
  C  C389  1  0.07830000  0.56260000  0.18830000  1.0
  C  C390  1  0.09070000  0.59650000  0.22820000  1.0
  C  C391  1  0.10050000  0.49020000  0.12890000  1.0
  C  C392  1  0.09710000  0.74850000  0.35990000  1.0
  C  C393  1  0.06050000  0.76630000  0.32380000  1.0
  C  C394  1  0.02650000  0.80470000  0.33650000  1.0
  C  C395  1  0.02720000  0.82680000  0.38530000  1.0
  C  C396  1  0.06330000  0.80980000  0.42090000  1.0
  C  C397  1  0.09710000  0.77120000  0.40900000  1.0
  C  C398  1  0.99020000  0.86830000  0.39980000  1.0
  C  C399  1  0.12930000  0.39850000  0.00860000  1.0
  C  C400  1  0.16950000  0.38460000  0.97000000  1.0
  C  C401  1  0.18230000  0.41740000  0.92930000  1.0
  C  C402  1  0.22260000  0.40430000  0.89640000  1.0
  C  C403  1  0.24980000  0.35980000  0.90130000  1.0
  C  C404  1  0.23700000  0.32800000  0.94230000  1.0
  C  C405  1  0.19820000  0.34060000  0.97590000  1.0
  C  C406  1  0.29390000  0.34600000  0.86740000  1.0
  C  C407  1  0.30550000  0.37870000  0.82570000  1.0
  C  C408  1  0.34820000  0.36830000  0.79380000  1.0
  C  C409  1  0.37900000  0.32640000  0.80550000  1.0
  C  C410  1  0.36810000  0.29430000  0.84600000  1.0
  C  C411  1  0.32490000  0.30490000  0.87640000  1.0
  C  C412  1  0.36120000  0.40380000  0.75050000  1.0
  C  C413  1  0.32510000  0.43970000  0.73320000  1.0
  C  C414  1  0.33690000  0.47330000  0.69390000  1.0
  C  C415  1  0.38560000  0.47250000  0.67020000  1.0
  C  C416  1  0.42170000  0.43740000  0.68830000  1.0
  C  C417  1  0.40930000  0.40350000  0.72820000  1.0
  C  C418  1  0.39950000  0.50980000  0.62890000  1.0
  C  C419  1  0.40290000  0.25150000  0.85990000  1.0
  C  C420  1  0.43950000  0.23370000  0.82380000  1.0
  C  C421  1  0.47350000  0.19530000  0.83650000  1.0
  C  C422  1  0.47280000  0.17320000  0.88530000  1.0
  C  C423  1  0.43670000  0.19020000  0.92090000  1.0
  C  C424  1  0.40290000  0.22880000  0.90900000  1.0
  C  C425  1  0.50980000  0.13170000  0.89980000  1.0
  C  C426  1  0.62930000  0.10150000  0.99140000  1.0
  C  C427  1  0.66950000  0.11540000  0.03000000  1.0
  C  C428  1  0.68230000  0.08260000  0.07070000  1.0
  C  C429  1  0.72260000  0.09570000  0.10360000  1.0
  C  C430  1  0.74980000  0.14020000  0.09870000  1.0
  C  C431  1  0.73700000  0.17200000  0.05770000  1.0
  C  C432  1  0.69820000  0.15940000  0.02410000  1.0
  C  C433  1  0.79390000  0.15400000  0.13260000  1.0
  C  C434  1  0.80550000  0.12130000  0.17430000  1.0
  C  C435  1  0.84820000  0.13170000  0.20620000  1.0
  C  C436  1  0.87900000  0.17360000  0.19450000  1.0
  C  C437  1  0.86810000  0.20570000  0.15400000  1.0
  C  C438  1  0.82490000  0.19510000  0.12360000  1.0
  C  C439  1  0.86120000  0.09620000  0.24950000  1.0
  C  C440  1  0.82510000  0.06030000  0.26680000  1.0
  C  C441  1  0.83690000  0.02670000  0.30610000  1.0
  C  C442  1  0.88560000  0.02750000  0.32980000  1.0
  C  C443  1  0.92170000  0.06260000  0.31170000  1.0
  C  C444  1  0.90930000  0.09650000  0.27180000  1.0
  C  C445  1  0.89950000  0.99020000  0.37110000  1.0
  C  C446  1  0.90290000  0.24850000  0.14010000  1.0
  C  C447  1  0.93950000  0.26630000  0.17620000  1.0
  C  C448  1  0.97350000  0.30470000  0.16350000  1.0
  C  C449  1  0.97280000  0.32680000  0.11470000  1.0
  C  C450  1  0.93670000  0.30980000  0.07910000  1.0
  C  C451  1  0.90290000  0.27120000  0.09100000  1.0
  C  C452  1  0.00980000  0.36830000  0.10020000  1.0
  C  C453  1  0.87070000  0.89850000  0.49140000  1.0
  C  C454  1  0.83050000  0.88460000  0.53000000  1.0
  C  C455  1  0.81770000  0.91740000  0.57070000  1.0
  C  C456  1  0.77740000  0.90430000  0.60360000  1.0
  C  C457  1  0.75020000  0.85980000  0.59870000  1.0
  C  C458  1  0.76300000  0.82800000  0.55770000  1.0
  C  C459  1  0.80180000  0.84060000  0.52410000  1.0
  C  C460  1  0.70610000  0.84600000  0.63260000  1.0
  C  C461  1  0.69450000  0.87870000  0.67430000  1.0
  C  C462  1  0.65180000  0.86830000  0.70620000  1.0
  C  C463  1  0.62100000  0.82640000  0.69450000  1.0
  C  C464  1  0.63190000  0.79430000  0.65400000  1.0
  C  C465  1  0.67510000  0.80490000  0.62360000  1.0
  C  C466  1  0.63880000  0.90380000  0.74950000  1.0
  C  C467  1  0.67490000  0.93970000  0.76680000  1.0
  C  C468  1  0.66310000  0.97330000  0.80610000  1.0
  C  C469  1  0.61440000  0.97250000  0.82980000  1.0
  C  C470  1  0.57830000  0.93740000  0.81170000  1.0
  C  C471  1  0.59070000  0.90350000  0.77180000  1.0
  C  C472  1  0.60050000  0.00980000  0.87110000  1.0
  C  C473  1  0.59710000  0.75150000  0.64010000  1.0
  C  C474  1  0.56050000  0.73370000  0.67620000  1.0
  C  C475  1  0.52650000  0.69530000  0.66350000  1.0
  C  C476  1  0.52720000  0.67320000  0.61470000  1.0
  C  C477  1  0.56330000  0.69020000  0.57910000  1.0
  C  C478  1  0.59710000  0.72880000  0.59100000  1.0
  C  C479  1  0.49020000  0.63170000  0.60020000  1.0
  C  C480  1  0.50860000  0.37070000  0.60150000  1.0
  C  C481  1  0.47000000  0.33050000  0.61540000  1.0
  C  C482  1  0.42930000  0.31770000  0.58260000  1.0
  C  C483  1  0.39640000  0.27740000  0.59570000  1.0
  C  C484  1  0.40130000  0.25020000  0.64020000  1.0
  C  C485  1  0.44230000  0.26300000  0.67200000  1.0
  C  C486  1  0.47590000  0.30180000  0.65940000  1.0
  C  C487  1  0.36740000  0.20610000  0.65400000  1.0
  C  C488  1  0.32570000  0.19450000  0.62130000  1.0
  C  C489  1  0.29380000  0.15180000  0.63170000  1.0
  C  C490  1  0.30550000  0.12100000  0.67360000  1.0
  C  C491  1  0.34600000  0.13190000  0.70570000  1.0
  C  C492  1  0.37640000  0.17510000  0.69510000  1.0
  C  C493  1  0.25050000  0.13880000  0.59620000  1.0
  C  C494  1  0.23320000  0.17490000  0.56030000  1.0
  C  C495  1  0.19390000  0.16310000  0.52670000  1.0
  C  C496  1  0.17020000  0.11440000  0.52750000  1.0
  C  C497  1  0.18830000  0.07830000  0.56260000  1.0
  C  C498  1  0.22820000  0.09070000  0.59650000  1.0
  C  C499  1  0.12890000  0.10050000  0.49020000  1.0
  C  C500  1  0.35990000  0.09710000  0.74850000  1.0
  C  C501  1  0.32380000  0.06050000  0.76630000  1.0
  C  C502  1  0.33650000  0.02650000  0.80470000  1.0
  C  C503  1  0.38530000  0.02720000  0.82680000  1.0
  C  C504  1  0.42090000  0.06330000  0.80980000  1.0
  C  C505  1  0.40900000  0.09710000  0.77120000  1.0
  C  C506  1  0.39980000  0.99020000  0.86830000  1.0
  C  C507  1  0.00860000  0.12930000  0.39850000  1.0
  C  C508  1  0.97000000  0.16950000  0.38460000  1.0
  C  C509  1  0.92930000  0.18230000  0.41740000  1.0
  C  C510  1  0.89640000  0.22260000  0.40430000  1.0
  C  C511  1  0.90130000  0.24980000  0.35980000  1.0
  C  C512  1  0.94230000  0.23700000  0.32800000  1.0
  C  C513  1  0.97590000  0.19820000  0.34060000  1.0
  C  C514  1  0.86740000  0.29390000  0.34600000  1.0
  C  C515  1  0.82570000  0.30550000  0.37870000  1.0
  C  C516  1  0.79380000  0.34820000  0.36830000  1.0
  C  C517  1  0.80550000  0.37900000  0.32640000  1.0
  C  C518  1  0.84600000  0.36810000  0.29430000  1.0
  C  C519  1  0.87640000  0.32490000  0.30490000  1.0
  C  C520  1  0.75050000  0.36120000  0.40380000  1.0
  C  C521  1  0.73320000  0.32510000  0.43970000  1.0
  C  C522  1  0.69390000  0.33690000  0.47330000  1.0
  C  C523  1  0.67020000  0.38560000  0.47250000  1.0
  C  C524  1  0.68830000  0.42170000  0.43740000  1.0
  C  C525  1  0.72820000  0.40930000  0.40350000  1.0
  C  C526  1  0.62890000  0.39950000  0.50980000  1.0
  C  C527  1  0.85990000  0.40290000  0.25150000  1.0
  C  C528  1  0.82380000  0.43950000  0.23370000  1.0
  C  C529  1  0.83650000  0.47350000  0.19530000  1.0
  C  C530  1  0.88530000  0.47280000  0.17320000  1.0
  C  C531  1  0.92090000  0.43670000  0.19020000  1.0
  C  C532  1  0.90900000  0.40290000  0.22880000  1.0
  C  C533  1  0.89980000  0.50980000  0.13170000  1.0
  C  C534  1  0.99140000  0.62930000  0.10150000  1.0
  C  C535  1  0.03000000  0.66950000  0.11540000  1.0
  C  C536  1  0.07070000  0.68230000  0.08260000  1.0
  C  C537  1  0.10360000  0.72260000  0.09570000  1.0
  C  C538  1  0.09870000  0.74980000  0.14020000  1.0
  C  C539  1  0.05770000  0.73700000  0.17200000  1.0
  C  C540  1  0.02410000  0.69820000  0.15940000  1.0
  C  C541  1  0.13260000  0.79390000  0.15400000  1.0
  C  C542  1  0.17430000  0.80550000  0.12130000  1.0
  C  C543  1  0.20620000  0.84820000  0.13170000  1.0
  C  C544  1  0.19450000  0.87900000  0.17360000  1.0
  C  C545  1  0.15400000  0.86810000  0.20570000  1.0
  C  C546  1  0.12360000  0.82490000  0.19510000  1.0
  C  C547  1  0.24950000  0.86120000  0.09620000  1.0
  C  C548  1  0.26680000  0.82510000  0.06030000  1.0
  C  C549  1  0.30610000  0.83690000  0.02670000  1.0
  C  C550  1  0.32980000  0.88560000  0.02750000  1.0
  C  C551  1  0.31170000  0.92170000  0.06260000  1.0
  C  C552  1  0.27180000  0.90930000  0.09650000  1.0
  C  C553  1  0.37110000  0.89950000  0.99020000  1.0
  C  C554  1  0.14010000  0.90290000  0.24850000  1.0
  C  C555  1  0.17620000  0.93950000  0.26630000  1.0
  C  C556  1  0.16350000  0.97350000  0.30470000  1.0
  C  C557  1  0.11470000  0.97280000  0.32680000  1.0
  C  C558  1  0.07910000  0.93670000  0.30980000  1.0
  C  C559  1  0.09100000  0.90290000  0.27120000  1.0
  C  C560  1  0.10020000  0.00980000  0.36830000  1.0
  C  C561  1  0.49140000  0.87070000  0.89850000  1.0
  C  C562  1  0.53000000  0.83050000  0.88460000  1.0
  C  C563  1  0.57070000  0.81770000  0.91740000  1.0
  C  C564  1  0.60360000  0.77740000  0.90430000  1.0
  C  C565  1  0.59870000  0.75020000  0.85980000  1.0
  C  C566  1  0.55770000  0.76300000  0.82800000  1.0
  C  C567  1  0.52410000  0.80180000  0.84060000  1.0
  C  C568  1  0.63260000  0.70610000  0.84600000  1.0
  C  C569  1  0.67430000  0.69450000  0.87870000  1.0
  C  C570  1  0.70620000  0.65180000  0.86830000  1.0
  C  C571  1  0.69450000  0.62100000  0.82640000  1.0
  C  C572  1  0.65400000  0.63190000  0.79430000  1.0
  C  C573  1  0.62360000  0.67510000  0.80490000  1.0
  C  C574  1  0.74950000  0.63880000  0.90380000  1.0
  C  C575  1  0.76680000  0.67490000  0.93970000  1.0
  C  C576  1  0.80610000  0.66310000  0.97330000  1.0
  C  C577  1  0.82980000  0.61440000  0.97250000  1.0
  C  C578  1  0.81170000  0.57830000  0.93740000  1.0
  C  C579  1  0.77180000  0.59070000  0.90350000  1.0
  C  C580  1  0.87110000  0.60050000  0.00980000  1.0
  C  C581  1  0.64010000  0.59710000  0.75150000  1.0
  C  C582  1  0.67620000  0.56050000  0.73370000  1.0
  C  C583  1  0.66350000  0.52650000  0.69530000  1.0
  C  C584  1  0.61470000  0.52720000  0.67320000  1.0
  C  C585  1  0.57910000  0.56330000  0.69020000  1.0
  C  C586  1  0.59100000  0.59710000  0.72880000  1.0
  C  C587  1  0.60020000  0.49020000  0.63170000  1.0
  C  C588  1  0.60150000  0.50860000  0.37070000  1.0
  C  C589  1  0.61540000  0.47000000  0.33050000  1.0
  C  C590  1  0.58260000  0.42930000  0.31770000  1.0
  C  C591  1  0.59570000  0.39640000  0.27740000  1.0
  C  C592  1  0.64020000  0.40130000  0.25020000  1.0
  C  C593  1  0.67200000  0.44230000  0.26300000  1.0
  C  C594  1  0.65940000  0.47590000  0.30180000  1.0
  C  C595  1  0.65400000  0.36740000  0.20610000  1.0
  C  C596  1  0.62130000  0.32570000  0.19450000  1.0
  C  C597  1  0.63170000  0.29380000  0.15180000  1.0
  C  C598  1  0.67360000  0.30550000  0.12100000  1.0
  C  C599  1  0.70570000  0.34600000  0.13190000  1.0
  C  C600  1  0.69510000  0.37640000  0.17510000  1.0
  C  C601  1  0.59620000  0.25050000  0.13880000  1.0
  C  C602  1  0.56030000  0.23320000  0.17490000  1.0
  C  C603  1  0.52670000  0.19390000  0.16310000  1.0
  C  C604  1  0.52750000  0.17020000  0.11440000  1.0
  C  C605  1  0.56260000  0.18830000  0.07830000  1.0
  C  C606  1  0.59650000  0.22820000  0.09070000  1.0
  C  C607  1  0.49020000  0.12890000  0.10050000  1.0
  C  C608  1  0.74850000  0.35990000  0.09710000  1.0
  C  C609  1  0.76630000  0.32380000  0.06050000  1.0
  C  C610  1  0.80470000  0.33650000  0.02650000  1.0
  C  C611  1  0.82680000  0.38530000  0.02720000  1.0
  C  C612  1  0.80980000  0.42090000  0.06330000  1.0
  C  C613  1  0.77120000  0.40900000  0.09710000  1.0
  C  C614  1  0.86830000  0.39980000  0.99020000  1.0
  C  C615  1  0.39850000  0.00860000  0.12930000  1.0
  C  C616  1  0.38460000  0.97000000  0.16950000  1.0
  C  C617  1  0.41740000  0.92930000  0.18230000  1.0
  C  C618  1  0.40430000  0.89640000  0.22260000  1.0
  C  C619  1  0.35980000  0.90130000  0.24980000  1.0
  C  C620  1  0.32800000  0.94230000  0.23700000  1.0
  C  C621  1  0.34060000  0.97590000  0.19820000  1.0
  C  C622  1  0.34600000  0.86740000  0.29390000  1.0
  C  C623  1  0.37870000  0.82570000  0.30550000  1.0
  C  C624  1  0.36830000  0.79380000  0.34820000  1.0
  C  C625  1  0.32640000  0.80550000  0.37900000  1.0
  C  C626  1  0.29430000  0.84600000  0.36810000  1.0
  C  C627  1  0.30490000  0.87640000  0.32490000  1.0
  C  C628  1  0.40380000  0.75050000  0.36120000  1.0
  C  C629  1  0.43970000  0.73320000  0.32510000  1.0
  C  C630  1  0.47330000  0.69390000  0.33690000  1.0
  C  C631  1  0.47250000  0.67020000  0.38560000  1.0
  C  C632  1  0.43740000  0.68830000  0.42170000  1.0
  C  C633  1  0.40350000  0.72820000  0.40930000  1.0
  C  C634  1  0.50980000  0.62890000  0.39950000  1.0
  C  C635  1  0.25150000  0.85990000  0.40290000  1.0
  C  C636  1  0.23370000  0.82380000  0.43950000  1.0
  C  C637  1  0.19530000  0.83650000  0.47350000  1.0
  C  C638  1  0.17320000  0.88530000  0.47280000  1.0
  C  C639  1  0.19020000  0.92090000  0.43670000  1.0
  C  C640  1  0.22880000  0.90900000  0.40290000  1.0
  C  C641  1  0.13170000  0.89980000  0.50980000  1.0
  C  C642  1  0.10150000  0.99140000  0.62930000  1.0
  C  C643  1  0.11540000  0.03000000  0.66950000  1.0
  C  C644  1  0.08260000  0.07070000  0.68230000  1.0
  C  C645  1  0.09570000  0.10360000  0.72260000  1.0
  C  C646  1  0.14020000  0.09870000  0.74980000  1.0
  C  C647  1  0.17200000  0.05770000  0.73700000  1.0
  C  C648  1  0.15940000  0.02410000  0.69820000  1.0
  C  C649  1  0.15400000  0.13260000  0.79390000  1.0
  C  C650  1  0.12130000  0.17430000  0.80550000  1.0
  C  C651  1  0.13170000  0.20620000  0.84820000  1.0
  C  C652  1  0.17360000  0.19450000  0.87900000  1.0
  C  C653  1  0.20570000  0.15400000  0.86810000  1.0
  C  C654  1  0.19510000  0.12360000  0.82490000  1.0
  C  C655  1  0.09620000  0.24950000  0.86120000  1.0
  C  C656  1  0.06030000  0.26680000  0.82510000  1.0
  C  C657  1  0.02670000  0.30610000  0.83690000  1.0
  C  C658  1  0.02750000  0.32980000  0.88560000  1.0
  C  C659  1  0.06260000  0.31170000  0.92170000  1.0
  C  C660  1  0.09650000  0.27180000  0.90930000  1.0
  C  C661  1  0.99020000  0.37110000  0.89950000  1.0
  C  C662  1  0.24850000  0.14010000  0.90290000  1.0
  C  C663  1  0.26630000  0.17620000  0.93950000  1.0
  C  C664  1  0.30470000  0.16350000  0.97350000  1.0
  C  C665  1  0.32680000  0.11470000  0.97280000  1.0
  C  C666  1  0.30980000  0.07910000  0.93670000  1.0
  C  C667  1  0.27120000  0.09100000  0.90290000  1.0
  C  C668  1  0.36830000  0.10020000  0.00980000  1.0
  C  C669  1  0.89850000  0.49140000  0.87070000  1.0
  C  C670  1  0.88460000  0.53000000  0.83050000  1.0
  C  C671  1  0.91740000  0.57070000  0.81770000  1.0
  C  C672  1  0.90430000  0.60360000  0.77740000  1.0
  C  C673  1  0.85980000  0.59870000  0.75020000  1.0
  C  C674  1  0.82800000  0.55770000  0.76300000  1.0
  C  C675  1  0.84060000  0.52410000  0.80180000  1.0
  C  C676  1  0.84600000  0.63260000  0.70610000  1.0
  C  C677  1  0.87870000  0.67430000  0.69450000  1.0
  C  C678  1  0.86830000  0.70620000  0.65180000  1.0
  C  C679  1  0.82640000  0.69450000  0.62100000  1.0
  C  C680  1  0.79430000  0.65400000  0.63190000  1.0
  C  C681  1  0.80490000  0.62360000  0.67510000  1.0
  C  C682  1  0.90380000  0.74950000  0.63880000  1.0
  C  C683  1  0.93970000  0.76680000  0.67490000  1.0
  C  C684  1  0.97330000  0.80610000  0.66310000  1.0
  C  C685  1  0.97250000  0.82980000  0.61440000  1.0
  C  C686  1  0.93740000  0.81170000  0.57830000  1.0
  C  C687  1  0.90350000  0.77180000  0.59070000  1.0
  C  C688  1  0.00980000  0.87110000  0.60050000  1.0
  C  C689  1  0.75150000  0.64010000  0.59710000  1.0
  C  C690  1  0.73370000  0.67620000  0.56050000  1.0
  C  C691  1  0.69530000  0.66350000  0.52650000  1.0
  C  C692  1  0.67320000  0.61470000  0.52720000  1.0
  C  C693  1  0.69020000  0.57910000  0.56330000  1.0
  C  C694  1  0.72880000  0.59100000  0.59710000  1.0
  C  C695  1  0.63170000  0.60020000  0.49020000  1.0
  C  C696  1  0.35150000  0.62070000  0.74140000  1.0
  C  C697  1  0.36540000  0.58050000  0.78000000  1.0
  C  C698  1  0.33260000  0.56770000  0.82070000  1.0
  C  C699  1  0.34570000  0.52740000  0.85360000  1.0
  C  C700  1  0.39020000  0.50020000  0.84870000  1.0
  C  C701  1  0.42200000  0.51300000  0.80770000  1.0
  C  C702  1  0.40940000  0.55180000  0.77410000  1.0
  C  C703  1  0.40400000  0.45610000  0.88260000  1.0
  C  C704  1  0.37130000  0.44450000  0.92430000  1.0
  C  C705  1  0.38170000  0.40180000  0.95620000  1.0
  C  C706  1  0.42360000  0.37100000  0.94450000  1.0
  C  C707  1  0.45570000  0.38190000  0.90400000  1.0
  C  C708  1  0.44510000  0.42510000  0.87360000  1.0
  C  C709  1  0.34620000  0.38880000  0.99950000  1.0
  C  C710  1  0.31030000  0.42490000  0.01680000  1.0
  C  C711  1  0.27670000  0.41310000  0.05610000  1.0
  C  C712  1  0.27750000  0.36440000  0.07980000  1.0
  C  C713  1  0.31260000  0.32830000  0.06170000  1.0
  C  C714  1  0.34650000  0.34070000  0.02180000  1.0
  C  C715  1  0.24020000  0.35050000  0.12110000  1.0
  C  C716  1  0.49850000  0.34710000  0.89010000  1.0
  C  C717  1  0.51630000  0.31050000  0.92620000  1.0
  C  C718  1  0.55470000  0.27650000  0.91350000  1.0
  C  C719  1  0.57680000  0.27720000  0.86470000  1.0
  C  C720  1  0.55980000  0.31330000  0.82910000  1.0
  C  C721  1  0.52120000  0.34710000  0.84100000  1.0
  C  C722  1  0.61830000  0.24020000  0.85020000  1.0
  C  C723  1  0.14850000  0.37930000  0.24140000  1.0
  C  C724  1  0.13460000  0.41950000  0.28000000  1.0
  C  C725  1  0.16740000  0.43230000  0.32070000  1.0
  C  C726  1  0.15430000  0.47260000  0.35360000  1.0
  C  C727  1  0.10980000  0.49980000  0.34870000  1.0
  C  C728  1  0.07800000  0.48700000  0.30770000  1.0
  C  C729  1  0.09060000  0.44820000  0.27410000  1.0
  C  C730  1  0.09600000  0.54390000  0.38260000  1.0
  C  C731  1  0.12870000  0.55550000  0.42430000  1.0
  C  C732  1  0.11830000  0.59820000  0.45620000  1.0
  C  C733  1  0.07640000  0.62900000  0.44450000  1.0
  C  C734  1  0.04430000  0.61810000  0.40400000  1.0
  C  C735  1  0.05490000  0.57490000  0.37360000  1.0
  C  C736  1  0.15380000  0.61120000  0.49950000  1.0
  C  C737  1  0.18970000  0.57510000  0.51680000  1.0
  C  C738  1  0.22330000  0.58690000  0.55610000  1.0
  C  C739  1  0.22250000  0.63560000  0.57980000  1.0
  C  C740  1  0.18740000  0.67170000  0.56170000  1.0
  C  C741  1  0.15350000  0.65930000  0.52180000  1.0
  C  C742  1  0.25980000  0.64950000  0.62110000  1.0
  C  C743  1  0.00150000  0.65290000  0.39010000  1.0
  C  C744  1  0.98370000  0.68950000  0.42620000  1.0
  C  C745  1  0.94530000  0.72350000  0.41350000  1.0
  C  C746  1  0.92320000  0.72280000  0.36470000  1.0
  C  C747  1  0.94020000  0.68670000  0.32910000  1.0
  C  C748  1  0.97880000  0.65290000  0.34100000  1.0
  C  C749  1  0.88170000  0.75980000  0.35020000  1.0
  C  C750  1  0.85150000  0.87930000  0.25860000  1.0
  C  C751  1  0.86540000  0.91950000  0.22000000  1.0
  C  C752  1  0.83260000  0.93230000  0.17930000  1.0
  C  C753  1  0.84570000  0.97260000  0.14640000  1.0
  C  C754  1  0.89020000  0.99980000  0.15130000  1.0
  C  C755  1  0.92200000  0.98700000  0.19230000  1.0
  C  C756  1  0.90940000  0.94820000  0.22590000  1.0
  C  C757  1  0.90400000  0.04390000  0.11740000  1.0
  C  C758  1  0.87130000  0.05550000  0.07570000  1.0
  C  C759  1  0.88170000  0.09820000  0.04380000  1.0
  C  C760  1  0.92360000  0.12900000  0.05550000  1.0
  C  C761  1  0.95570000  0.11810000  0.09600000  1.0
  C  C762  1  0.94510000  0.07490000  0.12640000  1.0
  C  C763  1  0.84620000  0.11120000  0.00050000  1.0
  C  C764  1  0.81030000  0.07510000  0.98320000  1.0
  C  C765  1  0.77670000  0.08690000  0.94390000  1.0
  C  C766  1  0.77750000  0.13560000  0.92020000  1.0
  C  C767  1  0.81260000  0.17170000  0.93830000  1.0
  C  C768  1  0.84650000  0.15930000  0.97820000  1.0
  C  C769  1  0.74020000  0.14950000  0.87890000  1.0
  C  C770  1  0.99850000  0.15290000  0.10990000  1.0
  C  C771  1  0.01630000  0.18950000  0.07380000  1.0
  C  C772  1  0.05470000  0.22350000  0.08650000  1.0
  C  C773  1  0.07680000  0.22280000  0.13530000  1.0
  C  C774  1  0.05980000  0.18670000  0.17090000  1.0
  C  C775  1  0.02120000  0.15290000  0.15900000  1.0
  C  C776  1  0.11830000  0.25980000  0.14980000  1.0
  C  C777  1  0.64850000  0.12070000  0.75860000  1.0
  C  C778  1  0.63460000  0.08050000  0.72000000  1.0
  C  C779  1  0.66740000  0.06770000  0.67930000  1.0
  C  C780  1  0.65430000  0.02740000  0.64640000  1.0
  C  C781  1  0.60980000  0.00020000  0.65130000  1.0
  C  C782  1  0.57800000  0.01300000  0.69230000  1.0
  C  C783  1  0.59060000  0.05180000  0.72590000  1.0
  C  C784  1  0.59600000  0.95610000  0.61740000  1.0
  C  C785  1  0.62870000  0.94450000  0.57570000  1.0
  C  C786  1  0.61830000  0.90180000  0.54380000  1.0
  C  C787  1  0.57640000  0.87100000  0.55550000  1.0
  C  C788  1  0.54430000  0.88190000  0.59600000  1.0
  C  C789  1  0.55490000  0.92510000  0.62640000  1.0
  C  C790  1  0.65380000  0.88880000  0.50050000  1.0
  C  C791  1  0.68970000  0.92490000  0.48320000  1.0
  C  C792  1  0.72330000  0.91310000  0.44390000  1.0
  C  C793  1  0.72250000  0.86440000  0.42020000  1.0
  C  C794  1  0.68740000  0.82830000  0.43830000  1.0
  C  C795  1  0.65350000  0.84070000  0.47820000  1.0
  C  C796  1  0.75980000  0.85050000  0.37890000  1.0
  C  C797  1  0.50150000  0.84710000  0.60990000  1.0
  C  C798  1  0.48370000  0.81050000  0.57380000  1.0
  C  C799  1  0.44530000  0.77650000  0.58650000  1.0
  C  C800  1  0.42320000  0.77720000  0.63530000  1.0
  C  C801  1  0.44020000  0.81330000  0.67090000  1.0
  C  C802  1  0.47880000  0.84710000  0.65900000  1.0
  C  C803  1  0.38170000  0.74020000  0.64980000  1.0
  C  C804  1  0.12070000  0.75860000  0.64850000  1.0
  C  C805  1  0.08050000  0.72000000  0.63460000  1.0
  C  C806  1  0.06770000  0.67930000  0.66740000  1.0
  C  C807  1  0.02740000  0.64640000  0.65430000  1.0
  C  C808  1  0.00020000  0.65130000  0.60980000  1.0
  C  C809  1  0.01300000  0.69230000  0.57800000  1.0
  C  C810  1  0.05180000  0.72590000  0.59060000  1.0
  C  C811  1  0.95610000  0.61740000  0.59600000  1.0
  C  C812  1  0.94450000  0.57570000  0.62870000  1.0
  C  C813  1  0.90180000  0.54380000  0.61830000  1.0
  C  C814  1  0.87100000  0.55550000  0.57640000  1.0
  C  C815  1  0.88190000  0.59600000  0.54430000  1.0
  C  C816  1  0.92510000  0.62640000  0.55490000  1.0
  C  C817  1  0.88880000  0.50050000  0.65380000  1.0
  C  C818  1  0.92490000  0.48320000  0.68970000  1.0
  C  C819  1  0.91310000  0.44390000  0.72330000  1.0
  C  C820  1  0.86440000  0.42020000  0.72250000  1.0
  C  C821  1  0.82830000  0.43830000  0.68740000  1.0
  C  C822  1  0.84070000  0.47820000  0.65350000  1.0
  C  C823  1  0.85050000  0.37890000  0.75980000  1.0
  C  C824  1  0.84710000  0.60990000  0.50150000  1.0
  C  C825  1  0.81050000  0.57380000  0.48370000  1.0
  C  C826  1  0.77650000  0.58650000  0.44530000  1.0
  C  C827  1  0.77720000  0.63530000  0.42320000  1.0
  C  C828  1  0.81330000  0.67090000  0.44020000  1.0
  C  C829  1  0.84710000  0.65900000  0.47880000  1.0
  C  C830  1  0.74020000  0.64980000  0.38170000  1.0
  C  C831  1  0.87930000  0.25860000  0.85150000  1.0
  C  C832  1  0.91950000  0.22000000  0.86540000  1.0
  C  C833  1  0.93230000  0.17930000  0.83260000  1.0
  C  C834  1  0.97260000  0.14640000  0.84570000  1.0
  C  C835  1  0.99980000  0.15130000  0.89020000  1.0
  C  C836  1  0.98700000  0.19230000  0.92200000  1.0
  C  C837  1  0.94820000  0.22590000  0.90940000  1.0
  C  C838  1  0.04390000  0.11740000  0.90400000  1.0
  C  C839  1  0.05550000  0.07570000  0.87130000  1.0
  C  C840  1  0.09820000  0.04380000  0.88170000  1.0
  C  C841  1  0.12900000  0.05550000  0.92360000  1.0
  C  C842  1  0.11810000  0.09600000  0.95570000  1.0
  C  C843  1  0.07490000  0.12640000  0.94510000  1.0
  C  C844  1  0.11120000  0.00050000  0.84620000  1.0
  C  C845  1  0.07510000  0.98320000  0.81030000  1.0
  C  C846  1  0.08690000  0.94390000  0.77670000  1.0
  C  C847  1  0.13560000  0.92020000  0.77750000  1.0
  C  C848  1  0.17170000  0.93830000  0.81260000  1.0
  C  C849  1  0.15930000  0.97820000  0.84650000  1.0
  C  C850  1  0.14950000  0.87890000  0.74020000  1.0
  C  C851  1  0.15290000  0.10990000  0.99850000  1.0
  C  C852  1  0.18950000  0.07380000  0.01630000  1.0
  C  C853  1  0.22350000  0.08650000  0.05470000  1.0
  C  C854  1  0.22280000  0.13530000  0.07680000  1.0
  C  C855  1  0.18670000  0.17090000  0.05980000  1.0
  C  C856  1  0.15290000  0.15900000  0.02120000  1.0
  C  C857  1  0.25980000  0.14980000  0.11830000  1.0
  C  C858  1  0.37930000  0.24140000  0.14850000  1.0
  C  C859  1  0.41950000  0.28000000  0.13460000  1.0
  C  C860  1  0.43230000  0.32070000  0.16740000  1.0
  C  C861  1  0.47260000  0.35360000  0.15430000  1.0
  C  C862  1  0.49980000  0.34870000  0.10980000  1.0
  C  C863  1  0.48700000  0.30770000  0.07800000  1.0
  C  C864  1  0.44820000  0.27410000  0.09060000  1.0
  C  C865  1  0.54390000  0.38260000  0.09600000  1.0
  C  C866  1  0.55550000  0.42430000  0.12870000  1.0
  C  C867  1  0.59820000  0.45620000  0.11830000  1.0
  C  C868  1  0.62900000  0.44450000  0.07640000  1.0
  C  C869  1  0.61810000  0.40400000  0.04430000  1.0
  C  C870  1  0.57490000  0.37360000  0.05490000  1.0
  C  C871  1  0.61120000  0.49950000  0.15380000  1.0
  C  C872  1  0.57510000  0.51680000  0.18970000  1.0
  C  C873  1  0.58690000  0.55610000  0.22330000  1.0
  C  C874  1  0.63560000  0.57980000  0.22250000  1.0
  C  C875  1  0.67170000  0.56170000  0.18740000  1.0
  C  C876  1  0.65930000  0.52180000  0.15350000  1.0
  C  C877  1  0.64950000  0.62110000  0.25980000  1.0
  C  C878  1  0.65290000  0.39010000  0.00150000  1.0
  C  C879  1  0.68950000  0.42620000  0.98370000  1.0
  C  C880  1  0.72350000  0.41350000  0.94530000  1.0
  C  C881  1  0.72280000  0.36470000  0.92320000  1.0
  C  C882  1  0.68670000  0.32910000  0.94020000  1.0
  C  C883  1  0.65290000  0.34100000  0.97880000  1.0
  C  C884  1  0.75980000  0.35020000  0.88170000  1.0
  C  C885  1  0.62070000  0.74140000  0.35150000  1.0
  C  C886  1  0.58050000  0.78000000  0.36540000  1.0
  C  C887  1  0.56770000  0.82070000  0.33260000  1.0
  C  C888  1  0.52740000  0.85360000  0.34570000  1.0
  C  C889  1  0.50020000  0.84870000  0.39020000  1.0
  C  C890  1  0.51300000  0.80770000  0.42200000  1.0
  C  C891  1  0.55180000  0.77410000  0.40940000  1.0
  C  C892  1  0.45610000  0.88260000  0.40400000  1.0
  C  C893  1  0.44450000  0.92430000  0.37130000  1.0
  C  C894  1  0.40180000  0.95620000  0.38170000  1.0
  C  C895  1  0.37100000  0.94450000  0.42360000  1.0
  C  C896  1  0.38190000  0.90400000  0.45570000  1.0
  C  C897  1  0.42510000  0.87360000  0.44510000  1.0
  C  C898  1  0.38880000  0.99950000  0.34620000  1.0
  C  C899  1  0.42490000  0.01680000  0.31030000  1.0
  C  C900  1  0.41310000  0.05610000  0.27670000  1.0
  C  C901  1  0.36440000  0.07980000  0.27750000  1.0
  C  C902  1  0.32830000  0.06170000  0.31260000  1.0
  C  C903  1  0.34070000  0.02180000  0.34650000  1.0
  C  C904  1  0.35050000  0.12110000  0.24020000  1.0
  C  C905  1  0.34710000  0.89010000  0.49850000  1.0
  C  C906  1  0.31050000  0.92620000  0.51630000  1.0
  C  C907  1  0.27650000  0.91350000  0.55470000  1.0
  C  C908  1  0.27720000  0.86470000  0.57680000  1.0
  C  C909  1  0.31330000  0.82910000  0.55980000  1.0
  C  C910  1  0.34710000  0.84100000  0.52120000  1.0
  C  C911  1  0.24020000  0.85020000  0.61830000  1.0
  C  C912  1  0.25860000  0.85150000  0.87930000  1.0
  C  C913  1  0.22000000  0.86540000  0.91950000  1.0
  C  C914  1  0.17930000  0.83260000  0.93230000  1.0
  C  C915  1  0.14640000  0.84570000  0.97260000  1.0
  C  C916  1  0.15130000  0.89020000  0.99980000  1.0
  C  C917  1  0.19230000  0.92200000  0.98700000  1.0
  C  C918  1  0.22590000  0.90940000  0.94820000  1.0
  C  C919  1  0.11740000  0.90400000  0.04390000  1.0
  C  C920  1  0.07570000  0.87130000  0.05550000  1.0
  C  C921  1  0.04380000  0.88170000  0.09820000  1.0
  C  C922  1  0.05550000  0.92360000  0.12900000  1.0
  C  C923  1  0.09600000  0.95570000  0.11810000  1.0
  C  C924  1  0.12640000  0.94510000  0.07490000  1.0
  C  C925  1  0.00050000  0.84620000  0.11120000  1.0
  C  C926  1  0.98320000  0.81030000  0.07510000  1.0
  C  C927  1  0.94390000  0.77670000  0.08690000  1.0
  C  C928  1  0.92020000  0.77750000  0.13560000  1.0
  C  C929  1  0.93830000  0.81260000  0.17170000  1.0
  C  C930  1  0.97820000  0.84650000  0.15930000  1.0
  C  C931  1  0.87890000  0.74020000  0.14950000  1.0
  C  C932  1  0.10990000  0.99850000  0.15290000  1.0
  C  C933  1  0.07380000  0.01630000  0.18950000  1.0
  C  C934  1  0.08650000  0.05470000  0.22350000  1.0
  C  C935  1  0.13530000  0.07680000  0.22280000  1.0
  C  C936  1  0.17090000  0.05980000  0.18670000  1.0
  C  C937  1  0.15900000  0.02120000  0.15290000  1.0
  C  C938  1  0.14980000  0.11830000  0.25980000  1.0
  C  C939  1  0.75860000  0.64850000  0.12070000  1.0
  C  C940  1  0.72000000  0.63460000  0.08050000  1.0
  C  C941  1  0.67930000  0.66740000  0.06770000  1.0
  C  C942  1  0.64640000  0.65430000  0.02740000  1.0
  C  C943  1  0.65130000  0.60980000  0.00020000  1.0
  C  C944  1  0.69230000  0.57800000  0.01300000  1.0
  C  C945  1  0.72590000  0.59060000  0.05180000  1.0
  C  C946  1  0.61740000  0.59600000  0.95610000  1.0
  C  C947  1  0.57570000  0.62870000  0.94450000  1.0
  C  C948  1  0.54380000  0.61830000  0.90180000  1.0
  C  C949  1  0.55550000  0.57640000  0.87100000  1.0
  C  C950  1  0.59600000  0.54430000  0.88190000  1.0
  C  C951  1  0.62640000  0.55490000  0.92510000  1.0
  C  C952  1  0.50050000  0.65380000  0.88880000  1.0
  C  C953  1  0.48320000  0.68970000  0.92490000  1.0
  C  C954  1  0.44390000  0.72330000  0.91310000  1.0
  C  C955  1  0.42020000  0.72250000  0.86440000  1.0
  C  C956  1  0.43830000  0.68740000  0.82830000  1.0
  C  C957  1  0.47820000  0.65350000  0.84070000  1.0
  C  C958  1  0.37890000  0.75980000  0.85050000  1.0
  C  C959  1  0.60990000  0.50150000  0.84710000  1.0
  C  C960  1  0.57380000  0.48370000  0.81050000  1.0
  C  C961  1  0.58650000  0.44530000  0.77650000  1.0
  C  C962  1  0.63530000  0.42320000  0.77720000  1.0
  C  C963  1  0.67090000  0.44020000  0.81330000  1.0
  C  C964  1  0.65900000  0.47880000  0.84710000  1.0
  C  C965  1  0.64980000  0.38170000  0.74020000  1.0
  C  C966  1  0.74140000  0.35150000  0.62070000  1.0
  C  C967  1  0.78000000  0.36540000  0.58050000  1.0
  C  C968  1  0.82070000  0.33260000  0.56770000  1.0
  C  C969  1  0.85360000  0.34570000  0.52740000  1.0
  C  C970  1  0.84870000  0.39020000  0.50020000  1.0
  C  C971  1  0.80770000  0.42200000  0.51300000  1.0
  C  C972  1  0.77410000  0.40940000  0.55180000  1.0
  C  C973  1  0.88260000  0.40400000  0.45610000  1.0
  C  C974  1  0.92430000  0.37130000  0.44450000  1.0
  C  C975  1  0.95620000  0.38170000  0.40180000  1.0
  C  C976  1  0.94450000  0.42360000  0.37100000  1.0
  C  C977  1  0.90400000  0.45570000  0.38190000  1.0
  C  C978  1  0.87360000  0.44510000  0.42510000  1.0
  C  C979  1  0.99950000  0.34620000  0.38880000  1.0
  C  C980  1  0.01680000  0.31030000  0.42490000  1.0
  C  C981  1  0.05610000  0.27670000  0.41310000  1.0
  C  C982  1  0.07980000  0.27750000  0.36440000  1.0
  C  C983  1  0.06170000  0.31260000  0.32830000  1.0
  C  C984  1  0.02180000  0.34650000  0.34070000  1.0
  C  C985  1  0.12110000  0.24020000  0.35050000  1.0
  C  C986  1  0.89010000  0.49850000  0.34710000  1.0
  C  C987  1  0.92620000  0.51630000  0.31050000  1.0
  C  C988  1  0.91350000  0.55470000  0.27650000  1.0
  C  C989  1  0.86470000  0.57680000  0.27720000  1.0
  C  C990  1  0.82910000  0.55980000  0.31330000  1.0
  C  C991  1  0.84100000  0.52120000  0.34710000  1.0
  C  C992  1  0.85020000  0.61830000  0.24020000  1.0
  C  C993  1  0.24140000  0.14850000  0.37930000  1.0
  C  C994  1  0.28000000  0.13460000  0.41950000  1.0
  C  C995  1  0.32070000  0.16740000  0.43230000  1.0
  C  C996  1  0.35360000  0.15430000  0.47260000  1.0
  C  C997  1  0.34870000  0.10980000  0.49980000  1.0
  C  C998  1  0.30770000  0.07800000  0.48700000  1.0
  C  C999  1  0.27410000  0.09060000  0.44820000  1.0
  C  C1000  1  0.38260000  0.09600000  0.54390000  1.0
  C  C1001  1  0.42430000  0.12870000  0.55550000  1.0
  C  C1002  1  0.45620000  0.11830000  0.59820000  1.0
  C  C1003  1  0.44450000  0.07640000  0.62900000  1.0
  C  C1004  1  0.40400000  0.04430000  0.61810000  1.0
  C  C1005  1  0.37360000  0.05490000  0.57490000  1.0
  C  C1006  1  0.49950000  0.15380000  0.61120000  1.0
  C  C1007  1  0.51680000  0.18970000  0.57510000  1.0
  C  C1008  1  0.55610000  0.22330000  0.58690000  1.0
  C  C1009  1  0.57980000  0.22250000  0.63560000  1.0
  C  C1010  1  0.56170000  0.18740000  0.67170000  1.0
  C  C1011  1  0.52180000  0.15350000  0.65930000  1.0
  C  C1012  1  0.62110000  0.25980000  0.64950000  1.0
  C  C1013  1  0.39010000  0.00150000  0.65290000  1.0
  C  C1014  1  0.42620000  0.98370000  0.68950000  1.0
  C  C1015  1  0.41350000  0.94530000  0.72350000  1.0
  C  C1016  1  0.36470000  0.92320000  0.72280000  1.0
  C  C1017  1  0.32910000  0.94020000  0.68670000  1.0
  C  C1018  1  0.34100000  0.97880000  0.65290000  1.0
  C  C1019  1  0.35020000  0.88170000  0.75980000  1.0
  O  O1020  1  0.39670000  0.56020000  0.50020000  1.0
  O  O1021  1  0.37810000  0.63020000  0.54540000  1.0
  O  O1022  1  0.13170000  0.45430000  0.12090000  1.0
  O  O1023  1  0.06150000  0.49820000  0.10260000  1.0
  O  O1024  1  0.95410000  0.87850000  0.36880000  1.0
  O  O1025  1  0.99820000  0.89300000  0.44010000  1.0
  O  O1026  1  0.31420000  0.69500000  0.50860000  1.0
  O  O1027  1  0.19960000  0.49170000  0.18200000  1.0
  O  O1028  1  0.99240000  0.81780000  0.29920000  1.0
  O  O1029  1  0.03700000  0.56100000  0.18100000  1.0
  O  O1030  1  0.06250000  0.82680000  0.46880000  1.0
  O  O1031  1  0.35100000  0.54720000  0.41430000  1.0
  O  O1032  1  0.10330000  0.43980000  0.00020000  1.0
  O  O1033  1  0.12190000  0.36980000  0.04540000  1.0
  O  O1034  1  0.36830000  0.54570000  0.62090000  1.0
  O  O1035  1  0.43850000  0.50180000  0.60260000  1.0
  O  O1036  1  0.54590000  0.12150000  0.86880000  1.0
  O  O1037  1  0.50180000  0.10700000  0.94010000  1.0
  O  O1038  1  0.18580000  0.30500000  0.00860000  1.0
  O  O1039  1  0.30040000  0.50830000  0.68200000  1.0
  O  O1040  1  0.50760000  0.18220000  0.79920000  1.0
  O  O1041  1  0.46300000  0.43900000  0.68100000  1.0
  O  O1042  1  0.43750000  0.17320000  0.96880000  1.0
  O  O1043  1  0.14900000  0.45280000  0.91430000  1.0
  O  O1044  1  0.60330000  0.06020000  0.99980000  1.0
  O  O1045  1  0.62190000  0.13020000  0.95460000  1.0
  O  O1046  1  0.86830000  0.95430000  0.37910000  1.0
  O  O1047  1  0.93850000  0.99820000  0.39740000  1.0
  O  O1048  1  0.04590000  0.37850000  0.13120000  1.0
  O  O1049  1  0.00180000  0.39300000  0.05990000  1.0
  O  O1050  1  0.68580000  0.19500000  0.99140000  1.0
  O  O1051  1  0.80040000  0.99170000  0.31800000  1.0
  O  O1052  1  0.00760000  0.31780000  0.20080000  1.0
  O  O1053  1  0.96300000  0.06100000  0.31900000  1.0
  O  O1054  1  0.93750000  0.32680000  0.03120000  1.0
  O  O1055  1  0.64900000  0.04720000  0.08570000  1.0
  O  O1056  1  0.89670000  0.93980000  0.49980000  1.0
  O  O1057  1  0.87810000  0.86980000  0.45460000  1.0
  O  O1058  1  0.63170000  0.04570000  0.87910000  1.0
  O  O1059  1  0.56150000  0.00180000  0.89740000  1.0
  O  O1060  1  0.45410000  0.62150000  0.63120000  1.0
  O  O1061  1  0.49820000  0.60700000  0.55990000  1.0
  O  O1062  1  0.81420000  0.80500000  0.49140000  1.0
  O  O1063  1  0.69960000  0.00830000  0.81800000  1.0
  O  O1064  1  0.49240000  0.68220000  0.70080000  1.0
  O  O1065  1  0.53700000  0.93900000  0.81900000  1.0
  O  O1066  1  0.56250000  0.67320000  0.53120000  1.0
  O  O1067  1  0.85100000  0.95280000  0.58570000  1.0
  O  O1068  1  0.50020000  0.39670000  0.56020000  1.0
  O  O1069  1  0.54540000  0.37810000  0.63020000  1.0
  O  O1070  1  0.12090000  0.13170000  0.45430000  1.0
  O  O1071  1  0.10260000  0.06150000  0.49820000  1.0
  O  O1072  1  0.36880000  0.95410000  0.87850000  1.0
  O  O1073  1  0.44010000  0.99820000  0.89300000  1.0
  O  O1074  1  0.50860000  0.31420000  0.69500000  1.0
  O  O1075  1  0.18200000  0.19960000  0.49170000  1.0
  O  O1076  1  0.29920000  0.99240000  0.81780000  1.0
  O  O1077  1  0.18100000  0.03700000  0.56100000  1.0
  O  O1078  1  0.46880000  0.06250000  0.82680000  1.0
  O  O1079  1  0.41430000  0.35100000  0.54720000  1.0
  O  O1080  1  0.00020000  0.10330000  0.43980000  1.0
  O  O1081  1  0.04540000  0.12190000  0.36980000  1.0
  O  O1082  1  0.62090000  0.36830000  0.54570000  1.0
  O  O1083  1  0.60260000  0.43850000  0.50180000  1.0
  O  O1084  1  0.86880000  0.54590000  0.12150000  1.0
  O  O1085  1  0.94010000  0.50180000  0.10700000  1.0
  O  O1086  1  0.00860000  0.18580000  0.30500000  1.0
  O  O1087  1  0.68200000  0.30040000  0.50830000  1.0
  O  O1088  1  0.79920000  0.50760000  0.18220000  1.0
  O  O1089  1  0.68100000  0.46300000  0.43900000  1.0
  O  O1090  1  0.96880000  0.43750000  0.17320000  1.0
  O  O1091  1  0.91430000  0.14900000  0.45280000  1.0
  O  O1092  1  0.99980000  0.60330000  0.06020000  1.0
  O  O1093  1  0.95460000  0.62190000  0.13020000  1.0
  O  O1094  1  0.37910000  0.86830000  0.95430000  1.0
  O  O1095  1  0.39740000  0.93850000  0.99820000  1.0
  O  O1096  1  0.13120000  0.04590000  0.37850000  1.0
  O  O1097  1  0.05990000  0.00180000  0.39300000  1.0
  O  O1098  1  0.99140000  0.68580000  0.19500000  1.0
  O  O1099  1  0.31800000  0.80040000  0.99170000  1.0
  O  O1100  1  0.20080000  0.00760000  0.31780000  1.0
  O  O1101  1  0.31900000  0.96300000  0.06100000  1.0
  O  O1102  1  0.03120000  0.93750000  0.32680000  1.0
  O  O1103  1  0.08570000  0.64900000  0.04720000  1.0
  O  O1104  1  0.49980000  0.89670000  0.93980000  1.0
  O  O1105  1  0.45460000  0.87810000  0.86980000  1.0
  O  O1106  1  0.87910000  0.63170000  0.04570000  1.0
  O  O1107  1  0.89740000  0.56150000  0.00180000  1.0
  O  O1108  1  0.63120000  0.45410000  0.62150000  1.0
  O  O1109  1  0.55990000  0.49820000  0.60700000  1.0
  O  O1110  1  0.49140000  0.81420000  0.80500000  1.0
  O  O1111  1  0.81800000  0.69960000  0.00830000  1.0
  O  O1112  1  0.70080000  0.49240000  0.68220000  1.0
  O  O1113  1  0.81900000  0.53700000  0.93900000  1.0
  O  O1114  1  0.53120000  0.56250000  0.67320000  1.0
  O  O1115  1  0.58570000  0.85100000  0.95280000  1.0
  O  O1116  1  0.56020000  0.50020000  0.39670000  1.0
  O  O1117  1  0.63020000  0.54540000  0.37810000  1.0
  O  O1118  1  0.45430000  0.12090000  0.13170000  1.0
  O  O1119  1  0.49820000  0.10260000  0.06150000  1.0
  O  O1120  1  0.87850000  0.36880000  0.95410000  1.0
  O  O1121  1  0.89300000  0.44010000  0.99820000  1.0
  O  O1122  1  0.69500000  0.50860000  0.31420000  1.0
  O  O1123  1  0.49170000  0.18200000  0.19960000  1.0
  O  O1124  1  0.81780000  0.29920000  0.99240000  1.0
  O  O1125  1  0.56100000  0.18100000  0.03700000  1.0
  O  O1126  1  0.82680000  0.46880000  0.06250000  1.0
  O  O1127  1  0.54720000  0.41430000  0.35100000  1.0
  O  O1128  1  0.43980000  0.00020000  0.10330000  1.0
  O  O1129  1  0.36980000  0.04540000  0.12190000  1.0
  O  O1130  1  0.54570000  0.62090000  0.36830000  1.0
  O  O1131  1  0.50180000  0.60260000  0.43850000  1.0
  O  O1132  1  0.12150000  0.86880000  0.54590000  1.0
  O  O1133  1  0.10700000  0.94010000  0.50180000  1.0
  O  O1134  1  0.30500000  0.00860000  0.18580000  1.0
  O  O1135  1  0.50830000  0.68200000  0.30040000  1.0
  O  O1136  1  0.18220000  0.79920000  0.50760000  1.0
  O  O1137  1  0.43900000  0.68100000  0.46300000  1.0
  O  O1138  1  0.17320000  0.96880000  0.43750000  1.0
  O  O1139  1  0.45280000  0.91430000  0.14900000  1.0
  O  O1140  1  0.06020000  0.99980000  0.60330000  1.0
  O  O1141  1  0.13020000  0.95460000  0.62190000  1.0
  O  O1142  1  0.95430000  0.37910000  0.86830000  1.0
  O  O1143  1  0.99820000  0.39740000  0.93850000  1.0
  O  O1144  1  0.37850000  0.13120000  0.04590000  1.0
  O  O1145  1  0.39300000  0.05990000  0.00180000  1.0
  O  O1146  1  0.19500000  0.99140000  0.68580000  1.0
  O  O1147  1  0.99170000  0.31800000  0.80040000  1.0
  O  O1148  1  0.31780000  0.20080000  0.00760000  1.0
  O  O1149  1  0.06100000  0.31900000  0.96300000  1.0
  O  O1150  1  0.32680000  0.03120000  0.93750000  1.0
  O  O1151  1  0.04720000  0.08570000  0.64900000  1.0
  O  O1152  1  0.93980000  0.49980000  0.89670000  1.0
  O  O1153  1  0.86980000  0.45460000  0.87810000  1.0
  O  O1154  1  0.04570000  0.87910000  0.63170000  1.0
  O  O1155  1  0.00180000  0.89740000  0.56150000  1.0
  O  O1156  1  0.62150000  0.63120000  0.45410000  1.0
  O  O1157  1  0.60700000  0.55990000  0.49820000  1.0
  O  O1158  1  0.80500000  0.49140000  0.81420000  1.0
  O  O1159  1  0.00830000  0.81800000  0.69960000  1.0
  O  O1160  1  0.68220000  0.70080000  0.49240000  1.0
  O  O1161  1  0.93900000  0.81900000  0.53700000  1.0
  O  O1162  1  0.67320000  0.53120000  0.56250000  1.0
  O  O1163  1  0.95280000  0.58570000  0.85100000  1.0
  O  O1164  1  0.31020000  0.64670000  0.74980000  1.0
  O  O1165  1  0.38020000  0.62810000  0.70460000  1.0
  O  O1166  1  0.20430000  0.38170000  0.12910000  1.0
  O  O1167  1  0.24820000  0.31150000  0.14740000  1.0
  O  O1168  1  0.62850000  0.20410000  0.88120000  1.0
  O  O1169  1  0.64300000  0.24820000  0.80990000  1.0
  O  O1170  1  0.44500000  0.56420000  0.74140000  1.0
  O  O1171  1  0.24170000  0.44960000  0.06800000  1.0
  O  O1172  1  0.56780000  0.24240000  0.95080000  1.0
  O  O1173  1  0.31100000  0.28700000  0.06900000  1.0
  O  O1174  1  0.57680000  0.31250000  0.78120000  1.0
  O  O1175  1  0.29720000  0.60100000  0.83570000  1.0
  O  O1176  1  0.18980000  0.35330000  0.24980000  1.0
  O  O1177  1  0.11980000  0.37190000  0.20460000  1.0
  O  O1178  1  0.29570000  0.61830000  0.62910000  1.0
  O  O1179  1  0.25180000  0.68850000  0.64740000  1.0
  O  O1180  1  0.87150000  0.79590000  0.38120000  1.0
  O  O1181  1  0.85700000  0.75180000  0.30990000  1.0
  O  O1182  1  0.05500000  0.43580000  0.24140000  1.0
  O  O1183  1  0.25830000  0.55040000  0.56800000  1.0
  O  O1184  1  0.93220000  0.75760000  0.45080000  1.0
  O  O1185  1  0.18900000  0.71300000  0.56900000  1.0
  O  O1186  1  0.92320000  0.68750000  0.28120000  1.0
  O  O1187  1  0.20280000  0.39900000  0.33570000  1.0
  O  O1188  1  0.81020000  0.85330000  0.25020000  1.0
  O  O1189  1  0.88020000  0.87190000  0.29540000  1.0
  O  O1190  1  0.70430000  0.11830000  0.87090000  1.0
  O  O1191  1  0.74820000  0.18850000  0.85260000  1.0
  O  O1192  1  0.12850000  0.29590000  0.11880000  1.0
  O  O1193  1  0.14300000  0.25180000  0.19010000  1.0
  O  O1194  1  0.94500000  0.93580000  0.25860000  1.0
  O  O1195  1  0.74170000  0.05040000  0.93200000  1.0
  O  O1196  1  0.06780000  0.25760000  0.04920000  1.0
  O  O1197  1  0.81100000  0.21300000  0.93100000  1.0
  O  O1198  1  0.07680000  0.18750000  0.21880000  1.0
  O  O1199  1  0.79720000  0.89900000  0.16430000  1.0
  O  O1200  1  0.68980000  0.14670000  0.75020000  1.0
  O  O1201  1  0.61980000  0.12810000  0.79540000  1.0
  O  O1202  1  0.79570000  0.88170000  0.37090000  1.0
  O  O1203  1  0.75180000  0.81150000  0.35260000  1.0
  O  O1204  1  0.37150000  0.70410000  0.61880000  1.0
  O  O1205  1  0.35700000  0.74820000  0.69010000  1.0
  O  O1206  1  0.55500000  0.06420000  0.75860000  1.0
  O  O1207  1  0.75830000  0.94960000  0.43200000  1.0
  O  O1208  1  0.43220000  0.74240000  0.54920000  1.0
  O  O1209  1  0.68900000  0.78700000  0.43100000  1.0
  O  O1210  1  0.42320000  0.81250000  0.71880000  1.0
  O  O1211  1  0.70280000  0.10100000  0.66430000  1.0
  O  O1212  1  0.14670000  0.75020000  0.68980000  1.0
  O  O1213  1  0.12810000  0.79540000  0.61980000  1.0
  O  O1214  1  0.88170000  0.37090000  0.79570000  1.0
  O  O1215  1  0.81150000  0.35260000  0.75180000  1.0
  O  O1216  1  0.70410000  0.61880000  0.37150000  1.0
  O  O1217  1  0.74820000  0.69010000  0.35700000  1.0
  O  O1218  1  0.06420000  0.75860000  0.55500000  1.0
  O  O1219  1  0.94960000  0.43200000  0.75830000  1.0
  O  O1220  1  0.74240000  0.54920000  0.43220000  1.0
  O  O1221  1  0.78700000  0.43100000  0.68900000  1.0
  O  O1222  1  0.81250000  0.71880000  0.42320000  1.0
  O  O1223  1  0.10100000  0.66430000  0.70280000  1.0
  O  O1224  1  0.85330000  0.25020000  0.81020000  1.0
  O  O1225  1  0.87190000  0.29540000  0.88020000  1.0
  O  O1226  1  0.11830000  0.87090000  0.70430000  1.0
  O  O1227  1  0.18850000  0.85260000  0.74820000  1.0
  O  O1228  1  0.29590000  0.11880000  0.12850000  1.0
  O  O1229  1  0.25180000  0.19010000  0.14300000  1.0
  O  O1230  1  0.93580000  0.25860000  0.94500000  1.0
  O  O1231  1  0.05040000  0.93200000  0.74170000  1.0
  O  O1232  1  0.25760000  0.04920000  0.06780000  1.0
  O  O1233  1  0.21300000  0.93100000  0.81100000  1.0
  O  O1234  1  0.18750000  0.21880000  0.07680000  1.0
  O  O1235  1  0.89900000  0.16430000  0.79720000  1.0
  O  O1236  1  0.35330000  0.24980000  0.18980000  1.0
  O  O1237  1  0.37190000  0.20460000  0.11980000  1.0
  O  O1238  1  0.61830000  0.62910000  0.29570000  1.0
  O  O1239  1  0.68850000  0.64740000  0.25180000  1.0
  O  O1240  1  0.79590000  0.38120000  0.87150000  1.0
  O  O1241  1  0.75180000  0.30990000  0.85700000  1.0
  O  O1242  1  0.43580000  0.24140000  0.05500000  1.0
  O  O1243  1  0.55040000  0.56800000  0.25830000  1.0
  O  O1244  1  0.75760000  0.45080000  0.93220000  1.0
  O  O1245  1  0.71300000  0.56900000  0.18900000  1.0
  O  O1246  1  0.68750000  0.28120000  0.92320000  1.0
  O  O1247  1  0.39900000  0.33570000  0.20280000  1.0
  O  O1248  1  0.64670000  0.74980000  0.31020000  1.0
  O  O1249  1  0.62810000  0.70460000  0.38020000  1.0
  O  O1250  1  0.38170000  0.12910000  0.20430000  1.0
  O  O1251  1  0.31150000  0.14740000  0.24820000  1.0
  O  O1252  1  0.20410000  0.88120000  0.62850000  1.0
  O  O1253  1  0.24820000  0.80990000  0.64300000  1.0
  O  O1254  1  0.56420000  0.74140000  0.44500000  1.0
  O  O1255  1  0.44960000  0.06800000  0.24170000  1.0
  O  O1256  1  0.24240000  0.95080000  0.56780000  1.0
  O  O1257  1  0.28700000  0.06900000  0.31100000  1.0
  O  O1258  1  0.31250000  0.78120000  0.57680000  1.0
  O  O1259  1  0.60100000  0.83570000  0.29720000  1.0
  O  O1260  1  0.25020000  0.81020000  0.85330000  1.0
  O  O1261  1  0.29540000  0.88020000  0.87190000  1.0
  O  O1262  1  0.87090000  0.70430000  0.11830000  1.0
  O  O1263  1  0.85260000  0.74820000  0.18850000  1.0
  O  O1264  1  0.11880000  0.12850000  0.29590000  1.0
  O  O1265  1  0.19010000  0.14300000  0.25180000  1.0
  O  O1266  1  0.25860000  0.94500000  0.93580000  1.0
  O  O1267  1  0.93200000  0.74170000  0.05040000  1.0
  O  O1268  1  0.04920000  0.06780000  0.25760000  1.0
  O  O1269  1  0.93100000  0.81100000  0.21300000  1.0
  O  O1270  1  0.21880000  0.07680000  0.18750000  1.0
  O  O1271  1  0.16430000  0.79720000  0.89900000  1.0
  O  O1272  1  0.75020000  0.68980000  0.14670000  1.0
  O  O1273  1  0.79540000  0.61980000  0.12810000  1.0
  O  O1274  1  0.37090000  0.79570000  0.88170000  1.0
  O  O1275  1  0.35260000  0.75180000  0.81150000  1.0
  O  O1276  1  0.61880000  0.37150000  0.70410000  1.0
  O  O1277  1  0.69010000  0.35700000  0.74820000  1.0
  O  O1278  1  0.75860000  0.55500000  0.06420000  1.0
  O  O1279  1  0.43200000  0.75830000  0.94960000  1.0
  O  O1280  1  0.54920000  0.43220000  0.74240000  1.0
  O  O1281  1  0.43100000  0.68900000  0.78700000  1.0
  O  O1282  1  0.71880000  0.42320000  0.81250000  1.0
  O  O1283  1  0.66430000  0.70280000  0.10100000  1.0
  O  O1284  1  0.74980000  0.31020000  0.64670000  1.0
  O  O1285  1  0.70460000  0.38020000  0.62810000  1.0
  O  O1286  1  0.12910000  0.20430000  0.38170000  1.0
  O  O1287  1  0.14740000  0.24820000  0.31150000  1.0
  O  O1288  1  0.88120000  0.62850000  0.20410000  1.0
  O  O1289  1  0.80990000  0.64300000  0.24820000  1.0
  O  O1290  1  0.74140000  0.44500000  0.56420000  1.0
  O  O1291  1  0.06800000  0.24170000  0.44960000  1.0
  O  O1292  1  0.95080000  0.56780000  0.24240000  1.0
  O  O1293  1  0.06900000  0.31100000  0.28700000  1.0
  O  O1294  1  0.78120000  0.57680000  0.31250000  1.0
  O  O1295  1  0.83570000  0.29720000  0.60100000  1.0
  O  O1296  1  0.24980000  0.18980000  0.35330000  1.0
  O  O1297  1  0.20460000  0.11980000  0.37190000  1.0
  O  O1298  1  0.62910000  0.29570000  0.61830000  1.0
  O  O1299  1  0.64740000  0.25180000  0.68850000  1.0
  O  O1300  1  0.38120000  0.87150000  0.79590000  1.0
  O  O1301  1  0.30990000  0.85700000  0.75180000  1.0
  O  O1302  1  0.24140000  0.05500000  0.43580000  1.0
  O  O1303  1  0.56800000  0.25830000  0.55040000  1.0
  O  O1304  1  0.45080000  0.93220000  0.75760000  1.0
  O  O1305  1  0.56900000  0.18900000  0.71300000  1.0
  O  O1306  1  0.28120000  0.92320000  0.68750000  1.0
  O  O1307  1  0.33570000  0.20280000  0.39900000  1.0
  O  O1308  1  0.50320000  0.50320000  0.50320000  1.0
  O  O1309  1  0.99680000  0.49680000  0.00320000  1.0
  O  O1310  1  0.49680000  0.00320000  0.99680000  1.0
  O  O1311  1  0.00320000  0.99680000  0.49680000  1.0
  O  O1312  1  0.25320000  0.75320000  0.74680000  1.0
  O  O1313  1  0.24680000  0.24680000  0.24680000  1.0
  O  O1314  1  0.75320000  0.74680000  0.25320000  1.0
  O  O1315  1  0.74680000  0.25320000  0.75320000  1.0
